# generated using pymatgen
data_Mg32Ti42(Bi17O64)3
_symmetry_space_group_name_H-M   'P 1'
_cell_length_a   15.92966589
_cell_length_b   15.90100580
_cell_length_c   15.90005254
_cell_angle_alpha   89.97026927
_cell_angle_beta   89.98153194
_cell_angle_gamma   90.00972611
_symmetry_Int_Tables_number   1
_chemical_formula_structural   Mg32Ti42(Bi17O64)3
_chemical_formula_sum   'Mg32 Ti42 Bi51 O192'
_cell_volume   4027.44608000
_cell_formula_units_Z   1
loop_
 _symmetry_equiv_pos_site_id
 _symmetry_equiv_pos_as_xyz
  1  'x, y, z'
loop_
 _atom_site_type_symbol
 _atom_site_label
 _atom_site_symmetry_multiplicity
 _atom_site_fract_x
 _atom_site_fract_y
 _atom_site_fract_z
 _atom_site_occupancy
  Mg  Mg0  1  0.12032956  0.62953710  0.37620139  1
  Mg  Mg1  1  0.12787593  0.61956550  0.87482081  1
  Mg  Mg2  1  0.12433475  0.62319991  0.12284258  1
  Mg  Mg3  1  0.62024070  0.13758655  0.37775566  1
  Mg  Mg4  1  0.62160833  0.12990042  0.12468016  1
  Mg  Mg5  1  0.62543016  0.12960541  0.63515881  1
  Mg  Mg6  1  0.12860571  0.88585085  0.86843427  1
  Mg  Mg7  1  0.13366062  0.11441873  0.38597460  1
  Mg  Mg8  1  0.62208752  0.87053598  0.88097849  1
  Mg  Mg9  1  0.87157031  0.38151442  0.62204672  1
  Mg  Mg10  1  0.61756592  0.87440377  0.62930815  1
  Mg  Mg11  1  0.87271070  0.12211031  0.37626839  1
  Mg  Mg12  1  0.11725461  0.37468547  0.12503271  1
  Mg  Mg13  1  0.12165500  0.87712266  0.12121962  1
  Mg  Mg14  1  0.37778227  0.88331417  0.63177410  1
  Mg  Mg15  1  0.37972682  0.61965478  0.62651114  1
  Mg  Mg16  1  0.87702493  0.12608909  0.62316575  1
  Mg  Mg17  1  0.37642805  0.12717148  0.36430782  1
  Mg  Mg18  1  0.38116208  0.87033650  0.11673495  1
  Mg  Mg19  1  0.50522486  -0.00659022  0.75605567  1
  Mg  Mg20  1  0.76413073  0.80862019  0.55104252  1
  Mg  Mg21  1  0.68793231  0.46708704  -0.02016849  1
  Mg  Mg22  1  0.77288904  0.48282421  0.24213734  1
  Mg  Mg23  1  0.28709223  0.03837273  0.50041801  1
  Mg  Mg24  1  0.01414903  0.75142794  -0.06051439  1
  Mg  Mg25  1  0.78498612  0.17992801  0.77769959  1
  Mg  Mg26  1  -0.05427887  0.76734093  0.51045658  1
  Mg  Mg27  1  0.28562501  0.01494193  0.76340065  1
  Mg  Mg28  1  0.52766886  0.24686143  0.23121556  1
  Mg  Mg29  1  0.74374090  0.54064416  0.44561141  1
  Mg  Mg30  1  0.51895941  0.74753841  -0.00422604  1
  Mg  Mg31  1  0.21664181  0.48774737  -0.02538013  1
  Ti  Ti32  1  0.38314951  0.13604228  0.12292213  1
  Ti  Ti33  1  0.37751693  0.64002378  0.36639082  1
  Ti  Ti34  1  0.86505928  0.61603917  0.60904092  1
  Ti  Ti35  1  0.63095458  0.85972059  0.38331240  1
  Ti  Ti36  1  0.62995430  0.61456361  0.11954810  1
  Ti  Ti37  1  0.37976671  0.88416386  0.37555669  1
  Ti  Ti38  1  0.87565616  0.63087064  0.37128550  1
  Ti  Ti39  1  0.11287537  0.37167177  0.86875314  1
  Ti  Ti40  1  0.88046716  0.89016557  0.12649376  1
  Ti  Ti41  1  0.12967613  0.88342938  0.62095009  1
  Ti  Ti42  1  0.86150317  0.87476183  0.36573500  1
  Ti  Ti43  1  0.36299677  0.61941069  0.11830926  1
  Ti  Ti44  1  0.87170558  0.86706018  0.87865277  1
  Ti  Ti45  1  0.62818721  0.38044573  0.13179502  1
  Ti  Ti46  1  0.36301470  0.62833841  0.87335031  1
  Ti  Ti47  1  0.13871767  0.11974060  0.87388928  1
  Ti  Ti48  1  0.86579626  0.13310271  0.13362155  1
  Ti  Ti49  1  0.87002576  0.38273679  0.87116592  1
  Ti  Ti50  1  0.37792010  0.37604818  0.61802570  1
  Ti  Ti51  1  0.14355692  0.87034851  0.38077142  1
  Ti  Ti52  1  0.12283585  0.12018144  0.11808322  1
  Ti  Ti53  1  0.12433635  0.38372090  0.62354517  1
  Ti  Ti54  1  0.64048448  0.63378402  0.88006491  1
  Ti  Ti55  1  0.86671097  0.61845540  0.11352014  1
  Ti  Ti56  1  0.12201137  0.37586542  0.37052556  1
  Ti  Ti57  1  0.62772834  0.36855312  0.61326890  1
  Ti  Ti58  1  0.87886579  0.37608900  0.12063218  1
  Ti  Ti59  1  0.62293806  0.38899331  0.37734304  1
  Ti  Ti60  1  0.37805123  0.12067739  0.64195593  1
  Ti  Ti61  1  0.11768422  0.62958287  0.61627270  1
  Ti  Ti62  1  0.61963424  0.63151625  0.36362180  1
  Ti  Ti63  1  0.37582363  0.13684034  0.88296549  1
  Ti  Ti64  1  0.62582664  0.87564731  0.13403469  1
  Ti  Ti65  1  0.37381839  0.37169582  0.11789280  1
  Ti  Ti66  1  0.61629442  0.12105260  0.87269411  1
  Ti  Ti67  1  0.62934011  0.62649940  0.61201944  1
  Ti  Ti68  1  0.86256275  0.37822612  0.37510480  1
  Ti  Ti69  1  0.37265663  0.36589699  0.36617729  1
  Ti  Ti70  1  0.37712888  0.87979891  0.87077615  1
  Ti  Ti71  1  0.87472929  0.62614631  0.88036280  1
  Ti  Ti72  1  0.36627300  0.37946837  0.86924673  1
  Ti  Ti73  1  0.13070925  0.11799149  0.62119103  1
  Bi  Bi74  1  -0.03523655  -0.03129872  0.52708799  1
  Bi  Bi75  1  0.23122864  0.23275528  0.23779828  1
  Bi  Bi76  1  -0.00407057  0.51141379  0.22719783  1
  Bi  Bi77  1  0.73486302  0.26676820  0.26047969  1
  Bi  Bi78  1  0.22612303  0.26697512  -0.00147328  1
  Bi  Bi79  1  0.74046915  -0.00399351  0.72639756  1
  Bi  Bi80  1  0.23098452  0.76319349  -0.00543537  1
  Bi  Bi81  1  0.75212174  0.77736624  0.01727991  1
  Bi  Bi82  1  0.78396793  0.03008623  -0.02651425  1
  Bi  Bi83  1  0.47618051  0.75474666  0.52245447  1
  Bi  Bi84  1  0.73615974  0.48421769  0.73624265  1
  Bi  Bi85  1  -0.03086354  0.00571125  0.75806844  1
  Bi  Bi86  1  0.00076303  0.22591505  0.28639159  1
  Bi  Bi87  1  0.00016838  0.49200468  0.48786557  1
  Bi  Bi88  1  0.22269415  0.77219163  0.75276143  1
  Bi  Bi89  1  0.27407659  -0.00684218  -0.00000113  1
  Bi  Bi90  1  0.23835570  0.75993161  0.22379985  1
  Bi  Bi91  1  0.51231934  0.00477201  0.26743558  1
  Bi  Bi92  1  0.24386020  0.52138404  0.47980072  1
  Bi  Bi93  1  -0.02354035  0.22911463  -0.00488156  1
  Bi  Bi94  1  0.75479276  0.27621216  -0.02449877  1
  Bi  Bi95  1  0.73233927  0.02955170  0.26329760  1
  Bi  Bi96  1  0.75254964  0.72597460  0.23814449  1
  Bi  Bi97  1  0.75461741  0.23190547  0.50956603  1
  Bi  Bi98  1  0.49525602  0.75264616  0.77390638  1
  Bi  Bi99  1  0.49090027  0.74296649  0.21486678  1
  Bi  Bi100  1  0.00952481  -0.02033342  -0.00569443  1
  Bi  Bi101  1  0.52164919  0.47596194  0.76326290  1
  Bi  Bi102  1  0.28252240  -0.00450976  0.23383384  1
  Bi  Bi103  1  0.53141781  -0.00729752  0.00256280  1
  Bi  Bi104  1  0.74127070  0.00749953  0.48805474  1
  Bi  Bi105  1  0.01446046  0.75291893  0.26990218  1
  Bi  Bi106  1  0.50363588  0.00057533  0.51720290  1
  Bi  Bi107  1  0.24318963  0.24165763  0.48204324  1
  Bi  Bi108  1  0.24467968  0.52839136  0.73858216  1
  Bi  Bi109  1  -0.02560805  0.76306396  0.70479605  1
  Bi  Bi110  1  0.25805336  0.76388951  0.52636126  1
  Bi  Bi111  1  0.24558131  0.26247282  0.72805990  1
  Bi  Bi112  1  0.51677442  0.26263296  0.75203921  1
  Bi  Bi113  1  0.47749065  0.22835999  0.48680543  1
  Bi  Bi114  1  0.01581145  0.51582251  -0.01046937  1
  Bi  Bi115  1  0.48501717  0.48763433  0.23909318  1
  Bi  Bi116  1  0.02069152  -0.00578915  0.28220625  1
  Bi  Bi117  1  0.49367099  0.52589329  -0.01169388  1
  Bi  Bi118  1  -0.02001830  0.50633761  0.74899218  1
  Bi  Bi119  1  0.00158845  0.22731955  0.76560441  1
  Bi  Bi120  1  0.72817245  0.76419798  0.74075034  1
  Bi  Bi121  1  -0.01565494  0.25864804  0.51971096  1
  Bi  Bi122  1  0.23402414  0.48677445  0.23342548  1
  Bi  Bi123  1  0.51941602  0.27675840  -0.01832033  1
  Bi  Bi124  1  0.47952146  0.51054808  0.48296506  1
  O  O125  1  0.15590589  0.13194451  -0.00261256  1
  O  O126  1  0.11393551  0.14415663  0.24284548  1
  O  O127  1  0.17611098  0.10301781  0.50951208  1
  O  O128  1  0.10733957  0.13234898  0.75165938  1
  O  O129  1  0.12722368  0.38224294  -0.00456443  1
  O  O130  1  0.14608558  0.36273265  0.25551550  1
  O  O131  1  0.12419594  0.39402730  0.50197373  1
  O  O132  1  0.13545535  0.36316564  0.75066896  1
  O  O133  1  0.13646361  0.58111856  0.00337301  1
  O  O134  1  0.10055392  0.64665585  0.25130629  1
  O  O135  1  0.12926065  0.60331419  0.50055945  1
  O  O136  1  0.13773117  0.62564989  0.74444608  1
  O  O137  1  0.16391092  0.88425171  -0.00480345  1
  O  O138  1  0.10349098  0.85861964  0.25117435  1
  O  O139  1  0.16084702  0.87673068  0.49823996  1
  O  O140  1  0.10570307  0.85339817  0.73987691  1
  O  O141  1  0.36010433  0.13653997  -0.00017617  1
  O  O142  1  0.39395140  0.09396769  0.24281716  1
  O  O143  1  0.35632923  0.15383984  0.50171717  1
  O  O144  1  0.40302404  0.07944415  0.75079833  1
  O  O145  1  0.39247112  0.35971635  0.00425817  1
  O  O146  1  0.36310336  0.39836269  0.25354857  1
  O  O147  1  0.37868217  0.33876317  0.50347309  1
  O  O148  1  0.36462058  0.38493358  0.75217125  1
  O  O149  1  0.35675028  0.62333989  0.00321754  1
  O  O150  1  0.39716282  0.61290479  0.24891472  1
  O  O151  1  0.39261823  0.62921584  0.49330540  1
  O  O152  1  0.36997424  0.60412183  0.75481568  1
  O  O153  1  0.34008035  0.86708276  -0.00809447  1
  O  O154  1  0.39601151  0.90013009  0.25210384  1
  O  O155  1  0.36182675  0.85059365  0.49042570  1
  O  O156  1  0.41971037  0.89502227  0.75618216  1
  O  O157  1  0.62366293  0.09384243  -0.00027643  1
  O  O158  1  0.60717200  0.11212350  0.25260746  1
  O  O159  1  0.65753843  0.11912580  0.50404871  1
  O  O160  1  0.61629743  0.16200058  0.76160211  1
  O  O161  1  0.58836920  0.39387028  0.01461048  1
  O  O162  1  0.67179996  0.39675999  0.24747860  1
  O  O163  1  0.61903093  0.38979323  0.49657056  1
  O  O164  1  0.61215181  0.36767962  0.74386141  1
  O  O165  1  0.65031040  0.58693480  0.00660901  1
  O  O166  1  0.60941498  0.64805587  0.24875935  1
  O  O167  1  0.64276351  0.59982787  0.50325856  1
  O  O168  1  0.61554793  0.66269031  0.76844566  1
  O  O169  1  0.63416962  0.90047166  0.00457954  1
  O  O170  1  0.60377529  0.86492741  0.25128193  1
  O  O171  1  0.65818217  0.87296416  0.49871672  1
  O  O172  1  0.60706867  0.83560534  0.75753717  1
  O  O173  1  0.85926866  0.14374718  0.00352376  1
  O  O174  1  0.89934963  0.13009890  0.24556271  1
  O  O175  1  0.84190099  0.11433224  0.49999860  1
  O  O176  1  0.90205658  0.13322175  0.74994836  1
  O  O177  1  0.89177675  0.37256889  0.00199220  1
  O  O178  1  0.84860730  0.36981683  0.25330427  1
  O  O179  1  0.89691349  0.39101029  0.49257929  1
  O  O180  1  0.87387539  0.40209205  0.75256770  1
  O  O181  1  0.84965090  0.61282015  0.00205314  1
  O  O182  1  0.88056312  0.64240167  0.25518398  1
  O  O183  1  0.84441443  0.60270994  0.49711819  1
  O  O184  1  0.90535982  0.62890693  0.75718054  1
  O  O185  1  0.85045782  0.88275184  0.00321840  1
  O  O186  1  0.88836008  0.87240686  0.24703411  1
  O  O187  1  0.86200769  0.87425893  0.49392273  1
  O  O188  1  0.90651507  0.87405692  0.76404686  1
  O  O189  1  0.00391113  0.13702282  0.09556164  1
  O  O190  1  0.00431077  0.10947517  0.37186458  1
  O  O191  1  0.01399184  0.13634814  0.59628701  1
  O  O192  1  0.01335661  0.15522745  0.88606384  1
  O  O193  1  -0.00895732  0.38500976  0.14655804  1
  O  O194  1  0.00689811  0.40609632  0.36626077  1
  O  O195  1  0.01070945  0.34833654  0.62773382  1
  O  O196  1  -0.00217102  0.34472725  0.86817015  1
  O  O197  1  -0.01332940  0.60605260  0.11423956  1
  O  O198  1  -0.01374533  0.59259790  0.38663602  1
  O  O199  1  -0.00001397  0.65261390  0.60129220  1
  O  O200  1  0.00016496  0.63204017  0.91142104  1
  O  O201  1  -0.00823202  0.87161938  0.09739853  1
  O  O202  1  -0.01237732  0.90792074  0.38628151  1
  O  O203  1  0.01078763  0.84862862  0.58645477  1
  O  O204  1  0.00367385  0.87001774  0.91064492  1
  O  O205  1  0.25067464  0.11707329  0.15111826  1
  O  O206  1  0.25254820  0.15869104  0.36404030  1
  O  O207  1  0.25788804  0.09724926  0.66367710  1
  O  O208  1  0.25514044  0.09812622  0.85324819  1
  O  O209  1  0.26043824  0.40817008  0.11041722  1
  O  O210  1  0.25786984  0.34906371  0.38237091  1
  O  O211  1  0.25210791  0.37157204  0.62830463  1
  O  O212  1  0.25340956  0.39626260  0.89344379  1
  O  O213  1  0.25390048  0.60682574  0.14773449  1
  O  O214  1  0.26061755  0.63306937  0.38414061  1
  O  O215  1  0.24955555  0.60305747  0.61753906  1
  O  O216  1  0.25201854  0.58242550  0.87475868  1
  O  O217  1  0.25238243  0.87912350  0.15435164  1
  O  O218  1  0.25234298  0.85097322  0.34912127  1
  O  O219  1  0.24945155  0.86801777  0.63949920  1
  O  O220  1  0.25883514  0.89759434  0.82419712  1
  O  O221  1  0.49395764  0.16130578  0.12495307  1
  O  O222  1  0.49843160  0.10800289  0.40750968  1
  O  O223  1  0.49610810  0.12996803  0.60302238  1
  O  O224  1  0.49308772  0.15496794  0.88325483  1
  O  O225  1  0.49850736  0.35974585  0.16848946  1
  O  O226  1  0.50647807  0.40404295  0.37093837  1
  O  O227  1  0.49840569  0.36027352  0.63095808  1
  O  O228  1  0.49075742  0.34451655  0.86536141  1
  O  O229  1  0.51022563  0.65541690  0.09911192  1
  O  O230  1  0.50451348  0.60076916  0.37763751  1
  O  O231  1  0.51470353  0.65160769  0.61893109  1
  O  O232  1  0.48916623  0.64704570  0.90241392  1
  O  O233  1  0.50659461  0.83388808  0.10018040  1
  O  O234  1  0.49951633  0.90106630  0.39700756  1
  O  O235  1  0.49971620  0.87092864  0.59691062  1
  O  O236  1  0.48850244  0.83229536  0.89684619  1
  O  O237  1  0.75123613  0.11826204  0.14410715  1
  O  O238  1  0.74780230  0.13879309  0.34526010  1
  O  O239  1  0.75344526  0.11991044  0.66505305  1
  O  O240  1  0.73572896  0.09847060  0.86141779  1
  O  O241  1  0.73636145  0.39822075  0.08668752  1
  O  O242  1  0.75164974  0.34392453  0.39297525  1
  O  O243  1  0.74364859  0.40142233  0.62764098  1
  O  O244  1  0.75663127  0.40143579  0.90122158  1
  O  O245  1  0.74442073  0.60292281  0.16278922  1
  O  O246  1  0.74482971  0.64543412  0.36341212  1
  O  O247  1  0.75706023  0.59672295  0.65307860  1
  O  O248  1  0.75519230  0.62325055  0.85863862  1
  O  O249  1  0.74462331  0.88052433  0.13400818  1
  O  O250  1  0.74755367  0.84318097  0.35427368  1
  O  O251  1  0.74344699  0.87801858  0.65396625  1
  O  O252  1  0.75476209  0.86896929  0.85706442  1
  O  O253  1  0.11345086  0.00573280  0.12209582  1
  O  O254  1  0.13875701  -0.00933779  0.35285742  1
  O  O255  1  0.10289727  -0.00626053  0.63088686  1
  O  O256  1  0.10397130  0.00889788  0.88213558  1
  O  O257  1  0.14579522  0.25170877  0.11443410  1
  O  O258  1  0.10476293  0.25594828  0.39293092  1
  O  O259  1  0.15284312  0.23764219  0.61959947  1
  O  O260  1  0.15242955  0.25155696  0.87991634  1
  O  O261  1  0.11684165  0.49842183  0.15960173  1
  O  O262  1  0.15690182  0.49606120  0.36682000  1
  O  O263  1  0.10765764  0.49679771  0.63991190  1
  O  O264  1  0.09619593  0.48946389  0.86639840  1
  O  O265  1  0.14827552  0.74852130  0.10892635  1
  O  O266  1  0.09468805  0.75852700  0.38527614  1
  O  O267  1  0.14544132  0.74384338  0.61880559  1
  O  O268  1  0.13641276  0.74918522  0.88836890  1
  O  O269  1  0.36787948  0.00296372  0.10758946  1
  O  O270  1  0.34501414  -0.00370042  0.39391514  1
  O  O271  1  0.37757088  0.00536562  0.58304333  1
  O  O272  1  0.38344086  -0.00544074  0.89892302  1
  O  O273  1  0.35006563  0.25400222  0.13837716  1
  O  O274  1  0.41695145  0.25514150  0.35346390  1
  O  O275  1  0.36696457  0.23882919  0.65506872  1
  O  O276  1  0.34824838  0.24590928  0.86182784  1
  O  O277  1  0.40766942  0.50163781  0.11815137  1
  O  O278  1  0.36942503  0.48986744  0.40105179  1
  O  O279  1  0.38665731  0.48918934  0.60107870  1
  O  O280  1  0.40366516  0.49324085  0.88657694  1
  O  O281  1  0.36149377  0.74243064  0.14412711  1
  O  O282  1  0.39685143  0.75136705  0.35397084  1
  O  O283  1  0.37143236  0.74886651  0.61993925  1
  O  O284  1  0.34315727  0.74376733  0.85778095  1
  O  O285  1  0.58402546  -0.00952482  0.13776067  1
  O  O286  1  0.64947658  -0.00862943  0.37483902  1
  O  O287  1  0.60996353  0.00031064  0.67027825  1
  O  O288  1  0.57953370  0.00182342  0.85966827  1
  O  O289  1  0.63257701  0.26137053  0.14679779  1
  O  O290  1  0.60948819  0.26659612  0.33703963  1
  O  O291  1  0.64423863  0.25674960  0.60642058  1
  O  O292  1  0.63784340  0.24038493  0.91238734  1
  O  O293  1  0.59428269  0.50516098  0.14296458  1
  O  O294  1  0.65048447  0.50505338  0.36680816  1
  O  O295  1  0.61408366  0.51036094  0.66275557  1
  O  O296  1  0.60367206  0.51337204  0.86993516  1
  O  O297  1  0.65464966  0.74452244  0.11647962  1
  O  O298  1  0.60115068  0.74687990  0.38920184  1
  O  O299  1  0.66942713  0.73981979  0.61373313  1
  O  O300  1  0.62959235  0.74132778  0.92693829  1
  O  O301  1  0.88142494  0.00614936  0.11666567  1
  O  O302  1  0.83499393  -0.00774887  0.36961046  1
  O  O303  1  0.89104107  -0.00063523  0.64371349  1
  O  O304  1  0.89113737  -0.00599922  0.88554093  1
  O  O305  1  0.86396538  0.25547445  0.12564148  1
  O  O306  1  0.89991841  0.25477939  0.38548701  1
  O  O307  1  0.86713890  0.25364322  0.59957657  1
  O  O308  1  0.83572828  0.26471888  0.85964679  1
  O  O309  1  0.86638441  0.49701699  0.15091116  1
  O  O310  1  0.83437625  0.49795339  0.36031580  1
  O  O311  1  0.91095227  0.50711461  0.62495066  1
  O  O312  1  0.90154679  0.50477587  0.87556764  1
  O  O313  1  0.84694778  0.74112339  0.12006189  1
  O  O314  1  0.90083923  0.74643942  0.39331459  1
  O  O315  1  0.86394727  0.74093175  0.60922864  1
  O  O316  1  0.88744560  0.74816238  0.89343373  1
