# generated using pymatgen
data_Mg32Ti42(Bi17O64)3
_symmetry_space_group_name_H-M   'P 1'
_cell_length_a   15.97411979
_cell_length_b   15.99046873
_cell_length_c   15.95951308
_cell_angle_alpha   90.10553410
_cell_angle_beta   90.08152681
_cell_angle_gamma   90.03747559
_symmetry_Int_Tables_number   1
_chemical_formula_structural   Mg32Ti42(Bi17O64)3
_chemical_formula_sum   'Mg32 Ti42 Bi51 O192'
_cell_volume   4076.58496525
_cell_formula_units_Z   1
loop_
 _symmetry_equiv_pos_site_id
 _symmetry_equiv_pos_as_xyz
  1  'x, y, z'
loop_
 _atom_site_type_symbol
 _atom_site_label
 _atom_site_symmetry_multiplicity
 _atom_site_fract_x
 _atom_site_fract_y
 _atom_site_fract_z
 _atom_site_occupancy
  Mg  Mg0  1  0.12310133  0.63884675  0.62391913  1
  Mg  Mg1  1  0.61519167  0.11317159  0.88253170  1
  Mg  Mg2  1  0.12003398  0.37722120  0.13291776  1
  Mg  Mg3  1  0.37802609  0.86468671  0.63453129  1
  Mg  Mg4  1  0.11988700  0.87360957  0.38015963  1
  Mg  Mg5  1  0.62154891  0.62758130  0.62444294  1
  Mg  Mg6  1  0.12822070  0.36629010  0.86687296  1
  Mg  Mg7  1  0.87943182  0.12033587  0.87471347  1
  Mg  Mg8  1  0.62275028  0.62337090  0.88266226  1
  Mg  Mg9  1  0.37562208  0.61765384  0.37137228  1
  Mg  Mg10  1  0.86827391  0.62618420  0.62295475  1
  Mg  Mg11  1  0.37252332  0.12731184  0.62275886  1
  Mg  Mg12  1  0.37639245  0.61110812  0.87958112  1
  Mg  Mg13  1  0.87626477  0.62498360  0.87835246  1
  Mg  Mg14  1  0.13138429  0.87163691  0.12191539  1
  Mg  Mg15  1  0.38729908  0.86622328  0.11518100  1
  Mg  Mg16  1  0.87057796  0.37507327  0.37369736  1
  Mg  Mg17  1  0.62939573  0.37420600  0.12239582  1
  Mg  Mg18  1  0.62312936  0.36833032  0.63019181  1
  Mg  Mg19  1  0.69624731  -0.00007550  0.52450820  1
  Mg  Mg20  1  0.04069940  0.80525560  0.74818957  1
  Mg  Mg21  1  0.73085415  0.49392888  0.55791840  1
  Mg  Mg22  1  0.54410269  0.01098981  0.42924165  1
  Mg  Mg23  1  0.74763742  0.20653100  0.80216734  1
  Mg  Mg24  1  0.30063250  0.19371200  0.00285976  1
  Mg  Mg25  1  -0.00488631  0.57955156  0.75476013  1
  Mg  Mg26  1  0.48023157  0.05073893  0.05980964  1
  Mg  Mg27  1  0.04551695  -0.04050936  0.24227751  1
  Mg  Mg28  1  0.24577152  0.26544515  0.51614859  1
  Mg  Mg29  1  0.49842945  -0.00367555  0.65404179  1
  Mg  Mg30  1  0.22920215  0.42908657  -0.00016680  1
  Mg  Mg31  1  0.73783000  0.23677337  0.30958343  1
  Ti  Ti32  1  0.87896871  0.37030726  0.86821084  1
  Ti  Ti33  1  0.88416526  0.13090161  0.37363113  1
  Ti  Ti34  1  0.39087836  0.87831644  0.87539676  1
  Ti  Ti35  1  0.88078183  0.87799930  0.87261420  1
  Ti  Ti36  1  0.12645231  0.37603601  0.37481708  1
  Ti  Ti37  1  0.37415462  0.37683335  0.11499836  1
  Ti  Ti38  1  0.63470848  0.37905620  0.37756809  1
  Ti  Ti39  1  0.62810184  0.87107030  0.63185665  1
  Ti  Ti40  1  0.85952051  0.36815096  0.62218699  1
  Ti  Ti41  1  0.13338641  0.13271045  0.62129066  1
  Ti  Ti42  1  0.12325816  0.12110262  0.13569650  1
  Ti  Ti43  1  0.86780100  0.11886303  0.64210211  1
  Ti  Ti44  1  0.62376531  0.62416609  0.13523163  1
  Ti  Ti45  1  0.36723967  0.36980439  0.87511587  1
  Ti  Ti46  1  0.62378080  0.87525807  0.89417793  1
  Ti  Ti47  1  0.37352601  0.62824432  0.61965209  1
  Ti  Ti48  1  0.61461202  0.62635214  0.36974567  1
  Ti  Ti49  1  0.87028709  0.36365615  0.12662748  1
  Ti  Ti50  1  0.12399268  0.61974593  0.12134862  1
  Ti  Ti51  1  0.13022008  0.88923956  0.88201366  1
  Ti  Ti52  1  0.13045058  0.13409935  0.37708697  1
  Ti  Ti53  1  0.62920821  0.12108055  0.11886393  1
  Ti  Ti54  1  0.64043027  0.87398192  0.36700977  1
  Ti  Ti55  1  0.88200025  0.12137071  0.13173411  1
  Ti  Ti56  1  0.86179342  0.88400538  0.63183564  1
  Ti  Ti57  1  0.37445914  0.37351161  0.61159213  1
  Ti  Ti58  1  0.36515211  0.61693683  0.12210745  1
  Ti  Ti59  1  0.88848341  0.62672579  0.12578370  1
  Ti  Ti60  1  0.87590658  0.88739150  0.37711653  1
  Ti  Ti61  1  0.12985400  0.12709980  0.88959319  1
  Ti  Ti62  1  0.86727155  0.87439104  0.13627869  1
  Ti  Ti63  1  0.87774449  0.62429695  0.37750601  1
  Ti  Ti64  1  0.62226932  0.36881522  0.87467468  1
  Ti  Ti65  1  0.13516356  0.60633435  0.88075645  1
  Ti  Ti66  1  0.39152015  0.12642701  0.86853477  1
  Ti  Ti67  1  0.63380259  0.87196138  0.12596927  1
  Ti  Ti68  1  0.13418426  0.87478289  0.62012687  1
  Ti  Ti69  1  0.35912289  0.13409344  0.38143615  1
  Ti  Ti70  1  0.12313568  0.37298443  0.62947478  1
  Ti  Ti71  1  0.62868913  0.12587929  0.63794189  1
  Ti  Ti72  1  0.11776349  0.62245702  0.38566270  1
  Ti  Ti73  1  0.38187160  0.36553174  0.37596905  1
  Bi  Bi74  1  0.23036292  0.50743751  0.71931264  1
  Bi  Bi75  1  0.52441512  0.50360801  0.74977543  1
  Bi  Bi76  1  0.75022847  0.75306577  0.79197358  1
  Bi  Bi77  1  0.75691489  0.48486904  -0.01803122  1
  Bi  Bi78  1  0.26894460  -0.03964399  0.27411962  1
  Bi  Bi79  1  0.73898037  0.03861902  0.28501577  1
  Bi  Bi80  1  -0.00916924  0.75503490  0.27316857  1
  Bi  Bi81  1  0.51484600  0.73518762  0.77037318  1
  Bi  Bi82  1  0.22369357  0.73620166  0.25542400  1
  Bi  Bi83  1  0.74723222  0.23790606  -0.00244399  1
  Bi  Bi84  1  -0.01809808  0.77216582  0.52540243  1
  Bi  Bi85  1  0.02248297  0.25893148  0.01659332  1
  Bi  Bi86  1  0.46763998  0.74229046  0.26367350  1
  Bi  Bi87  1  0.47999578  -0.02896999  0.24048392  1
  Bi  Bi88  1  0.26584597  0.46923030  0.24929160  1
  Bi  Bi89  1  0.74397288  0.73507443  0.51715455  1
  Bi  Bi90  1  0.49728481  0.71770584  0.01015612  1
  Bi  Bi91  1  0.75793895  0.71935090  0.01500455  1
  Bi  Bi92  1  0.74934910  0.49133045  0.24702835  1
  Bi  Bi93  1  -0.01470795  0.48974081  0.25563791  1
  Bi  Bi94  1  -0.01008025  0.51371471  0.53283640  1
  Bi  Bi95  1  0.28267116  -0.00271827  0.75092612  1
  Bi  Bi96  1  0.29137148  -0.00870606  0.02063092  1
  Bi  Bi97  1  0.50372734  0.24139146  0.02374069  1
  Bi  Bi98  1  0.29564679  0.76899667  0.47750625  1
  Bi  Bi99  1  0.01750034  0.47594714  -0.00513153  1
  Bi  Bi100  1  0.77539260  0.22552319  0.50702265  1
  Bi  Bi101  1  0.49615427  0.47984929  -0.01962913  1
  Bi  Bi102  1  0.53099840  0.22150206  0.26632426  1
  Bi  Bi103  1  0.75542882  0.74498618  0.26458333  1
  Bi  Bi104  1  0.29286738  -0.02208633  0.49522414  1
  Bi  Bi105  1  0.27255593  0.73703658  0.77556990  1
  Bi  Bi106  1  0.00907959  0.73706721  -0.04075454  1
  Bi  Bi107  1  0.51386042  0.47383196  0.25261872  1
  Bi  Bi108  1  0.00472263  0.25148875  0.25425703  1
  Bi  Bi109  1  0.51656666  0.20002525  0.48165398  1
  Bi  Bi110  1  0.02547668  0.00879212  0.49217368  1
  Bi  Bi111  1  0.50027850  0.24377345  0.72888183  1
  Bi  Bi112  1  0.25140533  0.75111828  0.01880028  1
  Bi  Bi113  1  0.27130709  0.22328039  0.21042396  1
  Bi  Bi114  1  0.26748285  0.25430208  0.73649190  1
  Bi  Bi115  1  0.00295223  0.28046559  0.49279536  1
  Bi  Bi116  1  0.50977926  0.79218881  0.49637281  1
  Bi  Bi117  1  0.78047386  0.01244126  -0.00317068  1
  Bi  Bi118  1  -0.00054644  -0.01884439  0.03227383  1
  Bi  Bi119  1  0.25860044  0.51527627  0.47755317  1
  Bi  Bi120  1  0.52369902  0.50086950  0.52076371  1
  Bi  Bi121  1  0.73442889  -0.00525882  0.76289060  1
  Bi  Bi122  1  0.78687274  0.49899609  0.75788518  1
  Bi  Bi123  1  0.00729866  0.23966662  0.75597859  1
  Bi  Bi124  1  0.03005433  0.01384670  0.74985965  1
  O  O125  1  0.09660524  0.13504528  0.00229979  1
  O  O126  1  0.15363692  0.13232970  0.25268197  1
  O  O127  1  0.09470935  0.13597509  0.50019077  1
  O  O128  1  0.14221631  0.09985719  0.73695054  1
  O  O129  1  0.11999861  0.35966918  -0.00160148  1
  O  O130  1  0.09086951  0.38027485  0.25691162  1
  O  O131  1  0.13815320  0.33673123  0.49710209  1
  O  O132  1  0.12564929  0.39070948  0.74296108  1
  O  O133  1  0.11863699  0.65437491  -0.00506106  1
  O  O134  1  0.15355853  0.61484997  0.23660603  1
  O  O135  1  0.10027540  0.63324256  0.49569113  1
  O  O136  1  0.12164455  0.59282410  0.75995370  1
  O  O137  1  0.09265636  0.87226034  -0.00610002  1
  O  O138  1  0.15072710  0.88248806  0.25160448  1
  O  O139  1  0.08722580  0.87490566  0.50412385  1
  O  O140  1  0.12994912  0.90003469  0.74187332  1
  O  O141  1  0.39447186  0.10807968  -0.01292775  1
  O  O142  1  0.34859050  0.12911071  0.26235615  1
  O  O143  1  0.39700480  0.12782561  0.49928092  1
  O  O144  1  0.34066965  0.13236323  0.75443871  1
  O  O145  1  0.35942909  0.41194979  0.00421464  1
  O  O146  1  0.37245005  0.37341924  0.24914424  1
  O  O147  1  0.34477908  0.35865657  0.49544677  1
  O  O148  1  0.37194493  0.35406070  0.75806258  1
  O  O149  1  0.40903865  0.60798830  0.00811373  1
  O  O150  1  0.35943669  0.65597927  0.24224165  1
  O  O151  1  0.36299876  0.60395231  0.50196147  1
  O  O152  1  0.38004059  0.65319221  0.74937555  1
  O  O153  1  0.39379898  0.90294290  -0.01084770  1
  O  O154  1  0.36905903  0.87180719  0.24597178  1
  O  O155  1  0.38333565  0.87801468  0.50466448  1
  O  O156  1  0.34446712  0.86390524  0.75580976  1
  O  O157  1  0.58078500  0.11155448  0.00513925  1
  O  O158  1  0.65485020  0.16397845  0.23586720  1
  O  O159  1  0.58953061  0.08993365  0.51751796  1
  O  O160  1  0.65927717  0.13093817  0.75137036  1
  O  O161  1  0.64611045  0.40265621  -0.00304004  1
  O  O162  1  0.59525856  0.36180504  0.24934296  1
  O  O163  1  0.64636882  0.41551306  0.48749521  1
  O  O164  1  0.59428311  0.37465188  0.75751232  1
  O  O165  1  0.61086287  0.63024390  0.01277446  1
  O  O166  1  0.64824511  0.64846127  0.25145243  1
  O  O167  1  0.61325062  0.60523535  0.48352627  1
  O  O168  1  0.60377515  0.62535179  0.75045462  1
  O  O169  1  0.60791210  0.87889090  0.00553110  1
  O  O170  1  0.65521818  0.87624670  0.25298181  1
  O  O171  1  0.59809964  0.89847914  0.50229109  1
  O  O172  1  0.65880310  0.86133268  0.74256491  1
  O  O173  1  0.89009730  0.10432406  0.00134136  1
  O  O174  1  0.84587233  0.12778849  0.24261628  1
  O  O175  1  0.88599642  0.13982622  0.49382935  1
  O  O176  1  0.83291440  0.12418367  0.74989825  1
  O  O177  1  0.84937988  0.38271893  -0.00071679  1
  O  O178  1  0.90819236  0.37086514  0.24164587  1
  O  O179  1  0.86116785  0.34692571  0.50121585  1
  O  O180  1  0.87944476  0.38917064  0.74690226  1
  O  O181  1  0.88308697  0.63516323  0.00721057  1
  O  O182  1  0.86968429  0.65790245  0.24559766  1
  O  O183  1  0.89983222  0.61673606  0.48921868  1
  O  O184  1  0.87302448  0.60918192  0.74885722  1
  O  O185  1  0.89672262  0.89178281  -0.00886545  1
  O  O186  1  0.86058847  0.85828264  0.24910328  1
  O  O187  1  0.90431115  0.88445903  0.49134388  1
  O  O188  1  0.83591926  0.87221974  0.74377175  1
  O  O189  1  -0.00470533  0.12681397  0.15156766  1
  O  O190  1  -0.00288626  0.12294868  0.34975889  1
  O  O191  1  -0.01569971  0.13247537  0.65798903  1
  O  O192  1  -0.00127264  0.12742094  0.83743415  1
  O  O193  1  -0.01001583  0.37968844  0.09467651  1
  O  O194  1  -0.00088864  0.38514785  0.40215416  1
  O  O195  1  0.00129402  0.37451411  0.60380552  1
  O  O196  1  -0.00740913  0.36932267  0.88878866  1
  O  O197  1  0.00653220  0.64071078  0.13461799  1
  O  O198  1  0.00401297  0.61649034  0.34154552  1
  O  O199  1  -0.00042668  0.60407339  0.63360952  1
  O  O200  1  0.00685278  0.62110135  0.87475220  1
  O  O201  1  -0.00428155  0.88821227  0.14184928  1
  O  O202  1  -0.00324830  0.89001021  0.33721185  1
  O  O203  1  -0.02067021  0.85740626  0.64499117  1
  O  O204  1  -0.01035895  0.88573149  0.83627650  1
  O  O205  1  0.23567204  0.14201534  0.10244841  1
  O  O206  1  0.24422895  0.16262294  0.40925658  1
  O  O207  1  0.24224655  0.16091296  0.60091550  1
  O  O208  1  0.24162504  0.12572321  0.90710834  1
  O  O209  1  0.24623492  0.39040529  0.12890790  1
  O  O210  1  0.24035154  0.36305621  0.34959143  1
  O  O211  1  0.24551134  0.34109384  0.62648815  1
  O  O212  1  0.25466332  0.38183889  0.88119408  1
  O  O213  1  0.25416098  0.61790855  0.09387827  1
  O  O214  1  0.24072843  0.62919339  0.38958698  1
  O  O215  1  0.24863747  0.62338418  0.64388580  1
  O  O216  1  0.25017777  0.62830164  0.87236950  1
  O  O217  1  0.25490948  0.87764606  0.09030948  1
  O  O218  1  0.24614350  0.88533864  0.39723267  1
  O  O219  1  0.24420209  0.87417142  0.59751662  1
  O  O220  1  0.24068070  0.89827540  0.89744769  1
  O  O221  1  0.50781357  0.15397458  0.14285835  1
  O  O222  1  0.50198010  0.11668354  0.36647594  1
  O  O223  1  0.50367589  0.12044806  0.66139704  1
  O  O224  1  0.49871330  0.14680031  0.84326126  1
  O  O225  1  0.49301264  0.36981880  0.10542707  1
  O  O226  1  0.49425040  0.39687944  0.38219127  1
  O  O227  1  0.48991168  0.38325741  0.60598870  1
  O  O228  1  0.50468478  0.35488543  0.91093876  1
  O  O229  1  0.50567633  0.65179056  0.14516226  1
  O  O230  1  0.50216377  0.61535139  0.34105336  1
  O  O231  1  0.48862297  0.60409137  0.61846489  1
  O  O232  1  0.49412789  0.65767116  0.87935201  1
  O  O233  1  0.51152460  0.86463694  0.15733996  1
  O  O234  1  0.52130685  0.90393788  0.35953016  1
  O  O235  1  0.50646312  0.87177658  0.64422780  1
  O  O236  1  0.50213728  0.86077484  0.85780585  1
  O  O237  1  0.74650950  0.12162904  0.09072725  1
  O  O238  1  0.75527534  0.13327756  0.37937843  1
  O  O239  1  0.74278288  0.10888631  0.58932296  1
  O  O240  1  0.74402567  0.12576804  0.91030573  1
  O  O241  1  0.75681010  0.38973172  0.14762391  1
  O  O242  1  0.74568683  0.37278001  0.33566480  1
  O  O243  1  0.74737106  0.38846657  0.63354581  1
  O  O244  1  0.74167094  0.40514162  0.86306236  1
  O  O245  1  0.75199521  0.61902362  0.11105316  1
  O  O246  1  0.76049146  0.64896351  0.37744255  1
  O  O247  1  0.74522131  0.61657506  0.59471764  1
  O  O248  1  0.74847534  0.63434892  0.88942746  1
  O  O249  1  0.75055934  0.89689933  0.11022966  1
  O  O250  1  0.76142233  0.84200629  0.38473887  1
  O  O251  1  0.74461089  0.88892384  0.58505755  1
  O  O252  1  0.74677411  0.85308057  0.89130514  1
  O  O253  1  0.11258946  0.00552000  0.13677898  1
  O  O254  1  0.12114650  0.01363204  0.38478969  1
  O  O255  1  0.10836718  0.00547939  0.60433736  1
  O  O256  1  0.10415521  0.00691732  0.87705988  1
  O  O257  1  0.09797211  0.24992430  0.13560543  1
  O  O258  1  0.09518594  0.25078982  0.36424809  1
  O  O259  1  0.10448057  0.24507972  0.65042740  1
  O  O260  1  0.11894266  0.24001882  0.84710638  1
  O  O261  1  0.11130484  0.50491086  0.09886918  1
  O  O262  1  0.13507583  0.49683815  0.38684413  1
  O  O263  1  0.14514306  0.48774506  0.60697768  1
  O  O264  1  0.13741931  0.49760090  0.91505332  1
  O  O265  1  0.15429125  0.74673309  0.13242561  1
  O  O266  1  0.11520366  0.74403733  0.35310493  1
  O  O267  1  0.11342593  0.76237950  0.64683764  1
  O  O268  1  0.10710425  0.76712187  0.85531746  1
  O  O269  1  0.38794123  -0.00388354  0.12483702  1
  O  O270  1  0.35832262  0.01448928  0.37865619  1
  O  O271  1  0.37165639  -0.00089341  0.64083257  1
  O  O272  1  0.38023331  0.00273174  0.84785421  1
  O  O273  1  0.35663339  0.26149730  0.09712468  1
  O  O274  1  0.39938580  0.25146018  0.37327367  1
  O  O275  1  0.38416580  0.25128187  0.64087283  1
  O  O276  1  0.36495595  0.24691687  0.89891178  1
  O  O277  1  0.37709666  0.50506225  0.15488285  1
  O  O278  1  0.34832471  0.49187707  0.36986116  1
  O  O279  1  0.34987289  0.48651707  0.63155481  1
  O  O280  1  0.41084096  0.48824674  0.86492746  1
  O  O281  1  0.36891988  0.74446059  0.09362488  1
  O  O282  1  0.39709093  0.74252511  0.39075640  1
  O  O283  1  0.37477310  0.74217194  0.59917001  1
  O  O284  1  0.35094662  0.76438079  0.88884074  1
  O  O285  1  0.59941413  0.00964754  0.13984878  1
  O  O286  1  0.66708136  -0.01184574  0.39543560  1
  O  O287  1  0.62513756  -0.00330531  0.64637876  1
  O  O288  1  0.63635121  -0.01197692  0.86338154  1
  O  O289  1  0.63183669  0.25195059  0.08164221  1
  O  O290  1  0.62724691  0.26281126  0.38661271  1
  O  O291  1  0.61099729  0.24236962  0.62127590  1
  O  O292  1  0.65472218  0.25676399  0.88078279  1
  O  O293  1  0.61825317  0.50835416  0.15404071  1
  O  O294  1  0.63050013  0.50420266  0.33639847  1
  O  O295  1  0.61599010  0.49807994  0.62548644  1
  O  O296  1  0.59314838  0.50042471  0.87089640  1
  O  O297  1  0.64989076  0.75819204  0.12157267  1
  O  O298  1  0.60776082  0.75345345  0.38948602  1
  O  O299  1  0.62550865  0.75330146  0.59870182  1
  O  O300  1  0.62449365  0.75353980  0.86294741  1
  O  O301  1  0.87814091  0.00136889  0.12277403  1
  O  O302  1  0.85713280  0.00106399  0.36317497  1
  O  O303  1  0.87648154  0.00093207  0.63024165  1
  O  O304  1  0.84621261  -0.00576694  0.86512431  1
  O  O305  1  0.87409449  0.24917052  0.11332226  1
  O  O306  1  0.86844172  0.24720518  0.35895127  1
  O  O307  1  0.85094462  0.24428860  0.62798124  1
  O  O308  1  0.85113511  0.25637126  0.86254306  1
  O  O309  1  0.88841246  0.51160594  0.14637651  1
  O  O310  1  0.87087804  0.50628005  0.34430694  1
  O  O311  1  0.86698235  0.48963113  0.59913420  1
  O  O312  1  0.86783892  0.49716991  0.87544636  1
  O  O313  1  0.86148162  0.76024583  0.11087322  1
  O  O314  1  0.91106567  0.75091871  0.38429563  1
  O  O315  1  0.85589639  0.75528498  0.59964509  1
  O  O316  1  0.88153444  0.75638691  0.87037088  1
