# generated using pymatgen
data_Mg32Ti42(Bi17O64)3
_symmetry_space_group_name_H-M   'P 1'
_cell_length_a   15.97243752
_cell_length_b   15.95662735
_cell_length_c   16.01291653
_cell_angle_alpha   89.94580169
_cell_angle_beta   89.94873014
_cell_angle_gamma   90.22199739
_symmetry_Int_Tables_number   1
_chemical_formula_structural   Mg32Ti42(Bi17O64)3
_chemical_formula_sum   'Mg32 Ti42 Bi51 O192'
_cell_volume   4081.11761227
_cell_formula_units_Z   1
loop_
 _symmetry_equiv_pos_site_id
 _symmetry_equiv_pos_as_xyz
  1  'x, y, z'
loop_
 _atom_site_type_symbol
 _atom_site_label
 _atom_site_symmetry_multiplicity
 _atom_site_fract_x
 _atom_site_fract_y
 _atom_site_fract_z
 _atom_site_occupancy
  Mg  Mg0  1  0.38124582  0.37137598  0.62439520  1
  Mg  Mg1  1  0.62424446  0.88231545  0.62506637  1
  Mg  Mg2  1  0.62532206  0.63167555  0.37809402  1
  Mg  Mg3  1  0.85434856  0.36398720  0.88472040  1
  Mg  Mg4  1  0.12858863  0.61874487  0.62291458  1
  Mg  Mg5  1  0.37553508  0.62513128  0.12308171  1
  Mg  Mg6  1  0.86563388  0.37829720  0.38412081  1
  Mg  Mg7  1  0.13233745  0.38058130  0.37035510  1
  Mg  Mg8  1  0.11555741  0.62942208  0.13236621  1
  Mg  Mg9  1  0.11801519  0.13203280  0.12035652  1
  Mg  Mg10  1  0.61947116  0.12106646  0.38106149  1
  Mg  Mg11  1  0.87873653  0.87642779  0.38735629  1
  Mg  Mg12  1  0.62877097  0.12619507  0.87598433  1
  Mg  Mg13  1  0.12767916  0.13069017  0.36973831  1
  Mg  Mg14  1  0.63586263  0.87924811  0.88476849  1
  Mg  Mg15  1  0.87001164  0.11579120  0.37756971  1
  Mg  Mg16  1  0.37046725  0.87361790  0.88110920  1
  Mg  Mg17  1  0.87662433  0.62735006  0.61896669  1
  Mg  Mg18  1  0.12185519  0.62645963  0.87818624  1
  Mg  Mg19  1  0.20646367  0.76194130  0.25037337  1
  Mg  Mg20  1  0.81441989  0.01650306  0.56065777  1
  Mg  Mg21  1  0.26196983  -0.02728922  0.79555326  1
  Mg  Mg22  1  0.00741898  0.06413262  -0.01436604  1
  Mg  Mg23  1  0.48318162  0.78043638  0.54545453  1
  Mg  Mg24  1  0.54136514  0.21839500  0.24401680  1
  Mg  Mg25  1  0.78715706  -0.00436198  -0.00373279  1
  Mg  Mg26  1  -0.03486363  0.07114993  0.71952243  1
  Mg  Mg27  1  0.78368184  0.19501707  0.68094576  1
  Mg  Mg28  1  -0.05991992  0.25259590  0.79697141  1
  Mg  Mg29  1  0.74234876  -0.00570480  0.32919624  1
  Mg  Mg30  1  0.77682583  0.19459247  -0.00307034  1
  Mg  Mg31  1  0.18965124  0.26683132  0.23955468  1
  Ti  Ti32  1  0.89856424  0.87644993  0.63086826  1
  Ti  Ti33  1  0.37962602  0.63010024  0.63079303  1
  Ti  Ti34  1  0.36946170  0.63512353  0.38152683  1
  Ti  Ti35  1  0.63833134  0.11561802  0.11761000  1
  Ti  Ti36  1  0.88256001  0.11419650  0.12311051  1
  Ti  Ti37  1  0.12473272  0.87341009  0.36766944  1
  Ti  Ti38  1  0.63286377  0.37104870  0.87789565  1
  Ti  Ti39  1  0.37622569  0.12032957  0.87723663  1
  Ti  Ti40  1  0.86072037  0.37948507  0.63164388  1
  Ti  Ti41  1  0.64297152  0.88081056  0.12432915  1
  Ti  Ti42  1  0.37900836  0.62318671  0.88394319  1
  Ti  Ti43  1  0.62247604  0.35925905  0.13295701  1
  Ti  Ti44  1  0.61291408  0.36743321  0.37768706  1
  Ti  Ti45  1  0.86332078  0.12147750  0.87390948  1
  Ti  Ti46  1  0.36180239  0.87749122  0.37373485  1
  Ti  Ti47  1  0.89252541  0.89226514  0.88428202  1
  Ti  Ti48  1  0.10100113  0.37308104  0.12097505  1
  Ti  Ti49  1  0.38450433  0.12551904  0.12355799  1
  Ti  Ti50  1  0.12243860  0.36883262  0.62100485  1
  Ti  Ti51  1  0.37219301  0.88058511  0.64302471  1
  Ti  Ti52  1  0.38702609  0.36567595  0.14928448  1
  Ti  Ti53  1  0.87101525  0.88223753  0.12315725  1
  Ti  Ti54  1  0.36580324  0.88393518  0.12340347  1
  Ti  Ti55  1  0.37486822  0.13471529  0.36300391  1
  Ti  Ti56  1  0.13061639  0.13053677  0.63081983  1
  Ti  Ti57  1  0.12432800  0.87639174  0.89271226  1
  Ti  Ti58  1  0.37033988  0.37791733  0.37255996  1
  Ti  Ti59  1  0.13907741  0.88720837  0.64113889  1
  Ti  Ti60  1  0.62019981  0.11156773  0.62831678  1
  Ti  Ti61  1  0.62392895  0.36844461  0.63281514  1
  Ti  Ti62  1  0.61728246  0.61141746  0.88021125  1
  Ti  Ti63  1  0.11109809  0.87906527  0.12777017  1
  Ti  Ti64  1  0.12740629  0.10674310  0.85878005  1
  Ti  Ti65  1  0.87362562  0.62766653  0.38413430  1
  Ti  Ti66  1  0.37885308  0.37779877  0.88471182  1
  Ti  Ti67  1  0.11724735  0.62583893  0.37303163  1
  Ti  Ti68  1  0.63159892  0.63862720  0.62771939  1
  Ti  Ti69  1  0.37213622  0.13064336  0.64040341  1
  Ti  Ti70  1  0.86502425  0.35412402  0.11719330  1
  Ti  Ti71  1  0.61397416  0.86797577  0.38898927  1
  Ti  Ti72  1  0.62468006  0.63108956  0.13347606  1
  Ti  Ti73  1  0.87912512  0.62233349  0.13447505  1
  Bi  Bi74  1  0.24765609  0.72744776  0.78075043  1
  Bi  Bi75  1  0.74701850  0.77044849  0.28232529  1
  Bi  Bi76  1  0.25190227  0.53153799  0.25471616  1
  Bi  Bi77  1  0.51530858  0.00104191  0.00062843  1
  Bi  Bi78  1  0.50738754  0.00411364  0.26416947  1
  Bi  Bi79  1  -0.00525275  0.46971680  0.26966300  1
  Bi  Bi80  1  0.53009838  0.75318863  0.77586752  1
  Bi  Bi81  1  0.50026556  0.53480665  0.51097457  1
  Bi  Bi82  1  0.74927240  0.72349140  0.01231931  1
  Bi  Bi83  1  0.49245059  0.48683225  0.75402726  1
  Bi  Bi84  1  0.75255761  0.78458483  0.52197819  1
  Bi  Bi85  1  -0.04539913  0.21690136  0.52241703  1
  Bi  Bi86  1  0.49754772  0.52545088  0.27125192  1
  Bi  Bi87  1  -0.02931648  0.73213028  -0.02527653  1
  Bi  Bi88  1  0.48089783  -0.00308826  0.50728333  1
  Bi  Bi89  1  0.25696667  0.27740787  0.03170172  1
  Bi  Bi90  1  0.24014673  0.73978848  0.03180804  1
  Bi  Bi91  1  0.52508129  -0.01110655  0.76258263  1
  Bi  Bi92  1  0.24373487  0.27116102  0.77877498  1
  Bi  Bi93  1  0.24997580  0.02507940  0.50290201  1
  Bi  Bi94  1  0.72911551  0.48533437  0.02449876  1
  Bi  Bi95  1  -0.00820742  0.00366585  0.27634390  1
  Bi  Bi96  1  0.49390692  0.50271765  0.03505306  1
  Bi  Bi97  1  0.72110759  0.24079640  0.49881286  1
  Bi  Bi98  1  0.50712043  0.24141805  0.00695905  1
  Bi  Bi99  1  0.04800718  0.26084875  -0.04047167  1
  Bi  Bi100  1  0.76628005  -0.02702902  0.75961687  1
  Bi  Bi101  1  -0.02576069  0.75102280  0.25114954  1
  Bi  Bi102  1  0.25138383  0.48149381  0.52410833  1
  Bi  Bi103  1  -0.01651117  0.48280711  0.52283186  1
  Bi  Bi104  1  0.77504393  0.73840531  0.78390264  1
  Bi  Bi105  1  0.74500968  0.50211918  0.27980387  1
  Bi  Bi106  1  0.51131172  0.25527882  0.77259600  1
  Bi  Bi107  1  -0.02414060  0.25044403  0.28527819  1
  Bi  Bi108  1  0.02397944  0.74840642  0.52557523  1
  Bi  Bi109  1  0.25034956  0.74748061  0.52582297  1
  Bi  Bi110  1  0.48054901  0.23916540  0.51507076  1
  Bi  Bi111  1  0.21780521  0.49226427  0.76666162  1
  Bi  Bi112  1  0.49215081  0.77905049  0.00803088  1
  Bi  Bi113  1  0.79110365  0.51934439  0.77858577  1
  Bi  Bi114  1  0.02123087  -0.00459317  0.49797975  1
  Bi  Bi115  1  0.21092012  0.51415838  0.01308200  1
  Bi  Bi116  1  0.22181224  0.01144746  0.01198919  1
  Bi  Bi117  1  0.72603767  0.50430219  0.52227523  1
  Bi  Bi118  1  0.23351453  0.25183072  0.48318921  1
  Bi  Bi119  1  0.46799577  0.76433948  0.24542030  1
  Bi  Bi120  1  0.00342702  0.71395687  0.75298491  1
  Bi  Bi121  1  -0.04216958  0.50291774  -0.00637440  1
  Bi  Bi122  1  0.24140806  0.03912268  0.24110144  1
  Bi  Bi123  1  0.01061392  0.45224158  0.78086376  1
  Bi  Bi124  1  0.75032136  0.22564031  0.27621618  1
  O  O125  1  0.12339834  0.12373683  -0.00990673  1
  O  O126  1  0.14817879  0.13738769  0.24357145  1
  O  O127  1  0.14738436  0.12665410  0.49978971  1
  O  O128  1  0.09702173  0.10240871  0.74387188  1
  O  O129  1  0.15305738  0.37362089  0.00883937  1
  O  O130  1  0.10673865  0.36678715  0.23998807  1
  O  O131  1  0.16132799  0.37332514  0.49682582  1
  O  O132  1  0.12819476  0.37391930  0.73823643  1
  O  O133  1  0.12521380  0.62260624  0.00267251  1
  O  O134  1  0.15402262  0.63628238  0.25417733  1
  O  O135  1  0.12083824  0.64736136  0.49073527  1
  O  O136  1  0.12827589  0.64108649  0.74795595  1
  O  O137  1  0.11386506  0.85967418  0.00525429  1
  O  O138  1  0.14729717  0.87931842  0.24570074  1
  O  O139  1  0.09823715  0.87762287  0.48751367  1
  O  O140  1  0.15754011  0.90077689  0.74984765  1
  O  O141  1  0.38449260  0.11264764  -0.00154606  1
  O  O142  1  0.35010228  0.13085166  0.24372309  1
  O  O143  1  0.38155777  0.10168624  0.48706257  1
  O  O144  1  0.37317894  0.14557348  0.74999367  1
  O  O145  1  0.35478245  0.38223571  -0.00327346  1
  O  O146  1  0.41253415  0.35166167  0.25583404  1
  O  O147  1  0.35115496  0.38373466  0.49269887  1
  O  O148  1  0.41316361  0.36729518  0.75054434  1
  O  O149  1  0.38510473  0.60381807  -0.00611633  1
  O  O150  1  0.36598462  0.61769970  0.25225260  1
  O  O151  1  0.37871455  0.61608464  0.49521070  1
  O  O152  1  0.38438354  0.63659227  0.74291893  1
  O  O153  1  0.40374077  0.88441494  0.00556603  1
  O  O154  1  0.35272838  0.84622377  0.24555378  1
  O  O155  1  0.40419650  0.87900015  0.48754268  1
  O  O156  1  0.34225591  0.88168903  0.75042205  1
  O  O157  1  0.59581031  0.12344475  0.00355670  1
  O  O158  1  0.64283949  0.13923497  0.23488620  1
  O  O159  1  0.61213784  0.14996154  0.50604113  1
  O  O160  1  0.61029815  0.10644087  0.74731140  1
  O  O161  1  0.63996971  0.37893769  -0.00584928  1
  O  O162  1  0.59936731  0.34097595  0.24423368  1
  O  O163  1  0.65181188  0.36323226  0.49701653  1
  O  O164  1  0.59798766  0.37877407  0.74737660  1
  O  O165  1  0.62574759  0.61662829  -0.00578772  1
  O  O166  1  0.63127273  0.62817924  0.24508533  1
  O  O167  1  0.62760153  0.60814129  0.50172612  1
  O  O168  1  0.61343455  0.62074960  0.74014262  1
  O  O169  1  0.59492269  0.87645786  0.00584679  1
  O  O170  1  0.66044872  0.87824445  0.23784226  1
  O  O171  1  0.58248782  0.85885617  0.49809794  1
  O  O172  1  0.63567670  0.89808179  0.75288158  1
  O  O173  1  0.88153586  0.08882946  -0.00847964  1
  O  O174  1  0.87160829  0.15051258  0.23492010  1
  O  O175  1  0.87807926  0.10678838  0.50062283  1
  O  O176  1  0.87575380  0.15417201  0.75434901  1
  O  O177  1  0.85481484  0.40787158  0.00432430  1
  O  O178  1  0.89047083  0.35827436  0.23215285  1
  O  O179  1  0.87030868  0.40254871  0.50611700  1
  O  O180  1  0.88127691  0.34949190  0.74250987  1
  O  O181  1  0.88570921  0.61967927  0.00513401  1
  O  O182  1  0.86326695  0.65663028  0.24682897  1
  O  O183  1  0.88951951  0.60059809  0.49308381  1
  O  O184  1  0.87268214  0.64879829  0.74543556  1
  O  O185  1  0.89497565  0.91310993  -0.00453142  1
  O  O186  1  0.85897588  0.84877703  0.23601706  1
  O  O187  1  0.90293939  0.90793676  0.51023135  1
  O  O188  1  0.84984865  0.85867639  0.74735605  1
  O  O189  1  -0.00661486  0.12586385  0.10530619  1
  O  O190  1  -0.00194459  0.12790768  0.35896122  1
  O  O191  1  0.01141411  0.13414756  0.61410778  1
  O  O192  1  -0.00410912  0.15296451  0.87946519  1
  O  O193  1  -0.00930134  0.36531365  0.09244595  1
  O  O194  1  -0.00366887  0.37088920  0.36869777  1
  O  O195  1  0.00908484  0.35900249  0.60091414  1
  O  O196  1  -0.01097976  0.34523568  0.86824108  1
  O  O197  1  -0.00681250  0.65663428  0.14021775  1
  O  O198  1  0.00020071  0.64958635  0.35781731  1
  O  O199  1  0.00405270  0.65201408  0.62458610  1
  O  O200  1  -0.00105216  0.64756023  0.87329304  1
  O  O201  1  -0.00253363  0.86408874  0.14040617  1
  O  O202  1  0.00262127  0.87188147  0.34419446  1
  O  O203  1  0.01156902  0.85474032  0.64023785  1
  O  O204  1  0.00045616  0.84830421  0.86816869  1
  O  O205  1  0.25828646  0.10458849  0.11283231  1
  O  O206  1  0.25870371  0.09323851  0.37452940  1
  O  O207  1  0.25454198  0.10156965  0.62535000  1
  O  O208  1  0.24092046  0.08576879  0.85184935  1
  O  O209  1  0.26929923  0.35013561  0.15159272  1
  O  O210  1  0.26210383  0.39981240  0.34302807  1
  O  O211  1  0.25891131  0.40501493  0.63712097  1
  O  O212  1  0.26325935  0.39031512  0.84498202  1
  O  O213  1  0.25163028  0.61469354  0.10678363  1
  O  O214  1  0.25316302  0.59691283  0.37892389  1
  O  O215  1  0.25930681  0.62723063  0.61207515  1
  O  O216  1  0.25637513  0.60656486  0.86005977  1
  O  O217  1  0.25519269  0.89338139  0.09858116  1
  O  O218  1  0.25189299  0.89686331  0.39061321  1
  O  O219  1  0.25349693  0.88207761  0.59597639  1
  O  O220  1  0.24183498  0.90233233  0.89665521  1
  O  O221  1  0.49954818  0.13673098  0.14946555  1
  O  O222  1  0.49701325  0.13593482  0.33680312  1
  O  O223  1  0.49585901  0.14863626  0.62313488  1
  O  O224  1  0.48781781  0.15661533  0.87446359  1
  O  O225  1  0.50545352  0.36623970  0.09560379  1
  O  O226  1  0.50416734  0.35762603  0.40362972  1
  O  O227  1  0.51275773  0.33952172  0.60506772  1
  O  O228  1  0.49538234  0.34014061  0.89075253  1
  O  O229  1  0.50626000  0.62780850  0.11991916  1
  O  O230  1  0.49641818  0.62728653  0.36527276  1
  O  O231  1  0.50419728  0.65632492  0.59657364  1
  O  O232  1  0.49980042  0.65128516  0.87020540  1
  O  O233  1  0.50373721  0.84605437  0.14160128  1
  O  O234  1  0.50520564  0.86414401  0.33254359  1
  O  O235  1  0.48924898  0.85592894  0.64725199  1
  O  O236  1  0.49637122  0.84817721  0.86600568  1
  O  O237  1  0.74864132  0.10544225  0.08564766  1
  O  O238  1  0.74606627  0.11647794  0.36336396  1
  O  O239  1  0.73712767  0.09482662  0.62326904  1
  O  O240  1  0.75097026  0.10311362  0.89950374  1
  O  O241  1  0.74534537  0.39129287  0.13219007  1
  O  O242  1  0.74408251  0.38943983  0.35294550  1
  O  O243  1  0.74938018  0.40939212  0.63706343  1
  O  O244  1  0.74049775  0.40979589  0.85858120  1
  O  O245  1  0.75116199  0.61540541  0.10924063  1
  O  O246  1  0.75409443  0.60159835  0.37599820  1
  O  O247  1  0.74691456  0.60261419  0.62088866  1
  O  O248  1  0.74026597  0.60984421  0.86538248  1
  O  O249  1  0.75288062  0.90053655  0.08655074  1
  O  O250  1  0.74295003  0.88048335  0.38448569  1
  O  O251  1  0.75254020  0.90157396  0.59369852  1
  O  O252  1  0.76057971  0.91863561  0.88796166  1
  O  O253  1  0.12192285  -0.00344515  0.11388272  1
  O  O254  1  0.10243631  0.00018533  0.37190521  1
  O  O255  1  0.11971162  -0.00174551  0.60350222  1
  O  O256  1  0.09144431  -0.00231259  0.89769525  1
  O  O257  1  0.13683769  0.25609691  0.12038871  1
  O  O258  1  0.16016012  0.25502801  0.36625288  1
  O  O259  1  0.15183773  0.24597153  0.62278281  1
  O  O260  1  0.14509585  0.23171543  0.86407630  1
  O  O261  1  0.12700207  0.49393176  0.12241784  1
  O  O262  1  0.09939067  0.50958575  0.36683880  1
  O  O263  1  0.11874713  0.49288203  0.60701980  1
  O  O264  1  0.11278661  0.49889447  0.86152354  1
  O  O265  1  0.15403485  0.75840318  0.13614007  1
  O  O266  1  0.14790461  0.75879777  0.36342923  1
  O  O267  1  0.14061749  0.76279757  0.61022057  1
  O  O268  1  0.15007402  0.75783308  0.87130884  1
  O  O269  1  0.39660369  -0.00379541  0.14217106  1
  O  O270  1  0.40011950  -0.00851763  0.35276372  1
  O  O271  1  0.39617242  -0.00089103  0.62160787  1
  O  O272  1  0.38816974  0.00727148  0.85585034  1
  O  O273  1  0.38584755  0.24508202  0.10315118  1
  O  O274  1  0.35979429  0.24463828  0.38842131  1
  O  O275  1  0.36318182  0.24204119  0.60046315  1
  O  O276  1  0.33833838  0.25001442  0.87899447  1
  O  O277  1  0.39731013  0.48662898  0.13558889  1
  O  O278  1  0.40333518  0.49227098  0.36530819  1
  O  O279  1  0.41273084  0.51111030  0.62462026  1
  O  O280  1  0.40074108  0.49619520  0.86218337  1
  O  O281  1  0.36429342  0.75330251  0.10300998  1
  O  O282  1  0.36428405  0.75030203  0.38017558  1
  O  O283  1  0.36601071  0.75664210  0.60576249  1
  O  O284  1  0.34800361  0.74110668  0.88363025  1
  O  O285  1  0.60703204  -0.00136257  0.12201731  1
  O  O286  1  0.61369299  -0.00611375  0.36568083  1
  O  O287  1  0.58670768  0.00258768  0.61292725  1
  O  O288  1  0.58825769  0.00169702  0.88322805  1
  O  O289  1  0.62844928  0.24714967  0.10584312  1
  O  O290  1  0.64304167  0.24881110  0.37219006  1
  O  O291  1  0.67159264  0.25204654  0.63586993  1
  O  O292  1  0.63303824  0.25593876  0.86178955  1
  O  O293  1  0.61498453  0.49755150  0.12060651  1
  O  O294  1  0.61228653  0.49005185  0.35136114  1
  O  O295  1  0.60685809  0.48828352  0.60729823  1
  O  O296  1  0.58957432  0.49773297  0.87286929  1
  O  O297  1  0.64993018  0.75016294  0.11271190  1
  O  O298  1  0.63931204  0.75511588  0.37625487  1
  O  O299  1  0.65498488  0.75255761  0.62558538  1
  O  O300  1  0.64022891  0.74788329  0.86414352  1
  O  O301  1  0.88013780  -0.00068475  0.14597266  1
  O  O302  1  0.87304265  -0.00531480  0.34372570  1
  O  O303  1  0.89430689  -0.00895869  0.65467738  1
  O  O304  1  0.89753141  0.00529287  0.83402784  1
  O  O305  1  0.84668335  0.24583917  0.09086383  1
  O  O306  1  0.86825678  0.24926335  0.37451581  1
  O  O307  1  0.85192852  0.26061556  0.59983946  1
  O  O308  1  0.84907821  0.23912038  0.89935484  1
  O  O309  1  0.89573329  0.50951257  0.13324563  1
  O  O310  1  0.88155908  0.50612224  0.34181454  1
  O  O311  1  0.90815478  0.49577143  0.63823621  1
  O  O312  1  0.89709993  0.48942855  0.86274157  1
  O  O313  1  0.85721136  0.76025574  0.09055765  1
  O  O314  1  0.85635127  0.74782651  0.38775290  1
  O  O315  1  0.86306108  0.76032972  0.59763659  1
  O  O316  1  0.85314423  0.77044945  0.89657502  1
