# generated using pymatgen
data_Mg32Ti42(Bi17O64)3
_symmetry_space_group_name_H-M   'P 1'
_cell_length_a   15.97080718
_cell_length_b   15.89331742
_cell_length_c   15.95121827
_cell_angle_alpha   90.03409138
_cell_angle_beta   89.90968573
_cell_angle_gamma   89.97836512
_symmetry_Int_Tables_number   1
_chemical_formula_structural   Mg32Ti42(Bi17O64)3
_chemical_formula_sum   'Mg32 Ti42 Bi51 O192'
_cell_volume   4048.87746717
_cell_formula_units_Z   1
loop_
 _symmetry_equiv_pos_site_id
 _symmetry_equiv_pos_as_xyz
  1  'x, y, z'
loop_
 _atom_site_type_symbol
 _atom_site_label
 _atom_site_symmetry_multiplicity
 _atom_site_fract_x
 _atom_site_fract_y
 _atom_site_fract_z
 _atom_site_occupancy
  Mg  Mg0  1  0.36990644  0.11479790  0.11008198  1
  Mg  Mg1  1  0.88583836  0.87268511  0.87761867  1
  Mg  Mg2  1  0.86298408  0.12556001  0.12827571  1
  Mg  Mg3  1  0.13101817  0.87263542  0.13776836  1
  Mg  Mg4  1  0.62561373  0.37930025  0.62651633  1
  Mg  Mg5  1  0.86109904  0.61636507  0.12321784  1
  Mg  Mg6  1  0.61998901  0.13392454  0.87094391  1
  Mg  Mg7  1  0.37529349  0.62181907  0.36573536  1
  Mg  Mg8  1  0.37042394  0.63031323  0.87590008  1
  Mg  Mg9  1  0.62006604  0.88456979  0.13494844  1
  Mg  Mg10  1  0.61349016  0.37907847  0.86779410  1
  Mg  Mg11  1  0.87399782  0.62510403  0.62071043  1
  Mg  Mg12  1  0.62493096  0.37264138  0.37551755  1
  Mg  Mg13  1  0.13016234  0.38209118  0.88323619  1
  Mg  Mg14  1  0.86524441  0.12702649  0.37728108  1
  Mg  Mg15  1  0.13045794  0.12433526  0.87976301  1
  Mg  Mg16  1  0.86155093  0.62275089  0.37287746  1
  Mg  Mg17  1  0.62178269  0.13231786  0.61285097  1
  Mg  Mg18  1  0.62914613  0.62226182  0.87306754  1
  Mg  Mg19  1  0.27879088  0.68909918  0.67723418  1
  Mg  Mg20  1  0.47579326  0.23694927  0.21135346  1
  Mg  Mg21  1  0.69383931  0.49324666  0.22928759  1
  Mg  Mg22  1  0.27952246  -0.02335346  0.22462078  1
  Mg  Mg23  1  0.22095697  0.00700910  0.51323638  1
  Mg  Mg24  1  0.73894238  0.22689726  0.23444264  1
  Mg  Mg25  1  0.23994411  0.50666502  0.68258645  1
  Mg  Mg26  1  0.48727478  0.50915995  -0.06290094  1
  Mg  Mg27  1  0.21316852  0.24670096  0.51807394  1
  Mg  Mg28  1  0.49391035  0.25942112  0.48911759  1
  Mg  Mg29  1  0.46639478  -0.04200142  0.74585630  1
  Mg  Mg30  1  0.67945640  0.02431624  0.74632385  1
  Mg  Mg31  1  0.29246727  0.53650694  0.49949333  1
  Ti  Ti32  1  0.37365859  0.37155661  0.85231200  1
  Ti  Ti33  1  0.37438111  0.88709319  0.37266928  1
  Ti  Ti34  1  0.12756511  0.63060215  0.60846215  1
  Ti  Ti35  1  0.13765058  0.88832224  0.36973754  1
  Ti  Ti36  1  0.88372816  0.37532849  0.61255372  1
  Ti  Ti37  1  0.11907656  0.87471401  0.62180030  1
  Ti  Ti38  1  0.86051118  0.87523760  0.37370234  1
  Ti  Ti39  1  0.12732286  0.12400582  0.37733699  1
  Ti  Ti40  1  0.14616381  0.62178737  0.85173128  1
  Ti  Ti41  1  0.36376323  0.87018744  0.86831722  1
  Ti  Ti42  1  0.61196355  0.35981942  0.13593979  1
  Ti  Ti43  1  0.12602416  0.86378971  0.86163545  1
  Ti  Ti44  1  0.36730207  0.35863304  0.38236943  1
  Ti  Ti45  1  0.38043504  0.87759837  0.10839852  1
  Ti  Ti46  1  0.86576061  0.62452450  0.88242295  1
  Ti  Ti47  1  0.35936795  0.13252339  0.62235665  1
  Ti  Ti48  1  0.61358612  0.61905146  0.12286548  1
  Ti  Ti49  1  0.36763560  0.36722660  0.12234958  1
  Ti  Ti50  1  0.85830555  0.38317293  0.14326360  1
  Ti  Ti51  1  0.87695738  0.11911858  0.62023538  1
  Ti  Ti52  1  0.87134326  0.87456753  0.12348355  1
  Ti  Ti53  1  0.61102495  0.88144051  0.37526346  1
  Ti  Ti54  1  0.36859859  0.88907327  0.61307019  1
  Ti  Ti55  1  0.62178042  0.12784593  0.11968657  1
  Ti  Ti56  1  0.86963041  0.87830841  0.62895231  1
  Ti  Ti57  1  0.12152498  0.37094763  0.37542538  1
  Ti  Ti58  1  0.11614184  0.12564334  0.61944779  1
  Ti  Ti59  1  0.63258748  0.62974427  0.63884153  1
  Ti  Ti60  1  0.12740443  0.37367972  0.13510561  1
  Ti  Ti61  1  0.86395524  0.12301810  0.86958539  1
  Ti  Ti62  1  0.13308638  0.62232258  0.12610039  1
  Ti  Ti63  1  0.62192503  0.87950569  0.62594027  1
  Ti  Ti64  1  0.38535710  0.60226000  0.12602388  1
  Ti  Ti65  1  0.62098241  0.61973756  0.36984192  1
  Ti  Ti66  1  0.35961646  0.36349308  0.62060461  1
  Ti  Ti67  1  0.13265145  0.63236647  0.36944925  1
  Ti  Ti68  1  0.37098044  0.12356678  0.87778280  1
  Ti  Ti69  1  0.86455428  0.37339774  0.37228119  1
  Ti  Ti70  1  0.60972428  0.13693639  0.37489550  1
  Ti  Ti71  1  0.36445071  0.12591635  0.38221292  1
  Ti  Ti72  1  0.11752023  0.37806226  0.61703660  1
  Ti  Ti73  1  0.12396134  0.11697126  0.13395988  1
  Bi  Bi74  1  0.48346543  0.47761275  0.51225385  1
  Bi  Bi75  1  0.73115153  0.79279668  0.78441501  1
  Bi  Bi76  1  -0.02942742  0.75376118  0.49873816  1
  Bi  Bi77  1  0.46206960  0.53505920  0.73157586  1
  Bi  Bi78  1  -0.01039238  0.24706479  0.47855693  1
  Bi  Bi79  1  -0.02573521  0.29005974  0.78148699  1
  Bi  Bi80  1  -0.00024752  0.02205822  0.78040053  1
  Bi  Bi81  1  0.73123102  0.50184711  0.52188542  1
  Bi  Bi82  1  0.48443789  0.02139296  0.51760248  1
  Bi  Bi83  1  0.76078995  0.46248526  0.76489823  1
  Bi  Bi84  1  0.00796461  0.52048749  -0.01473299  1
  Bi  Bi85  1  0.26103815  0.22568971  0.23398900  1
  Bi  Bi86  1  0.73257438  0.73358343  0.23390254  1
  Bi  Bi87  1  0.21555395  -0.01654836  0.00551754  1
  Bi  Bi88  1  0.24093714  0.76895980  0.48644493  1
  Bi  Bi89  1  0.72760861  0.26086047  0.48970330  1
  Bi  Bi90  1  0.73133744  0.01672374  0.25646318  1
  Bi  Bi91  1  0.72126287  -0.00776935  -0.04076666  1
  Bi  Bi92  1  -0.02406062  -0.00214038  0.25077689  1
  Bi  Bi93  1  0.49823795  0.25438837  -0.02935502  1
  Bi  Bi94  1  -0.00691570  -0.01136717  0.47974309  1
  Bi  Bi95  1  0.22767025  0.00838763  0.75102259  1
  Bi  Bi96  1  0.23631352  0.74431922  -0.00717933  1
  Bi  Bi97  1  -0.01458660  0.51707648  0.48179654  1
  Bi  Bi98  1  0.48941297  0.03702161  0.24396285  1
  Bi  Bi99  1  -0.02940900  0.74259271  0.75097832  1
  Bi  Bi100  1  0.51194684  0.75572963  -0.04431276  1
  Bi  Bi101  1  0.50367389  0.23384554  0.71850602  1
  Bi  Bi102  1  0.74264408  0.23179211  0.72686445  1
  Bi  Bi103  1  -0.03100869  0.73782684  0.24150464  1
  Bi  Bi104  1  -0.01255973  0.51698486  0.23837365  1
  Bi  Bi105  1  0.48629109  0.46380736  0.26858329  1
  Bi  Bi106  1  0.26733980  0.74667018  0.22993650  1
  Bi  Bi107  1  0.26522290  0.50468351  -0.00402975  1
  Bi  Bi108  1  0.71057487  0.49612037  -0.00896475  1
  Bi  Bi109  1  0.50424535  0.75926622  0.24127983  1
  Bi  Bi110  1  0.72474875  0.78376037  0.00437052  1
  Bi  Bi111  1  0.72054854  0.73628004  0.49536358  1
  Bi  Bi112  1  0.47810936  0.71167803  0.49055024  1
  Bi  Bi113  1  -0.02602595  0.24152948  0.23980423  1
  Bi  Bi114  1  -0.01880399  0.03579217  0.00281311  1
  Bi  Bi115  1  0.21844242  0.27241694  0.75586006  1
  Bi  Bi116  1  0.46721741  0.74899229  0.72151612  1
  Bi  Bi117  1  0.22858588  0.24806027  -0.00142153  1
  Bi  Bi118  1  0.00540423  0.76857190  0.00835866  1
  Bi  Bi119  1  0.50751158  -0.01339986  -0.05123138  1
  Bi  Bi120  1  -0.02635502  0.27272545  0.00145544  1
  Bi  Bi121  1  -0.01281510  0.52276625  0.74791783  1
  Bi  Bi122  1  0.74658740  0.28040396  -0.02918588  1
  Bi  Bi123  1  0.73031840  0.00125680  0.51897299  1
  Bi  Bi124  1  0.24602794  0.49843868  0.28200595  1
  O  O125  1  0.15367492  0.12743132  0.01012472  1
  O  O126  1  0.10380773  0.11783509  0.26149563  1
  O  O127  1  0.16426125  0.12813240  0.50884416  1
  O  O128  1  0.11687227  0.09950434  0.74400810  1
  O  O129  1  0.15229811  0.36531967  0.01454172  1
  O  O130  1  0.11086613  0.35874896  0.25796556  1
  O  O131  1  0.15299488  0.36058975  0.50724557  1
  O  O132  1  0.10518064  0.35429913  0.75115494  1
  O  O133  1  0.10932643  0.63170087  0.00934049  1
  O  O134  1  0.16036854  0.62120994  0.25221129  1
  O  O135  1  0.10477507  0.63476092  0.49679351  1
  O  O136  1  0.19024149  0.60555449  0.74855336  1
  O  O137  1  0.13483701  0.85765539  -0.00368672  1
  O  O138  1  0.16728836  0.90191718  0.26069237  1
  O  O139  1  0.12386615  0.84856612  0.50376182  1
  O  O140  1  0.13546663  0.88069998  0.74565631  1
  O  O141  1  0.34871472  0.10512718  -0.01240689  1
  O  O142  1  0.39678289  0.15293337  0.26923014  1
  O  O143  1  0.35633981  0.08356406  0.50398390  1
  O  O144  1  0.39710217  0.15255954  0.73566681  1
  O  O145  1  0.35693331  0.38367242  0.01165111  1
  O  O146  1  0.41006937  0.34346729  0.26833420  1
  O  O147  1  0.35326631  0.41581512  0.50480500  1
  O  O148  1  0.39094804  0.34253992  0.74100460  1
  O  O149  1  0.39306522  0.57014529  0.00625437  1
  O  O150  1  0.35644748  0.63682525  0.24019139  1
  O  O151  1  0.40043133  0.59737879  0.49224714  1
  O  O152  1  0.37341825  0.64369843  0.74885065  1
  O  O153  1  0.38590450  0.89847358  -0.00449236  1
  O  O154  1  0.35398061  0.86174125  0.25896651  1
  O  O155  1  0.40552109  0.90228758  0.50281126  1
  O  O156  1  0.37096177  0.86907389  0.74941457  1
  O  O157  1  0.63539418  0.11028769  0.00908495  1
  O  O158  1  0.58180607  0.16294044  0.26458015  1
  O  O159  1  0.65471328  0.11467193  0.49244034  1
  O  O160  1  0.61153038  0.14051037  0.74235650  1
  O  O161  1  0.64225538  0.37454155  0.01910706  1
  O  O162  1  0.61082877  0.37360133  0.25227425  1
  O  O163  1  0.65614247  0.38562029  0.49980516  1
  O  O164  1  0.65485183  0.37522558  0.74955985  1
  O  O165  1  0.62472049  0.61878217  0.01098123  1
  O  O166  1  0.61257762  0.66228620  0.25250022  1
  O  O167  1  0.62442078  0.62567260  0.49163346  1
  O  O168  1  0.64560638  0.63284667  0.74856371  1
  O  O169  1  0.63189855  0.89090987  0.00761781  1
  O  O170  1  0.62498860  0.84383333  0.25848584  1
  O  O171  1  0.62365298  0.91095445  0.49771149  1
  O  O172  1  0.65207432  0.89344739  0.73895705  1
  O  O173  1  0.86948423  0.12125940  -0.00105385  1
  O  O174  1  0.90350797  0.11459336  0.25292508  1
  O  O175  1  0.85759093  0.14014420  0.50731390  1
  O  O176  1  0.90302252  0.11987006  0.75287280  1
  O  O177  1  0.86158887  0.34973619  0.02680840  1
  O  O178  1  0.90556897  0.38852403  0.25939299  1
  O  O179  1  0.86219561  0.34851169  0.49890453  1
  O  O180  1  0.89116620  0.39668585  0.74238932  1
  O  O181  1  0.90884242  0.63351650  -0.00356723  1
  O  O182  1  0.88718214  0.61389506  0.25123854  1
  O  O183  1  0.90251666  0.63124629  0.49422679  1
  O  O184  1  0.87987298  0.61254668  0.74956645  1
  O  O185  1  0.89456080  0.85414637  0.00739053  1
  O  O186  1  0.88348315  0.88596546  0.25226696  1
  O  O187  1  0.89395315  0.87571759  0.49282596  1
  O  O188  1  0.86573748  0.87095167  0.74354699  1
  O  O189  1  0.00841839  0.14178063  0.11369452  1
  O  O190  1  0.01003110  0.11520032  0.41062449  1
  O  O191  1  0.00329098  0.13474677  0.60543464  1
  O  O192  1  0.00334348  0.12527125  0.88373812  1
  O  O193  1  0.01153989  0.34329361  0.11537701  1
  O  O194  1  0.00765881  0.37624785  0.40820464  1
  O  O195  1  0.00278249  0.35155681  0.60778785  1
  O  O196  1  0.00469860  0.35718426  0.89865570  1
  O  O197  1  0.01719107  0.63497866  0.15220411  1
  O  O198  1  0.01761014  0.61904438  0.35589000  1
  O  O199  1  0.01706957  0.63697754  0.65186882  1
  O  O200  1  0.02908691  0.64316929  0.83234589  1
  O  O201  1  0.00769412  0.83762524  0.13394379  1
  O  O202  1  0.02024880  0.89025944  0.36993070  1
  O  O203  1  0.00717208  0.86220211  0.62850546  1
  O  O204  1  0.01132543  0.84054714  0.87084133  1
  O  O205  1  0.24924860  0.09974342  0.16875151  1
  O  O206  1  0.25166779  0.13885052  0.36290971  1
  O  O207  1  0.25320854  0.10022566  0.64647326  1
  O  O208  1  0.25761201  0.10844425  0.84293314  1
  O  O209  1  0.25724351  0.38294534  0.15776298  1
  O  O210  1  0.25394869  0.36486902  0.35825585  1
  O  O211  1  0.24382174  0.38220459  0.65694383  1
  O  O212  1  0.25787485  0.38159742  0.85237844  1
  O  O213  1  0.25910937  0.59496314  0.10309643  1
  O  O214  1  0.25106986  0.59728970  0.39475668  1
  O  O215  1  0.24620670  0.59819585  0.59561054  1
  O  O216  1  0.25318213  0.61683815  0.91317770  1
  O  O217  1  0.25774016  0.90422901  0.11624171  1
  O  O218  1  0.25917318  0.88703397  0.41594328  1
  O  O219  1  0.25826157  0.90405845  0.59858078  1
  O  O220  1  0.25271954  0.89828713  0.87955898  1
  O  O221  1  0.50014669  0.13569094  0.12606562  1
  O  O222  1  0.49494026  0.11188684  0.40584786  1
  O  O223  1  0.49412590  0.16732793  0.59151639  1
  O  O224  1  0.49519461  0.13493272  0.89554088  1
  O  O225  1  0.49880322  0.33789741  0.12586138  1
  O  O226  1  0.49479512  0.38592981  0.40858870  1
  O  O227  1  0.48537255  0.34981577  0.59341256  1
  O  O228  1  0.48943566  0.37492222  0.89915512  1
  O  O229  1  0.49325209  0.65125041  0.13267216  1
  O  O230  1  0.50206618  0.63801356  0.36886365  1
  O  O231  1  0.50970520  0.64398136  0.63474871  1
  O  O232  1  0.49923053  0.64137646  0.87927348  1
  O  O233  1  0.49420397  0.85312835  0.13495327  1
  O  O234  1  0.49624147  0.88780552  0.35899625  1
  O  O235  1  0.50768554  0.87722753  0.65014935  1
  O  O236  1  0.49496279  0.86629668  0.86748948  1
  O  O237  1  0.74072769  0.11650839  0.16036193  1
  O  O238  1  0.73875422  0.14048029  0.33395982  1
  O  O239  1  0.76026808  0.11002556  0.65566123  1
  O  O240  1  0.75187816  0.09814527  0.84893234  1
  O  O241  1  0.74992055  0.40716919  0.15703372  1
  O  O242  1  0.75653680  0.34242286  0.35618975  1
  O  O243  1  0.76727624  0.41620323  0.62895275  1
  O  O244  1  0.74849596  0.39550548  0.89306092  1
  O  O245  1  0.73494549  0.60416591  0.16020151  1
  O  O246  1  0.73923877  0.65485916  0.37162305  1
  O  O247  1  0.74932112  0.62616265  0.59972079  1
  O  O248  1  0.75757737  0.59638925  0.89146240  1
  O  O249  1  0.75900788  0.88754495  0.11944344  1
  O  O250  1  0.74893210  0.87909960  0.37943076  1
  O  O251  1  0.75672761  0.88125893  0.60436038  1
  O  O252  1  0.76044533  0.87746325  0.88690775  1
  O  O253  1  0.11288564  0.00024769  0.10860021  1
  O  O254  1  0.13880357  0.00172618  0.40985670  1
  O  O255  1  0.12313864  -0.00624612  0.60559349  1
  O  O256  1  0.11365259  -0.01021333  0.87935237  1
  O  O257  1  0.15979255  0.24114605  0.13269300  1
  O  O258  1  0.11662281  0.24354418  0.39620940  1
  O  O259  1  0.14438491  0.24107986  0.62902721  1
  O  O260  1  0.15175240  0.24892377  0.88149131  1
  O  O261  1  0.11401702  0.49243044  0.13385999  1
  O  O262  1  0.13073726  0.49014721  0.36793827  1
  O  O263  1  0.11791416  0.49440897  0.62853837  1
  O  O264  1  0.11476044  0.50896339  0.88701153  1
  O  O265  1  0.16202529  0.74068321  0.12855142  1
  O  O266  1  0.15570813  0.75098912  0.37105167  1
  O  O267  1  0.16606449  0.74179871  0.63250909  1
  O  O268  1  0.16045640  0.74673078  0.87020993  1
  O  O269  1  0.39017524  -0.00489196  0.15203212  1
  O  O270  1  0.36327104  0.00464483  0.34435053  1
  O  O271  1  0.40480991  0.00674992  0.64429087  1
  O  O272  1  0.40673257  0.00337788  0.84900910  1
  O  O273  1  0.35807972  0.24491723  0.12886671  1
  O  O274  1  0.38482831  0.24793197  0.42064104  1
  O  O275  1  0.32780350  0.24774775  0.59203404  1
  O  O276  1  0.37545624  0.24963883  0.89019642  1
  O  O277  1  0.39856992  0.48878015  0.15738791  1
  O  O278  1  0.37349910  0.48900494  0.34998017  1
  O  O279  1  0.36967257  0.48609160  0.64990119  1
  O  O280  1  0.39263772  0.49592716  0.84847072  1
  O  O281  1  0.34671466  0.75687814  0.11381160  1
  O  O282  1  0.37214787  0.75699826  0.40229306  1
  O  O283  1  0.37268263  0.76372142  0.61778758  1
  O  O284  1  0.36600138  0.75733306  0.90204923  1
  O  O285  1  0.61580807  0.01099741  0.16599648  1
  O  O286  1  0.62672616  0.00765392  0.34982646  1
  O  O287  1  0.63234045  0.00583010  0.62553400  1
  O  O288  1  0.61955568  0.00567325  0.86663615  1
  O  O289  1  0.65287782  0.24887220  0.13469878  1
  O  O290  1  0.60317943  0.24960074  0.41835435  1
  O  O291  1  0.66059916  0.25543074  0.61743888  1
  O  O292  1  0.62209024  0.25594381  0.89448155  1
  O  O293  1  0.60027712  0.50311058  0.14388395  1
  O  O294  1  0.64103057  0.50915032  0.34621880  1
  O  O295  1  0.62279049  0.50938647  0.61622247  1
  O  O296  1  0.60831728  0.50020000  0.89780008  1
  O  O297  1  0.64806967  0.75042254  0.11763370  1
  O  O298  1  0.61158225  0.76763030  0.41045273  1
  O  O299  1  0.63430495  0.75862078  0.61048031  1
  O  O300  1  0.64153854  0.74915964  0.89335493  1
  O  O301  1  0.90359894  -0.00603447  0.12432246  1
  O  O302  1  0.88926177  -0.00148687  0.37873022  1
  O  O303  1  0.89107333  0.00091534  0.61087239  1
  O  O304  1  0.90076438  -0.00158715  0.88520212  1
  O  O305  1  0.85235818  0.25509424  0.17290277  1
  O  O306  1  0.90415111  0.25031906  0.36537828  1
  O  O307  1  0.85836475  0.25484915  0.64759648  1
  O  O308  1  0.85750828  0.24162566  0.87273991  1
  O  O309  1  0.90430123  0.49361954  0.12393631  1
  O  O310  1  0.87105410  0.49202019  0.40007916  1
  O  O311  1  0.91127712  0.49641243  0.60166458  1
  O  O312  1  0.92141355  0.51637766  0.87717458  1
  O  O313  1  0.86368878  0.74737132  0.14775210  1
  O  O314  1  0.88859917  0.75733103  0.37450439  1
  O  O315  1  0.88334112  0.75508102  0.61282872  1
  O  O316  1  0.86857064  0.74108375  0.85667121  1
