# generated using pymatgen
data_Mg32Ti42(Bi17O64)3
_symmetry_space_group_name_H-M   'P 1'
_cell_length_a   15.93571577
_cell_length_b   16.01080136
_cell_length_c   15.92926574
_cell_angle_alpha   90.12337010
_cell_angle_beta   90.10500207
_cell_angle_gamma   89.88092556
_symmetry_Int_Tables_number   1
_chemical_formula_structural   Mg32Ti42(Bi17O64)3
_chemical_formula_sum   'Mg32 Ti42 Bi51 O192'
_cell_volume   4064.22489317
_cell_formula_units_Z   1
loop_
 _symmetry_equiv_pos_site_id
 _symmetry_equiv_pos_as_xyz
  1  'x, y, z'
loop_
 _atom_site_type_symbol
 _atom_site_label
 _atom_site_symmetry_multiplicity
 _atom_site_fract_x
 _atom_site_fract_y
 _atom_site_fract_z
 _atom_site_occupancy
  Mg  Mg0  1  0.87498060  0.12586873  0.13350577  1
  Mg  Mg1  1  0.13211031  0.37382655  0.87270664  1
  Mg  Mg2  1  0.63362386  0.36840714  0.12632477  1
  Mg  Mg3  1  0.37492975  0.12683110  0.88269385  1
  Mg  Mg4  1  0.62429532  0.86887523  0.62589733  1
  Mg  Mg5  1  0.62041565  0.11995136  0.88128908  1
  Mg  Mg6  1  0.87729905  0.11694131  0.86270904  1
  Mg  Mg7  1  0.36582903  0.87076354  0.36864734  1
  Mg  Mg8  1  0.62599078  0.38373719  0.86732617  1
  Mg  Mg9  1  0.87026847  0.62642766  0.37437104  1
  Mg  Mg10  1  0.38397505  0.62399275  0.12545597  1
  Mg  Mg11  1  0.11886925  0.62248281  0.11748074  1
  Mg  Mg12  1  0.38372637  0.62286879  0.37566053  1
  Mg  Mg13  1  0.63271477  0.63279755  0.13187296  1
  Mg  Mg14  1  0.61862124  0.61936737  0.63281838  1
  Mg  Mg15  1  0.38635753  0.37636512  0.12373643  1
  Mg  Mg16  1  0.37464532  0.87154994  0.62847426  1
  Mg  Mg17  1  0.63169220  0.12834586  0.13575432  1
  Mg  Mg18  1  0.64035879  0.87638545  0.37506052  1
  Mg  Mg19  1  0.71709682  0.02521457  0.76346505  1
  Mg  Mg20  1  0.46986333  0.48083137  0.26314435  1
  Mg  Mg21  1  0.02262924  0.55131823  0.30853677  1
  Mg  Mg22  1  -0.00824745  -0.06050497  0.76226451  1
  Mg  Mg23  1  0.52319189  0.75031611  0.71286091  1
  Mg  Mg24  1  -0.06202362  0.23035757  0.28739362  1
  Mg  Mg25  1  0.80141816  0.02525313  0.33503940  1
  Mg  Mg26  1  0.53850738  0.00793476  0.05188915  1
  Mg  Mg27  1  0.74430939  0.45883365  0.72382170  1
  Mg  Mg28  1  0.76300931  0.19306414  0.28585630  1
  Mg  Mg29  1  0.69934925  0.73622471  0.52358144  1
  Mg  Mg30  1  0.32573592  0.26878455  0.26444415  1
  Mg  Mg31  1  0.52714651  0.47393275  0.71721073  1
  Ti  Ti32  1  0.14307178  0.11760867  0.61969772  1
  Ti  Ti33  1  0.11935495  0.37407398  0.13288628  1
  Ti  Ti34  1  0.37477951  0.11870011  0.13410300  1
  Ti  Ti35  1  0.13117558  0.11675230  0.13878964  1
  Ti  Ti36  1  0.87341648  0.36859919  0.62222824  1
  Ti  Ti37  1  0.87193035  0.38384630  0.37470144  1
  Ti  Ti38  1  0.12170912  0.87202254  0.63532884  1
  Ti  Ti39  1  0.13079317  0.62375493  0.87438352  1
  Ti  Ti40  1  0.61717625  0.12504544  0.62351601  1
  Ti  Ti41  1  0.85125598  0.88368260  0.86094113  1
  Ti  Ti42  1  0.86592853  0.37076413  0.86715632  1
  Ti  Ti43  1  0.86677198  0.10562298  0.63259706  1
  Ti  Ti44  1  0.86659428  0.61996828  0.86956656  1
  Ti  Ti45  1  0.12413663  0.12778623  0.37081051  1
  Ti  Ti46  1  0.87719023  0.86504459  0.37806474  1
  Ti  Ti47  1  0.37717897  0.36190761  0.63308744  1
  Ti  Ti48  1  0.10220906  0.36267246  0.36075679  1
  Ti  Ti49  1  0.87423819  0.86004830  0.61613233  1
  Ti  Ti50  1  0.62000341  0.11542492  0.38060742  1
  Ti  Ti51  1  0.12511735  0.62427989  0.63681013  1
  Ti  Ti52  1  0.11875723  0.11888135  0.88410626  1
  Ti  Ti53  1  0.62064931  0.62074318  0.37706578  1
  Ti  Ti54  1  0.85331271  0.62824050  0.62531030  1
  Ti  Ti55  1  0.13096758  0.86279550  0.87131362  1
  Ti  Ti56  1  0.12311397  0.88621368  0.36126311  1
  Ti  Ti57  1  0.37605655  0.12076996  0.62258136  1
  Ti  Ti58  1  0.87652426  0.88134010  0.13577824  1
  Ti  Ti59  1  0.87549165  0.37002010  0.14634656  1
  Ti  Ti60  1  0.61692227  0.61086110  0.85837973  1
  Ti  Ti61  1  0.35653824  0.11501422  0.37344307  1
  Ti  Ti62  1  0.63382689  0.36331735  0.38568013  1
  Ti  Ti63  1  0.11921204  0.87127200  0.11559193  1
  Ti  Ti64  1  0.63078280  0.87747196  0.13367017  1
  Ti  Ti65  1  0.61766973  0.35877510  0.61770222  1
  Ti  Ti66  1  0.11830691  0.37269414  0.62154739  1
  Ti  Ti67  1  0.87206181  0.61602355  0.12973645  1
  Ti  Ti68  1  0.38343999  0.87041445  0.87916426  1
  Ti  Ti69  1  0.38664376  0.60717215  0.62845527  1
  Ti  Ti70  1  0.37689624  0.37756350  0.88484007  1
  Ti  Ti71  1  0.61546493  0.89090858  0.88030116  1
  Ti  Ti72  1  0.38488131  0.86863417  0.12126977  1
  Ti  Ti73  1  0.38300837  0.61259795  0.87824245  1
  Bi  Bi74  1  0.74026323  0.23908300  0.76427501  1
  Bi  Bi75  1  0.48502651  0.75690667  0.50066872  1
  Bi  Bi76  1  0.25441518  0.72144701  0.49689136  1
  Bi  Bi77  1  0.27495723  -0.00022995  0.77063995  1
  Bi  Bi78  1  0.74976928  0.47093391  0.01774246  1
  Bi  Bi79  1  0.25291296  0.22620384  0.76822858  1
  Bi  Bi80  1  0.28627157  0.73618373  0.73976820  1
  Bi  Bi81  1  0.75092787  0.00147549  0.03656163  1
  Bi  Bi82  1  0.50795530  -0.02361018  0.73448615  1
  Bi  Bi83  1  0.02557791  0.22874477  0.75422321  1
  Bi  Bi84  1  0.50705026  0.25482252  0.78364113  1
  Bi  Bi85  1  0.27464846  0.46002522  0.27394098  1
  Bi  Bi86  1  0.52233233  0.49086730  0.03986879  1
  Bi  Bi87  1  0.73904282  0.73683626  0.00509270  1
  Bi  Bi88  1  0.49987289  -0.02918338  0.26803486  1
  Bi  Bi89  1  0.25182621  0.72220580  0.00121011  1
  Bi  Bi90  1  0.21938529  0.70300936  0.28072538  1
  Bi  Bi91  1  0.26218909  0.24706051  0.03645499  1
  Bi  Bi92  1  0.77679644  0.21893163  0.48685829  1
  Bi  Bi93  1  0.50894357  0.72248320  0.00324280  1
  Bi  Bi94  1  -0.02482211  0.51774558  0.49522211  1
  Bi  Bi95  1  0.01666855  0.46665055  -0.00146345  1
  Bi  Bi96  1  0.48036590  0.73088953  0.26129277  1
  Bi  Bi97  1  -0.01716039  -0.02575949  -0.02541717  1
  Bi  Bi98  1  0.03001219  0.74285642  0.47115914  1
  Bi  Bi99  1  -0.00271641  0.73152172  0.22211491  1
  Bi  Bi100  1  0.25650771  0.49554750  0.03462264  1
  Bi  Bi101  1  0.53848796  0.25654267  0.24584684  1
  Bi  Bi102  1  0.50680338  0.21996828  0.00319538  1
  Bi  Bi103  1  0.00265067  -0.01535815  0.50332576  1
  Bi  Bi104  1  0.72534154  0.48980043  0.26056467  1
  Bi  Bi105  1  -0.01303222  0.73251616  0.73649289  1
  Bi  Bi106  1  0.73675324  0.73636120  0.27652910  1
  Bi  Bi107  1  0.50074300  -0.02526441  0.49212474  1
  Bi  Bi108  1  0.25995195  -0.02229938  -0.00486507  1
  Bi  Bi109  1  0.00598761  0.23066418  0.03624363  1
  Bi  Bi110  1  0.20601144  0.50891571  0.48369271  1
  Bi  Bi111  1  0.73130197  -0.01255577  0.52942649  1
  Bi  Bi112  1  0.25320456  -0.03733965  0.51581280  1
  Bi  Bi113  1  -0.00078197  0.47529718  0.76396369  1
  Bi  Bi114  1  0.46079421  0.46237570  0.47748708  1
  Bi  Bi115  1  -0.01596599  0.72804673  -0.00681767  1
  Bi  Bi116  1  0.77039137  0.21995136  -0.00895564  1
  Bi  Bi117  1  0.73263704  0.49829559  0.52566596  1
  Bi  Bi118  1  0.25241166  0.27386655  0.46961178  1
  Bi  Bi119  1  0.73823304  0.74251663  0.77306726  1
  Bi  Bi120  1  -0.01834807  0.02834350  0.27081884  1
  Bi  Bi121  1  0.25092439  -0.02875672  0.22977043  1
  Bi  Bi122  1  0.25764629  0.47286226  0.74010326  1
  Bi  Bi123  1  0.47518855  0.24185075  0.47271846  1
  Bi  Bi124  1  -0.00409110  0.21635944  0.52277353  1
  O  O125  1  0.11031656  0.14292970  -0.00240168  1
  O  O126  1  0.14891907  0.11634622  0.25413001  1
  O  O127  1  0.09521139  0.11797140  0.50309396  1
  O  O128  1  0.12806406  0.13204126  0.73771325  1
  O  O129  1  0.11598171  0.37019162  -0.00123412  1
  O  O130  1  0.10861607  0.39157771  0.25014620  1
  O  O131  1  0.15383889  0.37436128  0.50184002  1
  O  O132  1  0.12149130  0.40061601  0.74108831  1
  O  O133  1  0.11523846  0.66109061  -0.01023917  1
  O  O134  1  0.10236166  0.62770503  0.24823139  1
  O  O135  1  0.13831300  0.63997947  0.51104984  1
  O  O136  1  0.14473101  0.61816340  0.75241639  1
  O  O137  1  0.14611107  0.86995720  -0.00093236  1
  O  O138  1  0.12226610  0.89195084  0.24531848  1
  O  O139  1  0.11527475  0.89050896  0.50248013  1
  O  O140  1  0.11166834  0.89330171  0.75312362  1
  O  O141  1  0.37880396  0.15396040  0.00967363  1
  O  O142  1  0.34886460  0.13240670  0.25450352  1
  O  O143  1  0.39243493  0.12969338  0.49993476  1
  O  O144  1  0.35847116  0.11462747  0.74499290  1
  O  O145  1  0.36221824  0.36053486  -0.00255522  1
  O  O146  1  0.37966114  0.38301003  0.24930013  1
  O  O147  1  0.37364602  0.35814283  0.50642915  1
  O  O148  1  0.39556320  0.41345961  0.74159991  1
  O  O149  1  0.37729734  0.65580417  -0.00619601  1
  O  O150  1  0.42221198  0.60742633  0.24772867  1
  O  O151  1  0.38920299  0.65262374  0.51236977  1
  O  O152  1  0.35371019  0.61407466  0.75661098  1
  O  O153  1  0.35365805  0.87031046  0.00052616  1
  O  O154  1  0.38117289  0.89390222  0.24079025  1
  O  O155  1  0.36520283  0.86971615  0.49749196  1
  O  O156  1  0.38078116  0.90207384  0.75664511  1
  O  O157  1  0.59089095  0.11309637  0.00621565  1
  O  O158  1  0.64301320  0.16236630  0.26136570  1
  O  O159  1  0.60954445  0.08772491  0.50080912  1
  O  O160  1  0.64555139  0.13465172  0.73848686  1
  O  O161  1  0.63386563  0.39603704  -0.00588078  1
  O  O162  1  0.64019763  0.35435121  0.26356988  1
  O  O163  1  0.63186311  0.40424095  0.50188197  1
  O  O164  1  0.60712488  0.36542859  0.73386197  1
  O  O165  1  0.63951380  0.63659608  -0.02059340  1
  O  O166  1  0.61580475  0.66293036  0.25601095  1
  O  O167  1  0.64704504  0.60855746  0.49315571  1
  O  O168  1  0.61236805  0.67022525  0.75458343  1
  O  O169  1  0.62577351  0.91811195  -0.00826079  1
  O  O170  1  0.61463457  0.86041270  0.24487096  1
  O  O171  1  0.62181592  0.90198264  0.49924436  1
  O  O172  1  0.58327466  0.85777311  0.74807253  1
  O  O173  1  0.89132206  0.15261831  0.00104713  1
  O  O174  1  0.85712013  0.11029885  0.25871824  1
  O  O175  1  0.88726469  0.13191202  0.50436330  1
  O  O176  1  0.82416163  0.11559346  0.74272567  1
  O  O177  1  0.86335257  0.37743382  -0.01638706  1
  O  O178  1  0.85961952  0.40439657  0.25316582  1
  O  O179  1  0.87855646  0.39697774  0.49806907  1
  O  O180  1  0.89360592  0.38230981  0.73802959  1
  O  O181  1  0.86438100  0.63902302  -0.00953777  1
  O  O182  1  0.90996348  0.62035101  0.24422297  1
  O  O183  1  0.86492390  0.60544668  0.50703552  1
  O  O184  1  0.87188792  0.65556872  0.74790181  1
  O  O185  1  0.86150559  0.89896171  -0.02017355  1
  O  O186  1  0.88789398  0.88683294  0.24820282  1
  O  O187  1  0.90102513  0.87400401  0.49786941  1
  O  O188  1  0.89327914  0.85812590  0.74198125  1
  O  O189  1  0.01010032  0.13237942  0.13502834  1
  O  O190  1  0.00888416  0.14408410  0.34194940  1
  O  O191  1  -0.01306777  0.12878300  0.63821901  1
  O  O192  1  0.00293470  0.14127534  0.85547976  1
  O  O193  1  -0.00572670  0.38257099  0.11457400  1
  O  O194  1  -0.01208157  0.33379759  0.36073427  1
  O  O195  1  0.00455959  0.39699577  0.61433488  1
  O  O196  1  -0.00491632  0.38113637  0.86563761  1
  O  O197  1  -0.00764072  0.64078732  0.10502910  1
  O  O198  1  -0.00316592  0.63406607  0.40128938  1
  O  O199  1  0.00807173  0.61587913  0.64494311  1
  O  O200  1  -0.00872962  0.65255644  0.86921637  1
  O  O201  1  0.00143818  0.88697907  0.09994034  1
  O  O202  1  0.00594288  0.83951379  0.36936752  1
  O  O203  1  0.00370995  0.90701925  0.63146542  1
  O  O204  1  0.00871833  0.86636499  0.88760080  1
  O  O205  1  0.24537528  0.13022031  0.10489225  1
  O  O206  1  0.24534603  0.10679949  0.40067393  1
  O  O207  1  0.25184741  0.15005312  0.60581194  1
  O  O208  1  0.24247943  0.12424322  0.86640763  1
  O  O209  1  0.24250811  0.39538386  0.13590145  1
  O  O210  1  0.23654467  0.35214112  0.34941037  1
  O  O211  1  0.25687677  0.36494630  0.64779761  1
  O  O212  1  0.25822419  0.39789631  0.85502052  1
  O  O213  1  0.24917889  0.62631525  0.10517575  1
  O  O214  1  0.25498654  0.62273538  0.38554014  1
  O  O215  1  0.25735272  0.65341613  0.62265164  1
  O  O216  1  0.24835140  0.61964885  0.89864659  1
  O  O217  1  0.25226075  0.87089228  0.13595638  1
  O  O218  1  0.24124967  0.90461968  0.36476719  1
  O  O219  1  0.24391529  0.86291703  0.61841943  1
  O  O220  1  0.24786516  0.89295463  0.86768084  1
  O  O221  1  0.48923702  0.10318183  0.13894859  1
  O  O222  1  0.50642332  0.15297537  0.36654589  1
  O  O223  1  0.50113286  0.10589243  0.63612362  1
  O  O224  1  0.49716695  0.15266584  0.87346260  1
  O  O225  1  0.51043991  0.41073744  0.14920431  1
  O  O226  1  0.51243908  0.36295839  0.38870935  1
  O  O227  1  0.50239788  0.39298041  0.61076598  1
  O  O228  1  0.49610133  0.35391399  0.87785931  1
  O  O229  1  0.51203213  0.62208043  0.09501437  1
  O  O230  1  0.51034060  0.66246243  0.39273699  1
  O  O231  1  0.49598833  0.58374461  0.65186040  1
  O  O232  1  0.49940830  0.64223771  0.88156253  1
  O  O233  1  0.50015753  0.90272014  0.11194639  1
  O  O234  1  0.50192660  0.87783932  0.37622807  1
  O  O235  1  0.49709863  0.90214088  0.61200004  1
  O  O236  1  0.49725466  0.87031395  0.89377839  1
  O  O237  1  0.75149790  0.13679128  0.09966916  1
  O  O238  1  0.74375344  0.11869912  0.39330075  1
  O  O239  1  0.74665827  0.13007788  0.59181926  1
  O  O240  1  0.74956124  0.12003166  0.89830648  1
  O  O241  1  0.75934180  0.36998441  0.11315485  1
  O  O242  1  0.74886771  0.41923627  0.38146988  1
  O  O243  1  0.75211245  0.36542964  0.62969183  1
  O  O244  1  0.75378878  0.39851759  0.83460700  1
  O  O245  1  0.75925916  0.65013893  0.13737825  1
  O  O246  1  0.74852424  0.60822825  0.33941611  1
  O  O247  1  0.74577184  0.66537692  0.62209533  1
  O  O248  1  0.74436368  0.62267519  0.84668460  1
  O  O249  1  0.75246126  0.87584199  0.11836088  1
  O  O250  1  0.76702320  0.91089825  0.37367221  1
  O  O251  1  0.75710909  0.84917485  0.59592435  1
  O  O252  1  0.74736322  0.91767608  0.83073256  1
  O  O253  1  0.13972680  0.00267921  0.12143315  1
  O  O254  1  0.08960420  0.00235613  0.37673066  1
  O  O255  1  0.15480029  0.00476631  0.62271325  1
  O  O256  1  0.11245834  0.00509369  0.88866727  1
  O  O257  1  0.13192188  0.25829613  0.12634937  1
  O  O258  1  0.13169833  0.24389802  0.39261460  1
  O  O259  1  0.10650526  0.25614342  0.62346497  1
  O  O260  1  0.13364392  0.25149303  0.84635332  1
  O  O261  1  0.11880332  0.49991037  0.09434665  1
  O  O262  1  0.09747490  0.48125809  0.39322616  1
  O  O263  1  0.14535009  0.50709388  0.60946198  1
  O  O264  1  0.10307930  0.51175058  0.88363631  1
  O  O265  1  0.11381527  0.75821674  0.13732866  1
  O  O266  1  0.14854742  0.76304347  0.38392514  1
  O  O267  1  0.10763019  0.75678214  0.63627458  1
  O  O268  1  0.14184193  0.75317352  0.85306421  1
  O  O269  1  0.35152587  0.00436220  0.11336547  1
  O  O270  1  0.39796583  0.00683796  0.36774558  1
  O  O271  1  0.35012998  0.00652708  0.61604976  1
  O  O272  1  0.36035899  0.00133383  0.88871962  1
  O  O273  1  0.35726451  0.25211761  0.14113784  1
  O  O274  1  0.36515584  0.23997491  0.38091863  1
  O  O275  1  0.39289924  0.24969424  0.64097269  1
  O  O276  1  0.36254324  0.26070599  0.84930253  1
  O  O277  1  0.37563141  0.50165506  0.10261261  1
  O  O278  1  0.38321909  0.49805593  0.36983985  1
  O  O279  1  0.35259468  0.50405070  0.59346962  1
  O  O280  1  0.39124175  0.50333876  0.89879040  1
  O  O281  1  0.40288712  0.75574359  0.13163714  1
  O  O282  1  0.36209485  0.74624021  0.34544444  1
  O  O283  1  0.40543764  0.74801838  0.66079572  1
  O  O284  1  0.36183491  0.75751187  0.85929133  1
  O  O285  1  0.63977139  -0.00001354  0.13389235  1
  O  O286  1  0.61512703  0.00752438  0.34972700  1
  O  O287  1  0.65512852  -0.00219588  0.64794163  1
  O  O288  1  0.61038169  0.00227500  0.83818157  1
  O  O289  1  0.59407070  0.24994895  0.12146398  1
  O  O290  1  0.64643475  0.25378417  0.40921742  1
  O  O291  1  0.61082342  0.24432860  0.60114687  1
  O  O292  1  0.63683836  0.25192475  0.85993611  1
  O  O293  1  0.64778727  0.50747703  0.11765236  1
  O  O294  1  0.59852904  0.51061175  0.33734550  1
  O  O295  1  0.65226893  0.49916663  0.64500121  1
  O  O296  1  0.59682624  0.50656946  0.82852107  1
  O  O297  1  0.62343383  0.76359301  0.09324070  1
  O  O298  1  0.66726425  0.75083058  0.39918376  1
  O  O299  1  0.59034556  0.74432974  0.59671288  1
  O  O300  1  0.66132626  0.77892111  0.88879331  1
  O  O301  1  0.87115439  0.00006777  0.11249691  1
  O  O302  1  0.91279718  -0.00989519  0.38110120  1
  O  O303  1  0.85716418  -0.00663099  0.62024886  1
  O  O304  1  0.91183400  -0.00715726  0.84862587  1
  O  O305  1  0.89328032  0.25745183  0.16675583  1
  O  O306  1  0.83650865  0.26779661  0.35500565  1
  O  O307  1  0.88394014  0.25674258  0.61632995  1
  O  O308  1  0.85169633  0.25491666  0.85737121  1
  O  O309  1  0.86292522  0.50494628  0.11369213  1
  O  O310  1  0.91891213  0.49753003  0.37171324  1
  O  O311  1  0.83760628  0.51431548  0.64821346  1
  O  O312  1  0.88702322  0.51053786  0.86153865  1
  O  O313  1  0.88987574  0.76315694  0.12115687  1
  O  O314  1  0.85310058  0.75234242  0.36570822  1
  O  O315  1  0.90758302  0.74807557  0.61382029  1
  O  O316  1  0.84019598  0.76452413  0.87675820  1
