# generated using pymatgen
data_Mg32Ti42(Bi17O64)3
_symmetry_space_group_name_H-M   'P 1'
_cell_length_a   15.91451361
_cell_length_b   16.02214506
_cell_length_c   15.91359302
_cell_angle_alpha   90.04323005
_cell_angle_beta   90.07688180
_cell_angle_gamma   89.87225990
_symmetry_Int_Tables_number   1
_chemical_formula_structural   Mg32Ti42(Bi17O64)3
_chemical_formula_sum   'Mg32 Ti42 Bi51 O192'
_cell_volume   4057.70699240
_cell_formula_units_Z   1
loop_
 _symmetry_equiv_pos_site_id
 _symmetry_equiv_pos_as_xyz
  1  'x, y, z'
loop_
 _atom_site_type_symbol
 _atom_site_label
 _atom_site_symmetry_multiplicity
 _atom_site_fract_x
 _atom_site_fract_y
 _atom_site_fract_z
 _atom_site_occupancy
  Mg  Mg0  1  0.37960083  0.37361341  0.37435585  1
  Mg  Mg1  1  0.13207060  0.38060368  0.12611284  1
  Mg  Mg2  1  0.88729037  0.87826709  0.37422710  1
  Mg  Mg3  1  0.87530454  0.37222349  0.13635289  1
  Mg  Mg4  1  0.63240253  0.13042274  0.61893888  1
  Mg  Mg5  1  0.63127455  0.12802222  0.38466957  1
  Mg  Mg6  1  0.11522714  0.63668523  0.12231663  1
  Mg  Mg7  1  0.62555926  0.62842153  0.12962769  1
  Mg  Mg8  1  0.37771810  0.11734080  0.12034599  1
  Mg  Mg9  1  0.12517177  0.62352800  0.87130822  1
  Mg  Mg10  1  0.87099850  0.13667312  0.62523110  1
  Mg  Mg11  1  0.13093930  0.63046490  0.37759322  1
  Mg  Mg12  1  0.37530475  0.12857148  0.62442497  1
  Mg  Mg13  1  0.62245392  0.87918916  0.36951300  1
  Mg  Mg14  1  0.88107076  0.13422903  0.38509297  1
  Mg  Mg15  1  0.87273925  0.61857926  0.61971978  1
  Mg  Mg16  1  0.37894138  0.62986759  0.61854023  1
  Mg  Mg17  1  0.37115292  0.88133451  0.36921538  1
  Mg  Mg18  1  0.38152944  0.87724556  0.62694524  1
  Mg  Mg19  1  0.49446266  0.50336137  0.46703343  1
  Mg  Mg20  1  0.74578127  0.80999739  0.47721484  1
  Mg  Mg21  1  0.23148555  0.30710547  0.75475506  1
  Mg  Mg22  1  0.76218589  0.24960125  0.51300647  1
  Mg  Mg23  1  0.01323665  0.81523158  0.24212719  1
  Mg  Mg24  1  0.02424778  0.04738363  0.50162999  1
  Mg  Mg25  1  0.19445087  0.05530886  0.01454789  1
  Mg  Mg26  1  0.22017121  0.18938421  0.22307897  1
  Mg  Mg27  1  0.28142155  0.80725298  0.50390101  1
  Mg  Mg28  1  0.50402533  0.80235934  0.75296984  1
  Mg  Mg29  1  0.80058271  0.04623885  0.51286530  1
  Mg  Mg30  1  -0.03289377  0.19559312  0.78730790  1
  Mg  Mg31  1  0.02658551  0.75471650  -0.05756459  1
  Ti  Ti32  1  0.12176972  0.88183081  0.62311839  1
  Ti  Ti33  1  0.62757369  0.36634595  0.13276646  1
  Ti  Ti34  1  0.87186787  0.62867667  0.13469467  1
  Ti  Ti35  1  0.38029562  0.38188646  0.62267737  1
  Ti  Ti36  1  0.37570157  0.63399191  0.38346970  1
  Ti  Ti37  1  0.88684723  0.37380156  0.37846216  1
  Ti  Ti38  1  0.36740568  0.12711726  0.36775588  1
  Ti  Ti39  1  0.12832520  0.88749076  0.86240266  1
  Ti  Ti40  1  0.37578805  0.87885983  0.87536518  1
  Ti  Ti41  1  0.61602472  0.37371705  0.39119342  1
  Ti  Ti42  1  0.37162391  0.37931738  0.13375248  1
  Ti  Ti43  1  0.36240097  0.13572355  0.87922631  1
  Ti  Ti44  1  0.36799439  0.87752427  0.11878339  1
  Ti  Ti45  1  0.11668007  0.86911299  0.10438051  1
  Ti  Ti46  1  0.37841422  0.63411135  0.12048153  1
  Ti  Ti47  1  0.87912795  0.88516309  0.12364617  1
  Ti  Ti48  1  0.62059627  0.38263060  0.87231411  1
  Ti  Ti49  1  0.62422198  0.13175287  0.14005621  1
  Ti  Ti50  1  0.63281126  0.62913681  0.87918939  1
  Ti  Ti51  1  0.13370183  0.15131289  0.64448456  1
  Ti  Ti52  1  0.63081068  0.87984169  0.12833617  1
  Ti  Ti53  1  0.63332498  0.63087183  0.37586244  1
  Ti  Ti54  1  0.13394997  0.38227133  0.61677658  1
  Ti  Ti55  1  0.61873989  0.13593038  0.87095045  1
  Ti  Ti56  1  0.86295212  0.87679403  0.61541048  1
  Ti  Ti57  1  0.87472437  0.85816635  0.88247553  1
  Ti  Ti58  1  0.13198551  0.86748621  0.38388196  1
  Ti  Ti59  1  0.12342048  0.36659384  0.88727222  1
  Ti  Ti60  1  0.88586796  0.37547452  0.87793846  1
  Ti  Ti61  1  0.62597526  0.37331738  0.61815401  1
  Ti  Ti62  1  0.88114854  0.62508096  0.37551456  1
  Ti  Ti63  1  0.38454167  0.62822282  0.87506720  1
  Ti  Ti64  1  0.37816478  0.37711031  0.86534049  1
  Ti  Ti65  1  0.88605163  0.37536826  0.62386279  1
  Ti  Ti66  1  0.63736828  0.86926094  0.86764281  1
  Ti  Ti67  1  0.87507918  0.12729492  0.14274903  1
  Ti  Ti68  1  0.14031496  0.38771865  0.37527466  1
  Ti  Ti69  1  0.12819018  0.13415073  0.86581460  1
  Ti  Ti70  1  0.62151494  0.87395879  0.61878407  1
  Ti  Ti71  1  0.61411882  0.62213019  0.60460109  1
  Ti  Ti72  1  0.12854298  0.63283156  0.62511234  1
  Ti  Ti73  1  0.86974787  0.61111540  0.87679541  1
  Bi  Bi74  1  0.26724306  0.75814834  0.72664774  1
  Bi  Bi75  1  0.73823601  0.73245970  0.71099924  1
  Bi  Bi76  1  0.75070076  0.51594780  0.73426161  1
  Bi  Bi77  1  0.49342097  0.77951075  0.49311634  1
  Bi  Bi78  1  0.02180304  0.22937767  0.05520321  1
  Bi  Bi79  1  0.75474880  0.50130734  0.02869508  1
  Bi  Bi80  1  0.50677106  0.01051623  0.49080552  1
  Bi  Bi81  1  0.78520138  0.25625811  0.00679747  1
  Bi  Bi82  1  -0.00491290  0.76548878  0.49195050  1
  Bi  Bi83  1  0.23082442  0.24079957  0.46154538  1
  Bi  Bi84  1  0.77124278  0.01175696  0.29233441  1
  Bi  Bi85  1  0.48809096  0.27488948  0.00517682  1
  Bi  Bi86  1  0.51306072  0.50787768  0.02682106  1
  Bi  Bi87  1  0.51038941  0.51300105  0.73433503  1
  Bi  Bi88  1  -0.01918823  0.02640239  -0.02867798  1
  Bi  Bi89  1  0.22845609  0.74455046  0.23879906  1
  Bi  Bi90  1  0.75484015  0.74780582  0.02360079  1
  Bi  Bi91  1  -0.02078014  0.74741010  0.72168399  1
  Bi  Bi92  1  0.72639788  0.02226738  0.00981343  1
  Bi  Bi93  1  0.49984973  0.01777806  0.26181828  1
  Bi  Bi94  1  0.49587849  0.77281395  0.24358227  1
  Bi  Bi95  1  0.50800425  0.01528293  0.73585174  1
  Bi  Bi96  1  0.02914449  0.03128394  0.28964379  1
  Bi  Bi97  1  0.01106035  0.53235360  0.00252721  1
  Bi  Bi98  1  0.01546880  0.52689943  0.49742954  1
  Bi  Bi99  1  0.21446452  0.01481304  0.49937070  1
  Bi  Bi100  1  0.02578336  0.49501085  0.22713304  1
  Bi  Bi101  1  0.49811529  0.25832196  0.72406943  1
  Bi  Bi102  1  0.51838763  0.77617616  0.00079170  1
  Bi  Bi103  1  0.49487194  0.01265081  -0.02654162  1
  Bi  Bi104  1  -0.03396652  -0.00925890  0.75663474  1
  Bi  Bi105  1  0.75007150  0.25705497  0.28894876  1
  Bi  Bi106  1  0.24018345  0.75223043  -0.03409448  1
  Bi  Bi107  1  0.26425471  0.51834723  0.73850731  1
  Bi  Bi108  1  0.76795951  0.49371948  0.50294444  1
  Bi  Bi109  1  0.26691138  0.51680037  -0.00266923  1
  Bi  Bi110  1  0.50333710  0.52671943  0.26421410  1
  Bi  Bi111  1  0.25794526  0.52567313  0.24612130  1
  Bi  Bi112  1  0.47453456  0.25261249  0.24529252  1
  Bi  Bi113  1  0.76493035  0.49392198  0.27101076  1
  Bi  Bi114  1  0.27783354  0.50266052  0.49810462  1
  Bi  Bi115  1  0.76172747  0.03400222  0.78350487  1
  Bi  Bi116  1  0.27228607  0.01646377  0.73591880  1
  Bi  Bi117  1  0.24796809  0.24959522  0.03569434  1
  Bi  Bi118  1  0.75968025  0.27004623  0.77127971  1
  Bi  Bi119  1  -0.00321469  0.24202294  0.52898192  1
  Bi  Bi120  1  0.76612537  0.76850887  0.27434402  1
  Bi  Bi121  1  0.22711290  -0.00691746  0.21540052  1
  Bi  Bi122  1  0.48980363  0.23469119  0.49574509  1
  Bi  Bi123  1  0.03252542  0.49567263  0.76371604  1
  Bi  Bi124  1  0.03550494  0.24804671  0.27385086  1
  O  O125  1  0.09278181  0.12956740  -0.00851299  1
  O  O126  1  0.14818779  0.09435039  0.25758575  1
  O  O127  1  0.11290896  0.14170962  0.52362955  1
  O  O128  1  0.15143467  0.10154254  0.75433106  1
  O  O129  1  0.11032902  0.34547939  -0.00231982  1
  O  O130  1  0.14212614  0.41333269  0.25982428  1
  O  O131  1  0.11879272  0.34516836  0.50052122  1
  O  O132  1  0.13679276  0.39337571  0.73993905  1
  O  O133  1  0.08135119  0.64900022  -0.00279320  1
  O  O134  1  0.15449754  0.61737928  0.24807855  1
  O  O135  1  0.10341728  0.63684801  0.50588422  1
  O  O136  1  0.13506597  0.59530835  0.74648126  1
  O  O137  1  0.10799481  0.84136497  -0.00366683  1
  O  O138  1  0.12617781  0.90210322  0.26346025  1
  O  O139  1  0.11534828  0.83748437  0.50317159  1
  O  O140  1  0.13101269  0.89816518  0.74511086  1
  O  O141  1  0.40145067  0.10713137  -0.00613093  1
  O  O142  1  0.34323032  0.15546362  0.25525730  1
  O  O143  1  0.40922357  0.11586248  0.49835584  1
  O  O144  1  0.34291296  0.13161442  0.76135256  1
  O  O145  1  0.39567955  0.38063367  -0.01149223  1
  O  O146  1  0.36883136  0.35326258  0.24649214  1
  O  O147  1  0.39640320  0.41232055  0.50879541  1
  O  O148  1  0.34911946  0.35144813  0.74797621  1
  O  O149  1  0.38767974  0.59257886  -0.00278268  1
  O  O150  1  0.35646461  0.63309006  0.24373703  1
  O  O151  1  0.39490779  0.59366149  0.49496671  1
  O  O152  1  0.33958363  0.63754964  0.75873502  1
  O  O153  1  0.38924696  0.88279934  -0.00333114  1
  O  O154  1  0.37528674  0.84671884  0.24206514  1
  O  O155  1  0.39568677  0.87569072  0.49974115  1
  O  O156  1  0.37976918  0.84067307  0.75429950  1
  O  O157  1  0.60712405  0.09948553  -0.00473965  1
  O  O158  1  0.65271670  0.13325551  0.25077715  1
  O  O159  1  0.58158508  0.12291544  0.50064556  1
  O  O160  1  0.65161926  0.12245262  0.75401939  1
  O  O161  1  0.59413759  0.37827052  -0.01294393  1
  O  O162  1  0.64534890  0.36247012  0.24564636  1
  O  O163  1  0.58378595  0.39513858  0.50103169  1
  O  O164  1  0.64725816  0.35880318  0.74286204  1
  O  O165  1  0.60107595  0.60625331  -0.00665087  1
  O  O166  1  0.63145473  0.62248506  0.25758994  1
  O  O167  1  0.59088740  0.60038080  0.49367599  1
  O  O168  1  0.64810989  0.62630513  0.75782290  1
  O  O169  1  0.61549799  0.87962729  -0.00600970  1
  O  O170  1  0.62128733  0.85392766  0.24282805  1
  O  O171  1  0.61120341  0.86762774  0.49847403  1
  O  O172  1  0.62592693  0.84689346  0.74721196  1
  O  O173  1  0.90717746  0.12909192  0.01546781  1
  O  O174  1  0.84088462  0.13547217  0.25681605  1
  O  O175  1  0.91818437  0.11180765  0.50737752  1
  O  O176  1  0.87383683  0.11089635  0.74583126  1
  O  O177  1  0.88303869  0.36385954  -0.00634139  1
  O  O178  1  0.84381713  0.36399177  0.26291668  1
  O  O179  1  0.88346173  0.40639672  0.49480186  1
  O  O180  1  0.84774292  0.36853435  0.73753064  1
  O  O181  1  0.88518548  0.59960487  0.00096957  1
  O  O182  1  0.84399632  0.63200398  0.25126893  1
  O  O183  1  0.87628806  0.60112378  0.49287358  1
  O  O184  1  0.84305656  0.62596773  0.75910795  1
  O  O185  1  0.88080215  0.87661524  -0.00109252  1
  O  O186  1  0.88236794  0.85000384  0.24343500  1
  O  O187  1  0.87619103  0.85692911  0.49928967  1
  O  O188  1  0.87988158  0.87332295  0.74613215  1
  O  O189  1  -0.00953342  0.13906310  0.16535298  1
  O  O190  1  0.00457426  0.14865026  0.36036116  1
  O  O191  1  0.01436894  0.17365154  0.65923948  1
  O  O192  1  0.01119090  0.09548906  0.85155569  1
  O  O193  1  0.00031433  0.38070697  0.15712265  1
  O  O194  1  0.00143604  0.35304913  0.36743294  1
  O  O195  1  0.00108537  0.36235270  0.62646608  1
  O  O196  1  -0.00234170  0.38773392  0.85593817  1
  O  O197  1  -0.01327138  0.60458795  0.13845172  1
  O  O198  1  -0.00520564  0.63261753  0.37389213  1
  O  O199  1  0.00031646  0.63026273  0.64136895  1
  O  O200  1  -0.00884739  0.59581670  0.86023592  1
  O  O201  1  0.00040041  0.88024951  0.13201569  1
  O  O202  1  0.00758710  0.83559170  0.36862678  1
  O  O203  1  -0.00394110  0.84518812  0.62284115  1
  O  O204  1  0.00703496  0.88004739  0.86283206  1
  O  O205  1  0.25193295  0.12558958  0.10461329  1
  O  O206  1  0.25637131  0.11326289  0.40840056  1
  O  O207  1  0.24848633  0.09579487  0.61719944  1
  O  O208  1  0.24556695  0.13105077  0.91128155  1
  O  O209  1  0.25770157  0.37777364  0.10355722  1
  O  O210  1  0.25324055  0.39116596  0.40095682  1
  O  O211  1  0.25437267  0.39669283  0.61053757  1
  O  O212  1  0.23919458  0.34714414  0.87688645  1
  O  O213  1  0.25358520  0.61290392  0.10279849  1
  O  O214  1  0.26073383  0.58936194  0.37789086  1
  O  O215  1  0.24468851  0.59930418  0.61634049  1
  O  O216  1  0.24657500  0.62236141  0.90875166  1
  O  O217  1  0.24808345  0.85599978  0.12063712  1
  O  O218  1  0.24671662  0.89268519  0.40736976  1
  O  O219  1  0.24055498  0.88795577  0.60643567  1
  O  O220  1  0.25390072  0.86114911  0.87710365  1
  O  O221  1  0.50521187  0.11942180  0.15310535  1
  O  O222  1  0.49342131  0.14217444  0.33822662  1
  O  O223  1  0.50043604  0.12846918  0.66509983  1
  O  O224  1  0.50157955  0.10192400  0.85928129  1
  O  O225  1  0.50159699  0.36572514  0.12842593  1
  O  O226  1  0.50762144  0.33402867  0.35707868  1
  O  O227  1  0.49703497  0.38609162  0.65699811  1
  O  O228  1  0.49390131  0.38315171  0.84381618  1
  O  O229  1  0.49732990  0.61674259  0.12882761  1
  O  O230  1  0.49510148  0.64382808  0.35007502  1
  O  O231  1  0.50428159  0.62597458  0.64791386  1
  O  O232  1  0.49458601  0.61736678  0.85306653  1
  O  O233  1  0.50233245  0.86286804  0.12496674  1
  O  O234  1  0.49827722  0.84101692  0.36419140  1
  O  O235  1  0.50526342  0.84206354  0.63213923  1
  O  O236  1  0.50117228  0.86455006  0.86452136  1
  O  O237  1  0.74648062  0.12632682  0.09502862  1
  O  O238  1  0.75326350  0.08711441  0.40367082  1
  O  O239  1  0.75099520  0.13956531  0.57947939  1
  O  O240  1  0.74202159  0.11402754  0.89579447  1
  O  O241  1  0.74116853  0.36234818  0.08982670  1
  O  O242  1  0.73864174  0.40635070  0.38893103  1
  O  O243  1  0.73548893  0.36098289  0.58185664  1
  O  O244  1  0.74038429  0.34919210  0.88323223  1
  O  O245  1  0.74825510  0.62693027  0.09660955  1
  O  O246  1  0.74181265  0.58630005  0.38677547  1
  O  O247  1  0.74116633  0.61319570  0.62341051  1
  O  O248  1  0.74848319  0.63481251  0.90427647  1
  O  O249  1  0.75121904  0.86608054  0.11710450  1
  O  O250  1  0.75269200  0.88285182  0.36819087  1
  O  O251  1  0.74489499  0.85846511  0.60389543  1
  O  O252  1  0.75589742  0.85241792  0.87439319  1
  O  O253  1  0.14376746  -0.01593393  0.10503660  1
  O  O254  1  0.09093284  -0.01164956  0.41188132  1
  O  O255  1  0.09124807  -0.01079547  0.59588449  1
  O  O256  1  0.14188612  -0.00711914  0.90602181  1
  O  O257  1  0.14365181  0.25346378  0.13960381  1
  O  O258  1  0.16236583  0.26150296  0.33882351  1
  O  O259  1  0.17310721  0.25514411  0.65398739  1
  O  O260  1  0.09949513  0.24245165  0.84414355  1
  O  O261  1  0.11189414  0.50540591  0.11468798  1
  O  O262  1  0.11113375  0.49862893  0.40075448  1
  O  O263  1  0.10870943  0.49466374  0.60154053  1
  O  O264  1  0.12217304  0.48758458  0.88693625  1
  O  O265  1  0.10874113  0.75975729  0.16662797  1
  O  O266  1  0.15603568  0.75379094  0.35526969  1
  O  O267  1  0.13194928  0.74473632  0.65079835  1
  O  O268  1  0.13175858  0.75113155  0.86536989  1
  O  O269  1  0.37395280  -0.01117368  0.14002983  1
  O  O270  1  0.39588826  0.00803380  0.35687758  1
  O  O271  1  0.39103023  -0.00103295  0.65672768  1
  O  O272  1  0.37323670  -0.00730684  0.85846389  1
  O  O273  1  0.37813209  0.25100439  0.10058199  1
  O  O274  1  0.36210534  0.24699934  0.40564417  1
  O  O275  1  0.39945790  0.25862525  0.61270150  1
  O  O276  1  0.38938901  0.24542851  0.88750306  1
  O  O277  1  0.37944987  0.49484962  0.13534775  1
  O  O278  1  0.40946387  0.49783656  0.36059288  1
  O  O279  1  0.38282142  0.50186300  0.66061705  1
  O  O280  1  0.35247400  0.49332004  0.86204023  1
  O  O281  1  0.38041224  0.74370907  0.10115843  1
  O  O282  1  0.35027765  0.74128297  0.40845057  1
  O  O283  1  0.33780665  0.74971132  0.60888839  1
  O  O284  1  0.37193270  0.74081935  0.89927015  1
  O  O285  1  0.63432793  -0.00262327  0.12786334  1
  O  O286  1  0.58921046  0.00247942  0.37056981  1
  O  O287  1  0.60557372  -0.01136921  0.62711200  1
  O  O288  1  0.63606530  -0.01542998  0.86280577  1
  O  O289  1  0.61595607  0.24466921  0.11320583  1
  O  O290  1  0.66301080  0.25706448  0.40637189  1
  O  O291  1  0.59267690  0.25751108  0.61614208  1
  O  O292  1  0.60350720  0.24525681  0.87597457  1
  O  O293  1  0.63191667  0.48986256  0.11645754  1
  O  O294  1  0.58750487  0.49128416  0.36735957  1
  O  O295  1  0.62489986  0.49681089  0.64152565  1
  O  O296  1  0.63361264  0.49491867  0.86174613  1
  O  O297  1  0.62777080  0.75184463  0.09672654  1
  O  O298  1  0.66297459  0.74022227  0.39274041  1
  O  O299  1  0.63645664  0.73618028  0.60902458  1
  O  O300  1  0.61432961  0.74417861  0.88982485  1
  O  O301  1  0.86640395  -0.00073432  0.13446070  1
  O  O302  1  0.89237347  0.00207162  0.35907038  1
  O  O303  1  0.86072697  -0.00937826  0.61446947  1
  O  O304  1  0.88024007  -0.01301607  0.86881573  1
  O  O305  1  0.86467482  0.24571968  0.12216487  1
  O  O306  1  0.84441991  0.25995754  0.40206780  1
  O  O307  1  0.86957037  0.26087656  0.59317685  1
  O  O308  1  0.87981586  0.25803585  0.85477809  1
  O  O309  1  0.84317543  0.49712204  0.13660810  1
  O  O310  1  0.88435836  0.49659461  0.34742402  1
  O  O311  1  0.85778842  0.49267889  0.63250513  1
  O  O312  1  0.85013707  0.49339945  0.86692217  1
  O  O313  1  0.86745978  0.74266593  0.11200393  1
  O  O314  1  0.84513133  0.73878540  0.38425900  1
  O  O315  1  0.86718419  0.74381014  0.63680338  1
  O  O316  1  0.90826150  0.74352489  0.88738721  1
