# generated using pymatgen
data_Mg32Ti42(Bi17O64)3
_symmetry_space_group_name_H-M   'P 1'
_cell_length_a   15.95587838
_cell_length_b   15.97019097
_cell_length_c   15.97528444
_cell_angle_alpha   89.97005810
_cell_angle_beta   89.98123205
_cell_angle_gamma   89.99460431
_symmetry_Int_Tables_number   1
_chemical_formula_structural   Mg32Ti42(Bi17O64)3
_chemical_formula_sum   'Mg32 Ti42 Bi51 O192'
_cell_volume   4070.79602452
_cell_formula_units_Z   1
loop_
 _symmetry_equiv_pos_site_id
 _symmetry_equiv_pos_as_xyz
  1  'x, y, z'
loop_
 _atom_site_type_symbol
 _atom_site_label
 _atom_site_symmetry_multiplicity
 _atom_site_fract_x
 _atom_site_fract_y
 _atom_site_fract_z
 _atom_site_occupancy
  Mg  Mg0  1  0.12765362  0.37176572  0.38195549  1
  Mg  Mg1  1  0.12409942  0.87533595  0.63043717  1
  Mg  Mg2  1  0.37688704  0.37751476  0.87504496  1
  Mg  Mg3  1  0.64542385  0.37283503  0.37637864  1
  Mg  Mg4  1  0.87250710  0.62291331  0.63671634  1
  Mg  Mg5  1  0.37462497  0.11962036  0.88480376  1
  Mg  Mg6  1  0.86900507  0.12225307  0.87767055  1
  Mg  Mg7  1  0.11643944  0.87620778  0.37444861  1
  Mg  Mg8  1  0.37518061  0.13390217  0.12922621  1
  Mg  Mg9  1  0.87880252  0.62809680  0.36679691  1
  Mg  Mg10  1  0.12376516  0.12675304  0.62022688  1
  Mg  Mg11  1  0.12260585  0.88308997  0.12344801  1
  Mg  Mg12  1  0.62222248  0.12290477  0.37150861  1
  Mg  Mg13  1  0.88083145  0.87743852  0.87296146  1
  Mg  Mg14  1  0.86589186  0.13886132  0.63480577  1
  Mg  Mg15  1  0.37264475  0.86449087  0.61177575  1
  Mg  Mg16  1  0.62694170  0.87501756  0.62361720  1
  Mg  Mg17  1  0.11663527  0.61713756  0.12394982  1
  Mg  Mg18  1  0.12682703  0.37432470  0.87981576  1
  Mg  Mg19  1  0.20012395  0.24612088  0.24845560  1
  Mg  Mg20  1  0.50350420  -0.04767106  0.70440873  1
  Mg  Mg21  1  -0.01234815  0.75318329  0.58029543  1
  Mg  Mg22  1  -0.00677510  -0.00170474  0.57947120  1
  Mg  Mg23  1  0.73743175  0.19576737  0.75375945  1
  Mg  Mg24  1  0.00471896  0.48608404  0.28891692  1
  Mg  Mg25  1  0.00536507  0.08873910  0.74744862  1
  Mg  Mg26  1  0.80491799  0.22125087  0.31027165  1
  Mg  Mg27  1  0.74901442  0.81501963  0.76937555  1
  Mg  Mg28  1  0.72529525  0.22972004  0.48054925  1
  Mg  Mg29  1  0.74759315  -0.00102529  -0.07579737  1
  Mg  Mg30  1  0.16429982  0.74358545  0.49191173  1
  Mg  Mg31  1  0.80551100  0.02043939  0.73894478  1
  Ti  Ti32  1  0.62635629  0.13667271  0.12049870  1
  Ti  Ti33  1  0.37559515  0.36573216  0.13172335  1
  Ti  Ti34  1  0.87710212  0.63804617  0.86872899  1
  Ti  Ti35  1  0.87307630  0.36813294  0.38881933  1
  Ti  Ti36  1  0.87149205  0.87062410  0.38972614  1
  Ti  Ti37  1  0.64261349  0.38090989  0.62510791  1
  Ti  Ti38  1  0.87019611  0.88680115  0.11562003  1
  Ti  Ti39  1  0.61530037  0.37715433  0.85947038  1
  Ti  Ti40  1  0.11448527  0.61763437  0.36366508  1
  Ti  Ti41  1  0.38251140  0.62334910  0.61366362  1
  Ti  Ti42  1  0.61797924  0.62731546  0.12626255  1
  Ti  Ti43  1  0.62585779  0.62545351  0.37442161  1
  Ti  Ti44  1  0.37289477  0.88132681  0.88027750  1
  Ti  Ti45  1  0.62706309  0.62118456  0.63577466  1
  Ti  Ti46  1  0.62484289  0.12731406  0.87839620  1
  Ti  Ti47  1  0.13347123  0.13123484  0.38402156  1
  Ti  Ti48  1  0.63113313  0.10913660  0.62704027  1
  Ti  Ti49  1  0.62718876  0.63718875  0.86951973  1
  Ti  Ti50  1  0.11646731  0.37900451  0.13193604  1
  Ti  Ti51  1  0.12693842  0.36838966  0.61547231  1
  Ti  Ti52  1  0.36713823  0.13998759  0.35895500  1
  Ti  Ti53  1  0.87323469  0.37321695  0.62202702  1
  Ti  Ti54  1  0.63050616  0.88335067  0.12146969  1
  Ti  Ti55  1  0.37615795  0.87029093  0.13221689  1
  Ti  Ti56  1  0.13319567  0.62131483  0.88470930  1
  Ti  Ti57  1  0.61155800  0.88572230  0.87387363  1
  Ti  Ti58  1  0.37705561  0.62981893  0.13643619  1
  Ti  Ti59  1  0.85698377  0.37291520  0.13780863  1
  Ti  Ti60  1  0.87023992  0.88140207  0.63704725  1
  Ti  Ti61  1  0.13693185  0.88583525  0.87105408  1
  Ti  Ti62  1  0.12681864  0.12838962  0.87630191  1
  Ti  Ti63  1  0.37765450  0.64007265  0.36861526  1
  Ti  Ti64  1  0.37750222  0.62669759  0.88361037  1
  Ti  Ti65  1  0.36780465  0.36964423  0.37853467  1
  Ti  Ti66  1  0.37973141  0.38302097  0.62705321  1
  Ti  Ti67  1  0.88505340  0.62742952  0.12252675  1
  Ti  Ti68  1  0.62583572  0.37328024  0.11442610  1
  Ti  Ti69  1  0.11384911  0.12733831  0.12789064  1
  Ti  Ti70  1  0.37297171  0.87647044  0.37772584  1
  Ti  Ti71  1  0.63527569  0.88218810  0.37518435  1
  Ti  Ti72  1  0.12736576  0.62289885  0.62544656  1
  Ti  Ti73  1  0.87738105  0.13739659  0.12251381  1
  Bi  Bi74  1  0.52988417  0.26074527  0.26907453  1
  Bi  Bi75  1  0.74865681  0.03043473  0.22276318  1
  Bi  Bi76  1  0.27515497  0.22427759  0.52932694  1
  Bi  Bi77  1  -0.01005322  0.02487586  -0.01911236  1
  Bi  Bi78  1  0.48262431  0.01674038  0.01764446  1
  Bi  Bi79  1  0.49193107  0.51961762  0.76930140  1
  Bi  Bi80  1  0.77107285  0.04603631  0.47161866  1
  Bi  Bi81  1  -0.01122276  0.78856788  0.25224186  1
  Bi  Bi82  1  -0.02981635  0.03058575  0.29708800  1
  Bi  Bi83  1  0.02001890  0.48444352  0.74221764  1
  Bi  Bi84  1  0.51421338  0.48216422  0.26329536  1
  Bi  Bi85  1  -0.00814646  0.27742065  0.25883082  1
  Bi  Bi86  1  0.48585643  0.01443834  0.26496865  1
  Bi  Bi87  1  0.24938944  0.47277784  0.75559169  1
  Bi  Bi88  1  0.47357522  0.04426856  0.51990806  1
  Bi  Bi89  1  0.75696706  0.52443489  0.24619584  1
  Bi  Bi90  1  0.00467354  0.77691155  0.00844994  1
  Bi  Bi91  1  0.75306174  0.28311341  -0.03561037  1
  Bi  Bi92  1  -0.01605853  0.26822040  -0.01581924  1
  Bi  Bi93  1  0.52482743  0.50269016  0.49621194  1
  Bi  Bi94  1  0.23094370  0.75058342  0.02444659  1
  Bi  Bi95  1  0.48575212  0.21361117  0.74171028  1
  Bi  Bi96  1  0.21497503  -0.02164127  0.50675230  1
  Bi  Bi97  1  0.77592714  0.52482836  0.49909462  1
  Bi  Bi98  1  -0.01757810  0.47829224  -0.02656202  1
  Bi  Bi99  1  0.26495606  0.71227753  0.74619780  1
  Bi  Bi100  1  0.21132890  0.75213080  0.24591087  1
  Bi  Bi101  1  0.27397255  0.51233369  0.47998357  1
  Bi  Bi102  1  0.48882513  0.49131884  0.01993263  1
  Bi  Bi103  1  0.51894021  0.76333104  0.26296822  1
  Bi  Bi104  1  0.77072494  0.76536545  0.24963596  1
  Bi  Bi105  1  -0.00297151  0.53155266  0.51314271  1
  Bi  Bi106  1  0.48169935  0.76438326  0.74465799  1
  Bi  Bi107  1  0.29735452  0.00919749  0.71401160  1
  Bi  Bi108  1  0.74718992  0.53443832  0.00759380  1
  Bi  Bi109  1  0.22745030  0.00313704  0.26497862  1
  Bi  Bi110  1  -0.05477282  0.27953651  0.77009063  1
  Bi  Bi111  1  -0.03097138  0.21516555  0.48977654  1
  Bi  Bi112  1  0.25400183  0.21910916  0.73716553  1
  Bi  Bi113  1  0.03086452  0.75625732  0.77695047  1
  Bi  Bi114  1  0.24986209  0.48703453  0.01513076  1
  Bi  Bi115  1  0.24784126  0.24252754  -0.01310916  1
  Bi  Bi116  1  0.74987610  0.77106544  -0.02370111  1
  Bi  Bi117  1  0.49499375  0.76829467  0.01350859  1
  Bi  Bi118  1  0.75349336  0.75525508  0.54349048  1
  Bi  Bi119  1  0.23837203  0.48807709  0.25905040  1
  Bi  Bi120  1  0.24501158  0.01597341  0.01863740  1
  Bi  Bi121  1  0.50986418  0.77254112  0.50142038  1
  Bi  Bi122  1  0.48206222  0.25412590  -0.02186180  1
  Bi  Bi123  1  0.52652380  0.26757505  0.51459853  1
  Bi  Bi124  1  0.78163772  0.48720835  0.78803282  1
  O  O125  1  0.10040598  0.12475175  0.00652914  1
  O  O126  1  0.15663658  0.12676524  0.24365573  1
  O  O127  1  0.15018705  0.14159686  0.49556736  1
  O  O128  1  0.12712138  0.11996670  0.75874670  1
  O  O129  1  0.09347654  0.37159525  0.01414083  1
  O  O130  1  0.17218160  0.36710538  0.24026491  1
  O  O131  1  0.11527384  0.36795009  0.50577878  1
  O  O132  1  0.12793399  0.39681758  0.75237901  1
  O  O133  1  0.13682012  0.63159794  -0.00312112  1
  O  O134  1  0.13773863  0.63311364  0.24752165  1
  O  O135  1  0.12199819  0.62069592  0.48989298  1
  O  O136  1  0.11653978  0.62028093  0.74429853  1
  O  O137  1  0.12886900  0.85522761  -0.00599614  1
  O  O138  1  0.12474394  0.86359402  0.24795490  1
  O  O139  1  0.14157266  0.86628265  0.49596460  1
  O  O140  1  0.11699114  0.86831925  0.75592333  1
  O  O141  1  0.40439624  0.12961211  0.00667098  1
  O  O142  1  0.36908282  0.08959825  0.24685279  1
  O  O143  1  0.38056123  0.14130869  0.48252881  1
  O  O144  1  0.37089928  0.12949257  0.76028291  1
  O  O145  1  0.40625983  0.37496981  0.00301188  1
  O  O146  1  0.35950560  0.40135199  0.24357611  1
  O  O147  1  0.37373613  0.34488800  0.49457616  1
  O  O148  1  0.37367844  0.40310991  0.74458869  1
  O  O149  1  0.38445643  0.64952213  -0.00784052  1
  O  O150  1  0.37601827  0.60568577  0.24841453  1
  O  O151  1  0.37936745  0.64132650  0.49676199  1
  O  O152  1  0.36104847  0.60331722  0.74093779  1
  O  O153  1  0.37351511  0.84020805  -0.00467094  1
  O  O154  1  0.39701672  0.89047760  0.24446356  1
  O  O155  1  0.38810665  0.84927971  0.49001618  1
  O  O156  1  0.40547618  0.88986901  0.75826344  1
  O  O157  1  0.62929973  0.13847122  -0.00525926  1
  O  O158  1  0.63792444  0.11345722  0.24089782  1
  O  O159  1  0.64736415  0.12095335  0.50816167  1
  O  O160  1  0.61062794  0.14901015  0.74359426  1
  O  O161  1  0.61188564  0.35029572  -0.00217708  1
  O  O162  1  0.61812669  0.38041914  0.24662543  1
  O  O163  1  0.60610671  0.38750285  0.49935604  1
  O  O164  1  0.63530755  0.37868000  0.74363793  1
  O  O165  1  0.63039649  0.62888406  -0.00657908  1
  O  O166  1  0.62347539  0.59395394  0.24263045  1
  O  O167  1  0.61132083  0.62191957  0.49219367  1
  O  O168  1  0.62813710  0.60630305  0.74875751  1
  O  O169  1  0.62868348  0.84937615  0.00044876  1
  O  O170  1  0.61093589  0.87866635  0.24272515  1
  O  O171  1  0.63331845  0.84914722  0.49151777  1
  O  O172  1  0.60626783  0.88307022  0.75727939  1
  O  O173  1  0.89688557  0.12974978  0.00724349  1
  O  O174  1  0.86373012  0.12056691  0.24797345  1
  O  O175  1  0.84286540  0.16255476  0.51486836  1
  O  O176  1  0.88633989  0.11288345  0.75500063  1
  O  O177  1  0.89994591  0.37116989  0.02150649  1
  O  O178  1  0.85995026  0.33984778  0.25519500  1
  O  O179  1  0.89520079  0.34990714  0.50622814  1
  O  O180  1  0.88448171  0.40292550  0.74677613  1
  O  O181  1  0.85404043  0.63620951  0.00234569  1
  O  O182  1  0.85377801  0.61757734  0.24352213  1
  O  O183  1  0.87625929  0.61758478  0.49184347  1
  O  O184  1  0.87424327  0.59946358  0.75834336  1
  O  O185  1  0.87099376  0.84464875  -0.00049167  1
  O  O186  1  0.87628208  0.87410062  0.23687929  1
  O  O187  1  0.85928106  0.85982319  0.50043081  1
  O  O188  1  0.85177985  0.89985362  0.75174756  1
  O  O189  1  0.00141281  0.10663918  0.14942240  1
  O  O190  1  0.01194131  0.11400464  0.39827881  1
  O  O191  1  -0.00373067  0.11960272  0.62146185  1
  O  O192  1  0.00364816  0.11908909  0.87388697  1
  O  O193  1  0.01107776  0.40239011  0.17995801  1
  O  O194  1  -0.00197929  0.37952599  0.35402054  1
  O  O195  1  0.00067310  0.36298117  0.64785474  1
  O  O196  1  -0.00159444  0.36760008  0.88083557  1
  O  O197  1  -0.00756884  0.60157575  0.11248741  1
  O  O198  1  0.00005833  0.60020148  0.35359017  1
  O  O199  1  -0.00205744  0.63054074  0.60927654  1
  O  O200  1  -0.00754941  0.65700006  0.88047475  1
  O  O201  1  -0.00618321  0.87717657  0.10956559  1
  O  O202  1  -0.01073350  0.88051011  0.36258810  1
  O  O203  1  -0.01064863  0.87411492  0.61762008  1
  O  O204  1  0.00332181  0.84525061  0.88146094  1
  O  O205  1  0.25091188  0.13439679  0.08973471  1
  O  O206  1  0.25728616  0.09906005  0.37220725  1
  O  O207  1  0.25408047  0.11986932  0.63547312  1
  O  O208  1  0.24485913  0.11684182  0.90748889  1
  O  O209  1  0.26058084  0.36923344  0.08684370  1
  O  O210  1  0.25300470  0.40621244  0.38503520  1
  O  O211  1  0.24651401  0.40471294  0.62751192  1
  O  O212  1  0.25105960  0.40472645  0.88352354  1
  O  O213  1  0.26317531  0.64905583  0.12123512  1
  O  O214  1  0.25718062  0.60583602  0.37823228  1
  O  O215  1  0.24472579  0.62285244  0.62033600  1
  O  O216  1  0.25200641  0.61001733  0.87112265  1
  O  O217  1  0.26054931  0.85311262  0.12707301  1
  O  O218  1  0.26078972  0.89388016  0.36742537  1
  O  O219  1  0.25598483  0.90747312  0.62267377  1
  O  O220  1  0.25479299  0.88707799  0.86876863  1
  O  O221  1  0.51195806  0.09571698  0.13238807  1
  O  O222  1  0.49309647  0.13171339  0.35017802  1
  O  O223  1  0.51009527  0.15170861  0.60867507  1
  O  O224  1  0.50757569  0.15060144  0.86960762  1
  O  O225  1  0.49950426  0.40118839  0.13484608  1
  O  O226  1  0.48566734  0.36635459  0.35230579  1
  O  O227  1  0.49337109  0.35376793  0.62546136  1
  O  O228  1  0.50524664  0.33391112  0.85914489  1
  O  O229  1  0.50115443  0.60183288  0.11833133  1
  O  O230  1  0.49906187  0.64171450  0.36125006  1
  O  O231  1  0.49681196  0.63748070  0.63464538  1
  O  O232  1  0.50026665  0.63896900  0.85079370  1
  O  O233  1  0.50414163  0.88356270  0.10102277  1
  O  O234  1  0.51257412  0.84884052  0.37675229  1
  O  O235  1  0.50174718  0.84824528  0.62166917  1
  O  O236  1  0.50001745  0.84695925  0.88966503  1
  O  O237  1  0.75543297  0.13339712  0.12541869  1
  O  O238  1  0.74632137  0.14014576  0.38049354  1
  O  O239  1  0.74288861  0.10490316  0.66243964  1
  O  O240  1  0.74328582  0.09536562  0.84582219  1
  O  O241  1  0.74650999  0.35479558  0.11568861  1
  O  O242  1  0.76242814  0.32436726  0.39636199  1
  O  O243  1  0.75390403  0.40328792  0.61403046  1
  O  O244  1  0.73535044  0.39885566  0.89437786  1
  O  O245  1  0.74103053  0.61620529  0.12587175  1
  O  O246  1  0.74362519  0.60603416  0.37501339  1
  O  O247  1  0.74576920  0.61144832  0.60745210  1
  O  O248  1  0.74061437  0.59965789  0.87529951  1
  O  O249  1  0.74960376  0.84818146  0.12384990  1
  O  O250  1  0.75168904  0.86345854  0.35261433  1
  O  O251  1  0.74776114  0.85778228  0.63842307  1
  O  O252  1  0.73803492  0.88255062  0.88153603  1
  O  O253  1  0.14974621  0.00546597  0.12409662  1
  O  O254  1  0.12506537  0.00487451  0.35983736  1
  O  O255  1  0.11508836  0.00082879  0.59953047  1
  O  O256  1  0.11348608  -0.00408857  0.88922007  1
  O  O257  1  0.12176362  0.25035708  0.13850243  1
  O  O258  1  0.12987304  0.24541208  0.35493395  1
  O  O259  1  0.15716108  0.25455786  0.63488370  1
  O  O260  1  0.14016216  0.24579307  0.88368944  1
  O  O261  1  0.15521285  0.49401952  0.12447044  1
  O  O262  1  0.12163541  0.49744329  0.34402673  1
  O  O263  1  0.09792464  0.50187828  0.61930812  1
  O  O264  1  0.09185467  0.50908473  0.87831592  1
  O  O265  1  0.12666231  0.74866715  0.12174229  1
  O  O266  1  0.13190343  0.74206206  0.37104448  1
  O  O267  1  0.11511488  0.74470157  0.60915982  1
  O  O268  1  0.13866081  0.74205171  0.86052235  1
  O  O269  1  0.36787957  -0.01208645  0.09467321  1
  O  O270  1  0.40776853  -0.00953239  0.38456625  1
  O  O271  1  0.40553673  -0.00494367  0.62780716  1
  O  O272  1  0.38843608  -0.00783739  0.90239650  1
  O  O273  1  0.39308417  0.25668559  0.14309550  1
  O  O274  1  0.34027551  0.25101753  0.34262887  1
  O  O275  1  0.34651103  0.26410974  0.64265238  1
  O  O276  1  0.35877507  0.25122931  0.89768410  1
  O  O277  1  0.36531815  0.51043803  0.09312254  1
  O  O278  1  0.38783735  0.49456697  0.40102516  1
  O  O279  1  0.38699578  0.50151666  0.59696081  1
  O  O280  1  0.40504998  0.50782245  0.88247053  1
  O  O281  1  0.40698493  0.74881218  0.13593605  1
  O  O282  1  0.36630421  0.75023973  0.34683715  1
  O  O283  1  0.36573077  0.74479600  0.65421243  1
  O  O284  1  0.36516712  0.74383765  0.83957044  1
  O  O285  1  0.65359379  -0.00648437  0.11342145  1
  O  O286  1  0.63569592  -0.00640312  0.38313171  1
  O  O287  1  0.59234027  0.00032932  0.62776395  1
  O  O288  1  0.61675662  0.00044042  0.89439430  1
  O  O289  1  0.60563127  0.24712294  0.13405051  1
  O  O290  1  0.61038580  0.25068174  0.38084880  1
  O  O291  1  0.64761552  0.26330739  0.59172776  1
  O  O292  1  0.67111042  0.24481792  0.86063751  1
  O  O293  1  0.63443707  0.48924580  0.09914456  1
  O  O294  1  0.60465959  0.49857048  0.37517984  1
  O  O295  1  0.60161576  0.49938022  0.61706620  1
  O  O296  1  0.58852088  0.48962788  0.87182964  1
  O  O297  1  0.60756183  0.74059116  0.13851604  1
  O  O298  1  0.63758848  0.73837518  0.33908088  1
  O  O299  1  0.63615559  0.73736638  0.62526390  1
  O  O300  1  0.64875800  0.74754390  0.85535430  1
  O  O301  1  0.85770403  -0.00172370  0.11619820  1
  O  O302  1  0.86376224  -0.00791155  0.37664813  1
  O  O303  1  0.87076588  -0.00370779  0.61415275  1
  O  O304  1  0.87362851  -0.00248895  0.90441026  1
  O  O305  1  0.90376167  0.25022246  0.12583983  1
  O  O306  1  0.91000656  0.24543151  0.37106283  1
  O  O307  1  0.84162080  0.26314267  0.67389760  1
  O  O308  1  0.86429091  0.24981651  0.88347459  1
  O  O309  1  0.85160528  0.48888891  0.13459217  1
  O  O310  1  0.86156048  0.48214302  0.37030118  1
  O  O311  1  0.88790433  0.49388051  0.59906636  1
  O  O312  1  0.87590820  0.51190991  0.89241276  1
  O  O313  1  0.89070441  0.74183889  0.14126590  1
  O  O314  1  0.87830537  0.75314374  0.34767469  1
  O  O315  1  0.87106488  0.75029064  0.62918661  1
  O  O316  1  0.83481646  0.74869660  0.85143033  1
