# generated using pymatgen
data_Mg32Ti42(Bi17O64)3
_symmetry_space_group_name_H-M   'P 1'
_cell_length_a   15.94769564
_cell_length_b   15.95154242
_cell_length_c   15.93446283
_cell_angle_alpha   90.01841967
_cell_angle_beta   89.81992916
_cell_angle_gamma   90.03614273
_symmetry_Int_Tables_number   1
_chemical_formula_structural   Mg32Ti42(Bi17O64)3
_chemical_formula_sum   'Mg32 Ti42 Bi51 O192'
_cell_volume   4053.55243808
_cell_formula_units_Z   1
loop_
 _symmetry_equiv_pos_site_id
 _symmetry_equiv_pos_as_xyz
  1  'x, y, z'
loop_
 _atom_site_type_symbol
 _atom_site_label
 _atom_site_symmetry_multiplicity
 _atom_site_fract_x
 _atom_site_fract_y
 _atom_site_fract_z
 _atom_site_occupancy
  Mg  Mg0  1  0.38345195  0.88032357  0.87641390  1
  Mg  Mg1  1  0.12517992  0.38424623  0.62382738  1
  Mg  Mg2  1  0.37747244  0.12365975  0.62077338  1
  Mg  Mg3  1  0.12425619  0.87583821  0.87417566  1
  Mg  Mg4  1  0.61005414  0.64145974  0.38265763  1
  Mg  Mg5  1  0.62062819  0.38493952  0.11998438  1
  Mg  Mg6  1  0.36718195  0.36232186  0.13292293  1
  Mg  Mg7  1  0.87836439  0.37658965  0.38285244  1
  Mg  Mg8  1  0.11980496  0.10966548  0.36284002  1
  Mg  Mg9  1  0.38135884  0.37668315  0.87852085  1
  Mg  Mg10  1  0.62741781  0.88095917  0.12814632  1
  Mg  Mg11  1  0.86483260  0.87387673  0.11416588  1
  Mg  Mg12  1  0.87230656  0.87163189  0.86785749  1
  Mg  Mg13  1  0.88846805  0.36550402  0.12675490  1
  Mg  Mg14  1  0.63087537  0.11142539  0.37709365  1
  Mg  Mg15  1  0.88436779  0.38265406  0.86866323  1
  Mg  Mg16  1  0.12771705  0.12806348  0.88159663  1
  Mg  Mg17  1  0.61019875  0.61761433  0.13168364  1
  Mg  Mg18  1  0.12412851  0.12047657  0.62586781  1
  Mg  Mg19  1  0.52649914  -0.01035802  0.51536890  1
  Mg  Mg20  1  0.52361323  0.74621585  0.24719116  1
  Mg  Mg21  1  0.24204880  0.19737850  0.45778821  1
  Mg  Mg22  1  0.28281679  0.76723026  0.25186635  1
  Mg  Mg23  1  0.73305290  0.70087590  0.02422796  1
  Mg  Mg24  1  0.51784740  0.75607085  0.53746752  1
  Mg  Mg25  1  0.71527257  0.25461159  0.45634890  1
  Mg  Mg26  1  0.76634545  0.24131389  0.80135471  1
  Mg  Mg27  1  -0.04063290  0.71041853  0.74862748  1
  Mg  Mg28  1  -0.05758914  0.51236608  0.73181530  1
  Mg  Mg29  1  -0.07416091  0.49850885  0.24533019  1
  Mg  Mg30  1  0.46892020  0.48022968  0.06093689  1
  Mg  Mg31  1  0.70150962  0.46599008  0.46227345  1
  Ti  Ti32  1  0.11373826  0.11888724  0.12446227  1
  Ti  Ti33  1  0.87594332  0.13323251  0.63276981  1
  Ti  Ti34  1  0.11513970  0.63337527  0.88137636  1
  Ti  Ti35  1  0.86338141  0.12931579  0.38268277  1
  Ti  Ti36  1  0.87425766  0.12492294  0.88011498  1
  Ti  Ti37  1  0.63630558  0.11784497  0.13422570  1
  Ti  Ti38  1  0.37016213  0.12680290  0.13442267  1
  Ti  Ti39  1  0.85584788  0.63609952  0.61665283  1
  Ti  Ti40  1  0.14143477  0.86847670  0.37185339  1
  Ti  Ti41  1  0.13354679  0.63883371  0.12836739  1
  Ti  Ti42  1  0.37330149  0.11015729  0.37209907  1
  Ti  Ti43  1  0.11819245  0.62372656  0.64014675  1
  Ti  Ti44  1  0.87191870  0.62613149  0.87320468  1
  Ti  Ti45  1  0.86221603  0.61011479  0.38566330  1
  Ti  Ti46  1  0.63068303  0.87747689  0.62737794  1
  Ti  Ti47  1  0.38693253  0.87140727  0.13169672  1
  Ti  Ti48  1  0.62692291  0.37134580  0.87419083  1
  Ti  Ti49  1  0.63305542  0.12191647  0.61462500  1
  Ti  Ti50  1  0.37628238  0.13730945  0.87485625  1
  Ti  Ti51  1  0.12869779  0.60853858  0.37070230  1
  Ti  Ti52  1  0.87477970  0.12518357  0.14037220  1
  Ti  Ti53  1  0.39691885  0.61867066  0.88681615  1
  Ti  Ti54  1  0.62791515  0.12788077  0.88272834  1
  Ti  Ti55  1  0.62550994  0.61463325  0.60861847  1
  Ti  Ti56  1  0.38376676  0.62688790  0.62947236  1
  Ti  Ti57  1  0.38493411  0.64212003  0.37466103  1
  Ti  Ti58  1  0.11875519  0.86976353  0.10979448  1
  Ti  Ti59  1  0.12782940  0.38275652  0.38372447  1
  Ti  Ti60  1  0.37434877  0.88234877  0.62439921  1
  Ti  Ti61  1  0.61184994  0.87078578  0.38841760  1
  Ti  Ti62  1  0.38039977  0.87016692  0.38575532  1
  Ti  Ti63  1  0.87269127  0.36284623  0.61627986  1
  Ti  Ti64  1  0.12425772  0.38749957  0.86937125  1
  Ti  Ti65  1  0.62785323  0.60830672  0.87584020  1
  Ti  Ti66  1  0.89132983  0.87164535  0.63547859  1
  Ti  Ti67  1  0.36240156  0.35127168  0.38077964  1
  Ti  Ti68  1  0.12467210  0.39439268  0.12819034  1
  Ti  Ti69  1  0.63297342  0.36450783  0.61465647  1
  Ti  Ti70  1  0.37536044  0.63443431  0.14265620  1
  Ti  Ti71  1  0.12720905  0.87895790  0.63152604  1
  Ti  Ti72  1  0.62509632  0.87667998  0.87471353  1
  Ti  Ti73  1  0.36890007  0.36286280  0.62159098  1
  Bi  Bi74  1  0.70022398  0.50144987  0.27631421  1
  Bi  Bi75  1  0.76228470  -0.00768400  0.75516043  1
  Bi  Bi76  1  0.25393255  0.52741615  0.77393038  1
  Bi  Bi77  1  0.24997255  0.01859599  0.75426864  1
  Bi  Bi78  1  0.76228311  -0.03874972  0.26225972  1
  Bi  Bi79  1  0.52224439  0.25526827  0.02621907  1
  Bi  Bi80  1  0.24410300  0.01398114  0.49816352  1
  Bi  Bi81  1  0.27652549  0.77052881  -0.00747808  1
  Bi  Bi82  1  0.49182568  0.02095362  0.01621129  1
  Bi  Bi83  1  0.73465521  0.72589857  0.75959003  1
  Bi  Bi84  1  0.76815749  0.78041691  0.46616694  1
  Bi  Bi85  1  -0.01006917  -0.00683307  -0.01069907  1
  Bi  Bi86  1  0.22447866  0.25414426  0.22834809  1
  Bi  Bi87  1  -0.00416174  0.26112329  0.26595167  1
  Bi  Bi88  1  0.50716125  0.22652069  0.50756447  1
  Bi  Bi89  1  0.53315818  0.25099312  0.27502140  1
  Bi  Bi90  1  0.23273793  0.51563859  0.51764498  1
  Bi  Bi91  1  0.76211255  0.71118848  0.21743208  1
  Bi  Bi92  1  0.00143593  0.50719059  0.02342535  1
  Bi  Bi93  1  0.78283106  0.49965650  0.04279958  1
  Bi  Bi94  1  0.53059058  0.75311734  0.02677599  1
  Bi  Bi95  1  -0.02928988  0.49284317  0.51464688  1
  Bi  Bi96  1  0.24727475  0.76429762  0.77951724  1
  Bi  Bi97  1  0.49783003  0.46464624  0.27670460  1
  Bi  Bi98  1  0.74741554  0.29319431  0.26707925  1
  Bi  Bi99  1  0.00358019  0.26165246  -0.01013789  1
  Bi  Bi100  1  0.01036756  0.00543656  0.77076214  1
  Bi  Bi101  1  0.01401217  0.25143145  0.72055241  1
  Bi  Bi102  1  0.49307006  0.77079178  0.74291537  1
  Bi  Bi103  1  0.24471121  0.28110376  -0.01477728  1
  Bi  Bi104  1  0.76826691  0.27743551  0.01081436  1
  Bi  Bi105  1  0.75575273  -0.00837502  0.00432095  1
  Bi  Bi106  1  0.50013849  0.00224988  0.76649959  1
  Bi  Bi107  1  0.28119441  0.49439593  0.26202638  1
  Bi  Bi108  1  0.49682517  0.47189531  0.74560235  1
  Bi  Bi109  1  0.24574487  0.74694444  0.51448694  1
  Bi  Bi110  1  -0.00726496  -0.03026661  0.46201242  1
  Bi  Bi111  1  0.27168720  0.51053425  -0.00342216  1
  Bi  Bi112  1  0.22692354  0.24727414  0.73160225  1
  Bi  Bi113  1  0.47562693  0.49860748  0.51293778  1
  Bi  Bi114  1  0.25192821  0.00948788  0.00331753  1
  Bi  Bi115  1  0.75493061  0.46471870  0.74855131  1
  Bi  Bi116  1  -0.02284855  -0.04854783  0.24872201  1
  Bi  Bi117  1  0.51063301  0.23192474  0.75531838  1
  Bi  Bi118  1  -0.03943848  0.73217662  0.02476144  1
  Bi  Bi119  1  0.23667984  -0.02261212  0.23138236  1
  Bi  Bi120  1  0.77430164  -0.00093142  0.51535854  1
  Bi  Bi121  1  0.51379576  -0.01314215  0.27112212  1
  Bi  Bi122  1  0.02060473  0.74808428  0.48234773  1
  Bi  Bi123  1  -0.01402718  0.71578913  0.25439660  1
  Bi  Bi124  1  0.03199984  0.23652790  0.48688515  1
  O  O125  1  0.13775204  0.09006598  0.00635429  1
  O  O126  1  0.12810925  0.14539371  0.24206028  1
  O  O127  1  0.14272422  0.11770233  0.49903034  1
  O  O128  1  0.11207226  0.16468768  0.75961436  1
  O  O129  1  0.15620563  0.39495825  0.01215311  1
  O  O130  1  0.11252694  0.34518205  0.24873367  1
  O  O131  1  0.12864047  0.40909708  0.49494621  1
  O  O132  1  0.11351170  0.35616419  0.75859548  1
  O  O133  1  0.10081703  0.61216920  -0.00102844  1
  O  O134  1  0.12189703  0.64868818  0.24834071  1
  O  O135  1  0.11723926  0.59950982  0.49888788  1
  O  O136  1  0.15922718  0.63847195  0.74962853  1
  O  O137  1  0.11182386  0.89802440  0.00132026  1
  O  O138  1  0.16961867  0.84544282  0.26021652  1
  O  O139  1  0.10696371  0.88632205  0.51032931  1
  O  O140  1  0.14463085  0.84781542  0.74521141  1
  O  O141  1  0.36246230  0.10480857  -0.00318500  1
  O  O142  1  0.38042029  0.11686015  0.24985200  1
  O  O143  1  0.33952941  0.12001932  0.49540224  1
  O  O144  1  0.40831774  0.13310229  0.75083128  1
  O  O145  1  0.37051850  0.40756525  0.01016326  1
  O  O146  1  0.37207082  0.38098741  0.26013130  1
  O  O147  1  0.38022681  0.38556875  0.49336626  1
  O  O148  1  0.39456604  0.37599967  0.73774065  1
  O  O149  1  0.39566007  0.59581265  0.00539565  1
  O  O150  1  0.33745034  0.64693995  0.25119346  1
  O  O151  1  0.39825841  0.62795345  0.49009137  1
  O  O152  1  0.36422701  0.62751463  0.74467307  1
  O  O153  1  0.38424208  0.86471700  0.00779277  1
  O  O154  1  0.34909110  0.87885827  0.24816763  1
  O  O155  1  0.40276729  0.87071673  0.49887727  1
  O  O156  1  0.36206793  0.85165708  0.74206922  1
  O  O157  1  0.63738706  0.13603921  -0.00394078  1
  O  O158  1  0.60592687  0.10306073  0.24698680  1
  O  O159  1  0.63728133  0.16220114  0.49658253  1
  O  O160  1  0.59519141  0.12129798  0.73154215  1
  O  O161  1  0.63169362  0.35317872  -0.01069306  1
  O  O162  1  0.62627318  0.37413767  0.24617825  1
  O  O163  1  0.65811617  0.35497723  0.50288377  1
  O  O164  1  0.62210951  0.40599530  0.73952560  1
  O  O165  1  0.61868848  0.64705844  -0.01111089  1
  O  O166  1  0.64029545  0.65032645  0.25531665  1
  O  O167  1  0.59044201  0.65636530  0.50788264  1
  O  O168  1  0.65257966  0.61690870  0.74903637  1
  O  O169  1  0.60330089  0.87112606  -0.01087794  1
  O  O170  1  0.63439640  0.89841707  0.26158707  1
  O  O171  1  0.57961655  0.86522993  0.50480839  1
  O  O172  1  0.64118525  0.90276084  0.74030993  1
  O  O173  1  0.86342561  0.09354984  -0.00669364  1
  O  O174  1  0.87664292  0.15067860  0.25026871  1
  O  O175  1  0.87746511  0.10717583  0.49833601  1
  O  O176  1  0.86407329  0.16701368  0.74579198  1
  O  O177  1  0.85678117  0.38299517  -0.00540286  1
  O  O178  1  0.90055207  0.36913485  0.25214229  1
  O  O179  1  0.86197366  0.40416039  0.50473186  1
  O  O180  1  0.88989282  0.39011685  0.73774837  1
  O  O181  1  0.89749370  0.60973285  -0.01090327  1
  O  O182  1  0.87909336  0.61946660  0.25794995  1
  O  O183  1  0.89381692  0.63084135  0.50179601  1
  O  O184  1  0.85589411  0.63126468  0.74228096  1
  O  O185  1  0.87345766  0.91308151  -0.00774995  1
  O  O186  1  0.86283316  0.86651882  0.24336640  1
  O  O187  1  0.88295228  0.88909001  0.51229629  1
  O  O188  1  0.84086194  0.87434084  0.74153635  1
  O  O189  1  0.00230380  0.13911676  0.11272645  1
  O  O190  1  -0.00250485  0.15971557  0.37758423  1
  O  O191  1  -0.00573205  0.12949780  0.63593584  1
  O  O192  1  -0.00512863  0.10944232  0.88351272  1
  O  O193  1  0.01362273  0.35413739  0.09692135  1
  O  O194  1  0.00509889  0.33860686  0.38803400  1
  O  O195  1  -0.00507925  0.38979080  0.61013317  1
  O  O196  1  0.00836477  0.37350724  0.90583996  1
  O  O197  1  0.00388602  0.65212503  0.12824224  1
  O  O198  1  0.00802091  0.65226272  0.37620209  1
  O  O199  1  0.00844604  0.61420314  0.66803003  1
  O  O200  1  0.00684130  0.63579580  0.84582269  1
  O  O201  1  0.00208553  0.84723505  0.12797839  1
  O  O202  1  0.01074068  0.85186770  0.38040224  1
  O  O203  1  0.00345320  0.88937589  0.65412619  1
  O  O204  1  -0.00070937  0.90955506  0.87029382  1
  O  O205  1  0.25591331  0.08052137  0.12686560  1
  O  O206  1  0.24935359  0.09205934  0.37124025  1
  O  O207  1  0.25072842  0.13114642  0.66003405  1
  O  O208  1  0.25836519  0.12707225  0.84872491  1
  O  O209  1  0.24191012  0.38696330  0.15667498  1
  O  O210  1  0.24836453  0.39767934  0.36738309  1
  O  O211  1  0.25669356  0.35480387  0.63033965  1
  O  O212  1  0.24597570  0.36996093  0.87325167  1
  O  O213  1  0.24633724  0.60658381  0.10705606  1
  O  O214  1  0.24397120  0.60173794  0.38755527  1
  O  O215  1  0.26433231  0.63683826  0.60151002  1
  O  O216  1  0.25415605  0.61223717  0.88737369  1
  O  O217  1  0.24711349  0.90346264  0.11144410  1
  O  O218  1  0.25393072  0.89910876  0.40217612  1
  O  O219  1  0.25285332  0.85598227  0.60427274  1
  O  O220  1  0.25668056  0.86593362  0.88584309  1
  O  O221  1  0.48972833  0.13678923  0.10175281  1
  O  O222  1  0.48867223  0.15648473  0.38047869  1
  O  O223  1  0.50013406  0.10574216  0.57207771  1
  O  O224  1  0.50584314  0.15083525  0.88243471  1
  O  O225  1  0.49264773  0.35408051  0.11508414  1
  O  O226  1  0.48801779  0.35039161  0.36571832  1
  O  O227  1  0.51370132  0.40481980  0.61334156  1
  O  O228  1  0.51118921  0.37965778  0.86420169  1
  O  O229  1  0.48890581  0.66698332  0.14613864  1
  O  O230  1  0.48970264  0.66781679  0.34205203  1
  O  O231  1  0.50715825  0.59022917  0.63545004  1
  O  O232  1  0.50891860  0.61713485  0.85744502  1
  O  O233  1  0.49884222  0.84081095  0.15130657  1
  O  O234  1  0.49588220  0.85100482  0.34115000  1
  O  O235  1  0.49572934  0.89057406  0.65313970  1
  O  O236  1  0.50471871  0.87632765  0.84060959  1
  O  O237  1  0.75164003  0.10484208  0.13384079  1
  O  O238  1  0.75557580  0.08654076  0.38053927  1
  O  O239  1  0.74589486  0.12631747  0.62489975  1
  O  O240  1  0.74626298  0.12329199  0.85750839  1
  O  O241  1  0.75139906  0.38611612  0.12021765  1
  O  O242  1  0.75472423  0.40193873  0.35643753  1
  O  O243  1  0.75191425  0.36756205  0.64722457  1
  O  O244  1  0.75359216  0.36533907  0.84301586  1
  O  O245  1  0.74042815  0.61152480  0.12067385  1
  O  O246  1  0.75243821  0.57539020  0.39804833  1
  O  O247  1  0.74588458  0.66025747  0.60711844  1
  O  O248  1  0.75364978  0.64775655  0.89073268  1
  O  O249  1  0.74720036  0.91690666  0.12328825  1
  O  O250  1  0.73323421  0.90116081  0.40493001  1
  O  O251  1  0.74192919  0.87066898  0.59724457  1
  O  O252  1  0.74181687  0.90681897  0.88027779  1
  O  O253  1  0.10932733  -0.01058886  0.15584476  1
  O  O254  1  0.10306404  -0.01610382  0.36081228  1
  O  O255  1  0.14456258  -0.00635786  0.64950653  1
  O  O256  1  0.13529715  0.00428835  0.83846753  1
  O  O257  1  0.15584239  0.23598037  0.10936711  1
  O  O258  1  0.14655083  0.25927846  0.40634437  1
  O  O259  1  0.11845004  0.25481397  0.62544280  1
  O  O260  1  0.12691169  0.25291220  0.91747088  1
  O  O261  1  0.09559892  0.50526352  0.13582328  1
  O  O262  1  0.10805087  0.49809050  0.34828051  1
  O  O263  1  0.15411540  0.50883751  0.63689909  1
  O  O264  1  0.13124899  0.50216659  0.85883084  1
  O  O265  1  0.14799857  0.75216974  0.10462617  1
  O  O266  1  0.14122891  0.74986527  0.40994713  1
  O  O267  1  0.12454253  0.74076796  0.59643224  1
  O  O268  1  0.14237707  0.74561254  0.88828900  1
  O  O269  1  0.40675907  -0.00907302  0.12246492  1
  O  O270  1  0.40115856  -0.00313638  0.37445542  1
  O  O271  1  0.35712066  -0.00691574  0.62545675  1
  O  O272  1  0.39187381  0.00636831  0.86192613  1
  O  O273  1  0.34186759  0.23775944  0.12835671  1
  O  O274  1  0.33401529  0.24288372  0.38019973  1
  O  O275  1  0.40264077  0.25239681  0.61407741  1
  O  O276  1  0.36965021  0.25087691  0.89519817  1
  O  O277  1  0.38860016  0.51569800  0.15644681  1
  O  O278  1  0.39281161  0.51690922  0.35598484  1
  O  O279  1  0.37027482  0.50245850  0.60770959  1
  O  O280  1  0.36951907  0.50342950  0.86147151  1
  O  O281  1  0.33981226  0.75542652  0.12920706  1
  O  O282  1  0.34015626  0.75928643  0.37134541  1
  O  O283  1  0.41709372  0.74184915  0.61577765  1
  O  O284  1  0.37612183  0.73632304  0.89121066  1
  O  O285  1  0.59732652  0.00603402  0.10639382  1
  O  O286  1  0.57898824  -0.00384882  0.39632982  1
  O  O287  1  0.63036163  0.00262460  0.59131702  1
  O  O288  1  0.60330783  0.01115630  0.87123376  1
  O  O289  1  0.62232620  0.23851088  0.12726305  1
  O  O290  1  0.64939448  0.23724148  0.34772018  1
  O  O291  1  0.59950319  0.25367899  0.63131200  1
  O  O292  1  0.63791575  0.25112727  0.84159244  1
  O  O293  1  0.57826108  0.50171601  0.11772196  1
  O  O294  1  0.60205834  0.50967762  0.37477912  1
  O  O295  1  0.65629509  0.50972374  0.57723193  1
  O  O296  1  0.64696651  0.49813873  0.88466182  1
  O  O297  1  0.64314282  0.75531647  0.10876702  1
  O  O298  1  0.65357100  0.76228379  0.38513420  1
  O  O299  1  0.60080808  0.76003616  0.64409535  1
  O  O300  1  0.62892817  0.76202726  0.84718994  1
  O  O301  1  0.90146420  0.00686668  0.14439433  1
  O  O302  1  0.90561409  0.00971111  0.35510696  1
  O  O303  1  0.86097244  0.00660712  0.63923793  1
  O  O304  1  0.87479958  0.01269099  0.83340607  1
  O  O305  1  0.86672524  0.24147422  0.10147250  1
  O  O306  1  0.82556580  0.24771025  0.38873369  1
  O  O307  1  0.88326608  0.25173555  0.59841211  1
  O  O308  1  0.86420360  0.24525396  0.89578039  1
  O  O309  1  0.89730352  0.49359836  0.12225563  1
  O  O310  1  0.91362443  0.50308488  0.37124607  1
  O  O311  1  0.87463254  0.51899448  0.62354918  1
  O  O312  1  0.88300907  0.51114877  0.84900431  1
  O  O313  1  0.83751755  0.75461575  0.07786232  1
  O  O314  1  0.84309575  0.72999124  0.36603160  1
  O  O315  1  0.90325548  0.75223134  0.63536752  1
  O  O316  1  0.89082627  0.74715529  0.85823705  1
