# generated using pymatgen
data_Mg32Ti42(Bi17O64)3
_symmetry_space_group_name_H-M   'P 1'
_cell_length_a   15.93725845
_cell_length_b   15.97440818
_cell_length_c   15.96318386
_cell_angle_alpha   90.02848946
_cell_angle_beta   90.06210700
_cell_angle_gamma   90.00386420
_symmetry_Int_Tables_number   1
_chemical_formula_structural   Mg32Ti42(Bi17O64)3
_chemical_formula_sum   'Mg32 Ti42 Bi51 O192'
_cell_volume   4064.03649119
_cell_formula_units_Z   1
loop_
 _symmetry_equiv_pos_site_id
 _symmetry_equiv_pos_as_xyz
  1  'x, y, z'
loop_
 _atom_site_type_symbol
 _atom_site_label
 _atom_site_symmetry_multiplicity
 _atom_site_fract_x
 _atom_site_fract_y
 _atom_site_fract_z
 _atom_site_occupancy
  Mg  Mg0  1  0.87566746  0.36133387  0.37742285  1
  Mg  Mg1  1  0.62493505  0.61690425  0.12965114  1
  Mg  Mg2  1  0.87320579  0.88068581  0.62538994  1
  Mg  Mg3  1  0.12024768  0.86808355  0.62120113  1
  Mg  Mg4  1  0.12549240  0.62038616  0.86467719  1
  Mg  Mg5  1  0.62725734  0.88251757  0.37649755  1
  Mg  Mg6  1  0.62220073  0.61775576  0.37593673  1
  Mg  Mg7  1  0.38810298  0.35856279  0.12655544  1
  Mg  Mg8  1  0.62050891  0.62969257  0.86991513  1
  Mg  Mg9  1  0.37458132  0.36991546  0.60814822  1
  Mg  Mg10  1  0.87458252  0.62722424  0.37678951  1
  Mg  Mg11  1  0.13277958  0.37666335  0.37474502  1
  Mg  Mg12  1  0.87177061  0.87931188  0.87961714  1
  Mg  Mg13  1  0.88049152  0.37531828  0.87499366  1
  Mg  Mg14  1  0.88092755  0.37726017  0.62903398  1
  Mg  Mg15  1  0.87432319  0.13133253  0.87591875  1
  Mg  Mg16  1  0.36953324  0.62294856  0.11591271  1
  Mg  Mg17  1  0.37108475  0.86991999  0.87667160  1
  Mg  Mg18  1  0.62417433  0.36414970  0.62471964  1
  Mg  Mg19  1  0.26495250  0.43922750  0.02107262  1
  Mg  Mg20  1  0.01726332  0.42311540  0.76310072  1
  Mg  Mg21  1  0.70335464  0.48740975  -0.05898661  1
  Mg  Mg22  1  0.24675159  0.54374890  0.54187690  1
  Mg  Mg23  1  0.03827597  -0.04055688  0.75050229  1
  Mg  Mg24  1  -0.00974737  0.26631034  0.56157878  1
  Mg  Mg25  1  -0.00306755  0.22565488  0.78967606  1
  Mg  Mg26  1  0.71669618  0.30559435  0.81522918  1
  Mg  Mg27  1  0.45265199  0.07014596  0.46746046  1
  Mg  Mg28  1  0.29999032  0.74057824  0.73498140  1
  Mg  Mg29  1  0.45489946  0.19327326  0.28098212  1
  Mg  Mg30  1  0.24453536  0.23748620  0.00079691  1
  Mg  Mg31  1  0.77051994  0.23053493  0.24665255  1
  Ti  Ti32  1  0.37565495  0.86874470  0.12512522  1
  Ti  Ti33  1  0.87908873  0.62054848  0.61842294  1
  Ti  Ti34  1  0.61993773  0.88246243  0.61646591  1
  Ti  Ti35  1  0.12502728  0.87246678  0.13222550  1
  Ti  Ti36  1  0.36508370  0.37920142  0.36999972  1
  Ti  Ti37  1  0.12574601  0.86853611  0.87926404  1
  Ti  Ti38  1  0.87900667  0.61330512  0.12786481  1
  Ti  Ti39  1  0.12810122  0.61905522  0.37575705  1
  Ti  Ti40  1  0.63312362  0.86579887  0.12431397  1
  Ti  Ti41  1  0.63609867  0.37387719  0.12514931  1
  Ti  Ti42  1  0.12452635  0.11911883  0.87925606  1
  Ti  Ti43  1  0.64693155  0.36170283  0.35761571  1
  Ti  Ti44  1  0.36608182  0.12225726  0.62826019  1
  Ti  Ti45  1  0.12116864  0.87970304  0.37286297  1
  Ti  Ti46  1  0.37400980  0.12531015  0.12034675  1
  Ti  Ti47  1  0.61809565  0.87015557  0.88751248  1
  Ti  Ti48  1  0.86981533  0.86397601  0.12675944  1
  Ti  Ti49  1  0.12151285  0.13901623  0.64192015  1
  Ti  Ti50  1  0.12828373  0.62045626  0.13335214  1
  Ti  Ti51  1  0.62858461  0.13263158  0.14168620  1
  Ti  Ti52  1  0.60272799  0.11971727  0.60650844  1
  Ti  Ti53  1  0.11861091  0.62777620  0.63750600  1
  Ti  Ti54  1  0.63321409  0.62813419  0.63424943  1
  Ti  Ti55  1  0.37215388  0.61532634  0.86755842  1
  Ti  Ti56  1  0.62950079  0.12499613  0.36603159  1
  Ti  Ti57  1  0.37746851  0.87221611  0.38056399  1
  Ti  Ti58  1  0.87040343  0.87664029  0.38325281  1
  Ti  Ti59  1  0.87351002  0.37577227  0.12757369  1
  Ti  Ti60  1  0.14623453  0.37825034  0.87878719  1
  Ti  Ti61  1  0.37504714  0.61110084  0.38064399  1
  Ti  Ti62  1  0.12199027  0.11665999  0.11881872  1
  Ti  Ti63  1  0.88173155  0.13041211  0.64774608  1
  Ti  Ti64  1  0.38350109  0.87829382  0.61871289  1
  Ti  Ti65  1  0.88147423  0.61596692  0.87334578  1
  Ti  Ti66  1  0.11887141  0.37990676  0.12800138  1
  Ti  Ti67  1  0.88887320  0.13580855  0.12859195  1
  Ti  Ti68  1  0.38262679  0.62780011  0.62402167  1
  Ti  Ti69  1  0.87236202  0.12826647  0.36851052  1
  Ti  Ti70  1  0.11755086  0.12179220  0.38100760  1
  Ti  Ti71  1  0.35489084  0.12297725  0.88409455  1
  Ti  Ti72  1  0.13006845  0.37210853  0.61022504  1
  Ti  Ti73  1  0.36646237  0.35881420  0.88522559  1
  Bi  Bi74  1  0.24246231  -0.01377045  0.50636094  1
  Bi  Bi75  1  0.52113026  0.49548972  0.52846802  1
  Bi  Bi76  1  0.51683295  0.45030062  0.77207844  1
  Bi  Bi77  1  -0.00551723  0.46830336  0.48409319  1
  Bi  Bi78  1  0.48747120  -0.01419264  0.26563710  1
  Bi  Bi79  1  0.27653812  0.49349261  0.21678510  1
  Bi  Bi80  1  0.01695406  0.50936042  -0.02060913  1
  Bi  Bi81  1  0.51892543  0.27290857  0.47093601  1
  Bi  Bi82  1  -0.01526188  0.73934654  0.51167498  1
  Bi  Bi83  1  0.74046141  -0.01910242  0.25442709  1
  Bi  Bi84  1  -0.02283429  0.77424850  0.74597800  1
  Bi  Bi85  1  0.73228895  0.73105487  0.50907636  1
  Bi  Bi86  1  0.76290822  0.02693296  -0.00800535  1
  Bi  Bi87  1  -0.01577547  0.73369967  0.25928423  1
  Bi  Bi88  1  0.73173799  0.72771536  0.25671600  1
  Bi  Bi89  1  0.00783996  0.01644871  0.52977402  1
  Bi  Bi90  1  0.78384761  0.49326891  0.74752079  1
  Bi  Bi91  1  0.24964662  -0.03529120  0.74345264  1
  Bi  Bi92  1  0.26842384  0.25884750  0.73132086  1
  Bi  Bi93  1  -0.01574742  -0.01267935  0.26097627  1
  Bi  Bi94  1  0.25917813  -0.02643108  0.00605372  1
  Bi  Bi95  1  0.26005802  0.01066975  0.26126093  1
  Bi  Bi96  1  0.70996133  0.01845434  0.77618283  1
  Bi  Bi97  1  0.50844149  0.75497569  0.75811939  1
  Bi  Bi98  1  0.51517479  0.48798880  -0.01165226  1
  Bi  Bi99  1  0.51938880  0.76389137  0.47632646  1
  Bi  Bi100  1  -0.01581757  0.48450554  0.26868392  1
  Bi  Bi101  1  0.50805158  0.71839927  0.00316421  1
  Bi  Bi102  1  0.02081223  0.26438888  -0.01011162  1
  Bi  Bi103  1  0.73994065  0.47530846  0.51025605  1
  Bi  Bi104  1  0.02055622  0.72960994  0.00668721  1
  Bi  Bi105  1  0.74867095  0.78486042  0.75388952  1
  Bi  Bi106  1  0.53185385  0.23484483  0.77944275  1
  Bi  Bi107  1  0.23377214  0.24813481  0.21948150  1
  Bi  Bi108  1  0.24275007  0.73887703  0.26510218  1
  Bi  Bi109  1  0.01615581  0.25270309  0.28132983  1
  Bi  Bi110  1  0.23901475  0.73904690  0.51614683  1
  Bi  Bi111  1  0.50949270  0.47218967  0.25394808  1
  Bi  Bi112  1  0.51695749  0.00272180  0.02968977  1
  Bi  Bi113  1  0.48387017  0.71610661  0.24369533  1
  Bi  Bi114  1  0.48675756  0.01979854  0.78352464  1
  Bi  Bi115  1  0.26117850  0.72725363  -0.02768165  1
  Bi  Bi116  1  0.77429348  0.26270303  -0.00551669  1
  Bi  Bi117  1  0.76092527  0.71954464  -0.01788993  1
  Bi  Bi118  1  0.75715512  0.24174490  0.53521600  1
  Bi  Bi119  1  0.25839371  0.47925894  0.73013950  1
  Bi  Bi120  1  0.27864736  0.22433767  0.44794003  1
  Bi  Bi121  1  0.74443790  0.50429355  0.25531199  1
  Bi  Bi122  1  0.75882443  0.01911758  0.52680334  1
  Bi  Bi123  1  0.54640326  0.22241222  -0.01282881  1
  Bi  Bi124  1  -0.01855406  -0.02259432  0.00732622  1
  O  O125  1  0.14455150  0.11567762  -0.00382146  1
  O  O126  1  0.11132493  0.15417414  0.23472891  1
  O  O127  1  0.12767758  0.09593746  0.49492599  1
  O  O128  1  0.10387307  0.16879678  0.75183860  1
  O  O129  1  0.13379835  0.40930551  0.00506654  1
  O  O130  1  0.12324807  0.34929201  0.24412070  1
  O  O131  1  0.11939202  0.39267190  0.50022256  1
  O  O132  1  0.14824740  0.37821717  0.75974826  1
  O  O133  1  0.11267404  0.61906499  0.00762863  1
  O  O134  1  0.11476240  0.65641018  0.25215073  1
  O  O135  1  0.16213363  0.61979358  0.48953687  1
  O  O136  1  0.10450130  0.64163326  0.74429081  1
  O  O137  1  0.12772466  0.89748102  -0.00328033  1
  O  O138  1  0.13968276  0.86340566  0.24822153  1
  O  O139  1  0.11755542  0.91025466  0.49226415  1
  O  O140  1  0.14262313  0.87716912  0.75147734  1
  O  O141  1  0.33498254  0.14546464  -0.00231883  1
  O  O142  1  0.39153677  0.08931745  0.23841758  1
  O  O143  1  0.34630353  0.12279180  0.50393607  1
  O  O144  1  0.38251093  0.11064970  0.74525247  1
  O  O145  1  0.34342596  0.33957280  0.00078681  1
  O  O146  1  0.38126849  0.40415791  0.24948949  1
  O  O147  1  0.38290820  0.34462823  0.48418086  1
  O  O148  1  0.35541398  0.37715732  0.75659789  1
  O  O149  1  0.38322328  0.65023844  -0.00865142  1
  O  O150  1  0.39367405  0.60841307  0.25607164  1
  O  O151  1  0.34236215  0.62884980  0.50062019  1
  O  O152  1  0.37149180  0.62789635  0.74558361  1
  O  O153  1  0.34754687  0.85887812  0.00406925  1
  O  O154  1  0.36944466  0.90317453  0.24715622  1
  O  O155  1  0.37727690  0.86190848  0.49781935  1
  O  O156  1  0.35013707  0.86905897  0.74117781  1
  O  O157  1  0.62770618  0.11540061  0.01376926  1
  O  O158  1  0.58092320  0.15302523  0.25010463  1
  O  O159  1  0.64987568  0.10546042  0.49014120  1
  O  O160  1  0.59477085  0.11856439  0.72928695  1
  O  O161  1  0.62922535  0.41119060  0.01190249  1
  O  O162  1  0.68131893  0.33609185  0.24993773  1
  O  O163  1  0.61756858  0.39900657  0.49540766  1
  O  O164  1  0.61692853  0.35300594  0.74822870  1
  O  O165  1  0.59933434  0.60452559  0.00254306  1
  O  O166  1  0.60975501  0.65318790  0.25293481  1
  O  O167  1  0.65159098  0.61231641  0.50015878  1
  O  O168  1  0.61562437  0.65358748  0.74565561  1
  O  O169  1  0.62411717  0.89542728  0.00040047  1
  O  O170  1  0.64346671  0.87156570  0.24418051  1
  O  O171  1  0.60697714  0.88070467  0.50242677  1
  O  O172  1  0.61789227  0.84652791  0.74662116  1
  O  O173  1  0.84206611  0.14459708  0.00910044  1
  O  O174  1  0.89597621  0.10396261  0.24128679  1
  O  O175  1  0.84476232  0.12467630  0.48178110  1
  O  O176  1  0.90887793  0.13860697  0.75473843  1
  O  O177  1  0.89005955  0.33920762  0.00247172  1
  O  O178  1  0.87777059  0.39375776  0.24496676  1
  O  O179  1  0.91737208  0.35711986  0.50388548  1
  O  O180  1  0.88761131  0.40859842  0.75094455  1
  O  O181  1  0.87787201  0.64467825  0.01271093  1
  O  O182  1  0.90846552  0.61464087  0.25119547  1
  O  O183  1  0.86379253  0.64799177  0.50180423  1
  O  O184  1  0.87688279  0.60783662  0.75545654  1
  O  O185  1  0.89427012  0.86335301  0.00726956  1
  O  O186  1  0.86639818  0.90528655  0.24309536  1
  O  O187  1  0.88499074  0.86210984  0.49563067  1
  O  O188  1  0.86747458  0.85917632  0.75379216  1
  O  O189  1  0.00045410  0.14987629  0.09819209  1
  O  O190  1  -0.00525679  0.14098138  0.37747387  1
  O  O191  1  -0.00547489  0.14169948  0.59644391  1
  O  O192  1  0.00504496  0.16120685  0.89707989  1
  O  O193  1  0.00511885  0.36250273  0.12295780  1
  O  O194  1  0.00417037  0.37656017  0.36350939  1
  O  O195  1  0.01579365  0.37734315  0.64357678  1
  O  O196  1  0.00625523  0.33370926  0.85602739  1
  O  O197  1  0.00169162  0.65131479  0.12369096  1
  O  O198  1  0.01267711  0.66210286  0.38813964  1
  O  O199  1  0.00039006  0.61600847  0.59591187  1
  O  O200  1  -0.00415012  0.64013771  0.89451385  1
  O  O201  1  -0.00022352  0.87658544  0.13521469  1
  O  O202  1  0.00554922  0.86694020  0.35614882  1
  O  O203  1  0.00039614  0.87741072  0.65834811  1
  O  O204  1  0.00608483  0.87397625  0.85144973  1
  O  O205  1  0.24629934  0.11456554  0.14653781  1
  O  O206  1  0.23824435  0.11871544  0.35997084  1
  O  O207  1  0.23954525  0.12668301  0.64267129  1
  O  O208  1  0.24306972  0.11030524  0.85112582  1
  O  O209  1  0.24803526  0.38084417  0.14037162  1
  O  O210  1  0.25515888  0.39009532  0.36780418  1
  O  O211  1  0.24949318  0.36712685  0.63240822  1
  O  O212  1  0.25517682  0.41839131  0.89015403  1
  O  O213  1  0.24290545  0.63032105  0.14035650  1
  O  O214  1  0.25103809  0.62028308  0.34526294  1
  O  O215  1  0.24214103  0.65676569  0.63714921  1
  O  O216  1  0.25334936  0.61072717  0.88488060  1
  O  O217  1  0.24641340  0.90327310  0.12739128  1
  O  O218  1  0.25546986  0.91451052  0.38142553  1
  O  O219  1  0.24503378  0.88480170  0.60790157  1
  O  O220  1  0.24237032  0.90945985  0.87515104  1
  O  O221  1  0.48879228  0.13174090  0.09255588  1
  O  O222  1  0.50622935  0.15427059  0.39484829  1
  O  O223  1  0.49086917  0.11127270  0.58342343  1
  O  O224  1  0.48372670  0.13528528  0.87513417  1
  O  O225  1  0.51497522  0.38410633  0.14112274  1
  O  O226  1  0.52059908  0.35750238  0.34963823  1
  O  O227  1  0.49625046  0.39698781  0.61838335  1
  O  O228  1  0.48488786  0.36031482  0.87913039  1
  O  O229  1  0.49584080  0.64399632  0.12406653  1
  O  O230  1  0.49063031  0.64606616  0.39085621  1
  O  O231  1  0.49594006  0.61528770  0.61267433  1
  O  O232  1  0.49266649  0.66441468  0.86949345  1
  O  O233  1  0.49862420  0.87572894  0.11728429  1
  O  O234  1  0.49755120  0.84862466  0.36416949  1
  O  O235  1  0.49646879  0.88039860  0.63792269  1
  O  O236  1  0.50031510  0.84741981  0.87001534  1
  O  O237  1  0.73959610  0.13137225  0.16132345  1
  O  O238  1  0.74532863  0.12071704  0.33440637  1
  O  O239  1  0.75635220  0.12352832  0.62487105  1
  O  O240  1  0.75098791  0.09566931  0.87399031  1
  O  O241  1  0.76069660  0.38684439  0.10764962  1
  O  O242  1  0.75665704  0.38755021  0.40238352  1
  O  O243  1  0.75169623  0.37088628  0.60477484  1
  O  O244  1  0.75620081  0.41299572  0.86145795  1
  O  O245  1  0.75885807  0.61775875  0.15773601  1
  O  O246  1  0.75100891  0.61884796  0.34255453  1
  O  O247  1  0.75150884  0.64331699  0.63490522  1
  O  O248  1  0.74998295  0.60259591  0.90249471  1
  O  O249  1  0.75172793  0.89292739  0.11753548  1
  O  O250  1  0.75602134  0.90659550  0.37784483  1
  O  O251  1  0.74207129  0.86195001  0.62822317  1
  O  O252  1  0.73907262  0.89562412  0.85301674  1
  O  O253  1  0.10675055  0.00662538  0.13328730  1
  O  O254  1  0.11290890  0.00588784  0.34147174  1
  O  O255  1  0.09251603  0.01758015  0.64520016  1
  O  O256  1  0.09451358  0.01530164  0.85079038  1
  O  O257  1  0.15853884  0.25597031  0.09790625  1
  O  O258  1  0.12363500  0.24343288  0.37686442  1
  O  O259  1  0.11709991  0.25280228  0.59886165  1
  O  O260  1  0.15877770  0.26502204  0.90831181  1
  O  O261  1  0.12229589  0.50422660  0.14945588  1
  O  O262  1  0.10198466  0.51050740  0.36493282  1
  O  O263  1  0.15506111  0.50836371  0.62697152  1
  O  O264  1  0.08312693  0.49078828  0.86184243  1
  O  O265  1  0.13173002  0.76017056  0.10338940  1
  O  O266  1  0.15914006  0.76757518  0.38627421  1
  O  O267  1  0.11071917  0.74630159  0.59035991  1
  O  O268  1  0.13425574  0.75529997  0.89478197  1
  O  O269  1  0.38286461  0.00125592  0.09290831  1
  O  O270  1  0.41457002  -0.01020606  0.38367884  1
  O  O271  1  0.36472448  -0.00325878  0.61499223  1
  O  O272  1  0.38778851  0.00430632  0.88639903  1
  O  O273  1  0.37330668  0.23689325  0.16091153  1
  O  O274  1  0.36463234  0.25622645  0.34526489  1
  O  O275  1  0.37194594  0.24082192  0.63967263  1
  O  O276  1  0.34746414  0.24710288  0.85671009  1
  O  O277  1  0.35113894  0.49783056  0.09859605  1
  O  O278  1  0.39514850  0.49956416  0.39342901  1
  O  O279  1  0.34387164  0.50894459  0.61629669  1
  O  O280  1  0.40438378  0.50480142  0.87942685  1
  O  O281  1  0.36493902  0.75786255  0.14820990  1
  O  O282  1  0.35229856  0.75660714  0.35707023  1
  O  O283  1  0.37690383  0.74975968  0.62945611  1
  O  O284  1  0.33296542  0.75038232  0.85831906  1
  O  O285  1  0.60644728  0.00960967  0.13875230  1
  O  O286  1  0.61235179  0.01009389  0.34947481  1
  O  O287  1  0.63629013  -0.00127807  0.62172427  1
  O  O288  1  0.60252660  -0.00905669  0.85842687  1
  O  O289  1  0.62722221  0.25483316  0.10272151  1
  O  O290  1  0.64398541  0.25119628  0.40243718  1
  O  O291  1  0.62070158  0.23719143  0.59692059  1
  O  O292  1  0.62782127  0.24135940  0.87512974  1
  O  O293  1  0.63236446  0.49305757  0.16843835  1
  O  O294  1  0.63016233  0.48865355  0.34330494  1
  O  O295  1  0.62708096  0.50709252  0.62749582  1
  O  O296  1  0.59319995  0.50510240  0.87230520  1
  O  O297  1  0.63967660  0.75437825  0.11106475  1
  O  O298  1  0.64019433  0.75149265  0.39966043  1
  O  O299  1  0.61547428  0.74500167  0.59681316  1
  O  O300  1  0.64932191  0.75333052  0.89579581  1
  O  O301  1  0.88241799  0.01365668  0.09753988  1
  O  O302  1  0.90219325  -0.00023154  0.37671854  1
  O  O303  1  0.88075333  0.01009723  0.61421753  1
  O  O304  1  0.88287166  0.00404034  0.91291016  1
  O  O305  1  0.85721147  0.25059153  0.14875433  1
  O  O306  1  0.85928032  0.24142562  0.34145693  1
  O  O307  1  0.87420842  0.24715433  0.62040711  1
  O  O308  1  0.82414337  0.25627483  0.86634619  1
  O  O309  1  0.89465165  0.50057104  0.11440009  1
  O  O310  1  0.90342059  0.50320020  0.38188820  1
  O  O311  1  0.85926558  0.50583348  0.61092461  1
  O  O312  1  0.90098308  0.50379228  0.89814236  1
  O  O313  1  0.86370808  0.75417693  0.15316841  1
  O  O314  1  0.86577820  0.76120432  0.34758332  1
  O  O315  1  0.89637999  0.74400089  0.63295649  1
  O  O316  1  0.84434108  0.74290084  0.87696490  1
