# generated using pymatgen
data_Mg32Ti42(Bi17O64)3
_symmetry_space_group_name_H-M   'P 1'
_cell_length_a   15.93835602
_cell_length_b   15.96423472
_cell_length_c   15.97847028
_cell_angle_alpha   89.90160950
_cell_angle_beta   90.03525951
_cell_angle_gamma   90.11622834
_symmetry_Int_Tables_number   1
_chemical_formula_structural   Mg32Ti42(Bi17O64)3
_chemical_formula_sum   'Mg32 Ti42 Bi51 O192'
_cell_volume   4065.60528370
_cell_formula_units_Z   1
loop_
 _symmetry_equiv_pos_site_id
 _symmetry_equiv_pos_as_xyz
  1  'x, y, z'
loop_
 _atom_site_type_symbol
 _atom_site_label
 _atom_site_symmetry_multiplicity
 _atom_site_fract_x
 _atom_site_fract_y
 _atom_site_fract_z
 _atom_site_occupancy
  Mg  Mg0  1  0.12496255  0.37074608  0.87438170  1
  Mg  Mg1  1  0.12441243  0.87856126  0.12678154  1
  Mg  Mg2  1  0.88249646  0.13188574  0.88017819  1
  Mg  Mg3  1  0.37071046  0.87808137  0.38006867  1
  Mg  Mg4  1  0.12375524  0.63320057  0.11793378  1
  Mg  Mg5  1  0.12028435  0.88662268  0.87355046  1
  Mg  Mg6  1  0.37872185  0.88729291  0.12577266  1
  Mg  Mg7  1  0.11634571  0.38012046  0.13246314  1
  Mg  Mg8  1  0.87285669  0.63490710  0.38179662  1
  Mg  Mg9  1  0.62587224  0.86933597  0.37966394  1
  Mg  Mg10  1  0.86570343  0.62354693  0.12548908  1
  Mg  Mg11  1  0.12902272  0.12997206  0.38140186  1
  Mg  Mg12  1  0.87369452  0.62909468  0.63461605  1
  Mg  Mg13  1  0.61947640  0.12304822  0.38168003  1
  Mg  Mg14  1  0.38655278  0.13060858  0.87929832  1
  Mg  Mg15  1  0.12341966  0.36298156  0.62515080  1
  Mg  Mg16  1  0.62531069  0.64492375  0.61861296  1
  Mg  Mg17  1  0.62273669  0.38381841  0.89247276  1
  Mg  Mg18  1  0.12642451  0.62349691  0.63600896  1
  Mg  Mg19  1  -0.01232740  0.26751458  0.04890374  1
  Mg  Mg20  1  0.52665708  0.02811204  -0.07717628  1
  Mg  Mg21  1  0.44225130  0.73378326  0.51655946  1
  Mg  Mg22  1  0.48745470  -0.04446642  0.49150162  1
  Mg  Mg23  1  0.45745446  0.27668946  0.48412393  1
  Mg  Mg24  1  -0.03978020  0.23645468  0.72943145  1
  Mg  Mg25  1  0.00439701  0.80917623  -0.00531680  1
  Mg  Mg26  1  0.51307453  0.25277950  0.80632968  1
  Mg  Mg27  1  0.23271534  0.27723151  0.48598615  1
  Mg  Mg28  1  0.05599670  0.18404611  0.22334750  1
  Mg  Mg29  1  0.78416034  0.75594658  0.53666825  1
  Mg  Mg30  1  0.54850311  0.18911326  -0.02802431  1
  Mg  Mg31  1  0.47638628  0.55905129  0.19770121  1
  Ti  Ti32  1  0.37197941  0.14291113  0.61593047  1
  Ti  Ti33  1  0.87464031  0.36015281  0.87396337  1
  Ti  Ti34  1  0.62381811  0.87336337  0.12904178  1
  Ti  Ti35  1  0.62176644  0.86297973  0.87882360  1
  Ti  Ti36  1  0.11381646  0.37538816  0.37543261  1
  Ti  Ti37  1  0.88442640  0.89171757  0.87144779  1
  Ti  Ti38  1  0.38028245  0.36902853  0.12275648  1
  Ti  Ti39  1  0.12282876  0.88157904  0.36263206  1
  Ti  Ti40  1  0.88726389  0.62622106  0.87901056  1
  Ti  Ti41  1  0.36481662  0.62296317  0.86636819  1
  Ti  Ti42  1  0.12686298  0.88595607  0.62900815  1
  Ti  Ti43  1  0.86695863  0.88619278  0.11929615  1
  Ti  Ti44  1  0.62584651  0.63622133  0.13014357  1
  Ti  Ti45  1  0.13168466  0.13644152  0.61785960  1
  Ti  Ti46  1  0.37208886  0.12705237  0.39005448  1
  Ti  Ti47  1  0.37494106  0.88021763  0.62057587  1
  Ti  Ti48  1  0.62416831  0.11628660  0.12778363  1
  Ti  Ti49  1  0.86429408  0.36660293  0.62595360  1
  Ti  Ti50  1  0.11174741  0.13699052  0.86383949  1
  Ti  Ti51  1  0.11430820  0.63293340  0.38216560  1
  Ti  Ti52  1  0.86204099  0.12434167  0.61156492  1
  Ti  Ti53  1  0.38623040  0.88436974  0.87826564  1
  Ti  Ti54  1  0.60772215  0.35776394  0.62539083  1
  Ti  Ti55  1  0.61067751  0.38348887  0.37765345  1
  Ti  Ti56  1  0.87551966  0.38630738  0.38373208  1
  Ti  Ti57  1  0.37414057  0.37270844  0.61748717  1
  Ti  Ti58  1  0.87276431  0.88341530  0.63328722  1
  Ti  Ti59  1  0.38198062  0.36888669  0.89058978  1
  Ti  Ti60  1  0.87933095  0.12897910  0.36646616  1
  Ti  Ti61  1  0.61329491  0.12603016  0.60903675  1
  Ti  Ti62  1  0.87724561  0.87013625  0.38249681  1
  Ti  Ti63  1  0.62432697  0.87363299  0.62445860  1
  Ti  Ti64  1  0.36430772  0.61448059  0.62361269  1
  Ti  Ti65  1  0.13340046  0.61225655  0.88291813  1
  Ti  Ti66  1  0.62272851  0.62977788  0.86371768  1
  Ti  Ti67  1  0.37970808  0.61991087  0.37882778  1
  Ti  Ti68  1  0.87116972  0.37670870  0.14497740  1
  Ti  Ti69  1  0.39395061  0.12905611  0.10545370  1
  Ti  Ti70  1  0.60789603  0.38775627  0.13728986  1
  Ti  Ti71  1  0.86746393  0.13526918  0.11703166  1
  Ti  Ti72  1  0.61162566  0.62962342  0.37102355  1
  Ti  Ti73  1  0.36571969  0.37958439  0.37363484  1
  Bi  Bi74  1  0.19333631  0.24302117  0.02954218  1
  Bi  Bi75  1  0.76533480  0.51887841  0.26840004  1
  Bi  Bi76  1  0.73950035  0.00470642  0.26799387  1
  Bi  Bi77  1  0.73171088  0.26177642  0.26877284  1
  Bi  Bi78  1  0.01499982  0.04288803  0.02548772  1
  Bi  Bi79  1  -0.00639310  0.51980565  0.51669907  1
  Bi  Bi80  1  0.00358815  0.46327274  0.74273403  1
  Bi  Bi81  1  0.74128076  0.74635499  0.74195357  1
  Bi  Bi82  1  0.25135335  0.47248435  0.75110875  1
  Bi  Bi83  1  0.76995699  0.76539440  -0.01789907  1
  Bi  Bi84  1  0.24687734  0.78533787  0.76250812  1
  Bi  Bi85  1  0.23535966  0.75792374  0.47250757  1
  Bi  Bi86  1  0.73259649  0.27425922  0.49272869  1
  Bi  Bi87  1  0.23318691  0.77428617  0.01396989  1
  Bi  Bi88  1  0.76634657  0.51487197  -0.01124509  1
  Bi  Bi89  1  0.00654627  0.52256471  0.21984273  1
  Bi  Bi90  1  0.25001312  0.27892018  0.24480756  1
  Bi  Bi91  1  0.23996150  0.03908430  0.21915450  1
  Bi  Bi92  1  0.72461874  -0.00538495  0.49453818  1
  Bi  Bi93  1  0.48645122  0.02845867  0.73320482  1
  Bi  Bi94  1  -0.02144578  0.75615323  0.22364764  1
  Bi  Bi95  1  0.75596888  0.52791395  0.51805611  1
  Bi  Bi96  1  0.48948701  0.48314540  0.76739954  1
  Bi  Bi97  1  0.51440558  0.53296908  -0.00766455  1
  Bi  Bi98  1  0.02686243  0.73293207  0.76933391  1
  Bi  Bi99  1  0.47203220  0.75263564  0.74346985  1
  Bi  Bi100  1  0.23452543  0.51971243  0.27258867  1
  Bi  Bi101  1  0.24631173  0.00687887  0.01946303  1
  Bi  Bi102  1  0.26231967  0.24390216  0.77975226  1
  Bi  Bi103  1  0.50565527  0.00201505  0.26791651  1
  Bi  Bi104  1  0.76269224  0.50735134  0.75417168  1
  Bi  Bi105  1  0.49104368  0.77507810  0.27898409  1
  Bi  Bi106  1  0.24876225  0.00750804  0.48822923  1
  Bi  Bi107  1  0.72509632  0.01393598  0.75795747  1
  Bi  Bi108  1  0.22073605  0.49499399  0.51578251  1
  Bi  Bi109  1  0.48685357  0.23703774  0.25615824  1
  Bi  Bi110  1  0.75154654  0.74680156  0.25230043  1
  Bi  Bi111  1  0.01829611  0.75821377  0.53080232  1
  Bi  Bi112  1  -0.00419503  0.24634207  0.48238926  1
  Bi  Bi113  1  0.71951762  0.01163069  -0.02427555  1
  Bi  Bi114  1  -0.02558104  0.00766055  0.25098368  1
  Bi  Bi115  1  0.27862028  0.53546852  0.04225056  1
  Bi  Bi116  1  0.71565396  0.23574849  0.79083845  1
  Bi  Bi117  1  0.51812524  0.51840702  0.52165931  1
  Bi  Bi118  1  0.46896159  0.75021455  0.03004819  1
  Bi  Bi119  1  0.28144351  0.73629531  0.22354769  1
  Bi  Bi120  1  0.24400691  0.02049445  0.77694842  1
  Bi  Bi121  1  0.00754516  0.46078083  -0.00458610  1
  Bi  Bi122  1  -0.01816231  0.03041404  0.73644646  1
  Bi  Bi123  1  0.72554462  0.27697936  0.01959855  1
  Bi  Bi124  1  0.00478429  0.00895085  0.49358843  1
  O  O125  1  0.09234431  0.15133711  -0.01999797  1
  O  O126  1  0.16391502  0.13860991  0.26209928  1
  O  O127  1  0.08305460  0.12890556  0.50184902  1
  O  O128  1  0.15678879  0.12140373  0.73704324  1
  O  O129  1  0.09436487  0.35006620  -0.00235234  1
  O  O130  1  0.13787234  0.38389277  0.25842766  1
  O  O131  1  0.14628431  0.37476193  0.49621206  1
  O  O132  1  0.13179005  0.40177688  0.74854338  1
  O  O133  1  0.15987541  0.64360687  -0.00516446  1
  O  O134  1  0.11435977  0.60265096  0.26105199  1
  O  O135  1  0.14551811  0.64369711  0.49968482  1
  O  O136  1  0.09795580  0.61160020  0.76146353  1
  O  O137  1  0.11955353  0.85256343  -0.00486437  1
  O  O138  1  0.12344680  0.89880111  0.25273946  1
  O  O139  1  0.13064099  0.84609654  0.50949165  1
  O  O140  1  0.14186098  0.89086458  0.74460411  1
  O  O141  1  0.42730346  0.15222869  0.00173414  1
  O  O142  1  0.34740490  0.10025285  0.27457653  1
  O  O143  1  0.41190269  0.16097486  0.50631998  1
  O  O144  1  0.36558665  0.10201237  0.73773856  1
  O  O145  1  0.37862808  0.35925494  0.00355177  1
  O  O146  1  0.35817679  0.37800814  0.25331841  1
  O  O147  1  0.35005234  0.34492659  0.49878347  1
  O  O148  1  0.38163845  0.39465156  0.73654296  1
  O  O149  1  0.36199502  0.62645015  -0.01345514  1
  O  O150  1  0.39453817  0.62709581  0.26257531  1
  O  O151  1  0.35469188  0.63484577  0.50584159  1
  O  O152  1  0.40431440  0.60664108  0.74683828  1
  O  O153  1  0.38541312  0.86145023  -0.01139597  1
  O  O154  1  0.37172207  0.85591239  0.25234393  1
  O  O155  1  0.40281321  0.85500727  0.50880807  1
  O  O156  1  0.38631864  0.87210199  0.74424386  1
  O  O157  1  0.59894092  0.07890614  0.00922631  1
  O  O158  1  0.65491612  0.14085559  0.24012023  1
  O  O159  1  0.60617155  0.07814355  0.50161783  1
  O  O160  1  0.65706350  0.13090469  0.72792551  1
  O  O161  1  0.63651549  0.38799667  0.01938871  1
  O  O162  1  0.62069424  0.34501354  0.25595390  1
  O  O163  1  0.64185369  0.38090254  0.49607612  1
  O  O164  1  0.60451014  0.31282438  0.73458757  1
  O  O165  1  0.63967913  0.59827343  0.01155706  1
  O  O166  1  0.58273494  0.63309808  0.24888103  1
  O  O167  1  0.64019057  0.60161255  0.49461068  1
  O  O168  1  0.61676784  0.65207207  0.75124059  1
  O  O169  1  0.62137721  0.88880417  -0.00561426  1
  O  O170  1  0.63162951  0.84899614  0.24446966  1
  O  O171  1  0.61206585  0.90257369  0.50660686  1
  O  O172  1  0.65495893  0.85378262  0.75180261  1
  O  O173  1  0.91116305  0.15047445  0.00610889  1
  O  O174  1  0.86086802  0.09958558  0.24502488  1
  O  O175  1  0.90976130  0.12758280  0.49213582  1
  O  O176  1  0.86269071  0.09996676  0.73091273  1
  O  O177  1  0.89541414  0.34534318  -0.01098694  1
  O  O178  1  0.87350476  0.39407931  0.25745708  1
  O  O179  1  0.87609818  0.35722107  0.50277421  1
  O  O180  1  0.86575813  0.40516045  0.74663059  1
  O  O181  1  0.84077022  0.63528868  0.00030504  1
  O  O182  1  0.88256214  0.59476632  0.25607840  1
  O  O183  1  0.83104358  0.64345521  0.50371790  1
  O  O184  1  0.87614565  0.59825293  0.76077894  1
  O  O185  1  0.88632066  0.85127174  -0.00176224  1
  O  O186  1  0.87855190  0.89381043  0.24190648  1
  O  O187  1  0.86936217  0.84575785  0.49642443  1
  O  O188  1  0.87363400  0.89985289  0.74869356  1
  O  O189  1  -0.00667796  0.11002055  0.14441961  1
  O  O190  1  0.00288276  0.12361038  0.32849184  1
  O  O191  1  0.01292738  0.14298451  0.65342184  1
  O  O192  1  0.00252548  0.14174657  0.82587372  1
  O  O193  1  -0.01392276  0.37911907  0.12626486  1
  O  O194  1  -0.00164944  0.39164334  0.38456150  1
  O  O195  1  -0.00577928  0.34775229  0.65825741  1
  O  O196  1  -0.00537519  0.38729372  0.85714178  1
  O  O197  1  -0.00400852  0.64073087  0.13991927  1
  O  O198  1  0.00106713  0.62837683  0.40281869  1
  O  O199  1  -0.00544210  0.63096903  0.59881292  1
  O  O200  1  0.00008868  0.65122774  0.89313300  1
  O  O201  1  -0.00266689  0.84550090  0.12026193  1
  O  O202  1  0.00336236  0.86487287  0.38254404  1
  O  O203  1  0.00106841  0.86720269  0.61924731  1
  O  O204  1  -0.00421123  0.84702857  0.87141405  1
  O  O205  1  0.26295867  0.12642621  0.10072978  1
  O  O206  1  0.25547645  0.13919083  0.42535775  1
  O  O207  1  0.26108778  0.10152765  0.59866022  1
  O  O208  1  0.25968819  0.12544810  0.87234853  1
  O  O209  1  0.25080224  0.35397939  0.12088412  1
  O  O210  1  0.24966268  0.34365329  0.37376481  1
  O  O211  1  0.25406916  0.40191179  0.62832974  1
  O  O212  1  0.26281896  0.37313363  0.85824563  1
  O  O213  1  0.24821168  0.60291886  0.15338582  1
  O  O214  1  0.25471610  0.63010494  0.35764402  1
  O  O215  1  0.25338719  0.59614935  0.64352002  1
  O  O216  1  0.25154453  0.60411723  0.85261074  1
  O  O217  1  0.25275210  0.89661706  0.09960885  1
  O  O218  1  0.24578998  0.87505162  0.39145698  1
  O  O219  1  0.25840872  0.88778293  0.61696082  1
  O  O220  1  0.26375256  0.88306859  0.86408370  1
  O  O221  1  0.50350533  0.12403331  0.16109181  1
  O  O222  1  0.49689957  0.11832014  0.34495326  1
  O  O223  1  0.50312150  0.13500233  0.64845122  1
  O  O224  1  0.51058425  0.13442569  0.85287247  1
  O  O225  1  0.49727263  0.35337864  0.13657071  1
  O  O226  1  0.49468431  0.37125981  0.39641815  1
  O  O227  1  0.49307807  0.34519173  0.59003511  1
  O  O228  1  0.50000351  0.36891937  0.86249548  1
  O  O229  1  0.50349356  0.63088764  0.09972681  1
  O  O230  1  0.49664347  0.59775725  0.40220184  1
  O  O231  1  0.50217131  0.63876062  0.58864403  1
  O  O232  1  0.50483179  0.63875842  0.89903128  1
  O  O233  1  0.50538354  0.85209248  0.12597211  1
  O  O234  1  0.49870566  0.89307647  0.36481078  1
  O  O235  1  0.51605800  0.84068169  0.63639003  1
  O  O236  1  0.50747771  0.84898212  0.86050221  1
  O  O237  1  0.75024198  0.12317451  0.09442657  1
  O  O238  1  0.76135798  0.10245534  0.37964351  1
  O  O239  1  0.75301616  0.10958653  0.58680170  1
  O  O240  1  0.75561964  0.10606893  0.87417094  1
  O  O241  1  0.74082627  0.34910465  0.14223690  1
  O  O242  1  0.75570497  0.36135058  0.37229875  1
  O  O243  1  0.74760249  0.36501253  0.62458268  1
  O  O244  1  0.75352744  0.38131939  0.87969845  1
  O  O245  1  0.73867548  0.61728532  0.16548097  1
  O  O246  1  0.73544000  0.63159652  0.34306788  1
  O  O247  1  0.74549634  0.59610901  0.64370861  1
  O  O248  1  0.74123476  0.59658724  0.86540419  1
  O  O249  1  0.75058494  0.88315462  0.11174864  1
  O  O250  1  0.75620971  0.89722400  0.37303062  1
  O  O251  1  0.76010281  0.90882346  0.61202767  1
  O  O252  1  0.76130017  0.88783721  0.89174041  1
  O  O253  1  0.13029867  0.00704258  0.09598236  1
  O  O254  1  0.12562756  -0.00273337  0.39975953  1
  O  O255  1  0.11498220  -0.00080708  0.60399792  1
  O  O256  1  0.13060622  0.01522436  0.87268479  1
  O  O257  1  0.10192087  0.25104081  0.12884163  1
  O  O258  1  0.10200361  0.25690430  0.38675919  1
  O  O259  1  0.16085957  0.24368275  0.59916301  1
  O  O260  1  0.14393554  0.24910474  0.85445318  1
  O  O261  1  0.10095699  0.50481089  0.11086269  1
  O  O262  1  0.14118301  0.50351785  0.39106758  1
  O  O263  1  0.10540249  0.49939549  0.59924025  1
  O  O264  1  0.11653209  0.50184981  0.90303371  1
  O  O265  1  0.16668758  0.75348399  0.13548779  1
  O  O266  1  0.13543186  0.74968183  0.36881316  1
  O  O267  1  0.11449545  0.75135385  0.64563222  1
  O  O268  1  0.14113782  0.74983108  0.84571303  1
  O  O269  1  0.37416699  0.01290823  0.10845934  1
  O  O270  1  0.37897876  0.00862389  0.42482768  1
  O  O271  1  0.41862528  -0.01107557  0.60742169  1
  O  O272  1  0.40970305  -0.00288511  0.88458213  1
  O  O273  1  0.37766008  0.23964686  0.16129165  1
  O  O274  1  0.39294616  0.24690973  0.36336073  1
  O  O275  1  0.35382515  0.25137403  0.64259518  1
  O  O276  1  0.38510609  0.25558868  0.84972313  1
  O  O277  1  0.38851225  0.48760151  0.12056659  1
  O  O278  1  0.35278823  0.49330945  0.38617943  1
  O  O279  1  0.39733525  0.49675922  0.60354020  1
  O  O280  1  0.39767217  0.49709160  0.87807462  1
  O  O281  1  0.35703083  0.75403316  0.11208733  1
  O  O282  1  0.40060837  0.74008547  0.38850134  1
  O  O283  1  0.37422351  0.74049874  0.63679281  1
  O  O284  1  0.36337888  0.74122050  0.84807092  1
  O  O285  1  0.62187697  -0.00660743  0.15711810  1
  O  O286  1  0.62348196  0.00039322  0.34283596  1
  O  O287  1  0.61626231  -0.00678195  0.65600392  1
  O  O288  1  0.62639948  -0.01491313  0.85992694  1
  O  O289  1  0.61291598  0.22766484  0.08029185  1
  O  O290  1  0.64152445  0.24626051  0.38642884  1
  O  O291  1  0.62876826  0.23631636  0.58090271  1
  O  O292  1  0.62942497  0.25424784  0.89847292  1
  O  O293  1  0.59089200  0.49660832  0.15146292  1
  O  O294  1  0.63063268  0.49193394  0.35751569  1
  O  O295  1  0.60083890  0.47190873  0.64246817  1
  O  O296  1  0.60005427  0.50698433  0.86823204  1
  O  O297  1  0.64059915  0.74705869  0.10967400  1
  O  O298  1  0.60256557  0.74201517  0.38386400  1
  O  O299  1  0.67824253  0.76023467  0.60834559  1
  O  O300  1  0.65432835  0.74520875  0.89023268  1
  O  O301  1  0.88467065  -0.00129495  0.10382678  1
  O  O302  1  0.90156434  -0.00278279  0.38021917  1
  O  O303  1  0.90665365  0.00375950  0.60666782  1
  O  O304  1  0.90856789  0.00090390  0.88273155  1
  O  O305  1  0.88055408  0.24830579  0.13840461  1
  O  O306  1  0.88835472  0.24521991  0.37431373  1
  O  O307  1  0.86977651  0.24088250  0.63373317  1
  O  O308  1  0.87785064  0.25332671  0.83179838  1
  O  O309  1  0.85515809  0.48856076  0.10682513  1
  O  O310  1  0.85390273  0.49947314  0.39732216  1
  O  O311  1  0.88690736  0.49134457  0.60423322  1
  O  O312  1  0.88035685  0.50553187  0.90486924  1
  O  O313  1  0.85842720  0.74984059  0.15516870  1
  O  O314  1  0.86493165  0.75740565  0.34271977  1
  O  O315  1  0.85553756  0.76080237  0.64344687  1
  O  O316  1  0.84681336  0.74082360  0.86616169  1
