# generated using pymatgen
data_Mg32Ti42(Bi17O64)3
_symmetry_space_group_name_H-M   'P 1'
_cell_length_a   15.96048334
_cell_length_b   15.95487774
_cell_length_c   15.99453387
_cell_angle_alpha   89.94247457
_cell_angle_beta   89.78286405
_cell_angle_gamma   89.98687342
_symmetry_Int_Tables_number   1
_chemical_formula_structural   Mg32Ti42(Bi17O64)3
_chemical_formula_sum   'Mg32 Ti42 Bi51 O192'
_cell_volume   4072.93762244
_cell_formula_units_Z   1
loop_
 _symmetry_equiv_pos_site_id
 _symmetry_equiv_pos_as_xyz
  1  'x, y, z'
loop_
 _atom_site_type_symbol
 _atom_site_label
 _atom_site_symmetry_multiplicity
 _atom_site_fract_x
 _atom_site_fract_y
 _atom_site_fract_z
 _atom_site_occupancy
  Mg  Mg0  1  0.12590261  0.62238906  0.13025563  1
  Mg  Mg1  1  0.61202448  0.38785029  0.37898157  1
  Mg  Mg2  1  0.87394298  0.62605828  0.86516270  1
  Mg  Mg3  1  0.37414435  0.87900213  0.11747060  1
  Mg  Mg4  1  0.86584830  0.87459207  0.87654229  1
  Mg  Mg5  1  0.12332196  0.36815761  0.87078251  1
  Mg  Mg6  1  0.63404998  0.12525306  0.12719143  1
  Mg  Mg7  1  0.86087734  0.11641543  0.63162867  1
  Mg  Mg8  1  0.09979899  0.13696116  0.86485453  1
  Mg  Mg9  1  0.63092751  0.37549627  0.62535368  1
  Mg  Mg10  1  0.11854318  0.87435966  0.38250759  1
  Mg  Mg11  1  0.63003543  0.86819884  0.38033693  1
  Mg  Mg12  1  0.62090863  0.62291114  0.62182553  1
  Mg  Mg13  1  0.37458806  0.12112919  0.87660634  1
  Mg  Mg14  1  0.62203673  0.12687393  0.37672211  1
  Mg  Mg15  1  0.87129352  0.61563735  0.12752769  1
  Mg  Mg16  1  0.37027629  0.62850947  0.11139292  1
  Mg  Mg17  1  0.63810568  0.86932163  0.12248489  1
  Mg  Mg18  1  0.61631532  0.38634702  0.11769707  1
  Mg  Mg19  1  0.18553306  -0.00624406  -0.04978540  1
  Mg  Mg20  1  0.47570265  0.50261020  0.18556786  1
  Mg  Mg21  1  0.79224097  0.49994524  -0.04785444  1
  Mg  Mg22  1  0.51203757  0.44034377  -0.02913767  1
  Mg  Mg23  1  0.02280700  -0.05807379  0.80500157  1
  Mg  Mg24  1  0.70275505  0.49999169  0.23544256  1
  Mg  Mg25  1  0.25773418  -0.04282182  0.45865909  1
  Mg  Mg26  1  0.47100244  0.50173727  0.50157139  1
  Mg  Mg27  1  -0.04542681  0.22217228  0.73896509  1
  Mg  Mg28  1  0.77380573  0.26513616  0.77548055  1
  Mg  Mg29  1  0.76608489  -0.06660447  0.26724347  1
  Mg  Mg30  1  0.01133861  0.74929355  0.52413217  1
  Mg  Mg31  1  0.21431648  0.82369561  0.78737691  1
  Ti  Ti32  1  0.87924704  0.85246459  0.38307507  1
  Ti  Ti33  1  0.61798384  0.61713155  0.11975972  1
  Ti  Ti34  1  0.37467942  0.62281899  0.37514125  1
  Ti  Ti35  1  0.62035884  0.13373491  0.62056012  1
  Ti  Ti36  1  0.36111067  0.87530225  0.63079297  1
  Ti  Ti37  1  0.38128678  0.86270814  0.36370326  1
  Ti  Ti38  1  0.87710878  0.62702576  0.37982129  1
  Ti  Ti39  1  0.88045839  0.39189046  0.13328417  1
  Ti  Ti40  1  0.11477010  0.12686346  0.63008560  1
  Ti  Ti41  1  0.64234375  0.38779191  0.86851407  1
  Ti  Ti42  1  0.37207692  0.11232408  0.37606291  1
  Ti  Ti43  1  0.37628609  0.11243346  0.61863229  1
  Ti  Ti44  1  0.12176551  0.88662348  0.62252147  1
  Ti  Ti45  1  0.88357002  0.10566249  0.85955374  1
  Ti  Ti46  1  0.37431652  0.63272951  0.61641289  1
  Ti  Ti47  1  0.87574727  0.38603054  0.37570720  1
  Ti  Ti48  1  0.13647086  0.63276261  0.62349568  1
  Ti  Ti49  1  0.86903373  0.86627983  0.12353004  1
  Ti  Ti50  1  0.11936622  0.36672590  0.63084425  1
  Ti  Ti51  1  0.37992542  0.37222376  0.62175281  1
  Ti  Ti52  1  0.37126729  0.88676272  0.88015803  1
  Ti  Ti53  1  0.61519205  0.87399278  0.63014412  1
  Ti  Ti54  1  0.60735942  0.61787614  0.37970091  1
  Ti  Ti55  1  0.11819197  0.12719345  0.12694460  1
  Ti  Ti56  1  0.61887693  0.61317713  0.86426312  1
  Ti  Ti57  1  0.63269749  0.85936639  0.87198496  1
  Ti  Ti58  1  0.12960575  0.63250639  0.38161989  1
  Ti  Ti59  1  0.87714587  0.37093048  0.61921855  1
  Ti  Ti60  1  0.87357870  0.13693868  0.13820826  1
  Ti  Ti61  1  0.87967667  0.63980336  0.61275027  1
  Ti  Ti62  1  0.36930597  0.36148203  0.87609875  1
  Ti  Ti63  1  0.86286184  0.12611805  0.37035905  1
  Ti  Ti64  1  0.14104337  0.37575722  0.37289840  1
  Ti  Ti65  1  0.89176797  0.37578825  0.86468838  1
  Ti  Ti66  1  0.86773149  0.87225985  0.62329854  1
  Ti  Ti67  1  0.12834597  0.87963148  0.12437177  1
  Ti  Ti68  1  0.12134605  0.12287980  0.37931992  1
  Ti  Ti69  1  0.38197665  0.11127836  0.11786620  1
  Ti  Ti70  1  0.39331089  0.59646023  0.87975523  1
  Ti  Ti71  1  0.13108705  0.38344607  0.13447505  1
  Ti  Ti72  1  0.37159091  0.37485744  0.10432286  1
  Ti  Ti73  1  0.38702332  0.38578508  0.36786527  1
  Bi  Bi74  1  0.50447877  0.49471125  0.72516677  1
  Bi  Bi75  1  0.23780152  0.76437285  0.49082168  1
  Bi  Bi76  1  0.27139837  0.49641496  0.73861889  1
  Bi  Bi77  1  0.73804642  0.50081753  0.49328016  1
  Bi  Bi78  1  0.52120488  0.24150359  0.22671187  1
  Bi  Bi79  1  0.49066434  0.75237654  -0.00415150  1
  Bi  Bi80  1  0.04814172  0.76882104  -0.02775664  1
  Bi  Bi81  1  0.01399824  0.51485846  0.26942759  1
  Bi  Bi82  1  0.25712639  0.72523723  -0.05090844  1
  Bi  Bi83  1  0.00127507  0.27014568  0.27720222  1
  Bi  Bi84  1  0.48616467  0.25055978  0.47424428  1
  Bi  Bi85  1  0.02433126  0.27375611  0.01153133  1
  Bi  Bi86  1  0.53217193  -0.00929934  0.00623423  1
  Bi  Bi87  1  0.03317044  0.50362087  0.75175804  1
  Bi  Bi88  1  0.72670074  0.73473259  0.50430153  1
  Bi  Bi89  1  0.71350858  0.02351207  0.77310270  1
  Bi  Bi90  1  0.25643363  0.47896549  0.50558746  1
  Bi  Bi91  1  0.01140820  0.74211659  0.77032907  1
  Bi  Bi92  1  -0.02018532  -0.00235267  0.02979636  1
  Bi  Bi93  1  0.75765308  0.02269450  0.00643895  1
  Bi  Bi94  1  0.49447569  0.75640151  0.21623472  1
  Bi  Bi95  1  0.22526441  0.02375022  0.76962432  1
  Bi  Bi96  1  -0.00230971  0.73503673  0.21446625  1
  Bi  Bi97  1  0.51781702  -0.00610691  0.48564001  1
  Bi  Bi98  1  0.24005569  0.22776056  0.50077121  1
  Bi  Bi99  1  0.77161363  0.75305415  0.75066259  1
  Bi  Bi100  1  0.26746027  0.22535006  0.23910257  1
  Bi  Bi101  1  0.76399581  0.27795468  0.00521942  1
  Bi  Bi102  1  0.49376697  0.01214096  0.76076832  1
  Bi  Bi103  1  0.21914585  -0.00878602  0.24835255  1
  Bi  Bi104  1  0.73336333  0.72284005  0.24007624  1
  Bi  Bi105  1  0.24913087  0.75134570  0.22259855  1
  Bi  Bi106  1  0.73564907  0.28759294  0.24289442  1
  Bi  Bi107  1  0.48108593  0.76048074  0.76243545  1
  Bi  Bi108  1  0.26764658  0.23622531  0.73161509  1
  Bi  Bi109  1  0.27397580  0.50595073  0.23050564  1
  Bi  Bi110  1  0.01399601  0.54668924  -0.02378925  1
  Bi  Bi111  1  0.54471532  -0.00472779  0.24846883  1
  Bi  Bi112  1  0.23777167  0.20543761  -0.01219737  1
  Bi  Bi113  1  0.49883835  0.76027768  0.50220515  1
  Bi  Bi114  1  0.73843533  0.01405598  0.49795600  1
  Bi  Bi115  1  -0.02415416  0.23059595  0.51262165  1
  Bi  Bi116  1  -0.01913308  -0.01649352  0.26765338  1
  Bi  Bi117  1  0.72644647  0.26863333  0.48408405  1
  Bi  Bi118  1  0.75274056  0.70404575  -0.01568234  1
  Bi  Bi119  1  0.75975514  0.49776393  0.72370234  1
  Bi  Bi120  1  0.01935394  0.51210957  0.51064792  1
  Bi  Bi121  1  0.22177175  0.49939187  -0.03164091  1
  Bi  Bi122  1  0.51858366  0.21163278  -0.00707888  1
  Bi  Bi123  1  -0.02223944  -0.01073771  0.51115775  1
  Bi  Bi124  1  0.54049639  0.24642374  0.77622545  1
  O  O125  1  0.13350700  0.10322548  0.00800007  1
  O  O126  1  0.14677345  0.13018214  0.25090610  1
  O  O127  1  0.12440902  0.12970047  0.50101320  1
  O  O128  1  0.14760462  0.14271948  0.74481824  1
  O  O129  1  0.12141294  0.38915182  0.01475532  1
  O  O130  1  0.11696334  0.34962308  0.25213814  1
  O  O131  1  0.13675220  0.38579169  0.49451055  1
  O  O132  1  0.10071761  0.37655387  0.74617025  1
  O  O133  1  0.13660618  0.60672472  0.00577351  1
  O  O134  1  0.09570713  0.63896320  0.26362931  1
  O  O135  1  0.13987588  0.59180148  0.49892895  1
  O  O136  1  0.09876206  0.62733792  0.73534840  1
  O  O137  1  0.13284712  0.89446012  0.00976317  1
  O  O138  1  0.11974221  0.89182410  0.25787150  1
  O  O139  1  0.16693736  0.88587267  0.50852593  1
  O  O140  1  0.09906549  0.86291798  0.73751954  1
  O  O141  1  0.38997737  0.14662279  0.00386471  1
  O  O142  1  0.36705126  0.12274580  0.25617255  1
  O  O143  1  0.36462831  0.15236134  0.50072558  1
  O  O144  1  0.35291605  0.12035207  0.74206252  1
  O  O145  1  0.34478143  0.35510659  -0.00439041  1
  O  O146  1  0.40611090  0.41734219  0.26089038  1
  O  O147  1  0.34649287  0.36224301  0.51034779  1
  O  O148  1  0.38407109  0.40735578  0.75224353  1
  O  O149  1  0.38079684  0.65674070  -0.01094053  1
  O  O150  1  0.38975945  0.59354983  0.26648473  1
  O  O151  1  0.35696594  0.64799884  0.50611102  1
  O  O152  1  0.38656425  0.59266212  0.75865648  1
  O  O153  1  0.37468940  0.84548037  -0.00983016  1
  O  O154  1  0.40222106  0.88278909  0.25693609  1
  O  O155  1  0.34202186  0.86456883  0.51461318  1
  O  O156  1  0.41429942  0.88786751  0.74876690  1
  O  O157  1  0.61008998  0.10673532  -0.00065292  1
  O  O158  1  0.60968153  0.12972356  0.25261840  1
  O  O159  1  0.62096089  0.09047803  0.50439305  1
  O  O160  1  0.62100002  0.13253983  0.73879308  1
  O  O161  1  0.63089124  0.38403640  -0.01384148  1
  O  O162  1  0.61364301  0.35232340  0.25826552  1
  O  O163  1  0.65725674  0.38664688  0.50125813  1
  O  O164  1  0.59968119  0.39090265  0.74910832  1
  O  O165  1  0.63015474  0.61128902  0.00889818  1
  O  O166  1  0.61282753  0.65636043  0.26991382  1
  O  O167  1  0.65419526  0.61286479  0.49517600  1
  O  O168  1  0.61496258  0.61780750  0.75058972  1
  O  O169  1  0.63362624  0.88894700  -0.01309011  1
  O  O170  1  0.62768772  0.88265164  0.25367696  1
  O  O171  1  0.63976072  0.91078204  0.50979211  1
  O  O172  1  0.60468476  0.83128376  0.74357111  1
  O  O173  1  0.88418195  0.09107911  -0.01198364  1
  O  O174  1  0.86893544  0.15816179  0.24906527  1
  O  O175  1  0.89310482  0.11127248  0.49207900  1
  O  O176  1  0.84352885  0.15681441  0.75327892  1
  O  O177  1  0.83997980  0.39616985  0.01328130  1
  O  O178  1  0.88050971  0.35210424  0.25390334  1
  O  O179  1  0.85641610  0.38483409  0.50175908  1
  O  O180  1  0.90330104  0.33892179  0.75532616  1
  O  O181  1  0.84720094  0.60172750  0.00313624  1
  O  O182  1  0.90916241  0.63570159  0.26220355  1
  O  O183  1  0.86170226  0.60306954  0.49946990  1
  O  O184  1  0.88503047  0.65377393  0.73841653  1
  O  O185  1  0.87164884  0.90602478  0.00624937  1
  O  O186  1  0.88902866  0.86917904  0.25622181  1
  O  O187  1  0.86807623  0.90217620  0.49230416  1
  O  O188  1  0.88705355  0.83921953  0.73547530  1
  O  O189  1  0.00292465  0.13857553  0.12436017  1
  O  O190  1  0.00914622  0.09968042  0.36111053  1
  O  O191  1  0.00025493  0.14501794  0.64271146  1
  O  O192  1  -0.01800713  0.16499191  0.84687491  1
  O  O193  1  -0.00137590  0.35428487  0.12740547  1
  O  O194  1  -0.00272437  0.38492839  0.36744823  1
  O  O195  1  -0.00356819  0.36918645  0.60604226  1
  O  O196  1  -0.00474488  0.35990688  0.90292546  1
  O  O197  1  0.00061995  0.64954479  0.11040229  1
  O  O198  1  0.00585180  0.59470112  0.39677190  1
  O  O199  1  0.00178639  0.62790034  0.58832374  1
  O  O200  1  -0.00627841  0.65759576  0.89461183  1
  O  O201  1  0.00018728  0.87369767  0.11919393  1
  O  O202  1  -0.00565206  0.90645451  0.38758945  1
  O  O203  1  0.01182776  0.87020210  0.58404122  1
  O  O204  1  -0.01017606  0.84373725  0.87680616  1
  O  O205  1  0.26109847  0.13530439  0.12767234  1
  O  O206  1  0.25507776  0.15653632  0.37791850  1
  O  O207  1  0.25092278  0.14505268  0.61529394  1
  O  O208  1  0.25146853  0.09507536  0.88985901  1
  O  O209  1  0.24955385  0.38371000  0.14654101  1
  O  O210  1  0.25650161  0.36989717  0.36338860  1
  O  O211  1  0.24399889  0.38136750  0.64611821  1
  O  O212  1  0.25193880  0.40820866  0.85834281  1
  O  O213  1  0.24933387  0.62661200  0.15805515  1
  O  O214  1  0.24849196  0.63962903  0.36730076  1
  O  O215  1  0.24915059  0.62793821  0.64174781  1
  O  O216  1  0.26922204  0.60162817  0.88187460  1
  O  O217  1  0.24889044  0.88067171  0.14954158  1
  O  O218  1  0.25907570  0.85406828  0.37251599  1
  O  O219  1  0.25188631  0.86873863  0.66978736  1
  O  O220  1  0.25793630  0.91769782  0.86762845  1
  O  O221  1  0.49729528  0.14227057  0.12720030  1
  O  O222  1  0.48818689  0.12326307  0.39606199  1
  O  O223  1  0.49429301  0.11925507  0.61736670  1
  O  O224  1  0.49738907  0.15511196  0.86756092  1
  O  O225  1  0.48717595  0.40229465  0.09078925  1
  O  O226  1  0.49307674  0.39818054  0.42175957  1
  O  O227  1  0.49259852  0.40895459  0.60711508  1
  O  O228  1  0.48779529  0.34265648  0.88662760  1
  O  O229  1  0.49836319  0.63574531  0.13218980  1
  O  O230  1  0.49774546  0.59995797  0.41072634  1
  O  O231  1  0.49125182  0.59478934  0.60411212  1
  O  O232  1  0.50034903  0.65448572  0.87650466  1
  O  O233  1  0.50483700  0.84844645  0.11099418  1
  O  O234  1  0.49389239  0.87362655  0.41016858  1
  O  O235  1  0.49961003  0.87198002  0.59612738  1
  O  O236  1  0.50016321  0.83670979  0.88185624  1
  O  O237  1  0.75942191  0.11804691  0.10912683  1
  O  O238  1  0.75169327  0.13676292  0.39398650  1
  O  O239  1  0.73821205  0.09924240  0.61010603  1
  O  O240  1  0.75931277  0.08965718  0.88639339  1
  O  O241  1  0.74999224  0.39876607  0.16401799  1
  O  O242  1  0.75611355  0.34789511  0.36713307  1
  O  O243  1  0.76329990  0.36459907  0.67490610  1
  O  O244  1  0.75264341  0.41583885  0.86003439  1
  O  O245  1  0.74240015  0.60457485  0.16962101  1
  O  O246  1  0.76489048  0.65374125  0.36620378  1
  O  O247  1  0.75916015  0.65701803  0.62823654  1
  O  O248  1  0.73970827  0.59956719  0.87892050  1
  O  O249  1  0.76147753  0.89926954  0.14614868  1
  O  O250  1  0.76144547  0.85597158  0.36689857  1
  O  O251  1  0.75219099  0.85614131  0.63124092  1
  O  O252  1  0.74175571  0.89128362  0.84089170  1
  O  O253  1  0.12447977  0.00529570  0.14440045  1
  O  O254  1  0.16412843  0.00756290  0.38132922  1
  O  O255  1  0.12049738  0.00518144  0.63321564  1
  O  O256  1  0.11020761  0.01172096  0.85065220  1
  O  O257  1  0.13727892  0.24630982  0.10349027  1
  O  O258  1  0.10553479  0.24861821  0.38190178  1
  O  O259  1  0.12780049  0.25350866  0.61433214  1
  O  O260  1  0.13326872  0.24943594  0.90862680  1
  O  O261  1  0.11696494  0.49639641  0.15816520  1
  O  O262  1  0.13466798  0.49348351  0.35240775  1
  O  O263  1  0.11210383  0.49914202  0.63207584  1
  O  O264  1  0.10373649  0.49830647  0.87685725  1
  O  O265  1  0.13492069  0.75882285  0.13609008  1
  O  O266  1  0.10722204  0.74402872  0.41604439  1
  O  O267  1  0.12448533  0.74679648  0.59697949  1
  O  O268  1  0.14339412  0.75684220  0.87170431  1
  O  O269  1  0.39618056  0.00219175  0.10648514  1
  O  O270  1  0.35845921  -0.00124407  0.39441650  1
  O  O271  1  0.36763475  -0.00139138  0.61463442  1
  O  O272  1  0.41458710  -0.00318044  0.88030570  1
  O  O273  1  0.38049762  0.26877734  0.15207871  1
  O  O274  1  0.40311131  0.26673201  0.36461355  1
  O  O275  1  0.38328848  0.25981663  0.64817266  1
  O  O276  1  0.33896294  0.25283945  0.85747045  1
  O  O277  1  0.36137991  0.50259737  0.12197377  1
  O  O278  1  0.36313752  0.50416886  0.41649764  1
  O  O279  1  0.35179599  0.50248437  0.61104083  1
  O  O280  1  0.40899134  0.49130403  0.91360269  1
  O  O281  1  0.36781381  0.75009652  0.15217063  1
  O  O282  1  0.39550601  0.74341141  0.36486429  1
  O  O283  1  0.38633013  0.74877910  0.64186539  1
  O  O284  1  0.32768912  0.77194965  0.83898271  1
  O  O285  1  0.60811656  -0.00283210  0.12383780  1
  O  O286  1  0.61108902  -0.00186853  0.37250114  1
  O  O287  1  0.61115507  -0.01514381  0.66211963  1
  O  O288  1  0.59888292  -0.01938786  0.84539696  1
  O  O289  1  0.62135464  0.25617544  0.12455481  1
  O  O290  1  0.61134625  0.25100355  0.40771125  1
  O  O291  1  0.62433751  0.24653811  0.60167713  1
  O  O292  1  0.65898224  0.27040909  0.84369482  1
  O  O293  1  0.60184858  0.50618612  0.16287122  1
  O  O294  1  0.65460334  0.50928036  0.35706601  1
  O  O295  1  0.66868672  0.50199111  0.62129357  1
  O  O296  1  0.58441611  0.50033340  0.87604206  1
  O  O297  1  0.64261476  0.74027956  0.12884511  1
  O  O298  1  0.61226743  0.74567153  0.41382214  1
  O  O299  1  0.61376414  0.74942993  0.58919530  1
  O  O300  1  0.64777540  0.74109862  0.88573013  1
  O  O301  1  0.89793167  0.01157597  0.14043947  1
  O  O302  1  0.85483801  0.01133982  0.33538307  1
  O  O303  1  0.88814081  -0.01146893  0.62675072  1
  O  O304  1  0.91223791  -0.00230567  0.83697000  1
  O  O305  1  0.86586780  0.24900138  0.09495007  1
  O  O306  1  0.90160046  0.24592798  0.39205005  1
  O  O307  1  0.87252535  0.24932233  0.60324975  1
  O  O308  1  0.83656380  0.26865188  0.89160451  1
  O  O309  1  0.90593613  0.49671190  0.14781746  1
  O  O310  1  0.86405538  0.49871275  0.36216991  1
  O  O311  1  0.87253445  0.49696667  0.64208353  1
  O  O312  1  0.89626032  0.49737613  0.86771431  1
  O  O313  1  0.85798459  0.75312120  0.12581613  1
  O  O314  1  0.91168545  0.74597503  0.40544390  1
  O  O315  1  0.89564388  0.75294976  0.58682121  1
  O  O316  1  0.83376794  0.74818818  0.88106565  1
