# generated using pymatgen
data_Mg32Ti42(Bi17O64)3
_symmetry_space_group_name_H-M   'P 1'
_cell_length_a   15.99017608
_cell_length_b   15.94323813
_cell_length_c   15.93135246
_cell_angle_alpha   90.03377589
_cell_angle_beta   89.94141647
_cell_angle_gamma   89.97107048
_symmetry_Int_Tables_number   1
_chemical_formula_structural   Mg32Ti42(Bi17O64)3
_chemical_formula_sum   'Mg32 Ti42 Bi51 O192'
_cell_volume   4061.45893940
_cell_formula_units_Z   1
loop_
 _symmetry_equiv_pos_site_id
 _symmetry_equiv_pos_as_xyz
  1  'x, y, z'
loop_
 _atom_site_type_symbol
 _atom_site_label
 _atom_site_symmetry_multiplicity
 _atom_site_fract_x
 _atom_site_fract_y
 _atom_site_fract_z
 _atom_site_occupancy
  Mg  Mg0  1  0.87337257  0.63408390  0.37827250  1
  Mg  Mg1  1  0.62745876  0.87583524  0.62782017  1
  Mg  Mg2  1  0.63791395  0.61430988  0.86484569  1
  Mg  Mg3  1  0.11656317  0.38002556  0.62737834  1
  Mg  Mg4  1  0.12960914  0.12365173  0.87389144  1
  Mg  Mg5  1  0.37451421  0.37102201  0.86863213  1
  Mg  Mg6  1  0.87296448  0.37113126  0.37447926  1
  Mg  Mg7  1  0.86232050  0.61577764  0.12427734  1
  Mg  Mg8  1  0.62595455  0.35691582  0.12422286  1
  Mg  Mg9  1  0.87369088  0.12517131  0.63299078  1
  Mg  Mg10  1  0.62382107  0.61642237  0.36401092  1
  Mg  Mg11  1  0.12490388  0.11747379  0.37650453  1
  Mg  Mg12  1  0.61254488  0.89095363  0.11935667  1
  Mg  Mg13  1  0.12390036  0.10797766  0.13146481  1
  Mg  Mg14  1  0.12352268  0.62189969  0.12124307  1
  Mg  Mg15  1  0.87068180  0.62326099  0.86638737  1
  Mg  Mg16  1  0.87464228  0.87515733  0.86727585  1
  Mg  Mg17  1  0.37891499  0.62695375  0.37488052  1
  Mg  Mg18  1  0.61842397  0.86737081  0.37553143  1
  Mg  Mg19  1  0.77112400  0.46463693  0.78032132  1
  Mg  Mg20  1  0.51754373  0.71627640  0.48225578  1
  Mg  Mg21  1  0.20711935  0.71661163  0.49797991  1
  Mg  Mg22  1  0.19731632  -0.00617858  0.73375344  1
  Mg  Mg23  1  -0.04240831  0.72569317  0.73901104  1
  Mg  Mg24  1  0.48108863  0.25356724  0.25682808  1
  Mg  Mg25  1  -0.01083213  -0.05901915  0.23130300  1
  Mg  Mg26  1  0.72535379  0.22855707  0.24585775  1
  Mg  Mg27  1  -0.04552160  0.26767702  0.73157399  1
  Mg  Mg28  1  0.74118181  0.46151309  0.21718313  1
  Mg  Mg29  1  0.75566069  0.50485984  0.41887134  1
  Mg  Mg30  1  0.49494083  0.25560885  0.03545211  1
  Mg  Mg31  1  0.44421272  0.56974583  0.79865525  1
  Ti  Ti32  1  0.11306228  0.37720496  0.11733068  1
  Ti  Ti33  1  0.87130272  0.13818460  0.13816744  1
  Ti  Ti34  1  0.38327545  0.87773852  0.11809018  1
  Ti  Ti35  1  0.37332467  0.62184522  0.61916405  1
  Ti  Ti36  1  0.36526685  0.88562717  0.62496072  1
  Ti  Ti37  1  0.12416211  0.36525331  0.87776052  1
  Ti  Ti38  1  0.13618172  0.88301035  0.12901175  1
  Ti  Ti39  1  0.12317799  0.62520738  0.63213153  1
  Ti  Ti40  1  0.12678661  0.86223762  0.62355384  1
  Ti  Ti41  1  0.62765643  0.12287373  0.37522611  1
  Ti  Ti42  1  0.11716411  0.37653717  0.37294934  1
  Ti  Ti43  1  0.38316598  0.88194456  0.86706877  1
  Ti  Ti44  1  0.12187809  0.63072886  0.36784951  1
  Ti  Ti45  1  0.64429114  0.36846762  0.35428085  1
  Ti  Ti46  1  0.86969938  0.87237032  0.63161373  1
  Ti  Ti47  1  0.36626654  0.13479363  0.86036629  1
  Ti  Ti48  1  0.61046193  0.61424678  0.63353253  1
  Ti  Ti49  1  0.87572251  0.87286237  0.38044054  1
  Ti  Ti50  1  0.10885075  0.63618558  0.86924345  1
  Ti  Ti51  1  0.36244841  0.13217962  0.37140542  1
  Ti  Ti52  1  0.87865275  0.11562690  0.38810775  1
  Ti  Ti53  1  0.38062200  0.36616741  0.12763115  1
  Ti  Ti54  1  0.84092092  0.61530458  0.62512305  1
  Ti  Ti55  1  0.36172447  0.38083381  0.37275575  1
  Ti  Ti56  1  0.37989080  0.85178989  0.39279714  1
  Ti  Ti57  1  0.86920207  0.37264894  0.12159888  1
  Ti  Ti58  1  0.12053837  0.86970172  0.37156836  1
  Ti  Ti59  1  0.37384698  0.38400527  0.62338286  1
  Ti  Ti60  1  0.63346491  0.12810818  0.61636492  1
  Ti  Ti61  1  0.88569188  0.12938617  0.86757707  1
  Ti  Ti62  1  0.61816065  0.87356185  0.87181351  1
  Ti  Ti63  1  0.64023034  0.60678339  0.12594265  1
  Ti  Ti64  1  0.37467842  0.11745718  0.12938754  1
  Ti  Ti65  1  0.88310831  0.36250069  0.88618766  1
  Ti  Ti66  1  0.11576695  0.13192787  0.62732002  1
  Ti  Ti67  1  0.37054498  0.12924685  0.60748651  1
  Ti  Ti68  1  0.85823521  0.38394468  0.62576283  1
  Ti  Ti69  1  0.38443751  0.61768149  0.12769459  1
  Ti  Ti70  1  0.61413198  0.37297257  0.87041486  1
  Ti  Ti71  1  0.12118259  0.87523200  0.86727769  1
  Ti  Ti72  1  0.60759061  0.12744290  0.14230705  1
  Ti  Ti73  1  0.61919676  0.38324488  0.61358225  1
  Bi  Bi74  1  0.23541862  0.24642967  0.24633832  1
  Bi  Bi75  1  0.50885375  -0.02309330  0.51479083  1
  Bi  Bi76  1  0.74239731  -0.02049768  -0.00406407  1
  Bi  Bi77  1  0.23754939  0.21977074  0.01314688  1
  Bi  Bi78  1  0.48290273  0.71917557  -0.02934623  1
  Bi  Bi79  1  0.27276302  0.72236720  0.76859480  1
  Bi  Bi80  1  0.50910678  0.04761962  -0.02384421  1
  Bi  Bi81  1  -0.01992897  0.51169271  0.00024455  1
  Bi  Bi82  1  0.49288650  0.25488567  0.72563008  1
  Bi  Bi83  1  0.73217779  -0.02647961  0.49408961  1
  Bi  Bi84  1  -0.01535903  0.50271490  0.47614447  1
  Bi  Bi85  1  0.03121366  0.75496958  0.02152085  1
  Bi  Bi86  1  -0.03028297  -0.01776590  0.03543104  1
  Bi  Bi87  1  -0.00399282  0.00017917  0.76956997  1
  Bi  Bi88  1  0.49758562  0.03586752  0.74444253  1
  Bi  Bi89  1  0.72757018  0.02460346  0.78787541  1
  Bi  Bi90  1  0.49644483  0.47681705  -0.01514975  1
  Bi  Bi91  1  0.23547547  0.24680053  0.74382016  1
  Bi  Bi92  1  0.26624549  -0.02881334  0.27562139  1
  Bi  Bi93  1  0.52252249  0.74885333  0.21707534  1
  Bi  Bi94  1  0.21898966  0.00494619  0.51067717  1
  Bi  Bi95  1  -0.01860424  0.73414220  0.51967113  1
  Bi  Bi96  1  0.23679602  0.48411436  0.75669585  1
  Bi  Bi97  1  0.70128722  0.22881637  -0.01421907  1
  Bi  Bi98  1  0.77905803  0.00543824  0.22887520  1
  Bi  Bi99  1  0.49541458  0.26021515  0.46285711  1
  Bi  Bi100  1  0.71658745  0.73491243  0.48552071  1
  Bi  Bi101  1  -0.00340403  0.22449089  0.01880080  1
  Bi  Bi102  1  0.51891027  0.49599282  0.24926104  1
  Bi  Bi103  1  0.22557608  0.27353883  0.50664683  1
  Bi  Bi104  1  0.24953011  -0.01409937  -0.03039786  1
  Bi  Bi105  1  0.27149368  0.75412701  -0.01279099  1
  Bi  Bi106  1  0.01628609  0.22576607  0.26651584  1
  Bi  Bi107  1  -0.02368116  0.26267984  0.52691758  1
  Bi  Bi108  1  0.74809632  0.50743737  -0.02066938  1
  Bi  Bi109  1  0.23623911  0.48845580  0.21992759  1
  Bi  Bi110  1  0.00119499  0.48702699  0.76347006  1
  Bi  Bi111  1  0.74404652  0.75405893  -0.00777053  1
  Bi  Bi112  1  0.49403680  -0.01983257  0.27626278  1
  Bi  Bi113  1  0.74548840  0.75363424  0.76549913  1
  Bi  Bi114  1  0.75084782  0.24768179  0.48051665  1
  Bi  Bi115  1  0.23793646  0.51990871  0.48366437  1
  Bi  Bi116  1  0.50173639  0.76477267  0.71028202  1
  Bi  Bi117  1  0.75296616  0.78770683  0.22308852  1
  Bi  Bi118  1  -0.03894790  0.50274241  0.25494324  1
  Bi  Bi119  1  0.27413273  0.52370307  -0.02947658  1
  Bi  Bi120  1  -0.03638319  0.74341185  0.22558116  1
  Bi  Bi121  1  0.25414053  0.72608914  0.22521257  1
  Bi  Bi122  1  -0.01155707  -0.00852087  0.52410748  1
  Bi  Bi123  1  0.49270199  0.51271023  0.48803458  1
  Bi  Bi124  1  0.73123807  0.26460505  0.74273356  1
  O  O125  1  0.11520942  0.14412547  0.00585160  1
  O  O126  1  0.13374552  0.14896068  0.25027842  1
  O  O127  1  0.11688965  0.10856113  0.50479078  1
  O  O128  1  0.15834208  0.12267690  0.74285244  1
  O  O129  1  0.10563162  0.37415796  -0.00426751  1
  O  O130  1  0.15188307  0.37282613  0.25051651  1
  O  O131  1  0.11850749  0.37140396  0.49705196  1
  O  O132  1  0.15727950  0.36994828  0.75017837  1
  O  O133  1  0.09507036  0.62399847  -0.01300987  1
  O  O134  1  0.13614586  0.63907675  0.25466206  1
  O  O135  1  0.11903670  0.61608220  0.50952487  1
  O  O136  1  0.15637500  0.64372623  0.74788517  1
  O  O137  1  0.12669164  0.89068175  0.00389159  1
  O  O138  1  0.13040130  0.85959736  0.25438255  1
  O  O139  1  0.14134801  0.88857459  0.50207613  1
  O  O140  1  0.12812486  0.87642377  0.74715452  1
  O  O141  1  0.41190373  0.15186669  0.01593696  1
  O  O142  1  0.35377124  0.12592156  0.24900772  1
  O  O143  1  0.39740400  0.14808799  0.49342047  1
  O  O144  1  0.36032502  0.10717857  0.74879093  1
  O  O145  1  0.41179867  0.35881002  0.01069853  1
  O  O146  1  0.36324704  0.39994230  0.25469355  1
  O  O147  1  0.39854744  0.35692783  0.49358444  1
  O  O148  1  0.34732730  0.39501075  0.73974357  1
  O  O149  1  0.36707211  0.64276732  0.00723893  1
  O  O150  1  0.36878662  0.63861687  0.24654514  1
  O  O151  1  0.42376072  0.63408311  0.51234420  1
  O  O152  1  0.34248801  0.60985865  0.74200741  1
  O  O153  1  0.36068683  0.86996549  0.00323384  1
  O  O154  1  0.39367337  0.88761036  0.25101493  1
  O  O155  1  0.36171889  0.87149632  0.50648227  1
  O  O156  1  0.38657399  0.88868711  0.75356860  1
  O  O157  1  0.58586460  0.15884562  0.01408871  1
  O  O158  1  0.65761498  0.11464288  0.25382188  1
  O  O159  1  0.61267496  0.15315337  0.49912552  1
  O  O160  1  0.62007742  0.10559289  0.73968661  1
  O  O161  1  0.60344582  0.33365373  -0.00190245  1
  O  O162  1  0.67328639  0.35730346  0.24420404  1
  O  O163  1  0.60543280  0.36836994  0.50200482  1
  O  O164  1  0.66549322  0.39016423  0.76092102  1
  O  O165  1  0.66374042  0.63004304  0.00806001  1
  O  O166  1  0.59148268  0.61859760  0.23888514  1
  O  O167  1  0.59325054  0.60982399  0.50426250  1
  O  O168  1  0.64841829  0.64746719  0.74062314  1
  O  O169  1  0.65012615  0.86683387  -0.00205575  1
  O  O170  1  0.59143776  0.88011393  0.25042458  1
  O  O171  1  0.62833901  0.88147834  0.50204053  1
  O  O172  1  0.61873333  0.86114973  0.75311443  1
  O  O173  1  0.91123860  0.11047287  0.00592677  1
  O  O174  1  0.83980006  0.15755958  0.25119212  1
  O  O175  1  0.90841843  0.10640954  0.50377704  1
  O  O176  1  0.87662590  0.16552588  0.75769344  1
  O  O177  1  0.90879066  0.38582828  0.00003647  1
  O  O178  1  0.85767264  0.40069017  0.24458440  1
  O  O179  1  0.89795068  0.39415937  0.51400633  1
  O  O180  1  0.85535728  0.35772534  0.75363328  1
  O  O181  1  0.87393263  0.60111813  -0.00520182  1
  O  O182  1  0.88845453  0.62009990  0.25225472  1
  O  O183  1  0.90065596  0.60890194  0.51906579  1
  O  O184  1  0.85277512  0.65656074  0.73390295  1
  O  O185  1  0.86145917  0.90868455  -0.00568274  1
  O  O186  1  0.87886716  0.87049801  0.26088376  1
  O  O187  1  0.88091515  0.90531747  0.50236752  1
  O  O188  1  0.89402958  0.83811832  0.74128450  1
  O  O189  1  -0.00085606  0.15600488  0.14204740  1
  O  O190  1  -0.00575475  0.12260833  0.35054881  1
  O  O191  1  0.00646998  0.16208238  0.64324119  1
  O  O192  1  0.00470643  0.11055901  0.85915687  1
  O  O193  1  0.00673393  0.35254298  0.14120564  1
  O  O194  1  0.00324606  0.39296463  0.36574958  1
  O  O195  1  -0.00842809  0.35602547  0.64584285  1
  O  O196  1  0.00760824  0.35653029  0.83328924  1
  O  O197  1  -0.00089496  0.66055839  0.12101171  1
  O  O198  1  0.00805561  0.61152032  0.37710582  1
  O  O199  1  0.01347164  0.66142350  0.64474258  1
  O  O200  1  -0.00298433  0.64168432  0.82981336  1
  O  O201  1  0.00570021  0.84966995  0.13124913  1
  O  O202  1  0.00839351  0.89604426  0.36656019  1
  O  O203  1  0.01057071  0.85443141  0.60790582  1
  O  O204  1  0.00635737  0.89774660  0.87388512  1
  O  O205  1  0.25793680  0.11112020  0.10093899  1
  O  O206  1  0.25342404  0.14599463  0.38869874  1
  O  O207  1  0.25665625  0.12224305  0.60073549  1
  O  O208  1  0.25755488  0.11883463  0.91094150  1
  O  O209  1  0.26465671  0.41053802  0.11225776  1
  O  O210  1  0.25087423  0.36326444  0.39047179  1
  O  O211  1  0.25872427  0.37594188  0.59372465  1
  O  O212  1  0.24340129  0.41261555  0.88626463  1
  O  O213  1  0.25405679  0.61424236  0.13123086  1
  O  O214  1  0.25134639  0.63691763  0.40629249  1
  O  O215  1  0.26162523  0.62840862  0.58833784  1
  O  O216  1  0.23695991  0.62942576  0.88810122  1
  O  O217  1  0.25146164  0.90253737  0.13687332  1
  O  O218  1  0.26597514  0.85716819  0.35594342  1
  O  O219  1  0.25198120  0.91256032  0.64127396  1
  O  O220  1  0.25443364  0.86793775  0.88204680  1
  O  O221  1  0.49974602  0.15895034  0.16667734  1
  O  O222  1  0.51626608  0.14972180  0.35223808  1
  O  O223  1  0.49634571  0.13609300  0.64430611  1
  O  O224  1  0.48740991  0.12076252  0.85779260  1
  O  O225  1  0.49704112  0.33518526  0.15598526  1
  O  O226  1  0.52402597  0.35771066  0.34805708  1
  O  O227  1  0.49861190  0.36631774  0.64336412  1
  O  O228  1  0.50305493  0.37941013  0.85744644  1
  O  O229  1  0.49751355  0.65587370  0.10655589  1
  O  O230  1  0.49990958  0.57565928  0.36604276  1
  O  O231  1  0.49311766  0.61868290  0.68015521  1
  O  O232  1  0.51462879  0.61874537  0.88684997  1
  O  O233  1  0.49417826  0.84447896  0.11058990  1
  O  O234  1  0.49316049  0.89966893  0.38936535  1
  O  O235  1  0.49410808  0.88275021  0.62050374  1
  O  O236  1  0.50129149  0.86415809  0.88876092  1
  O  O237  1  0.76722181  0.08861529  0.11181531  1
  O  O238  1  0.75765179  0.12180219  0.41148077  1
  O  O239  1  0.74667981  0.12711920  0.62048870  1
  O  O240  1  0.76414489  0.10688157  0.89381607  1
  O  O241  1  0.76034663  0.39527029  0.10556897  1
  O  O242  1  0.75182618  0.37979588  0.41181572  1
  O  O243  1  0.74397804  0.36691135  0.61469580  1
  O  O244  1  0.77030529  0.39001993  0.89426016  1
  O  O245  1  0.74445804  0.57538590  0.15627218  1
  O  O246  1  0.74804365  0.62865791  0.40242681  1
  O  O247  1  0.73412439  0.62938427  0.59569910  1
  O  O248  1  0.75681190  0.56693008  0.85625742  1
  O  O249  1  0.73937723  0.89915465  0.14470551  1
  O  O250  1  0.75443938  0.86853217  0.38990539  1
  O  O251  1  0.75700009  0.88889768  0.62648258  1
  O  O252  1  0.74605254  0.90097802  0.86275246  1
  O  O253  1  0.08953633  -0.01087478  0.15143600  1
  O  O254  1  0.15972152  -0.00895741  0.37223090  1
  O  O255  1  0.11727645  0.00541236  0.63049495  1
  O  O256  1  0.15531164  -0.00444274  0.85988474  1
  O  O257  1  0.16037298  0.26324826  0.12623580  1
  O  O258  1  0.11367853  0.25767932  0.37364811  1
  O  O259  1  0.14755650  0.25000977  0.62357792  1
  O  O260  1  0.15425064  0.25467183  0.87046746  1
  O  O261  1  0.11637016  0.49560687  0.13754832  1
  O  O262  1  0.14493850  0.50424699  0.37488812  1
  O  O263  1  0.12460555  0.50894926  0.64652656  1
  O  O264  1  0.10524341  0.50513658  0.85185033  1
  O  O265  1  0.14679765  0.75422988  0.10380153  1
  O  O266  1  0.12417292  0.75028247  0.40162952  1
  O  O267  1  0.15791611  0.75399293  0.60835788  1
  O  O268  1  0.12028197  0.75666783  0.88531254  1
  O  O269  1  0.40008676  0.00455791  0.12255813  1
  O  O270  1  0.37025006  0.01257128  0.37289397  1
  O  O271  1  0.39136661  0.00766981  0.60850136  1
  O  O272  1  0.37420387  -0.00129380  0.89577146  1
  O  O273  1  0.34433996  0.25704385  0.13965755  1
  O  O274  1  0.39176887  0.25752917  0.35355200  1
  O  O275  1  0.37386143  0.25042171  0.64348596  1
  O  O276  1  0.35764297  0.24823455  0.85302570  1
  O  O277  1  0.41011157  0.50592081  0.11993711  1
  O  O278  1  0.36104332  0.49666068  0.40386328  1
  O  O279  1  0.38054275  0.50103111  0.60445034  1
  O  O280  1  0.38685990  0.49929494  0.89358898  1
  O  O281  1  0.34621005  0.76017064  0.12611319  1
  O  O282  1  0.41791152  0.74736345  0.38993598  1
  O  O283  1  0.37350861  0.75504704  0.64741587  1
  O  O284  1  0.37231880  0.75377046  0.87838255  1
  O  O285  1  0.60137774  0.01702620  0.10473248  1
  O  O286  1  0.62589862  0.00730804  0.39213003  1
  O  O287  1  0.61982809  0.00935068  0.59948709  1
  O  O288  1  0.61705310  -0.00557989  0.87943647  1
  O  O289  1  0.66770130  0.23162262  0.13271769  1
  O  O290  1  0.66697703  0.24671179  0.36216098  1
  O  O291  1  0.61974468  0.25573393  0.65264466  1
  O  O292  1  0.64968883  0.25602778  0.85740643  1
  O  O293  1  0.60083092  0.49280198  0.12301149  1
  O  O294  1  0.65779409  0.49085825  0.33423068  1
  O  O295  1  0.61307208  0.49753734  0.62852494  1
  O  O296  1  0.62404185  0.48514431  0.91168842  1
  O  O297  1  0.64396673  0.74269344  0.14385890  1
  O  O298  1  0.60946229  0.74107566  0.39501833  1
  O  O299  1  0.58646133  0.74033041  0.60171396  1
  O  O300  1  0.65797673  0.74855667  0.88147854  1
  O  O301  1  0.90797935  0.01446296  0.16085809  1
  O  O302  1  0.86822466  0.00352363  0.36179619  1
  O  O303  1  0.90907948  -0.00522179  0.64253692  1
  O  O304  1  0.87801975  0.00743211  0.83276034  1
  O  O305  1  0.86592129  0.25317587  0.10586962  1
  O  O306  1  0.87725543  0.24838810  0.41165085  1
  O  O307  1  0.86757739  0.25591684  0.60743133  1
  O  O308  1  0.88415906  0.24703141  0.90302861  1
  O  O309  1  0.91023936  0.49536096  0.12231397  1
  O  O310  1  0.87806401  0.50356974  0.38377471  1
  O  O311  1  0.84720065  0.50096047  0.66188586  1
  O  O312  1  0.91034980  0.48950231  0.86546571  1
  O  O313  1  0.84914717  0.74202952  0.14141305  1
  O  O314  1  0.89338392  0.75835671  0.39858328  1
  O  O315  1  0.86747127  0.75393421  0.59266212  1
  O  O316  1  0.83436312  0.74753415  0.88080798  1
