# generated using pymatgen
data_Mg32Ti42(Bi17O64)3
_symmetry_space_group_name_H-M   'P 1'
_cell_length_a   15.92816849
_cell_length_b   15.99141423
_cell_length_c   15.96325378
_cell_angle_alpha   89.97421798
_cell_angle_beta   89.94710444
_cell_angle_gamma   90.05422381
_symmetry_Int_Tables_number   1
_chemical_formula_structural   Mg32Ti42(Bi17O64)3
_chemical_formula_sum   'Mg32 Ti42 Bi51 O192'
_cell_volume   4066.05930341
_cell_formula_units_Z   1
loop_
 _symmetry_equiv_pos_site_id
 _symmetry_equiv_pos_as_xyz
  1  'x, y, z'
loop_
 _atom_site_type_symbol
 _atom_site_label
 _atom_site_symmetry_multiplicity
 _atom_site_fract_x
 _atom_site_fract_y
 _atom_site_fract_z
 _atom_site_occupancy
  Mg  Mg0  1  0.61925220  0.37826929  0.86853223  1
  Mg  Mg1  1  0.87733426  0.62156811  0.63560418  1
  Mg  Mg2  1  0.36708048  0.62303981  0.38522058  1
  Mg  Mg3  1  0.86071615  0.12096927  0.38665419  1
  Mg  Mg4  1  0.62328925  0.62972094  0.38387792  1
  Mg  Mg5  1  0.12009748  0.87017141  0.63490891  1
  Mg  Mg6  1  0.62196189  0.36464839  0.61705499  1
  Mg  Mg7  1  0.11651622  0.12007155  0.63348184  1
  Mg  Mg8  1  0.87857702  0.13885784  0.11533665  1
  Mg  Mg9  1  0.87055959  0.38061308  0.87395769  1
  Mg  Mg10  1  0.13724230  0.62868269  0.64660482  1
  Mg  Mg11  1  0.88067956  0.37843636  0.37550273  1
  Mg  Mg12  1  0.62621392  0.63107810  0.62926543  1
  Mg  Mg13  1  0.37438782  0.88225077  0.13069402  1
  Mg  Mg14  1  0.12025505  0.12295204  0.87965224  1
  Mg  Mg15  1  0.87848945  0.63228360  0.37806084  1
  Mg  Mg16  1  0.11628746  0.38838993  0.88272992  1
  Mg  Mg17  1  0.36793107  0.38170194  0.12570018  1
  Mg  Mg18  1  0.61680372  0.38032681  0.37426892  1
  Mg  Mg19  1  0.80219950  0.04075550  0.24094761  1
  Mg  Mg20  1  0.00707248  0.07478737  0.49582112  1
  Mg  Mg21  1  0.79625927  0.73730281  0.51465919  1
  Mg  Mg22  1  -0.04373764  0.47785519  0.00205643  1
  Mg  Mg23  1  0.46024876  0.46396190  0.72913460  1
  Mg  Mg24  1  0.28026896  0.44363439  -0.05052992  1
  Mg  Mg25  1  0.04619262  0.47844053  0.69153395  1
  Mg  Mg26  1  0.25875568  0.75112376  0.72819323  1
  Mg  Mg27  1  0.77438611  -0.05114511  0.75406102  1
  Mg  Mg28  1  0.74651304  0.32868800  0.48633351  1
  Mg  Mg29  1  0.56598590  0.23386721  0.48700810  1
  Mg  Mg30  1  0.00376939  0.69951004  0.54216302  1
  Mg  Mg31  1  -0.00486534  0.50418241  0.29818257  1
  Ti  Ti32  1  0.62204372  0.12817714  0.13345739  1
  Ti  Ti33  1  0.37990886  0.62114760  0.63137844  1
  Ti  Ti34  1  0.37455078  0.88058049  0.62090981  1
  Ti  Ti35  1  0.12838302  0.38774618  0.12192188  1
  Ti  Ti36  1  0.11215814  0.87282868  0.38356725  1
  Ti  Ti37  1  0.14228503  0.61216866  0.88499674  1
  Ti  Ti38  1  0.38270006  0.12522758  0.38106710  1
  Ti  Ti39  1  0.87915206  0.13489359  0.62597312  1
  Ti  Ti40  1  0.37005604  0.61945997  0.11864797  1
  Ti  Ti41  1  0.37269271  0.87811368  0.37901408  1
  Ti  Ti42  1  0.63872663  0.12838571  0.62521879  1
  Ti  Ti43  1  0.36788436  0.87544734  0.87307462  1
  Ti  Ti44  1  0.61801603  0.39677938  0.12225682  1
  Ti  Ti45  1  0.63592413  0.11968553  0.36460649  1
  Ti  Ti46  1  0.62020273  0.62886592  0.13972787  1
  Ti  Ti47  1  0.89156089  0.86302006  0.63113961  1
  Ti  Ti48  1  0.12143327  0.37791322  0.36179504  1
  Ti  Ti49  1  0.62761960  0.86887417  0.38489795  1
  Ti  Ti50  1  0.60790425  0.63081570  0.86682893  1
  Ti  Ti51  1  0.62212993  0.87397606  0.13890738  1
  Ti  Ti52  1  0.37968104  0.11186510  0.62668675  1
  Ti  Ti53  1  0.87539565  0.62730758  0.12952313  1
  Ti  Ti54  1  0.86947915  0.12890845  0.87180435  1
  Ti  Ti55  1  0.87626911  0.88173365  0.38830310  1
  Ti  Ti56  1  0.63776091  0.12082575  0.88593443  1
  Ti  Ti57  1  0.36800768  0.36059456  0.37432707  1
  Ti  Ti58  1  0.63135546  0.87305935  0.88107884  1
  Ti  Ti59  1  0.11675362  0.87822764  0.12814805  1
  Ti  Ti60  1  0.36217318  0.63866962  0.87085728  1
  Ti  Ti61  1  0.12120706  0.87850381  0.87313980  1
  Ti  Ti62  1  0.38629529  0.35229650  0.60824914  1
  Ti  Ti63  1  0.88034702  0.37372728  0.12130116  1
  Ti  Ti64  1  0.85949653  0.38015645  0.62240256  1
  Ti  Ti65  1  0.87460695  0.86874134  0.13547523  1
  Ti  Ti66  1  0.89241631  0.61484631  0.87045150  1
  Ti  Ti67  1  0.37816115  0.10785989  0.87821036  1
  Ti  Ti68  1  0.88016578  0.87420436  0.87908674  1
  Ti  Ti69  1  0.63884835  0.86102876  0.61832375  1
  Ti  Ti70  1  0.12179737  0.62139180  0.37198812  1
  Ti  Ti71  1  0.37470928  0.12778039  0.14292608  1
  Ti  Ti72  1  0.13146510  0.61816874  0.11791472  1
  Ti  Ti73  1  0.11738038  0.12789999  0.12076289  1
  Bi  Bi74  1  0.00085641  0.72867673  0.00850825  1
  Bi  Bi75  1  0.47927226  0.76163745  0.01481806  1
  Bi  Bi76  1  -0.00343642  0.51187705  0.51244130  1
  Bi  Bi77  1  0.48656038  0.76768990  0.74313975  1
  Bi  Bi78  1  0.00294787  0.27328487  -0.02015318  1
  Bi  Bi79  1  0.22329545  0.21655431  0.27192930  1
  Bi  Bi80  1  0.77280248  -0.00636606  0.52929637  1
  Bi  Bi81  1  0.73534573  0.53727646  -0.01341924  1
  Bi  Bi82  1  0.47520552  0.27206055  0.01207667  1
  Bi  Bi83  1  0.73802175  0.28979917  0.00867300  1
  Bi  Bi84  1  0.73783450  0.75384638  0.02050843  1
  Bi  Bi85  1  0.02951563  0.73799330  0.78229700  1
  Bi  Bi86  1  0.73664074  0.49786575  0.75700241  1
  Bi  Bi87  1  0.50801067  0.22052535  0.77363315  1
  Bi  Bi88  1  0.52336186  0.26848885  0.24633536  1
  Bi  Bi89  1  0.00067900  0.01533375  0.27998540  1
  Bi  Bi90  1  0.22905808  0.02374380  0.75119095  1
  Bi  Bi91  1  -0.01154679  0.01784254  0.75433141  1
  Bi  Bi92  1  0.23503308  0.26160966  0.01427657  1
  Bi  Bi93  1  0.21354068  0.00379537  0.50391500  1
  Bi  Bi94  1  0.47242179  0.74258286  0.25635107  1
  Bi  Bi95  1  0.25055514  0.74480957  0.27996924  1
  Bi  Bi96  1  0.47357452  0.48930135  -0.05424261  1
  Bi  Bi97  1  0.01895125  0.73757749  0.25103675  1
  Bi  Bi98  1  0.52201117  0.50758621  0.52387288  1
  Bi  Bi99  1  0.76037637  0.26939461  0.27656271  1
  Bi  Bi100  1  0.75146295  0.00514566  0.03700656  1
  Bi  Bi101  1  -0.00758306  0.22156014  0.28944882  1
  Bi  Bi102  1  0.24957215  0.21808722  0.52347106  1
  Bi  Bi103  1  0.28608507  0.25674533  0.78483819  1
  Bi  Bi104  1  -0.01898345  0.01058797  0.00492395  1
  Bi  Bi105  1  0.75472987  0.73318568  0.77598577  1
  Bi  Bi106  1  0.02190433  0.29170428  0.53087476  1
  Bi  Bi107  1  0.75665032  0.53504917  0.51038739  1
  Bi  Bi108  1  0.24819209  0.76131659  0.02319375  1
  Bi  Bi109  1  0.50262301  0.51111806  0.28329164  1
  Bi  Bi110  1  0.48518782  0.73658000  0.49461476  1
  Bi  Bi111  1  0.22328855  0.75076171  0.52229359  1
  Bi  Bi112  1  0.01978839  0.27775545  0.74852096  1
  Bi  Bi113  1  0.52734390  0.01032428  0.50412215  1
  Bi  Bi114  1  0.54161254  -0.01141241  0.75187795  1
  Bi  Bi115  1  0.23822241  0.46461751  0.51588594  1
  Bi  Bi116  1  0.74346220  0.27409986  0.75733875  1
  Bi  Bi117  1  0.23128492  -0.00823003  0.26535165  1
  Bi  Bi118  1  0.75727638  0.75243238  0.29414457  1
  Bi  Bi119  1  0.26879321  0.48185717  0.25854895  1
  Bi  Bi120  1  0.48822874  0.01113945  0.02106713  1
  Bi  Bi121  1  0.24499404  0.45250112  0.72885028  1
  Bi  Bi122  1  0.78247828  0.49838641  0.25536444  1
  Bi  Bi123  1  0.22535429  -0.00869489  0.00439579  1
  Bi  Bi124  1  0.50798149  -0.01896451  0.26873040  1
  O  O125  1  0.15178739  0.12030259  0.00443433  1
  O  O126  1  0.10136596  0.13742471  0.24337660  1
  O  O127  1  0.13012574  0.11250668  0.50658602  1
  O  O128  1  0.11222868  0.10005119  0.75538010  1
  O  O129  1  0.12035813  0.34684078  0.00337118  1
  O  O130  1  0.14618887  0.37518821  0.23722944  1
  O  O131  1  0.11652722  0.39562931  0.48537366  1
  O  O132  1  0.09539722  0.39019414  0.76064047  1
  O  O133  1  0.10242633  0.62460491  0.00143331  1
  O  O134  1  0.13752397  0.65807041  0.23745365  1
  O  O135  1  0.08990728  0.61567972  0.48460533  1
  O  O136  1  0.15014553  0.65890855  0.76867217  1
  O  O137  1  0.11483041  0.90551924  0.00174337  1
  O  O138  1  0.13253007  0.86363910  0.24430995  1
  O  O139  1  0.12556075  0.88551805  0.49674620  1
  O  O140  1  0.14749982  0.84578383  0.76270271  1
  O  O141  1  0.37340004  0.09731647  -0.00825187  1
  O  O142  1  0.40027723  0.14547287  0.25282538  1
  O  O143  1  0.33629773  0.11090786  0.49649515  1
  O  O144  1  0.39209158  0.13083071  0.73995205  1
  O  O145  1  0.39103347  0.38796475  -0.00466303  1
  O  O146  1  0.33985358  0.36483326  0.25125732  1
  O  O147  1  0.37201067  0.39581838  0.49361117  1
  O  O148  1  0.36960330  0.36247605  0.72900204  1
  O  O149  1  0.40053369  0.62260351  0.00641200  1
  O  O150  1  0.35655196  0.65922812  0.24297305  1
  O  O151  1  0.39714188  0.62104771  0.51068708  1
  O  O152  1  0.35399964  0.66003846  0.75731980  1
  O  O153  1  0.41110655  0.88788646  -0.00586006  1
  O  O154  1  0.36596131  0.86600237  0.25725462  1
  O  O155  1  0.38856528  0.88519776  0.50552653  1
  O  O156  1  0.35678867  0.84029197  0.75695729  1
  O  O157  1  0.64688699  0.12460243  -0.00012628  1
  O  O158  1  0.59115854  0.10740314  0.24792298  1
  O  O159  1  0.63194103  0.12039855  0.48731547  1
  O  O160  1  0.61752848  0.12009335  0.74128588  1
  O  O161  1  0.61189924  0.35949414  0.00212406  1
  O  O162  1  0.60890611  0.38353694  0.24265374  1
  O  O163  1  0.62217537  0.34549442  0.49133539  1
  O  O164  1  0.65477792  0.37925519  0.74329311  1
  O  O165  1  0.62756677  0.63335056  -0.01413806  1
  O  O166  1  0.64440255  0.61286470  0.24734869  1
  O  O167  1  0.58023640  0.63493117  0.50804779  1
  O  O168  1  0.66058918  0.61766163  0.75252127  1
  O  O169  1  0.61744224  0.85784105  -0.00828451  1
  O  O170  1  0.63027379  0.88789485  0.25144461  1
  O  O171  1  0.59781820  0.87299884  0.50103206  1
  O  O172  1  0.65832477  0.90094673  0.73486897  1
  O  O173  1  0.86296599  0.09350154  -0.00638005  1
  O  O174  1  0.89959402  0.12901044  0.23948232  1
  O  O175  1  0.87289769  0.09337249  0.50759734  1
  O  O176  1  0.89388646  0.13005455  0.74913709  1
  O  O177  1  0.85156052  0.40029718  0.00826598  1
  O  O178  1  0.85570590  0.37367689  0.24083408  1
  O  O179  1  0.86605225  0.37999050  0.49953049  1
  O  O180  1  0.85702387  0.35861952  0.74546171  1
  O  O181  1  0.91354138  0.59970710  -0.00075024  1
  O  O182  1  0.84590507  0.64374521  0.24334738  1
  O  O183  1  0.90727827  0.61440705  0.50044197  1
  O  O184  1  0.86492099  0.64328217  0.75733458  1
  O  O185  1  0.88209243  0.89684585  -0.00863298  1
  O  O186  1  0.86415113  0.84196907  0.24552229  1
  O  O187  1  0.88408954  0.90625672  0.49966682  1
  O  O188  1  0.85366359  0.84562249  0.74184741  1
  O  O189  1  0.00492771  0.12606129  0.09206474  1
  O  O190  1  -0.01030608  0.11455380  0.37897401  1
  O  O191  1  -0.00882530  0.08931273  0.61870306  1
  O  O192  1  -0.00831968  0.08632316  0.88671513  1
  O  O193  1  -0.00364511  0.39008823  0.10447983  1
  O  O194  1  0.00432223  0.38777837  0.34950265  1
  O  O195  1  -0.01208334  0.39239205  0.61969348  1
  O  O196  1  -0.00984169  0.39448321  0.91271632  1
  O  O197  1  -0.00204224  0.64739292  0.14205339  1
  O  O198  1  0.00002146  0.62934394  0.33356925  1
  O  O199  1  0.00715184  0.58605162  0.63438080  1
  O  O200  1  0.01335515  0.61232849  0.85134467  1
  O  O201  1  -0.00413909  0.87143990  0.12931065  1
  O  O202  1  -0.00456173  0.88163210  0.36304659  1
  O  O203  1  -0.00288859  0.88880406  0.65217093  1
  O  O204  1  0.00498691  0.89780296  0.85719893  1
  O  O205  1  0.25947006  0.11481142  0.15508465  1
  O  O206  1  0.25768992  0.10415999  0.34431322  1
  O  O207  1  0.25142015  0.14433399  0.64086939  1
  O  O208  1  0.26072439  0.13158422  0.85672114  1
  O  O209  1  0.24506271  0.38865287  0.08363895  1
  O  O210  1  0.24423724  0.40429198  0.38070545  1
  O  O211  1  0.25527441  0.36710086  0.61094391  1
  O  O212  1  0.24308026  0.34494788  0.88056487  1
  O  O213  1  0.24827893  0.63137102  0.10369543  1
  O  O214  1  0.24025590  0.63607581  0.37723650  1
  O  O215  1  0.25825347  0.66424841  0.62109726  1
  O  O216  1  0.25159210  0.65642334  0.90414243  1
  O  O217  1  0.24660336  0.88257696  0.10554786  1
  O  O218  1  0.25127344  0.89018444  0.37723225  1
  O  O219  1  0.25885891  0.83717158  0.62081354  1
  O  O220  1  0.25791406  0.86929586  0.90895725  1
  O  O221  1  0.50408261  0.13790092  0.09824699  1
  O  O222  1  0.48924640  0.15315699  0.41232219  1
  O  O223  1  0.49316686  0.10063386  0.60664751  1
  O  O224  1  0.50727454  0.11174569  0.86746986  1
  O  O225  1  0.49646216  0.35136385  0.12828471  1
  O  O226  1  0.48317213  0.36003260  0.35179134  1
  O  O227  1  0.49490892  0.39437099  0.62769381  1
  O  O228  1  0.50531475  0.41841187  0.83700560  1
  O  O229  1  0.50174111  0.64372940  0.14755559  1
  O  O230  1  0.49268853  0.63755711  0.34847570  1
  O  O231  1  0.49074150  0.58106561  0.65586003  1
  O  O232  1  0.49745272  0.61655179  0.85639111  1
  O  O233  1  0.50633942  0.85463275  0.13564854  1
  O  O234  1  0.49775061  0.86886486  0.35992839  1
  O  O235  1  0.49312456  0.88670418  0.65856804  1
  O  O236  1  0.51494199  0.87996971  0.84099326  1
  O  O237  1  0.74393921  0.09950537  0.14170916  1
  O  O238  1  0.74501425  0.11038373  0.33608840  1
  O  O239  1  0.75404154  0.13415829  0.62603105  1
  O  O240  1  0.75203053  0.13572057  0.86106399  1
  O  O241  1  0.73486028  0.38247991  0.11889908  1
  O  O242  1  0.74632776  0.37456258  0.36581349  1
  O  O243  1  0.75197963  0.33550727  0.61261766  1
  O  O244  1  0.74698173  0.34698395  0.88083363  1
  O  O245  1  0.75355417  0.62689117  0.09665553  1
  O  O246  1  0.74954990  0.63699489  0.40774728  1
  O  O247  1  0.75412033  0.64364496  0.59098404  1
  O  O248  1  0.77372251  0.65369628  0.89925862  1
  O  O249  1  0.74843296  0.87481006  0.10751234  1
  O  O250  1  0.74517517  0.87832461  0.38359240  1
  O  O251  1  0.74677047  0.84207109  0.58426153  1
  O  O252  1  0.75554921  0.85037709  0.87701549  1
  O  O253  1  0.12939879  0.00357528  0.13734000  1
  O  O254  1  0.12250283  -0.00776928  0.35595972  1
  O  O255  1  0.15754381  -0.00840822  0.63054065  1
  O  O256  1  0.15588340  -0.00521968  0.87334936  1
  O  O257  1  0.14732705  0.24555063  0.12613048  1
  O  O258  1  0.12757125  0.26208793  0.37073902  1
  O  O259  1  0.09602952  0.24673902  0.63328617  1
  O  O260  1  0.08430042  0.24577020  0.86863076  1
  O  O261  1  0.12337970  0.50580254  0.13048773  1
  O  O262  1  0.11473580  0.51083116  0.34124658  1
  O  O263  1  0.15796224  0.50738313  0.63842059  1
  O  O264  1  0.17119650  0.50350360  0.89250691  1
  O  O265  1  0.12589385  0.75918189  0.10072241  1
  O  O266  1  0.11816882  0.75333214  0.37303434  1
  O  O267  1  0.10717661  0.74442601  0.59856819  1
  O  O268  1  0.09947175  0.76051090  0.90134002  1
  O  O269  1  0.40264565  0.00745862  0.13126813  1
  O  O270  1  0.40069354  0.00598883  0.36704722  1
  O  O271  1  0.35233946  -0.00590868  0.63506322  1
  O  O272  1  0.37444382  -0.00829279  0.85121797  1
  O  O273  1  0.36520237  0.24294984  0.09658461  1
  O  O274  1  0.33805364  0.24913673  0.38787499  1
  O  O275  1  0.38248276  0.24066086  0.59195528  1
  O  O276  1  0.39586906  0.23492125  0.86835818  1
  O  O277  1  0.37254563  0.50921068  0.15124090  1
  O  O278  1  0.37824140  0.50186013  0.34768874  1
  O  O279  1  0.34474170  0.50950105  0.65011412  1
  O  O280  1  0.35649142  0.51768180  0.87747801  1
  O  O281  1  0.36931457  0.75460873  0.10251375  1
  O  O282  1  0.36772349  0.75753912  0.38802793  1
  O  O283  1  0.41472492  0.74678674  0.61843310  1
  O  O284  1  0.39859738  0.75477088  0.89782050  1
  O  O285  1  0.61316722  -0.00854653  0.10902215  1
  O  O286  1  0.60091859  0.00040723  0.37541141  1
  O  O287  1  0.62771622  -0.00093149  0.60388404  1
  O  O288  1  0.63719489  -0.00436957  0.87437187  1
  O  O289  1  0.63548570  0.24092141  0.14456793  1
  O  O290  1  0.62873559  0.23985704  0.35370072  1
  O  O291  1  0.59858079  0.23421078  0.61459135  1
  O  O292  1  0.61202405  0.24119643  0.86371979  1
  O  O293  1  0.61557481  0.50922218  0.10515579  1
  O  O294  1  0.59220908  0.50349161  0.38686750  1
  O  O295  1  0.64344498  0.50023739  0.59374293  1
  O  O296  1  0.65488840  0.50939651  0.87396791  1
  O  O297  1  0.64249386  0.74788182  0.12903634  1
  O  O298  1  0.62525548  0.75647602  0.36872963  1
  O  O299  1  0.60334893  0.75611083  0.64586724  1
  O  O300  1  0.62222936  0.74878527  0.85075124  1
  O  O301  1  0.86505011  -0.01082771  0.13647446  1
  O  O302  1  0.86953127  -0.00768280  0.33903151  1
  O  O303  1  0.83633627  -0.01801932  0.64732283  1
  O  O304  1  0.85750436  -0.01418583  0.84103603  1
  O  O305  1  0.86551127  0.26096095  0.10433391  1
  O  O306  1  0.86306596  0.24756180  0.36754436  1
  O  O307  1  0.90433490  0.24382493  0.60981941  1
  O  O308  1  0.89261343  0.24036325  0.88643257  1
  O  O309  1  0.87524779  0.50942480  0.14712568  1
  O  O310  1  0.87990377  0.50636290  0.34885746  1
  O  O311  1  0.84281748  0.49489129  0.62974651  1
  O  O312  1  0.85131529  0.50680707  0.86358515  1
  O  O313  1  0.86700070  0.75030095  0.09209195  1
  O  O314  1  0.85866230  0.76052550  0.39654249  1
  O  O315  1  0.90088389  0.75146256  0.59295614  1
  O  O316  1  0.91719542  0.75264280  0.88453848  1
