# generated using pymatgen
data_Mg32Ti42(Bi17O64)3
_symmetry_space_group_name_H-M   'P 1'
_cell_length_a   15.93305510
_cell_length_b   15.95065459
_cell_length_c   15.94599442
_cell_angle_alpha   89.85619303
_cell_angle_beta   89.96532665
_cell_angle_gamma   89.91740420
_symmetry_Int_Tables_number   1
_chemical_formula_structural   Mg32Ti42(Bi17O64)3
_chemical_formula_sum   'Mg32 Ti42 Bi51 O192'
_cell_volume   4052.53970415
_cell_formula_units_Z   1
loop_
 _symmetry_equiv_pos_site_id
 _symmetry_equiv_pos_as_xyz
  1  'x, y, z'
loop_
 _atom_site_type_symbol
 _atom_site_label
 _atom_site_symmetry_multiplicity
 _atom_site_fract_x
 _atom_site_fract_y
 _atom_site_fract_z
 _atom_site_occupancy
  Mg  Mg0  1  0.12427358  0.87659875  0.11857043  1
  Mg  Mg1  1  0.37160111  0.37782101  0.12784373  1
  Mg  Mg2  1  0.87890096  0.87928285  0.38312579  1
  Mg  Mg3  1  0.36881225  0.12417535  0.12446344  1
  Mg  Mg4  1  0.87574967  0.12569429  0.87509192  1
  Mg  Mg5  1  0.36973906  0.62295162  0.36404232  1
  Mg  Mg6  1  0.36976472  0.36942335  0.61323944  1
  Mg  Mg7  1  0.87471945  0.87623342  0.87719332  1
  Mg  Mg8  1  0.37716890  0.86849975  0.36838465  1
  Mg  Mg9  1  0.61846332  0.87276940  0.87511454  1
  Mg  Mg10  1  0.87313493  0.62210402  0.86897096  1
  Mg  Mg11  1  0.38612102  0.37576132  0.87055476  1
  Mg  Mg12  1  0.87612723  0.10956694  0.61297557  1
  Mg  Mg13  1  0.38660983  0.11929079  0.87139477  1
  Mg  Mg14  1  0.37941122  0.11934685  0.61704952  1
  Mg  Mg15  1  0.62410002  0.88380772  0.62219965  1
  Mg  Mg16  1  0.12255780  0.88530174  0.38524640  1
  Mg  Mg17  1  0.61700958  0.86884687  0.12465934  1
  Mg  Mg18  1  0.63077078  0.61526101  0.62888567  1
  Mg  Mg19  1  0.07217216  0.03073253  0.54167497  1
  Mg  Mg20  1  0.23806546  0.44456003  0.24145815  1
  Mg  Mg21  1  0.49550252  0.69675949  0.21117519  1
  Mg  Mg22  1  0.01341802  0.44504032  0.26478505  1
  Mg  Mg23  1  0.79929241  0.50071612  0.28901655  1
  Mg  Mg24  1  0.49677953  0.20016157  0.70967659  1
  Mg  Mg25  1  0.46194550  -0.00169958  0.01512231  1
  Mg  Mg26  1  0.49938803  0.30772234  0.50441350  1
  Mg  Mg27  1  0.27902142  0.03405517  0.47967773  1
  Mg  Mg28  1  0.74606881  0.44243682  0.71507865  1
  Mg  Mg29  1  0.71058835  0.02212624  0.20286697  1
  Mg  Mg30  1  0.30118738  0.55539021  0.51814875  1
  Mg  Mg31  1  0.05519963  0.75473854  0.74896762  1
  Ti  Ti32  1  0.87441763  0.88508621  0.12150521  1
  Ti  Ti33  1  0.87225288  0.38098811  0.86404950  1
  Ti  Ti34  1  0.12524194  0.86791955  0.62597468  1
  Ti  Ti35  1  0.12870645  0.12318033  0.36999831  1
  Ti  Ti36  1  0.63049392  0.13421711  0.86174215  1
  Ti  Ti37  1  0.87341482  0.63395552  0.37412744  1
  Ti  Ti38  1  0.13168041  0.12684927  0.11672980  1
  Ti  Ti39  1  0.12230072  0.61663717  0.14023747  1
  Ti  Ti40  1  0.12126378  0.38500029  0.61399017  1
  Ti  Ti41  1  0.87391596  0.63100275  0.63638064  1
  Ti  Ti42  1  0.11331351  0.37394420  0.86947517  1
  Ti  Ti43  1  0.87892497  0.11022793  0.37633550  1
  Ti  Ti44  1  0.63613541  0.38295161  0.12327491  1
  Ti  Ti45  1  0.37377778  0.62728771  0.88619886  1
  Ti  Ti46  1  0.61359736  0.87031704  0.36482635  1
  Ti  Ti47  1  0.62651799  0.62768119  0.86706587  1
  Ti  Ti48  1  0.12916608  0.61838401  0.37399395  1
  Ti  Ti49  1  0.62109560  0.12135500  0.61361744  1
  Ti  Ti50  1  0.36855772  0.38242345  0.38436642  1
  Ti  Ti51  1  0.12947606  0.61853629  0.88769004  1
  Ti  Ti52  1  0.88411073  0.86713417  0.61777783  1
  Ti  Ti53  1  0.62589596  0.62122060  0.11840111  1
  Ti  Ti54  1  0.63095721  0.63095171  0.36348791  1
  Ti  Ti55  1  0.86810475  0.38565112  0.13288300  1
  Ti  Ti56  1  0.63507117  0.38313697  0.37427376  1
  Ti  Ti57  1  0.13182572  0.87266239  0.87375983  1
  Ti  Ti58  1  0.35973053  0.88349822  0.62568105  1
  Ti  Ti59  1  0.36471131  0.61468065  0.12647151  1
  Ti  Ti60  1  0.13153900  0.36840598  0.38248645  1
  Ti  Ti61  1  0.88324275  0.37834839  0.61702739  1
  Ti  Ti62  1  0.85693082  0.63092724  0.13873267  1
  Ti  Ti63  1  0.38656018  0.14092893  0.37385479  1
  Ti  Ti64  1  0.61605349  0.12545835  0.37835021  1
  Ti  Ti65  1  0.88487873  0.11752352  0.13184260  1
  Ti  Ti66  1  0.37732466  0.87049966  0.86688636  1
  Ti  Ti67  1  0.88064546  0.37342968  0.37659677  1
  Ti  Ti68  1  0.12332669  0.62547320  0.61770184  1
  Ti  Ti69  1  0.12152832  0.37672046  0.12036897  1
  Ti  Ti70  1  0.12436474  0.13487258  0.88243054  1
  Ti  Ti71  1  0.62178049  0.36970371  0.86210043  1
  Ti  Ti72  1  0.37436576  0.87431723  0.13100434  1
  Ti  Ti73  1  0.61709322  0.36571203  0.62363869  1
  Bi  Bi74  1  0.74309213  0.49905005  -0.03311922  1
  Bi  Bi75  1  0.26398048  -0.01800255  -0.02088126  1
  Bi  Bi76  1  0.45696636  0.51044969  0.70203748  1
  Bi  Bi77  1  0.27559478  0.25114741  -0.02869373  1
  Bi  Bi78  1  -0.00132323  -0.00087306  -0.03160773  1
  Bi  Bi79  1  0.50946672  0.50049111  -0.02521572  1
  Bi  Bi80  1  0.01170365  0.75898767  0.47573307  1
  Bi  Bi81  1  0.78765937  0.23041419  0.74102135  1
  Bi  Bi82  1  -0.00112211  0.51358210  0.48400049  1
  Bi  Bi83  1  0.75517346  0.78431240  0.74500957  1
  Bi  Bi84  1  0.03194780  -0.00431721  0.24329205  1
  Bi  Bi85  1  0.01669310  0.21213123  0.71075699  1
  Bi  Bi86  1  0.74175570  0.22551548  0.04028918  1
  Bi  Bi87  1  0.50975767  0.27345916  0.23066043  1
  Bi  Bi88  1  0.48554257  0.76282783  0.01701762  1
  Bi  Bi89  1  0.72521741  0.75236053  0.51519377  1
  Bi  Bi90  1  0.49176801  0.72218112  0.50472282  1
  Bi  Bi91  1  0.71319224  -0.00408697  0.00342740  1
  Bi  Bi92  1  0.28366400  0.00342292  0.26817264  1
  Bi  Bi93  1  0.50147232  0.49690794  0.22913326  1
  Bi  Bi94  1  0.28202637  0.25350883  0.74131968  1
  Bi  Bi95  1  -0.01186399  -0.02191441  0.73508818  1
  Bi  Bi96  1  0.24339495  0.47039490  0.74895227  1
  Bi  Bi97  1  0.51258146  0.20367163  0.01094423  1
  Bi  Bi98  1  0.51516196  0.73412481  0.72191686  1
  Bi  Bi99  1  -0.01494102  0.74585965  -0.02947747  1
  Bi  Bi100  1  -0.02837763  0.52419761  0.01334214  1
  Bi  Bi101  1  -0.01250938  0.23049262  0.50063575  1
  Bi  Bi102  1  0.72927269  -0.01790956  0.47700114  1
  Bi  Bi103  1  0.00892855  0.52195283  0.74078536  1
  Bi  Bi104  1  0.26677171  0.74510963  0.48084100  1
  Bi  Bi105  1  0.50235165  0.50651388  0.47680754  1
  Bi  Bi106  1  0.25961086  0.47528201  -0.00997759  1
  Bi  Bi107  1  0.73752852  -0.00495048  0.75411790  1
  Bi  Bi108  1  0.26689087  0.24926081  0.23686187  1
  Bi  Bi109  1  0.76630886  0.79510751  0.25626150  1
  Bi  Bi110  1  0.22922037  0.22070002  0.52615757  1
  Bi  Bi111  1  0.75225030  0.52601319  0.51525133  1
  Bi  Bi112  1  0.28428232  0.71118237  0.72934999  1
  Bi  Bi113  1  0.22145471  0.03350142  0.73861633  1
  Bi  Bi114  1  0.22798343  0.77358610  0.26494890  1
  Bi  Bi115  1  0.47346852  -0.02842361  0.49831297  1
  Bi  Bi116  1  -0.00286718  0.77730198  0.23814768  1
  Bi  Bi117  1  0.00233966  0.23908726  0.22849690  1
  Bi  Bi118  1  0.22888884  0.74630083  0.02774128  1
  Bi  Bi119  1  0.51961317  0.01696014  0.20884957  1
  Bi  Bi120  1  0.75120880  0.22905573  0.26917451  1
  Bi  Bi121  1  0.74875997  0.24873597  0.51370128  1
  Bi  Bi122  1  0.74571884  0.76218181  -0.02532466  1
  Bi  Bi123  1  -0.03594170  0.25830395  -0.01146348  1
  Bi  Bi124  1  0.49351216  -0.00727993  0.74466480  1
  O  O125  1  0.14969979  0.11977008  0.00451390  1
  O  O126  1  0.10194370  0.13545175  0.25458509  1
  O  O127  1  0.16807025  0.09681755  0.49456194  1
  O  O128  1  0.11080844  0.11907335  0.76327068  1
  O  O129  1  0.13452898  0.38578558  0.00619699  1
  O  O130  1  0.11915115  0.37173258  0.26375448  1
  O  O131  1  0.12474458  0.40554714  0.50044458  1
  O  O132  1  0.11240399  0.37170872  0.75384583  1
  O  O133  1  0.14576589  0.61473436  0.00444244  1
  O  O134  1  0.13049675  0.64227399  0.25887314  1
  O  O135  1  0.10102181  0.61422531  0.50262612  1
  O  O136  1  0.09609949  0.63397283  0.75010454  1
  O  O137  1  0.15342078  0.87391696  -0.00362131  1
  O  O138  1  0.10703272  0.86974565  0.24776392  1
  O  O139  1  0.09947000  0.89852803  0.51530148  1
  O  O140  1  0.12494002  0.85915067  0.75748061  1
  O  O141  1  0.37363177  0.16071598  0.00016451  1
  O  O142  1  0.39534427  0.09947569  0.25577513  1
  O  O143  1  0.34662410  0.14265516  0.48929407  1
  O  O144  1  0.41365653  0.10525870  0.74712549  1
  O  O145  1  0.34882233  0.36386797  0.00095039  1
  O  O146  1  0.37335535  0.41158621  0.26064016  1
  O  O147  1  0.36959091  0.33350300  0.49253467  1
  O  O148  1  0.37203462  0.40571266  0.74807129  1
  O  O149  1  0.36883844  0.65559112  0.00155819  1
  O  O150  1  0.39702688  0.61536181  0.24238663  1
  O  O151  1  0.37271962  0.65689405  0.49601571  1
  O  O152  1  0.37080418  0.60688504  0.75724868  1
  O  O153  1  0.35380202  0.85060189  -0.01412617  1
  O  O154  1  0.38835616  0.89917133  0.24179644  1
  O  O155  1  0.37828251  0.85412856  0.50537289  1
  O  O156  1  0.37184502  0.92101112  0.74397457  1
  O  O157  1  0.65675600  0.13343488  -0.00952058  1
  O  O158  1  0.61680958  0.09810072  0.25975403  1
  O  O159  1  0.65127987  0.13715802  0.49799147  1
  O  O160  1  0.60091510  0.12718314  0.74600573  1
  O  O161  1  0.64413676  0.38096851  0.00887916  1
  O  O162  1  0.60436796  0.38066897  0.26107960  1
  O  O163  1  0.62955068  0.34919231  0.49751578  1
  O  O164  1  0.62833014  0.38135939  0.74628165  1
  O  O165  1  0.62844187  0.61073549  0.00540488  1
  O  O166  1  0.59322524  0.62692037  0.25294380  1
  O  O167  1  0.63611362  0.63888947  0.49479784  1
  O  O168  1  0.61061616  0.62614483  0.75338678  1
  O  O169  1  0.65366981  0.86688471  0.00257182  1
  O  O170  1  0.60802132  0.89547074  0.25209890  1
  O  O171  1  0.64241855  0.87185848  0.49684020  1
  O  O172  1  0.64755451  0.88515654  0.74764564  1
  O  O173  1  0.86077803  0.15302207  0.01152102  1
  O  O174  1  0.90656058  0.12122369  0.25410857  1
  O  O175  1  0.86446440  0.15258409  0.49242883  1
  O  O176  1  0.89814571  0.13089543  0.74248614  1
  O  O177  1  0.86777014  0.35882612  0.01409307  1
  O  O178  1  0.88616412  0.40775197  0.25613761  1
  O  O179  1  0.86583667  0.36163492  0.49970540  1
  O  O180  1  0.86845455  0.39094882  0.74924073  1
  O  O181  1  0.88327144  0.63433428  0.01706354  1
  O  O182  1  0.87274775  0.60219541  0.25400764  1
  O  O183  1  0.86993892  0.62008399  0.49941805  1
  O  O184  1  0.88650981  0.59871216  0.74762205  1
  O  O185  1  0.85459797  0.85639158  0.01132087  1
  O  O186  1  0.88803217  0.86996147  0.25326057  1
  O  O187  1  0.89234635  0.84504494  0.50662698  1
  O  O188  1  0.84932374  0.89028834  0.75003966  1
  O  O189  1  0.00360741  0.13396313  0.11880814  1
  O  O190  1  0.00576763  0.13912354  0.40020989  1
  O  O191  1  0.00521176  0.12847692  0.59523528  1
  O  O192  1  0.00498454  0.13235765  0.90771704  1
  O  O193  1  0.00402973  0.39781018  0.13997806  1
  O  O194  1  -0.00228188  0.36340325  0.37701051  1
  O  O195  1  -0.00493053  0.40632506  0.61815946  1
  O  O196  1  -0.00270114  0.37170018  0.89061944  1
  O  O197  1  0.00929059  0.60681204  0.12915635  1
  O  O198  1  -0.00795531  0.65087199  0.38210783  1
  O  O199  1  -0.00950029  0.59308972  0.62008530  1
  O  O200  1  0.00414808  0.61836470  0.90397950  1
  O  O201  1  -0.00559162  0.87152738  0.12477820  1
  O  O202  1  0.00048409  0.84325809  0.37204711  1
  O  O203  1  -0.00238039  0.85660341  0.66687262  1
  O  O204  1  0.00346636  0.87504917  0.89747976  1
  O  O205  1  0.24509906  0.14255915  0.14800260  1
  O  O206  1  0.24811575  0.11999189  0.34863506  1
  O  O207  1  0.25542120  0.14116805  0.65246314  1
  O  O208  1  0.24690281  0.10757801  0.86095726  1
  O  O209  1  0.24385565  0.35867461  0.14873255  1
  O  O210  1  0.24494925  0.39285455  0.36445829  1
  O  O211  1  0.23994360  0.36755483  0.64300205  1
  O  O212  1  0.24427437  0.38543824  0.86750310  1
  O  O213  1  0.25621496  0.65393786  0.13720801  1
  O  O214  1  0.23972700  0.60803671  0.40775879  1
  O  O215  1  0.23911673  0.63193271  0.60775797  1
  O  O216  1  0.24778488  0.62769396  0.86531663  1
  O  O217  1  0.25718702  0.84721621  0.13501556  1
  O  O218  1  0.24627847  0.88834115  0.34854841  1
  O  O219  1  0.24347370  0.86108815  0.62588179  1
  O  O220  1  0.25001513  0.90031732  0.86181749  1
  O  O221  1  0.49100486  0.09758174  0.09364906  1
  O  O222  1  0.50171603  0.14100030  0.39660314  1
  O  O223  1  0.50794331  0.09372148  0.60667512  1
  O  O224  1  0.51510986  0.12180188  0.90176783  1
  O  O225  1  0.50027635  0.38464138  0.13597557  1
  O  O226  1  0.49612561  0.37900055  0.39810722  1
  O  O227  1  0.50383899  0.39129841  0.60415790  1
  O  O228  1  0.50858402  0.38235666  0.89063369  1
  O  O229  1  0.49445449  0.59677474  0.11697531  1
  O  O230  1  0.50165219  0.62989171  0.39705942  1
  O  O231  1  0.50309924  0.63569852  0.62142860  1
  O  O232  1  0.49533311  0.61672426  0.88955572  1
  O  O233  1  0.49082384  0.89126835  0.08133628  1
  O  O234  1  0.50160628  0.86791450  0.39329034  1
  O  O235  1  0.49442387  0.90512540  0.62406218  1
  O  O236  1  0.49315854  0.87118395  0.86026491  1
  O  O237  1  0.76316894  0.12737825  0.14787415  1
  O  O238  1  0.75710861  0.11549782  0.35086667  1
  O  O239  1  0.75050533  0.15491915  0.63132926  1
  O  O240  1  0.75186080  0.12931027  0.83702056  1
  O  O241  1  0.75110698  0.36879618  0.15106836  1
  O  O242  1  0.74897763  0.39976453  0.36069695  1
  O  O243  1  0.74604020  0.33870205  0.63135446  1
  O  O244  1  0.75053967  0.39713494  0.86459750  1
  O  O245  1  0.74164079  0.64038047  0.13639048  1
  O  O246  1  0.74414004  0.59832416  0.35780051  1
  O  O247  1  0.75344698  0.63567664  0.61270396  1
  O  O248  1  0.74543392  0.61622580  0.88099676  1
  O  O249  1  0.75640033  0.90022057  0.15788153  1
  O  O250  1  0.74628324  0.89096534  0.36737640  1
  O  O251  1  0.76082430  0.85351069  0.61771564  1
  O  O252  1  0.75044730  0.85066820  0.87202046  1
  O  O253  1  0.12679825  0.00854109  0.14129329  1
  O  O254  1  0.10679488  0.00800643  0.36167329  1
  O  O255  1  0.10732620  -0.01195238  0.65329249  1
  O  O256  1  0.10661064  -0.00243742  0.87798934  1
  O  O257  1  0.10556980  0.25604076  0.12720157  1
  O  O258  1  0.13885842  0.25205255  0.40614081  1
  O  O259  1  0.10435305  0.26625084  0.60419971  1
  O  O260  1  0.13178750  0.25132269  0.88248275  1
  O  O261  1  0.15356833  0.49960437  0.15348356  1
  O  O262  1  0.08495018  0.50662186  0.36343087  1
  O  O263  1  0.13082030  0.50417044  0.64910737  1
  O  O264  1  0.12381438  0.50080353  0.86441627  1
  O  O265  1  0.11883311  0.74226880  0.11488228  1
  O  O266  1  0.14097544  0.74860044  0.39526445  1
  O  O267  1  0.10925666  0.74543814  0.62738497  1
  O  O268  1  0.10716528  0.74701068  0.87877500  1
  O  O269  1  0.35577061  -0.00815017  0.09604328  1
  O  O270  1  0.36321717  0.00400844  0.39044747  1
  O  O271  1  0.35018893  -0.00169632  0.58114078  1
  O  O272  1  0.38744837  -0.00413034  0.91246380  1
  O  O273  1  0.38471797  0.25152924  0.15890614  1
  O  O274  1  0.37321859  0.25227561  0.34309597  1
  O  O275  1  0.39095555  0.24868778  0.65767919  1
  O  O276  1  0.36250542  0.24945791  0.85900967  1
  O  O277  1  0.34501997  0.50381771  0.10491719  1
  O  O278  1  0.37488932  0.49929589  0.41788989  1
  O  O279  1  0.36763271  0.49645524  0.60393388  1
  O  O280  1  0.37354359  0.50715572  0.90773577  1
  O  O281  1  0.41011119  0.75425594  0.13462446  1
  O  O282  1  0.33591117  0.74788334  0.35885456  1
  O  O283  1  0.38787969  0.76680073  0.65613882  1
  O  O284  1  0.36829413  0.75143601  0.84140944  1
  O  O285  1  0.62816225  -0.00168153  0.11205563  1
  O  O286  1  0.61696141  0.00403222  0.40207928  1
  O  O287  1  0.66172539  0.00875618  0.62100771  1
  O  O288  1  0.64746306  0.00399926  0.87616138  1
  O  O289  1  0.61265927  0.25874581  0.13599581  1
  O  O290  1  0.64202943  0.24545192  0.35862257  1
  O  O291  1  0.58471125  0.24647088  0.62551920  1
  O  O292  1  0.63207677  0.25435199  0.87294283  1
  O  O293  1  0.62844327  0.50072150  0.14091424  1
  O  O294  1  0.61163410  0.50041912  0.38896216  1
  O  O295  1  0.65615959  0.48685855  0.61966989  1
  O  O296  1  0.62249536  0.49902495  0.88744323  1
  O  O297  1  0.58565516  0.74087726  0.12432931  1
  O  O298  1  0.63909020  0.75225617  0.36575638  1
  O  O299  1  0.61898253  0.75572423  0.62798543  1
  O  O300  1  0.62334158  0.74171568  0.88584452  1
  O  O301  1  0.88597960  0.00382754  0.11283164  1
  O  O302  1  0.88541574  0.00330315  0.39752548  1
  O  O303  1  0.90167458  -0.01352386  0.62005112  1
  O  O304  1  0.88784046  0.00205087  0.89017436  1
  O  O305  1  0.88801716  0.25716165  0.14711217  1
  O  O306  1  0.85660923  0.25881298  0.35648194  1
  O  O307  1  0.89760624  0.25930253  0.63522029  1
  O  O308  1  0.87729936  0.25995097  0.87524260  1
  O  O309  1  0.86027850  0.50188688  0.10932172  1
  O  O310  1  0.88448723  0.49926437  0.39073756  1
  O  O311  1  0.83385111  0.48854757  0.62203414  1
  O  O312  1  0.87728842  0.49608288  0.90432127  1
  O  O313  1  0.87142483  0.74773490  0.15096905  1
  O  O314  1  0.84392083  0.74430918  0.36859478  1
  O  O315  1  0.88188854  0.74224686  0.65174177  1
  O  O316  1  0.88528566  0.74688340  0.87841681  1
