# generated using pymatgen
data_Mg32Ti42(Bi17O64)3
_symmetry_space_group_name_H-M   'P 1'
_cell_length_a   15.96031045
_cell_length_b   15.93719761
_cell_length_c   15.97100201
_cell_angle_alpha   89.97285972
_cell_angle_beta   89.97579619
_cell_angle_gamma   89.83238053
_symmetry_Int_Tables_number   1
_chemical_formula_structural   Mg32Ti42(Bi17O64)3
_chemical_formula_sum   'Mg32 Ti42 Bi51 O192'
_cell_volume   4062.40774089
_cell_formula_units_Z   1
loop_
 _symmetry_equiv_pos_site_id
 _symmetry_equiv_pos_as_xyz
  1  'x, y, z'
loop_
 _atom_site_type_symbol
 _atom_site_label
 _atom_site_symmetry_multiplicity
 _atom_site_fract_x
 _atom_site_fract_y
 _atom_site_fract_z
 _atom_site_occupancy
  Mg  Mg0  1  0.88099961  0.12489254  0.62723323  1
  Mg  Mg1  1  0.63389294  0.86880460  0.13064339  1
  Mg  Mg2  1  0.87087505  0.63079402  0.37691843  1
  Mg  Mg3  1  0.62953825  0.37447433  0.87259758  1
  Mg  Mg4  1  0.36997371  0.38203736  0.88302188  1
  Mg  Mg5  1  0.11502729  0.36966247  0.36502291  1
  Mg  Mg6  1  0.13180759  0.87859949  0.37121693  1
  Mg  Mg7  1  0.13235041  0.87387278  0.62282832  1
  Mg  Mg8  1  0.62698399  0.88433097  0.87489198  1
  Mg  Mg9  1  0.88078208  0.37266729  0.87313971  1
  Mg  Mg10  1  0.88509000  0.87970614  0.87097123  1
  Mg  Mg11  1  0.87689043  0.12704391  0.37542752  1
  Mg  Mg12  1  0.36433272  0.12025826  0.88785663  1
  Mg  Mg13  1  0.11607618  0.39115228  0.87850835  1
  Mg  Mg14  1  0.12840847  0.86604996  0.12357828  1
  Mg  Mg15  1  0.37722026  0.37896017  0.37588081  1
  Mg  Mg16  1  0.87679851  0.88195617  0.14095742  1
  Mg  Mg17  1  0.12605546  0.61285571  0.37974292  1
  Mg  Mg18  1  0.12256191  0.61973980  0.86749413  1
  Mg  Mg19  1  -0.00395214  0.51845037  0.75776808  1
  Mg  Mg20  1  0.00510044  0.50238891  0.02073666  1
  Mg  Mg21  1  0.51020873  0.74859490  0.55376216  1
  Mg  Mg22  1  0.05060814  0.23410072  0.18977938  1
  Mg  Mg23  1  0.78469455  0.24242257  0.53061851  1
  Mg  Mg24  1  0.44684714  0.24694334  0.79519722  1
  Mg  Mg25  1  0.50154247  0.06478635  0.29789207  1
  Mg  Mg26  1  0.57051025  0.19657020  0.46713429  1
  Mg  Mg27  1  0.28868324  0.01671160  0.75840920  1
  Mg  Mg28  1  0.28473274  0.78968789  0.51127018  1
  Mg  Mg29  1  0.00309302  -0.02470015  0.72902961  1
  Mg  Mg30  1  0.74981282  0.79105506  0.29716349  1
  Mg  Mg31  1  0.30910450  0.25843922  0.01279886  1
  Ti  Ti32  1  0.14838549  0.63625208  0.62371759  1
  Ti  Ti33  1  0.37204598  0.63350883  0.12704653  1
  Ti  Ti34  1  0.38253308  0.87873161  0.37443308  1
  Ti  Ti35  1  0.88094395  0.37548836  0.39235076  1
  Ti  Ti36  1  0.88792805  0.36224073  0.12773770  1
  Ti  Ti37  1  0.62127569  0.62790966  0.63739317  1
  Ti  Ti38  1  0.13111850  0.12516521  0.38489607  1
  Ti  Ti39  1  0.37108008  0.63565868  0.37897431  1
  Ti  Ti40  1  0.12279359  0.11180123  0.63450133  1
  Ti  Ti41  1  0.38159503  0.87181376  0.63697309  1
  Ti  Ti42  1  0.62571277  0.35380368  0.61934894  1
  Ti  Ti43  1  0.12526485  0.10982521  0.86092956  1
  Ti  Ti44  1  0.62925227  0.38178219  0.12067394  1
  Ti  Ti45  1  0.37466674  0.38088042  0.13161912  1
  Ti  Ti46  1  0.88940163  0.11865106  0.87987491  1
  Ti  Ti47  1  0.37517008  0.87539278  0.12374173  1
  Ti  Ti48  1  0.62607594  0.12289195  0.88146577  1
  Ti  Ti49  1  0.38028363  0.35594480  0.62202933  1
  Ti  Ti50  1  0.62348983  0.38943887  0.38970779  1
  Ti  Ti51  1  0.88861068  0.61641738  0.87718381  1
  Ti  Ti52  1  0.61373288  0.87665691  0.37547575  1
  Ti  Ti53  1  0.88512851  0.87808183  0.36842824  1
  Ti  Ti54  1  0.63364650  0.87460098  0.63294934  1
  Ti  Ti55  1  0.86950638  0.13564766  0.14272366  1
  Ti  Ti56  1  0.37002238  0.88353682  0.88223644  1
  Ti  Ti57  1  0.14333383  0.36949309  0.11462115  1
  Ti  Ti58  1  0.37637710  0.61518233  0.87092958  1
  Ti  Ti59  1  0.61743182  0.63507972  0.38685657  1
  Ti  Ti60  1  0.87369087  0.62259321  0.13460328  1
  Ti  Ti61  1  0.38239673  0.13277413  0.13924303  1
  Ti  Ti62  1  0.63076800  0.12855588  0.62664013  1
  Ti  Ti63  1  0.87544608  0.62917759  0.62701691  1
  Ti  Ti64  1  0.87779778  0.87021492  0.62048450  1
  Ti  Ti65  1  0.62773276  0.61416299  0.88205253  1
  Ti  Ti66  1  0.86223011  0.37534665  0.63520655  1
  Ti  Ti67  1  0.12088611  0.88795196  0.86675583  1
  Ti  Ti68  1  0.37883792  0.63844129  0.63737209  1
  Ti  Ti69  1  0.61664978  0.13365636  0.12648469  1
  Ti  Ti70  1  0.37079926  0.14345774  0.39141087  1
  Ti  Ti71  1  0.64239154  0.62699414  0.13257553  1
  Ti  Ti72  1  0.37950317  0.13164524  0.62504504  1
  Ti  Ti73  1  0.11616555  0.62037366  0.12008142  1
  Bi  Bi74  1  0.51468589  0.75753192  0.77867249  1
  Bi  Bi75  1  0.51206915  0.76108635  0.24445389  1
  Bi  Bi76  1  0.21526184  0.29182397  0.51593711  1
  Bi  Bi77  1  0.75310255  0.25970553  -0.00817061  1
  Bi  Bi78  1  0.04279292  0.75457636  0.48867503  1
  Bi  Bi79  1  0.49968676  0.03796762  0.76684714  1
  Bi  Bi80  1  0.51043441  0.27375305  -0.01475771  1
  Bi  Bi81  1  0.75673289  0.76312852  0.78438257  1
  Bi  Bi82  1  0.78403771  0.48844200  0.00927183  1
  Bi  Bi83  1  -0.01980662  0.01590661  0.49245545  1
  Bi  Bi84  1  0.75054403  0.25930680  0.29660271  1
  Bi  Bi85  1  0.74834909  0.74396648  0.49759504  1
  Bi  Bi86  1  0.25210244  0.77047766  0.25633931  1
  Bi  Bi87  1  0.02418236  0.00902916  0.03265886  1
  Bi  Bi88  1  0.52536694  -0.00964826  0.02481458  1
  Bi  Bi89  1  0.02917787  0.74479098  0.26726719  1
  Bi  Bi90  1  0.24727857  0.76838433  0.77074977  1
  Bi  Bi91  1  0.75915293  0.00809531  0.03827488  1
  Bi  Bi92  1  0.02817102  0.48604366  0.54667845  1
  Bi  Bi93  1  0.03230099  0.03054717  0.24138057  1
  Bi  Bi94  1  0.26778740  0.00414956  0.26403582  1
  Bi  Bi95  1  0.50109335  0.45868530  0.76006547  1
  Bi  Bi96  1  0.27674189  0.50117838  0.50454382  1
  Bi  Bi97  1  0.25130226  0.49600156  0.27891253  1
  Bi  Bi98  1  0.76997831  0.48875906  0.25790786  1
  Bi  Bi99  1  0.71007068  0.01729496  0.27239815  1
  Bi  Bi100  1  0.03224822  0.26093558  -0.01814752  1
  Bi  Bi101  1  0.52637303  0.76521624  0.00244596  1
  Bi  Bi102  1  0.25525751  0.00346537  0.53112757  1
  Bi  Bi103  1  -0.00599313  0.78287572  0.01107284  1
  Bi  Bi104  1  0.49707270  0.51728882  0.02565136  1
  Bi  Bi105  1  0.02187395  0.75614076  0.74006771  1
  Bi  Bi106  1  0.24161999  0.25879263  0.79835202  1
  Bi  Bi107  1  0.25032723  0.24928791  0.26560013  1
  Bi  Bi108  1  0.24501510  0.03056002  0.04176690  1
  Bi  Bi109  1  0.78942306  0.00059824  0.75056388  1
  Bi  Bi110  1  0.50212534  0.51333919  0.26664600  1
  Bi  Bi111  1  0.51732656  -0.00428872  0.52557169  1
  Bi  Bi112  1  0.75927008  0.23248206  0.77268669  1
  Bi  Bi113  1  0.52490965  0.27651024  0.25752076  1
  Bi  Bi114  1  0.76260793  0.51020228  0.76376149  1
  Bi  Bi115  1  0.24816679  0.74241974  -0.00790621  1
  Bi  Bi116  1  0.74643938  0.01703527  0.48750459  1
  Bi  Bi117  1  0.23615006  0.51806478  0.00571140  1
  Bi  Bi118  1  0.49657865  0.49868364  0.53223288  1
  Bi  Bi119  1  0.21479720  0.46857168  0.73975706  1
  Bi  Bi120  1  0.76534854  0.51438327  0.51087671  1
  Bi  Bi121  1  0.77343140  0.78258882  0.00454435  1
  Bi  Bi122  1  0.02247999  0.28560793  0.73175860  1
  Bi  Bi123  1  -0.00224131  0.50530881  0.26821119  1
  Bi  Bi124  1  0.00386732  0.24347173  0.51099563  1
  O  O125  1  0.13009899  0.08668675  -0.01819703  1
  O  O126  1  0.09939053  0.14678380  0.26538228  1
  O  O127  1  0.15191030  0.09718149  0.49994921  1
  O  O128  1  0.10791678  0.15422578  0.74332964  1
  O  O129  1  0.08504718  0.39545953  0.00356215  1
  O  O130  1  0.14538763  0.33625499  0.23454277  1
  O  O131  1  0.10767010  0.37982156  0.49561315  1
  O  O132  1  0.14157554  0.34934782  0.74368838  1
  O  O133  1  0.10884782  0.57910966  -0.00647295  1
  O  O134  1  0.13258339  0.64436067  0.23212502  1
  O  O135  1  0.10123129  0.61943386  0.50668277  1
  O  O136  1  0.14502612  0.65819744  0.74270994  1
  O  O137  1  0.11362142  0.90193555  -0.01410783  1
  O  O138  1  0.12669507  0.84255837  0.24619940  1
  O  O139  1  0.14307837  0.85449580  0.49537981  1
  O  O140  1  0.12775654  0.84565294  0.74728614  1
  O  O141  1  0.33918470  0.12675840  0.01026552  1
  O  O142  1  0.40096475  0.13842919  0.25688270  1
  O  O143  1  0.34992026  0.10032317  0.50259602  1
  O  O144  1  0.38308752  0.14674932  0.74072540  1
  O  O145  1  0.40030450  0.36718753  0.00731751  1
  O  O146  1  0.33567172  0.36258628  0.24561734  1
  O  O147  1  0.38715738  0.40985479  0.50025046  1
  O  O148  1  0.38038060  0.34709562  0.73880605  1
  O  O149  1  0.38795530  0.59774880  -0.00823539  1
  O  O150  1  0.35520364  0.64765526  0.23893087  1
  O  O151  1  0.38901426  0.60206691  0.48774860  1
  O  O152  1  0.35705490  0.64977297  0.74911784  1
  O  O153  1  0.36514679  0.89844726  -0.00479112  1
  O  O154  1  0.38479283  0.83616609  0.24185042  1
  O  O155  1  0.36691981  0.89422578  0.48653890  1
  O  O156  1  0.38922458  0.84575866  0.74690928  1
  O  O157  1  0.61853920  0.10631965  -0.00393218  1
  O  O158  1  0.60671103  0.12737722  0.24267209  1
  O  O159  1  0.62272902  0.08965165  0.50226266  1
  O  O160  1  0.62048377  0.13816265  0.74058318  1
  O  O161  1  0.59052451  0.38222263  0.00430403  1
  O  O162  1  0.63999543  0.35492731  0.24077803  1
  O  O163  1  0.61376543  0.40333191  0.50034083  1
  O  O164  1  0.63478646  0.36329159  0.73316802  1
  O  O165  1  0.60082879  0.60708585  -0.00364569  1
  O  O166  1  0.64365824  0.63784376  0.24484109  1
  O  O167  1  0.57903960  0.64018383  0.49306608  1
  O  O168  1  0.63763865  0.63940635  0.74951573  1
  O  O169  1  0.61176932  0.87721089  -0.00099299  1
  O  O170  1  0.63602567  0.84071763  0.25324103  1
  O  O171  1  0.61692769  0.89828411  0.49145785  1
  O  O172  1  0.62737319  0.85768682  0.74800707  1
  O  O173  1  0.86866673  0.09967647  -0.00881945  1
  O  O174  1  0.86152356  0.15861947  0.25314163  1
  O  O175  1  0.86702995  0.09587918  0.50176044  1
  O  O176  1  0.85700811  0.13871203  0.74998628  1
  O  O177  1  0.90180861  0.40514982  0.01065665  1
  O  O178  1  0.83571444  0.36041806  0.24481210  1
  O  O179  1  0.89092385  0.40174694  0.50370230  1
  O  O180  1  0.84052947  0.35007851  0.74571818  1
  O  O181  1  0.90037248  0.58054467  -0.01222968  1
  O  O182  1  0.84968288  0.62850483  0.24402895  1
  O  O183  1  0.87962473  0.59554042  0.50953351  1
  O  O184  1  0.83133530  0.63141580  0.74399683  1
  O  O185  1  0.88206225  0.87092170  -0.00420929  1
  O  O186  1  0.85761577  0.85280060  0.25948476  1
  O  O187  1  0.88388785  0.89485216  0.50563550  1
  O  O188  1  0.84779156  0.86121581  0.74770069  1
  O  O189  1  -0.01267270  0.12878307  0.13530496  1
  O  O190  1  0.00900497  0.13409265  0.41154033  1
  O  O191  1  0.00394307  0.12921521  0.59261216  1
  O  O192  1  -0.00035705  0.14091471  0.88218392  1
  O  O193  1  -0.00578900  0.35144147  0.15937305  1
  O  O194  1  -0.01387752  0.36123721  0.35832675  1
  O  O195  1  -0.01950107  0.41028795  0.66369321  1
  O  O196  1  0.00124474  0.34244684  0.85439234  1
  O  O197  1  -0.00182070  0.58957434  0.13022710  1
  O  O198  1  -0.00454507  0.62153505  0.34475295  1
  O  O199  1  -0.01827011  0.60022623  0.65748168  1
  O  O200  1  -0.00505558  0.62864014  0.84319169  1
  O  O201  1  0.00044800  0.87654261  0.11267121  1
  O  O202  1  -0.00282429  0.84893447  0.36940276  1
  O  O203  1  -0.01009177  0.86808507  0.65483904  1
  O  O204  1  0.00729168  0.84903242  0.85652235  1
  O  O205  1  0.25996848  0.11206764  0.15261634  1
  O  O206  1  0.25649428  0.10752171  0.35558167  1
  O  O207  1  0.24423304  0.09120690  0.64440775  1
  O  O208  1  0.24028318  0.10059145  0.84296178  1
  O  O209  1  0.25392942  0.35508423  0.08388268  1
  O  O210  1  0.25114356  0.41203199  0.39267820  1
  O  O211  1  0.26518047  0.39089087  0.61151849  1
  O  O212  1  0.24441028  0.38616466  0.86746296  1
  O  O213  1  0.24786064  0.62574402  0.09241026  1
  O  O214  1  0.25392306  0.59649810  0.37949307  1
  O  O215  1  0.25802563  0.64870350  0.59907131  1
  O  O216  1  0.25188203  0.61810146  0.90476026  1
  O  O217  1  0.25536001  0.85316097  0.13228233  1
  O  O218  1  0.26023482  0.88330221  0.34717041  1
  O  O219  1  0.26193534  0.86173021  0.62009139  1
  O  O220  1  0.25187444  0.90335312  0.84052534  1
  O  O221  1  0.49545623  0.10801653  0.10968508  1
  O  O222  1  0.48571158  0.13854733  0.40020713  1
  O  O223  1  0.49215702  0.11967912  0.60790358  1
  O  O224  1  0.49737690  0.14537455  0.86128956  1
  O  O225  1  0.49221426  0.37967341  0.16012265  1
  O  O226  1  0.50302908  0.38264852  0.34537314  1
  O  O227  1  0.50140940  0.37984715  0.62073718  1
  O  O228  1  0.49888228  0.34829563  0.85532222  1
  O  O229  1  0.49435034  0.61098488  0.13205966  1
  O  O230  1  0.49630602  0.64519767  0.34060679  1
  O  O231  1  0.50000879  0.65243794  0.64036183  1
  O  O232  1  0.49001631  0.64692913  0.86408933  1
  O  O233  1  0.49716899  0.86677197  0.11290463  1
  O  O234  1  0.49897336  0.83695330  0.36615252  1
  O  O235  1  0.50217863  0.87041221  0.60953771  1
  O  O236  1  0.49066041  0.85244942  0.87913382  1
  O  O237  1  0.73859253  0.13006453  0.11745160  1
  O  O238  1  0.74895677  0.09685491  0.37509023  1
  O  O239  1  0.74553510  0.14317090  0.60811816  1
  O  O240  1  0.74073309  0.10794195  0.86270323  1
  O  O241  1  0.74119837  0.36916272  0.09276769  1
  O  O242  1  0.74189889  0.39223642  0.37552390  1
  O  O243  1  0.74617454  0.34872663  0.59318741  1
  O  O244  1  0.75374316  0.38019883  0.91198074  1
  O  O245  1  0.75499151  0.62127562  0.09851998  1
  O  O246  1  0.73727150  0.61752538  0.41469435  1
  O  O247  1  0.73585093  0.62660818  0.59205030  1
  O  O248  1  0.74262949  0.59188519  0.88785285  1
  O  O249  1  0.75585313  0.87639626  0.10557049  1
  O  O250  1  0.74004244  0.90936989  0.37067199  1
  O  O251  1  0.74788488  0.88695561  0.61709329  1
  O  O252  1  0.75218211  0.86699514  0.88515031  1
  O  O253  1  0.11804199  -0.00238995  0.13620269  1
  O  O254  1  0.12273295  0.00474049  0.34764370  1
  O  O255  1  0.09709011  -0.00127001  0.64111803  1
  O  O256  1  0.09055598  -0.00213454  0.82808121  1
  O  O257  1  0.11903618  0.25406720  0.08874245  1
  O  O258  1  0.15621973  0.24570095  0.38709368  1
  O  O259  1  0.11929926  0.23814275  0.59560434  1
  O  O260  1  0.14142771  0.23621888  0.89533026  1
  O  O261  1  0.14720350  0.49072605  0.13264177  1
  O  O262  1  0.11434117  0.49331288  0.33670349  1
  O  O263  1  0.13523633  0.51535250  0.63316685  1
  O  O264  1  0.10602067  0.50064215  0.81790676  1
  O  O265  1  0.11142845  0.73471364  0.08704852  1
  O  O266  1  0.12067162  0.73821318  0.37344625  1
  O  O267  1  0.09937286  0.74577396  0.61557359  1
  O  O268  1  0.15641441  0.76085210  0.88658629  1
  O  O269  1  0.37056902  -0.01085891  0.14257686  1
  O  O270  1  0.39454634  -0.00930528  0.33971351  1
  O  O271  1  0.37196554  -0.00660595  0.64819145  1
  O  O272  1  0.38773998  0.00043408  0.84519309  1
  O  O273  1  0.37838679  0.24622787  0.12108133  1
  O  O274  1  0.34660925  0.25357377  0.38837765  1
  O  O275  1  0.36454224  0.24556225  0.59606754  1
  O  O276  1  0.35233451  0.24965668  0.89058761  1
  O  O277  1  0.36422589  0.49616181  0.12903370  1
  O  O278  1  0.38635820  0.50927795  0.33923414  1
  O  O279  1  0.39184408  0.51921434  0.63375853  1
  O  O280  1  0.39203352  0.50269981  0.84719851  1
  O  O281  1  0.38159973  0.74239598  0.09027628  1
  O  O282  1  0.34012870  0.74761875  0.39703613  1
  O  O283  1  0.38595965  0.75344248  0.58512525  1
  O  O284  1  0.34378570  0.75931624  0.88803586  1
  O  O285  1  0.62643243  -0.00067288  0.12014518  1
  O  O286  1  0.59090572  -0.01400954  0.33697664  1
  O  O287  1  0.60972364  -0.00001686  0.63467908  1
  O  O288  1  0.59390302  0.00574466  0.86318458  1
  O  O289  1  0.60110904  0.25023386  0.11089987  1
  O  O290  1  0.62088576  0.26809786  0.38094133  1
  O  O291  1  0.60851680  0.24277972  0.58263428  1
  O  O292  1  0.63869861  0.24639797  0.89665217  1
  O  O293  1  0.62737340  0.49806302  0.13150592  1
  O  O294  1  0.60864270  0.51202043  0.36317666  1
  O  O295  1  0.61069861  0.51242076  0.63141372  1
  O  O296  1  0.59954656  0.49992839  0.85318184  1
  O  O297  1  0.62040653  0.73966884  0.10574947  1
  O  O298  1  0.65496873  0.75371583  0.38672941  1
  O  O299  1  0.62733486  0.75843762  0.60401113  1
  O  O300  1  0.62377362  0.73980683  0.88236020  1
  O  O301  1  0.85637685  0.01276956  0.13876829  1
  O  O302  1  0.90655544  -0.00399627  0.36802283  1
  O  O303  1  0.88945228  -0.00334123  0.65550731  1
  O  O304  1  0.89633820  0.00223550  0.83655343  1
  O  O305  1  0.86718410  0.25017802  0.09579030  1
  O  O306  1  0.83864717  0.25695214  0.41183131  1
  O  O307  1  0.89024208  0.25803683  0.60163555  1
  O  O308  1  0.84678021  0.24159493  0.88481525  1
  O  O309  1  0.85805371  0.49019858  0.14414272  1
  O  O310  1  0.87296198  0.49466569  0.35093103  1
  O  O311  1  0.83287277  0.49521630  0.64002990  1
  O  O312  1  0.88581905  0.49725075  0.82996305  1
  O  O313  1  0.88973008  0.73383527  0.09851727  1
  O  O314  1  0.83940389  0.75717003  0.39041993  1
  O  O315  1  0.87212549  0.74633011  0.60958718  1
  O  O316  1  0.85648912  0.73191263  0.88410437  1
