# generated using pymatgen
data_Mg32Ti42(Bi17O64)3
_symmetry_space_group_name_H-M   'P 1'
_cell_length_a   15.93640265
_cell_length_b   15.95391304
_cell_length_c   15.96103403
_cell_angle_alpha   89.85902728
_cell_angle_beta   90.05846859
_cell_angle_gamma   89.99317643
_symmetry_Int_Tables_number   1
_chemical_formula_structural   Mg32Ti42(Bi17O64)3
_chemical_formula_sum   'Mg32 Ti42 Bi51 O192'
_cell_volume   4058.04626651
_cell_formula_units_Z   1
loop_
 _symmetry_equiv_pos_site_id
 _symmetry_equiv_pos_as_xyz
  1  'x, y, z'
loop_
 _atom_site_type_symbol
 _atom_site_label
 _atom_site_symmetry_multiplicity
 _atom_site_fract_x
 _atom_site_fract_y
 _atom_site_fract_z
 _atom_site_occupancy
  Mg  Mg0  1  0.61898038  0.87037118  0.87884317  1
  Mg  Mg1  1  0.63417312  0.38182107  0.87914687  1
  Mg  Mg2  1  0.12645361  0.86754157  0.63210874  1
  Mg  Mg3  1  0.12300631  0.12637874  0.39473325  1
  Mg  Mg4  1  0.62019217  0.12782839  0.88373655  1
  Mg  Mg5  1  0.36538102  0.88055219  0.37419351  1
  Mg  Mg6  1  0.13117561  0.61447219  0.63095267  1
  Mg  Mg7  1  0.86643778  0.13251472  0.39195760  1
  Mg  Mg8  1  0.38730395  0.89571003  0.62860942  1
  Mg  Mg9  1  0.87925658  0.12803753  0.88240555  1
  Mg  Mg10  1  0.12683697  0.13771865  0.88970012  1
  Mg  Mg11  1  0.12435835  0.36520897  0.11313517  1
  Mg  Mg12  1  0.87316303  0.87098234  0.37626795  1
  Mg  Mg13  1  0.88621382  0.37599961  0.88747839  1
  Mg  Mg14  1  0.11492760  0.37478882  0.37780633  1
  Mg  Mg15  1  0.12530206  0.37109579  0.88047689  1
  Mg  Mg16  1  0.62368404  0.87211336  0.62813061  1
  Mg  Mg17  1  0.87605565  0.63033473  0.12345628  1
  Mg  Mg18  1  0.61953872  0.88956252  0.37971141  1
  Mg  Mg19  1  0.00219219  0.03283164  -0.01166341  1
  Mg  Mg20  1  0.77435711  0.50263268  0.81249828  1
  Mg  Mg21  1  -0.02672439  0.22543514  0.01207645  1
  Mg  Mg22  1  0.46018830  0.01005634  0.03367623  1
  Mg  Mg23  1  0.47190675  0.76630334  0.01673793  1
  Mg  Mg24  1  0.78899852  0.27632240  -0.00202363  1
  Mg  Mg25  1  0.55526754  0.03000584  0.53919928  1
  Mg  Mg26  1  0.28806984  0.80519647  0.74708054  1
  Mg  Mg27  1  0.53315188  0.29744898  0.24458345  1
  Mg  Mg28  1  0.28079984  0.30634077  -0.03513437  1
  Mg  Mg29  1  0.02124375  0.72847851  0.22908187  1
  Mg  Mg30  1  0.74149854  0.54072636  0.02245150  1
  Mg  Mg31  1  0.24909817  0.23312090  0.54068077  1
  Ti  Ti32  1  0.11379440  0.87726989  0.12310311  1
  Ti  Ti33  1  0.86940959  0.11061069  0.11332009  1
  Ti  Ti34  1  0.12845615  0.61997291  0.12532216  1
  Ti  Ti35  1  0.35999671  0.13215605  0.39451189  1
  Ti  Ti36  1  0.86226744  0.61619378  0.63844269  1
  Ti  Ti37  1  0.88561920  0.12647508  0.63073294  1
  Ti  Ti38  1  0.11366593  0.14078066  0.10661962  1
  Ti  Ti39  1  0.88000105  0.63948787  0.36821813  1
  Ti  Ti40  1  0.87606587  0.87084452  0.87292248  1
  Ti  Ti41  1  0.37696146  0.36977109  0.13225538  1
  Ti  Ti42  1  0.61716703  0.62670762  0.63008134  1
  Ti  Ti43  1  0.87705711  0.62976272  0.88556571  1
  Ti  Ti44  1  0.37357027  0.36470512  0.36875430  1
  Ti  Ti45  1  0.36409696  0.13909187  0.12518660  1
  Ti  Ti46  1  0.12588598  0.37616762  0.62586761  1
  Ti  Ti47  1  0.35795048  0.62857063  0.37092887  1
  Ti  Ti48  1  0.87649215  0.85983791  0.63560228  1
  Ti  Ti49  1  0.11514523  0.62540881  0.37255178  1
  Ti  Ti50  1  0.38608237  0.87960401  0.88450066  1
  Ti  Ti51  1  0.87989628  0.87626962  0.12597592  1
  Ti  Ti52  1  0.37079745  0.12636923  0.63473869  1
  Ti  Ti53  1  0.39220200  0.36791909  0.61776098  1
  Ti  Ti54  1  0.37369445  0.63123309  0.88181599  1
  Ti  Ti55  1  0.12725251  0.86317090  0.87242799  1
  Ti  Ti56  1  0.12910156  0.12806932  0.63873870  1
  Ti  Ti57  1  0.63302522  0.38414174  0.62470569  1
  Ti  Ti58  1  0.37008360  0.61613429  0.63719505  1
  Ti  Ti59  1  0.37298878  0.87136474  0.13118874  1
  Ti  Ti60  1  0.87452944  0.36755771  0.38079351  1
  Ti  Ti61  1  0.37478361  0.62801445  0.13225457  1
  Ti  Ti62  1  0.63141030  0.37838014  0.11707384  1
  Ti  Ti63  1  0.11842672  0.87225408  0.38424741  1
  Ti  Ti64  1  0.88252490  0.38698585  0.11561230  1
  Ti  Ti65  1  0.62410354  0.61440476  0.87344654  1
  Ti  Ti66  1  0.60949430  0.87958336  0.11287935  1
  Ti  Ti67  1  0.13565951  0.62747506  0.87263414  1
  Ti  Ti68  1  0.86794588  0.37772019  0.64359101  1
  Ti  Ti69  1  0.61387772  0.12981518  0.12982506  1
  Ti  Ti70  1  0.37691145  0.12394866  0.89127809  1
  Ti  Ti71  1  0.61672034  0.63502623  0.10771274  1
  Ti  Ti72  1  0.63904961  0.37284312  0.36897172  1
  Ti  Ti73  1  0.62552138  0.11807343  0.37340378  1
  Bi  Bi74  1  -0.01100000  0.00789352  0.28763468  1
  Bi  Bi75  1  0.23837870  0.48716308  0.00986331  1
  Bi  Bi76  1  0.48903218  0.76437016  0.27523265  1
  Bi  Bi77  1  0.72082499  0.52214449  0.49144179  1
  Bi  Bi78  1  0.23671227  0.00489835  0.02152490  1
  Bi  Bi79  1  0.24128615  0.75761109  0.01358994  1
  Bi  Bi80  1  0.71062953  0.73890975  0.48712113  1
  Bi  Bi81  1  0.25792999  0.74774720  0.54309631  1
  Bi  Bi82  1  0.00561113  0.72268222  0.52799220  1
  Bi  Bi83  1  -0.00651424  0.76054305  0.00931035  1
  Bi  Bi84  1  -0.00383683  0.23454360  0.27321531  1
  Bi  Bi85  1  0.24654306  -0.02449946  0.52715117  1
  Bi  Bi86  1  0.47119419  0.47475630  0.77753826  1
  Bi  Bi87  1  0.48157887  0.03540885  0.26659649  1
  Bi  Bi88  1  0.26159036  0.26247010  0.77472381  1
  Bi  Bi89  1  -0.00711931  -0.00091677  0.76898829  1
  Bi  Bi90  1  0.00764371  0.50605620  0.01328232  1
  Bi  Bi91  1  0.02020354  0.24264994  0.51984992  1
  Bi  Bi92  1  0.22963037  0.47812122  0.26216733  1
  Bi  Bi93  1  0.72094183  0.03416804  0.74598126  1
  Bi  Bi94  1  0.23429586  0.01042793  0.77470914  1
  Bi  Bi95  1  0.22845624  0.76129453  0.26242110  1
  Bi  Bi96  1  -0.00093408  0.49121921  0.76826276  1
  Bi  Bi97  1  0.48771625  0.54322680  0.48800654  1
  Bi  Bi98  1  0.72455156  0.77021283  0.26652352  1
  Bi  Bi99  1  -0.02192556  -0.02114261  0.51920644  1
  Bi  Bi100  1  -0.02406135  0.49347115  0.50534600  1
  Bi  Bi101  1  0.73014652  0.76181980  0.76448291  1
  Bi  Bi102  1  0.48441592  0.78989504  0.50525489  1
  Bi  Bi103  1  0.74647209  0.52306039  0.25923254  1
  Bi  Bi104  1  0.02294998  0.73542874  0.75214578  1
  Bi  Bi105  1  0.50044567  0.03395399  0.75667137  1
  Bi  Bi106  1  0.77435608  0.00848435  0.26673636  1
  Bi  Bi107  1  -0.00978312  0.24834013  0.76629959  1
  Bi  Bi108  1  0.24353663  0.01095162  0.27676560  1
  Bi  Bi109  1  0.76749228  0.25589004  0.22221346  1
  Bi  Bi110  1  0.74786511  0.76093824  0.00731399  1
  Bi  Bi111  1  -0.02000994  0.49079175  0.26085588  1
  Bi  Bi112  1  0.49508649  0.27486066  -0.03366594  1
  Bi  Bi113  1  0.22324687  0.24153104  0.26686232  1
  Bi  Bi114  1  0.75171455  -0.02762196  0.52818802  1
  Bi  Bi115  1  0.75358162  0.25989861  0.79251295  1
  Bi  Bi116  1  0.26997441  0.47058191  0.49844380  1
  Bi  Bi117  1  0.71133880  0.00773969  -0.00892812  1
  Bi  Bi118  1  0.24183009  0.48396278  0.77427425  1
  Bi  Bi119  1  0.72705098  0.22081177  0.54912613  1
  Bi  Bi120  1  0.52600400  0.25465430  0.48396348  1
  Bi  Bi121  1  0.47827599  0.49342602  0.01253544  1
  Bi  Bi122  1  0.52332233  0.53105293  0.26448996  1
  Bi  Bi123  1  0.49186497  0.75925814  0.76913620  1
  Bi  Bi124  1  0.53884884  0.25691405  0.74860330  1
  O  O125  1  0.12212231  0.07663225  0.00238486  1
  O  O126  1  0.11822995  0.14302811  0.22359661  1
  O  O127  1  0.14227440  0.16604913  0.51183465  1
  O  O128  1  0.11966847  0.11946813  0.75620618  1
  O  O129  1  0.11279560  0.41608023  -0.00231252  1
  O  O130  1  0.15187669  0.36836608  0.23776797  1
  O  O131  1  0.08662099  0.36893135  0.50686958  1
  O  O132  1  0.16727619  0.36293385  0.74623080  1
  O  O133  1  0.11761198  0.59953564  -0.00378374  1
  O  O134  1  0.12900712  0.65086187  0.23946604  1
  O  O135  1  0.08897280  0.61687017  0.48606881  1
  O  O136  1  0.13322874  0.64938549  0.75558343  1
  O  O137  1  0.15964159  0.87806554  -0.00262984  1
  O  O138  1  0.09854351  0.83622032  0.23414843  1
  O  O139  1  0.13880721  0.88279788  0.49611156  1
  O  O140  1  0.13486799  0.83698595  0.75647591  1
  O  O141  1  0.39498479  0.12067984  0.00634822  1
  O  O142  1  0.36407467  0.10901459  0.23913825  1
  O  O143  1  0.34375743  0.14996968  0.50728133  1
  O  O144  1  0.36918932  0.10706593  0.75629726  1
  O  O145  1  0.40442044  0.36700396  0.00656541  1
  O  O146  1  0.34296316  0.38725166  0.24522800  1
  O  O147  1  0.37624518  0.36421034  0.49351799  1
  O  O148  1  0.35954421  0.39790917  0.73225932  1
  O  O149  1  0.39982407  0.65381454  -0.00777055  1
  O  O150  1  0.36585107  0.60457015  0.24461182  1
  O  O151  1  0.38876318  0.64451908  0.48955783  1
  O  O152  1  0.37335654  0.58754549  0.74732670  1
  O  O153  1  0.36383184  0.84161142  -0.00409012  1
  O  O154  1  0.40421558  0.87890403  0.24273162  1
  O  O155  1  0.36010979  0.85494543  0.49980973  1
  O  O156  1  0.40457944  0.87758399  0.75511506  1
  O  O157  1  0.62403375  0.11960806  0.01174023  1
  O  O158  1  0.60660104  0.10071061  0.25606835  1
  O  O159  1  0.61194159  0.14412064  0.49479862  1
  O  O160  1  0.61123383  0.11468385  0.74962001  1
  O  O161  1  0.59064936  0.37078938  0.00346353  1
  O  O162  1  0.63849690  0.37197134  0.24495256  1
  O  O163  1  0.61136863  0.36599195  0.48824084  1
  O  O164  1  0.63629498  0.36201238  0.73814406  1
  O  O165  1  0.61804113  0.59571488  -0.00805243  1
  O  O166  1  0.63258206  0.61632617  0.23041823  1
  O  O167  1  0.62384749  0.61807870  0.49684910  1
  O  O168  1  0.64452214  0.64459484  0.74221409  1
  O  O169  1  0.65999438  0.87456976  -0.00037026  1
  O  O170  1  0.60868745  0.84991057  0.22822318  1
  O  O171  1  0.66391364  0.87110057  0.49826164  1
  O  O172  1  0.61463475  0.84564324  0.75344073  1
  O  O173  1  0.85143294  0.16515103  0.00805949  1
  O  O174  1  0.88790799  0.10154754  0.23536461  1
  O  O175  1  0.86328787  0.14490433  0.51558042  1
  O  O176  1  0.91119228  0.11023626  0.75318852  1
  O  O177  1  0.90238024  0.33657214  0.00775116  1
  O  O178  1  0.85557592  0.40914901  0.23714532  1
  O  O179  1  0.90029862  0.36501842  0.49279864  1
  O  O180  1  0.83240120  0.40334007  0.74746737  1
  O  O181  1  0.89692001  0.65125199  -0.00236353  1
  O  O182  1  0.86077617  0.60066372  0.24585514  1
  O  O183  1  0.90564468  0.62749133  0.48681681  1
  O  O184  1  0.84083304  0.59998427  0.74716194  1
  O  O185  1  0.87310841  0.84374597  -0.00743091  1
  O  O186  1  0.88848688  0.90711346  0.23651927  1
  O  O187  1  0.87227163  0.87970342  0.50780807  1
  O  O188  1  0.90456993  0.88470155  0.75125217  1
  O  O189  1  -0.00979531  0.11204396  0.09167226  1
  O  O190  1  -0.00353362  0.12773887  0.37361321  1
  O  O191  1  0.00727787  0.11215489  0.60576276  1
  O  O192  1  0.00290994  0.14913523  0.91182644  1
  O  O193  1  -0.00375348  0.41377988  0.13019493  1
  O  O194  1  -0.00806834  0.36580453  0.33517079  1
  O  O195  1  -0.01052699  0.38644827  0.66232579  1
  O  O196  1  0.00596616  0.37155347  0.84002896  1
  O  O197  1  0.00986019  0.60150645  0.12851271  1
  O  O198  1  -0.00278755  0.65238676  0.33375130  1
  O  O199  1  -0.00617492  0.63170578  0.63737052  1
  O  O200  1  0.00511320  0.64127649  0.85842555  1
  O  O201  1  0.00720244  0.90023115  0.08135740  1
  O  O202  1  0.00177430  0.88873797  0.38292817  1
  O  O203  1  0.00226622  0.88377720  0.61484293  1
  O  O204  1  0.01279401  0.84112442  0.87842516  1
  O  O205  1  0.24748441  0.13258557  0.10330304  1
  O  O206  1  0.24108385  0.12815490  0.35508779  1
  O  O207  1  0.24384211  0.16321011  0.64714390  1
  O  O208  1  0.25946134  0.08590757  0.88579965  1
  O  O209  1  0.25755436  0.36202505  0.07787696  1
  O  O210  1  0.24284835  0.39446837  0.38396295  1
  O  O211  1  0.23848546  0.35279788  0.58696232  1
  O  O212  1  0.25370421  0.40418689  0.88816891  1
  O  O213  1  0.25926090  0.64521906  0.11165266  1
  O  O214  1  0.23974608  0.61665978  0.37785493  1
  O  O215  1  0.25582010  0.61560353  0.60621967  1
  O  O216  1  0.25627172  0.60307963  0.88288565  1
  O  O217  1  0.25840223  0.84115308  0.13653703  1
  O  O218  1  0.23948059  0.87938704  0.33882392  1
  O  O219  1  0.25417765  0.86644207  0.62905541  1
  O  O220  1  0.26678611  0.88896458  0.84898773  1
  O  O221  1  0.49529520  0.08882309  0.13281504  1
  O  O222  1  0.47550579  0.13381249  0.37251266  1
  O  O223  1  0.48313590  0.09566740  0.62585484  1
  O  O224  1  0.49245639  0.13393492  0.85932308  1
  O  O225  1  0.49504637  0.38567633  0.15264143  1
  O  O226  1  0.48644827  0.36079925  0.34613984  1
  O  O227  1  0.50314138  0.38291584  0.63482939  1
  O  O228  1  0.50273842  0.35715429  0.85056104  1
  O  O229  1  0.50289040  0.59779640  0.13008317  1
  O  O230  1  0.48821758  0.62334190  0.35825003  1
  O  O231  1  0.50025747  0.61841721  0.62296257  1
  O  O232  1  0.51086337  0.63644017  0.85463948  1
  O  O233  1  0.49890823  0.89240932  0.08093806  1
  O  O234  1  0.49454734  0.85574549  0.38450217  1
  O  O235  1  0.50578976  0.90127818  0.58357867  1
  O  O236  1  0.49797778  0.82348770  0.89459668  1
  O  O237  1  0.74406366  0.13743729  0.14889140  1
  O  O238  1  0.74065220  0.11197899  0.36551823  1
  O  O239  1  0.76399318  0.13847071  0.65617964  1
  O  O240  1  0.75311217  0.12481785  0.85422889  1
  O  O241  1  0.74162801  0.33278962  0.10163916  1
  O  O242  1  0.75364009  0.38040049  0.38148242  1
  O  O243  1  0.75051995  0.35728641  0.60088970  1
  O  O244  1  0.75668198  0.35344883  0.89965227  1
  O  O245  1  0.74295724  0.64380648  0.10034551  1
  O  O246  1  0.76265204  0.59854165  0.37924516  1
  O  O247  1  0.75391343  0.62190544  0.59386359  1
  O  O248  1  0.76549114  0.59454310  0.90603602  1
  O  O249  1  0.76674161  0.84161599  0.12896065  1
  O  O250  1  0.74511488  0.88876363  0.33744838  1
  O  O251  1  0.76181086  0.87955893  0.63993233  1
  O  O252  1  0.76519013  0.88379053  0.85403978  1
  O  O253  1  0.15489589  -0.01711301  0.13988411  1
  O  O254  1  0.12819549  -0.00094884  0.36033470  1
  O  O255  1  0.14854125  0.00952917  0.62024060  1
  O  O256  1  0.11836451  -0.01821517  0.85471475  1
  O  O257  1  0.08853028  0.24650826  0.07830707  1
  O  O258  1  0.12020029  0.25052128  0.35674485  1
  O  O259  1  0.09198142  0.25423917  0.63805983  1
  O  O260  1  0.18040980  0.25333400  0.88757044  1
  O  O261  1  0.15985621  0.50738281  0.13623178  1
  O  O262  1  0.10569126  0.50783291  0.34856640  1
  O  O263  1  0.12760865  0.48996830  0.64009159  1
  O  O264  1  0.11747701  0.50531131  0.84516886  1
  O  O265  1  0.11798901  0.74557128  0.09516904  1
  O  O266  1  0.13591327  0.75269459  0.37876364  1
  O  O267  1  0.12482216  0.74134415  0.60459935  1
  O  O268  1  0.14986356  0.74254823  0.90055324  1
  O  O269  1  0.35967845  -0.01499778  0.10983736  1
  O  O270  1  0.35040373  0.00877717  0.37912665  1
  O  O271  1  0.33851311  0.01207171  0.62148888  1
  O  O272  1  0.41554211  -0.01353960  0.91008149  1
  O  O273  1  0.38428685  0.25016064  0.13790194  1
  O  O274  1  0.34593496  0.25246897  0.36162496  1
  O  O275  1  0.38790822  0.25239327  0.63868119  1
  O  O276  1  0.35747910  0.23816084  0.89095112  1
  O  O277  1  0.36700650  0.50223466  0.09864301  1
  O  O278  1  0.37490357  0.50108142  0.39725174  1
  O  O279  1  0.38110777  0.49873017  0.58932792  1
  O  O280  1  0.40590838  0.51002216  0.89226046  1
  O  O281  1  0.41040881  0.74546942  0.13474484  1
  O  O282  1  0.36145313  0.74511412  0.34624757  1
  O  O283  1  0.35960689  0.73828900  0.64588911  1
  O  O284  1  0.35923113  0.73890414  0.83558830  1
  O  O285  1  0.64493955  -0.01083618  0.11807244  1
  O  O286  1  0.59506993  0.00983409  0.40784924  1
  O  O287  1  0.64866864  -0.00103674  0.61740656  1
  O  O288  1  0.62547170  -0.00188053  0.87998143  1
  O  O289  1  0.59394709  0.24019142  0.14639411  1
  O  O290  1  0.60855570  0.24888149  0.36237389  1
  O  O291  1  0.60787719  0.25845455  0.61165025  1
  O  O292  1  0.62420220  0.25017279  0.86126289  1
  O  O293  1  0.65814640  0.48768004  0.11190770  1
  O  O294  1  0.61745930  0.48873206  0.36899468  1
  O  O295  1  0.63377794  0.50080989  0.61531832  1
  O  O296  1  0.64396920  0.50258376  0.84302549  1
  O  O297  1  0.59535508  0.74486873  0.08143578  1
  O  O298  1  0.63593476  0.75757205  0.37155333  1
  O  O299  1  0.62352933  0.74426521  0.60017021  1
  O  O300  1  0.66370397  0.73508347  0.88150683  1
  O  O301  1  0.85755070  -0.00187075  0.09144656  1
  O  O302  1  0.87355300  0.00369696  0.37175045  1
  O  O303  1  0.87679240  0.00469108  0.61678511  1
  O  O304  1  0.92187447  -0.01051460  0.89116675  1
  O  O305  1  0.88631801  0.25760295  0.15677693  1
  O  O306  1  0.87021708  0.25297807  0.34689830  1
  O  O307  1  0.89274786  0.25450668  0.65275370  1
  O  O308  1  0.87986155  0.25382518  0.84850512  1
  O  O309  1  0.84632768  0.49244077  0.07914787  1
  O  O310  1  0.90352072  0.49490887  0.38359707  1
  O  O311  1  0.87318075  0.49827977  0.60284113  1
  O  O312  1  0.89803260  0.50424007  0.87444240  1
  O  O313  1  0.92778783  0.75996452  0.14078286  1
  O  O314  1  0.84731122  0.74858195  0.36091900  1
  O  O315  1  0.87768942  0.74469116  0.63493980  1
  O  O316  1  0.86284958  0.74427447  0.85150471  1
