# generated using pymatgen
data_Mg32Ti42(Bi17O64)3
_symmetry_space_group_name_H-M   'P 1'
_cell_length_a   15.93983397
_cell_length_b   15.94974749
_cell_length_c   15.96548997
_cell_angle_alpha   89.87194181
_cell_angle_beta   90.06955692
_cell_angle_gamma   89.99315431
_symmetry_Int_Tables_number   1
_chemical_formula_structural   Mg32Ti42(Bi17O64)3
_chemical_formula_sum   'Mg32 Ti42 Bi51 O192'
_cell_volume   4058.99436692
_cell_formula_units_Z   1
loop_
 _symmetry_equiv_pos_site_id
 _symmetry_equiv_pos_as_xyz
  1  'x, y, z'
loop_
 _atom_site_type_symbol
 _atom_site_label
 _atom_site_symmetry_multiplicity
 _atom_site_fract_x
 _atom_site_fract_y
 _atom_site_fract_z
 _atom_site_occupancy
  Mg  Mg0  1  0.37261744  0.37697537  0.13259153  1
  Mg  Mg1  1  0.11970755  0.63012259  0.14020589  1
  Mg  Mg2  1  0.62717906  0.88262763  0.11340516  1
  Mg  Mg3  1  0.11797385  0.12143791  0.61985471  1
  Mg  Mg4  1  0.88528518  0.61803286  0.62758404  1
  Mg  Mg5  1  0.62129807  0.62335696  0.63198042  1
  Mg  Mg6  1  0.39707701  0.12651029  0.12033633  1
  Mg  Mg7  1  0.37850776  0.88296716  0.86631840  1
  Mg  Mg8  1  0.87518388  0.12666526  0.12849324  1
  Mg  Mg9  1  0.87902390  0.37755553  0.87621315  1
  Mg  Mg10  1  0.12145970  0.37884166  0.62077369  1
  Mg  Mg11  1  0.36709022  0.61386650  0.62853799  1
  Mg  Mg12  1  0.12192540  0.37261091  0.37219923  1
  Mg  Mg13  1  0.61931410  0.63429858  0.87415814  1
  Mg  Mg14  1  0.62419170  0.62134559  0.12420547  1
  Mg  Mg15  1  0.63311935  0.87249645  0.37419411  1
  Mg  Mg16  1  0.37577612  0.88605364  0.12738031  1
  Mg  Mg17  1  0.11734001  0.12102212  0.14213759  1
  Mg  Mg18  1  0.62385920  0.36009866  0.63234178  1
  Mg  Mg19  1  -0.01623275  0.00019946  0.46704705  1
  Mg  Mg20  1  0.00145516  0.51804512  0.45921799  1
  Mg  Mg21  1  0.45172318  0.72106317  0.20745502  1
  Mg  Mg22  1  0.54095947  -0.03702762  0.70144896  1
  Mg  Mg23  1  0.49478517  0.55312058  0.75925861  1
  Mg  Mg24  1  0.75094094  0.29618557  -0.03995517  1
  Mg  Mg25  1  -0.01435364  -0.00588002  0.25276191  1
  Mg  Mg26  1  0.47647391  0.27233397  0.77481287  1
  Mg  Mg27  1  0.71385674  0.00889153  0.77430193  1
  Mg  Mg28  1  0.30668290  0.56794406  0.21673757  1
  Mg  Mg29  1  0.67994462  0.49722539  -0.01649674  1
  Mg  Mg30  1  0.46037597  0.26409491  0.01952414  1
  Mg  Mg31  1  0.28974567  0.24369796  0.22808432  1
  Ti  Ti32  1  0.60439451  0.35522013  0.87347233  1
  Ti  Ti33  1  0.36286366  0.36529122  0.37022976  1
  Ti  Ti34  1  0.13069414  0.37613783  0.13994532  1
  Ti  Ti35  1  0.87375084  0.12160123  0.37411936  1
  Ti  Ti36  1  0.62173649  0.12817889  0.11721423  1
  Ti  Ti37  1  0.10658204  0.87931537  0.61466198  1
  Ti  Ti38  1  0.88100726  0.87733423  0.88136300  1
  Ti  Ti39  1  0.37313053  0.12890795  0.37219708  1
  Ti  Ti40  1  0.38232452  0.61882847  0.38654317  1
  Ti  Ti41  1  0.61283846  0.37277581  0.11117449  1
  Ti  Ti42  1  0.61951626  0.87921876  0.87575508  1
  Ti  Ti43  1  0.36937347  0.13330298  0.87090781  1
  Ti  Ti44  1  0.37247125  0.87374572  0.38626022  1
  Ti  Ti45  1  0.63320194  0.11865409  0.38247952  1
  Ti  Ti46  1  0.12103185  0.36384929  0.88419265  1
  Ti  Ti47  1  0.61199317  0.62907973  0.38258327  1
  Ti  Ti48  1  0.13349359  0.62038013  0.36398549  1
  Ti  Ti49  1  0.63675702  0.37484396  0.38530169  1
  Ti  Ti50  1  0.37058271  0.38107455  0.88157423  1
  Ti  Ti51  1  0.87747461  0.87683096  0.13017033  1
  Ti  Ti52  1  0.12739508  0.61228862  0.61640791  1
  Ti  Ti53  1  0.87333063  0.37676302  0.10900998  1
  Ti  Ti54  1  0.87094895  0.87867792  0.37546583  1
  Ti  Ti55  1  0.12398619  0.87707896  0.87954344  1
  Ti  Ti56  1  0.63124723  0.12626984  0.63706971  1
  Ti  Ti57  1  0.87654216  0.12856301  0.87775417  1
  Ti  Ti58  1  0.38434416  0.37986948  0.64421975  1
  Ti  Ti59  1  0.11586924  0.87683737  0.38276530  1
  Ti  Ti60  1  0.11200396  0.12883135  0.36864606  1
  Ti  Ti61  1  0.12527212  0.12360587  0.88331844  1
  Ti  Ti62  1  0.87068258  0.63228913  0.37152937  1
  Ti  Ti63  1  0.86528407  0.62020752  0.88075350  1
  Ti  Ti64  1  0.37544010  0.88279778  0.63000345  1
  Ti  Ti65  1  0.87406952  0.38188219  0.62380690  1
  Ti  Ti66  1  0.38165148  0.11855943  0.65103761  1
  Ti  Ti67  1  0.61252071  0.13261909  0.86914715  1
  Ti  Ti68  1  0.87609097  0.10821917  0.60625262  1
  Ti  Ti69  1  0.86841402  0.62209339  0.12163285  1
  Ti  Ti70  1  0.87704580  0.38840211  0.38394415  1
  Ti  Ti71  1  0.88701141  0.87379291  0.63383359  1
  Ti  Ti72  1  0.11908629  0.88346090  0.14343400  1
  Ti  Ti73  1  0.37530250  0.63572708  0.86546563  1
  Bi  Bi74  1  0.76012214  0.26143637  0.76509178  1
  Bi  Bi75  1  -0.01493554  0.74613959  0.25120872  1
  Bi  Bi76  1  0.22234380  0.51664839  0.78286677  1
  Bi  Bi77  1  0.23734289  0.47635656  0.48511528  1
  Bi  Bi78  1  0.49477807  0.75657156  0.02377177  1
  Bi  Bi79  1  -0.01397414  0.49680398  0.23102212  1
  Bi  Bi80  1  0.03250122  0.52247443  0.00570576  1
  Bi  Bi81  1  0.50230104  0.76479672  0.73785586  1
  Bi  Bi82  1  0.71145348  0.50052796  0.76831896  1
  Bi  Bi83  1  -0.00462110  0.25504095  0.49191225  1
  Bi  Bi84  1  0.01120473  0.73294321  0.77567572  1
  Bi  Bi85  1  0.72168723  -0.01555691  0.24261095  1
  Bi  Bi86  1  0.01913837  0.75679367  0.01805262  1
  Bi  Bi87  1  0.53395242  0.79090108  0.52151205  1
  Bi  Bi88  1  -0.00383179  0.52153173  0.78312255  1
  Bi  Bi89  1  0.25913646  0.73832063  0.51838456  1
  Bi  Bi90  1  0.45781495  0.53737592  0.03366360  1
  Bi  Bi91  1  0.75854292  0.25553198  0.52312258  1
  Bi  Bi92  1  0.21822641  -0.00491564  0.73921570  1
  Bi  Bi93  1  0.26913392  0.03280302  0.23718871  1
  Bi  Bi94  1  0.23698238  0.24610382  0.53081258  1
  Bi  Bi95  1  0.52095062  0.24212423  0.27111574  1
  Bi  Bi96  1  0.50111143  0.47693850  0.28419377  1
  Bi  Bi97  1  0.75189091  0.02158626  -0.01043314  1
  Bi  Bi98  1  0.51354282  -0.01084527  -0.01254852  1
  Bi  Bi99  1  0.74083290  0.24009603  0.23335423  1
  Bi  Bi100  1  0.50071186  -0.03822200  0.27109105  1
  Bi  Bi101  1  0.27221457  -0.00515744  -0.00661375  1
  Bi  Bi102  1  0.24461399  0.54852860  0.01928283  1
  Bi  Bi103  1  -0.01069484  0.25546533  0.24653599  1
  Bi  Bi104  1  -0.01258631  0.02908248  0.74517038  1
  Bi  Bi105  1  0.24726324  0.76200563  0.75958664  1
  Bi  Bi106  1  0.00863240  0.72545239  0.50635529  1
  Bi  Bi107  1  0.25801526  0.76389722  0.27482631  1
  Bi  Bi108  1  0.00789228  0.27869846  0.74108405  1
  Bi  Bi109  1  0.26352201  0.24682447  0.03480712  1
  Bi  Bi110  1  0.73088133  -0.03532468  0.54889682  1
  Bi  Bi111  1  0.71747360  0.72953341  0.26037256  1
  Bi  Bi112  1  0.76878572  0.74132363  0.53015956  1
  Bi  Bi113  1  -0.00363732  0.00918700  0.02328654  1
  Bi  Bi114  1  0.26369533  0.75871498  0.03797836  1
  Bi  Bi115  1  0.74485419  0.52362524  0.52707130  1
  Bi  Bi116  1  0.74763860  0.77741544  0.76563014  1
  Bi  Bi117  1  0.47903805  0.01939002  0.50830568  1
  Bi  Bi118  1  0.73105803  0.48052134  0.23187449  1
  Bi  Bi119  1  0.73181998  0.72985523  0.00853229  1
  Bi  Bi120  1  0.23671932  0.25850674  0.75179605  1
  Bi  Bi121  1  0.01740291  0.23552930  0.01760065  1
  Bi  Bi122  1  0.48502154  0.25590238  0.52217736  1
  Bi  Bi123  1  0.22912625  0.00939219  0.48813212  1
  Bi  Bi124  1  0.50464917  0.50051903  0.53434946  1
  O  O125  1  0.13338512  0.14666333  -0.00096711  1
  O  O126  1  0.07702137  0.09328203  0.26237735  1
  O  O127  1  0.15771579  0.13081363  0.49487110  1
  O  O128  1  0.11311727  0.10231081  0.75204251  1
  O  O129  1  0.13203495  0.35165848  -0.00104824  1
  O  O130  1  0.09282573  0.39264945  0.24883548  1
  O  O131  1  0.15867262  0.36433055  0.49997222  1
  O  O132  1  0.11491045  0.36878639  0.74737477  1
  O  O133  1  0.12596007  0.62796921  0.00995136  1
  O  O134  1  0.09557927  0.60311187  0.25851185  1
  O  O135  1  0.14611035  0.65793074  0.49467127  1
  O  O136  1  0.10049533  0.61347306  0.73185918  1
  O  O137  1  0.13835824  0.84430988  -0.01072493  1
  O  O138  1  0.09088013  0.90401416  0.25220667  1
  O  O139  1  0.15391964  0.86265094  0.49807552  1
  O  O140  1  0.10718637  0.90783897  0.73424475  1
  O  O141  1  0.37222404  0.16644341  -0.01283593  1
  O  O142  1  0.38646438  0.10570575  0.24734564  1
  O  O143  1  0.38157669  0.14119890  0.49135089  1
  O  O144  1  0.37968048  0.08773657  0.75700586  1
  O  O145  1  0.35297943  0.34623312  -0.00566890  1
  O  O146  1  0.39918297  0.38678180  0.25526761  1
  O  O147  1  0.37422261  0.34103836  0.48835536  1
  O  O148  1  0.41252768  0.39178241  0.75417333  1
  O  O149  1  0.36934051  0.63428143  -0.00907027  1
  O  O150  1  0.39877058  0.63089469  0.26756500  1
  O  O151  1  0.34341233  0.62826297  0.49946697  1
  O  O152  1  0.37105380  0.59242145  0.75481796  1
  O  O153  1  0.33381098  0.87281365  -0.00671885  1
  O  O154  1  0.40846357  0.85493695  0.25082703  1
  O  O155  1  0.35737691  0.87515986  0.49958726  1
  O  O156  1  0.42324235  0.89488609  0.73924645  1
  O  O157  1  0.64457900  0.10850710  -0.00871266  1
  O  O158  1  0.61049452  0.13552797  0.24300567  1
  O  O159  1  0.62501714  0.10444344  0.49509060  1
  O  O160  1  0.64318721  0.13965790  0.75217068  1
  O  O161  1  0.65661762  0.37112551  -0.00113688  1
  O  O162  1  0.61106034  0.39472149  0.23953003  1
  O  O163  1  0.64965487  0.36070665  0.49426512  1
  O  O164  1  0.59339103  0.33457269  0.76022179  1
  O  O165  1  0.64912824  0.61947985  -0.00498919  1
  O  O166  1  0.61824722  0.63182209  0.25373676  1
  O  O167  1  0.64869630  0.62577996  0.49558482  1
  O  O168  1  0.61571538  0.60038286  0.75450022  1
  O  O169  1  0.64569704  0.90846838  -0.01259286  1
  O  O170  1  0.61592740  0.88501402  0.24317689  1
  O  O171  1  0.64678688  0.86716475  0.49788575  1
  O  O172  1  0.59901087  0.86312604  0.75683707  1
  O  O173  1  0.86672888  0.10459936  -0.00232627  1
  O  O174  1  0.89207665  0.14195507  0.26048621  1
  O  O175  1  0.86933091  0.07574845  0.49754216  1
  O  O176  1  0.89529235  0.13376876  0.75545476  1
  O  O177  1  0.84547478  0.36964584  0.00152167  1
  O  O178  1  0.90611053  0.36963319  0.26796335  1
  O  O179  1  0.84203503  0.37617214  0.50375329  1
  O  O180  1  0.88328127  0.34671663  0.74430693  1
  O  O181  1  0.85705241  0.62925441  0.00217044  1
  O  O182  1  0.89748761  0.63114554  0.24849393  1
  O  O183  1  0.85420501  0.62875267  0.49082783  1
  O  O184  1  0.89988904  0.62145716  0.75267191  1
  O  O185  1  0.85894623  0.87499133  -0.00532109  1
  O  O186  1  0.91296895  0.86965495  0.24403890  1
  O  O187  1  0.85392574  0.88536796  0.48838263  1
  O  O188  1  0.89639509  0.85042786  0.74423917  1
  O  O189  1  -0.00044845  0.12526671  0.09864958  1
  O  O190  1  0.00122065  0.12385781  0.41700697  1
  O  O191  1  -0.00567582  0.09542224  0.61676589  1
  O  O192  1  0.00238579  0.13244620  0.89076038  1
  O  O193  1  -0.00990059  0.41361859  0.11082200  1
  O  O194  1  -0.00548568  0.38293826  0.42016209  1
  O  O195  1  -0.00846003  0.36779958  0.61855930  1
  O  O196  1  0.00401559  0.34707734  0.87282251  1
  O  O197  1  -0.00743983  0.59877173  0.11436964  1
  O  O198  1  0.00231953  0.63151027  0.39597333  1
  O  O199  1  0.00884859  0.60077628  0.57370619  1
  O  O200  1  -0.00540119  0.63479450  0.87879392  1
  O  O201  1  0.00357930  0.87820739  0.08607917  1
  O  O202  1  0.00497529  0.86641064  0.40066519  1
  O  O203  1  -0.00083305  0.90845332  0.58468193  1
  O  O204  1  -0.00074164  0.84297462  0.88487959  1
  O  O205  1  0.23662873  0.14573009  0.16720803  1
  O  O206  1  0.24682125  0.10976150  0.35304353  1
  O  O207  1  0.26855601  0.14939732  0.64255061  1
  O  O208  1  0.25118861  0.11264978  0.86920618  1
  O  O209  1  0.24018918  0.34456572  0.15557432  1
  O  O210  1  0.25374066  0.39312072  0.36615970  1
  O  O211  1  0.27158975  0.34500538  0.64205125  1
  O  O212  1  0.25278589  0.38407474  0.84773615  1
  O  O213  1  0.24487264  0.63547160  0.13327184  1
  O  O214  1  0.24970930  0.61232379  0.33692091  1
  O  O215  1  0.24112812  0.65593291  0.63500507  1
  O  O216  1  0.25283359  0.60757055  0.87476409  1
  O  O217  1  0.23666523  0.85645844  0.14248908  1
  O  O218  1  0.25385303  0.88583814  0.34459676  1
  O  O219  1  0.25998553  0.86862091  0.65654713  1
  O  O220  1  0.24449682  0.88551290  0.83849171  1
  O  O221  1  0.51320924  0.15182186  0.08642348  1
  O  O222  1  0.50029249  0.14789443  0.37324224  1
  O  O223  1  0.51162917  0.08146842  0.63296899  1
  O  O224  1  0.50301141  0.15467493  0.86131678  1
  O  O225  1  0.50186253  0.36694124  0.09167667  1
  O  O226  1  0.51138332  0.36540282  0.37271293  1
  O  O227  1  0.50123242  0.37684686  0.59787446  1
  O  O228  1  0.49334466  0.33130848  0.90156118  1
  O  O229  1  0.50098572  0.64173097  0.11426122  1
  O  O230  1  0.49864056  0.63661105  0.40805872  1
  O  O231  1  0.49456315  0.59103149  0.63383787  1
  O  O232  1  0.49337871  0.63024543  0.86591690  1
  O  O233  1  0.49765707  0.88768268  0.08426541  1
  O  O234  1  0.49741040  0.88543676  0.38917006  1
  O  O235  1  0.49969337  0.90492576  0.59258291  1
  O  O236  1  0.50330514  0.87346115  0.90513097  1
  O  O237  1  0.75015875  0.13743012  0.13891925  1
  O  O238  1  0.75393105  0.12125681  0.36729728  1
  O  O239  1  0.75273958  0.13821066  0.61728046  1
  O  O240  1  0.76134423  0.08395792  0.86473110  1
  O  O241  1  0.76188115  0.36506197  0.16081992  1
  O  O242  1  0.75374499  0.38598261  0.34994412  1
  O  O243  1  0.75246958  0.33722500  0.63946198  1
  O  O244  1  0.74772370  0.37410348  0.84751950  1
  O  O245  1  0.75374512  0.65261508  0.13707690  1
  O  O246  1  0.75597432  0.62411042  0.34589490  1
  O  O247  1  0.75295292  0.63512978  0.62356288  1
  O  O248  1  0.75147971  0.58815398  0.86432604  1
  O  O249  1  0.76228071  0.88268552  0.14459208  1
  O  O250  1  0.75986278  0.88732334  0.34073053  1
  O  O251  1  0.76600283  0.85229010  0.62817796  1
  O  O252  1  0.75142008  0.89699621  0.83378161  1
  O  O253  1  0.12284617  -0.00538880  0.10259410  1
  O  O254  1  0.11304800  -0.00462478  0.40822092  1
  O  O255  1  0.15707358  -0.00166692  0.60612802  1
  O  O256  1  0.11954608  -0.00372069  0.88935897  1
  O  O257  1  0.08892807  0.25913106  0.13659613  1
  O  O258  1  0.10943207  0.24354840  0.35973467  1
  O  O259  1  0.12807563  0.24681435  0.62167535  1
  O  O260  1  0.13681612  0.24277342  0.85806923  1
  O  O261  1  0.13754363  0.49160564  0.10420679  1
  O  O262  1  0.12114463  0.50883773  0.41077590  1
  O  O263  1  0.15631612  0.50241785  0.60755086  1
  O  O264  1  0.11675825  0.48628277  0.87372663  1
  O  O265  1  0.09342423  0.75617866  0.14031034  1
  O  O266  1  0.13938175  0.75395284  0.34977257  1
  O  O267  1  0.09267862  0.76289909  0.62944825  1
  O  O268  1  0.13321145  0.76255969  0.83599382  1
  O  O269  1  0.34962293  0.00977226  0.10712356  1
  O  O270  1  0.38062101  0.00376429  0.37892856  1
  O  O271  1  0.36502358  0.00741118  0.59890711  1
  O  O272  1  0.38566795  0.00951029  0.91304203  1
  O  O273  1  0.37103627  0.24929237  0.13083877  1
  O  O274  1  0.35463699  0.24751957  0.33774778  1
  O  O275  1  0.42427837  0.23827210  0.65001972  1
  O  O276  1  0.36135200  0.24682965  0.82923514  1
  O  O277  1  0.35796980  0.50113038  0.11959065  1
  O  O278  1  0.39269866  0.50034127  0.38784394  1
  O  O279  1  0.37054965  0.48441199  0.59978235  1
  O  O280  1  0.38708887  0.48982235  0.90219548  1
  O  O281  1  0.38283651  0.76164167  0.11201545  1
  O  O282  1  0.35014072  0.75258095  0.38288649  1
  O  O283  1  0.40137071  0.76356058  0.62935810  1
  O  O284  1  0.36203984  0.75132716  0.84683961  1
  O  O285  1  0.62817974  0.01133575  0.13004381  1
  O  O286  1  0.62210618  0.00584819  0.35482915  1
  O  O287  1  0.65691676  0.00107812  0.66133246  1
  O  O288  1  0.60596538  0.00514425  0.84981235  1
  O  O289  1  0.63419745  0.25880876  0.14236245  1
  O  O290  1  0.63650789  0.25200487  0.35426744  1
  O  O291  1  0.60945160  0.23522692  0.60526239  1
  O  O292  1  0.65887442  0.24240619  0.88959847  1
  O  O293  1  0.64691914  0.49361689  0.11037040  1
  O  O294  1  0.61546389  0.49964178  0.38060902  1
  O  O295  1  0.63555540  0.49025039  0.60978672  1
  O  O296  1  0.61560374  0.47650967  0.87136235  1
  O  O297  1  0.62158082  0.75870244  0.09246515  1
  O  O298  1  0.63388357  0.74563718  0.37295721  1
  O  O299  1  0.59262205  0.74542963  0.63408245  1
  O  O300  1  0.65188429  0.75999376  0.88026242  1
  O  O301  1  0.90568931  -0.00423522  0.13878479  1
  O  O302  1  0.90898891  -0.00249141  0.35621502  1
  O  O303  1  0.85776191  -0.00799052  0.64895658  1
  O  O304  1  0.90254556  -0.01152367  0.86876412  1
  O  O305  1  0.90460981  0.26234566  0.12740248  1
  O  O306  1  0.88310786  0.24274719  0.40419594  1
  O  O307  1  0.88690652  0.23141956  0.58789697  1
  O  O308  1  0.84473542  0.23968328  0.88765088  1
  O  O309  1  0.85269062  0.50367966  0.14460504  1
  O  O310  1  0.89188287  0.50440774  0.38137912  1
  O  O311  1  0.85302887  0.49256290  0.62991470  1
  O  O312  1  0.89866557  0.50194870  0.88004434  1
  O  O313  1  0.90541970  0.74971888  0.12613131  1
  O  O314  1  0.87603877  0.75335287  0.36678406  1
  O  O315  1  0.89478645  0.75091793  0.60090743  1
  O  O316  1  0.84026034  0.74411050  0.86778112  1
