# generated using pymatgen
data_Mg32Ti42(Bi17O64)3
_symmetry_space_group_name_H-M   'P 1'
_cell_length_a   15.93999314
_cell_length_b   15.95468360
_cell_length_c   15.95260661
_cell_angle_alpha   89.95210935
_cell_angle_beta   89.97941110
_cell_angle_gamma   90.13273835
_symmetry_Int_Tables_number   1
_chemical_formula_structural   Mg32Ti42(Bi17O64)3
_chemical_formula_sum   'Mg32 Ti42 Bi51 O192'
_cell_volume   4057.01521215
_cell_formula_units_Z   1
loop_
 _symmetry_equiv_pos_site_id
 _symmetry_equiv_pos_as_xyz
  1  'x, y, z'
loop_
 _atom_site_type_symbol
 _atom_site_label
 _atom_site_symmetry_multiplicity
 _atom_site_fract_x
 _atom_site_fract_y
 _atom_site_fract_z
 _atom_site_occupancy
  Mg  Mg0  1  0.87416983  0.12556014  0.13241692  1
  Mg  Mg1  1  0.87216528  0.12955557  0.87849309  1
  Mg  Mg2  1  0.12797557  0.38079245  0.35971763  1
  Mg  Mg3  1  0.37209569  0.88440518  0.12667621  1
  Mg  Mg4  1  0.87095718  0.61635014  0.62227769  1
  Mg  Mg5  1  0.12754969  0.12925374  0.12137239  1
  Mg  Mg6  1  0.12423432  0.87753810  0.87367051  1
  Mg  Mg7  1  0.63909145  0.39745231  0.88627875  1
  Mg  Mg8  1  0.87098805  0.36602526  0.12891406  1
  Mg  Mg9  1  0.87274577  0.63470032  0.13631818  1
  Mg  Mg10  1  0.62464184  0.88119470  0.37554655  1
  Mg  Mg11  1  0.87271285  0.13542371  0.61777123  1
  Mg  Mg12  1  0.37666011  0.87571624  0.63410173  1
  Mg  Mg13  1  0.37853685  0.12393393  0.37883413  1
  Mg  Mg14  1  0.37219993  0.37901252  0.37161021  1
  Mg  Mg15  1  0.62405978  0.38167873  0.12379990  1
  Mg  Mg16  1  0.38966114  0.38347227  0.12862981  1
  Mg  Mg17  1  0.87277174  0.37119713  0.38289905  1
  Mg  Mg18  1  0.13114737  0.62854550  0.12634343  1
  Mg  Mg19  1  0.79989903  0.50240614  0.04881156  1
  Mg  Mg20  1  0.52389736  0.69277368  0.45160796  1
  Mg  Mg21  1  0.49671471  0.27246493  0.55412312  1
  Mg  Mg22  1  0.01716453  0.30537232  0.47857490  1
  Mg  Mg23  1  0.21765087  0.05154737  0.74027693  1
  Mg  Mg24  1  0.47878419  0.46945314  -0.06148248  1
  Mg  Mg25  1  0.72270014  0.47677534  0.67625614  1
  Mg  Mg26  1  -0.00579681  0.50229956  0.48044385  1
  Mg  Mg27  1  0.69677571  0.70759426  0.31382535  1
  Mg  Mg28  1  0.74187967  0.26110498  0.27913223  1
  Mg  Mg29  1  0.49854176  0.75799152  0.80893237  1
  Mg  Mg30  1  0.54021307  -0.03005798  0.76232618  1
  Mg  Mg31  1  0.30163570  0.43941553  -0.02371226  1
  Ti  Ti32  1  0.61783751  0.12801904  0.37743374  1
  Ti  Ti33  1  0.37491249  0.62290595  0.14019432  1
  Ti  Ti34  1  0.36699896  0.61817868  0.38127574  1
  Ti  Ti35  1  0.87026512  0.37676899  0.88643858  1
  Ti  Ti36  1  0.61945799  0.87214947  0.62999969  1
  Ti  Ti37  1  0.37483311  0.63056059  0.61679395  1
  Ti  Ti38  1  0.88283058  0.86737754  0.62838356  1
  Ti  Ti39  1  0.12029747  0.13569056  0.38136870  1
  Ti  Ti40  1  0.37386032  0.63517681  0.88690666  1
  Ti  Ti41  1  0.62889580  0.62482145  0.88344770  1
  Ti  Ti42  1  0.87710877  0.87203321  0.13371420  1
  Ti  Ti43  1  0.88035819  0.37740691  0.61224324  1
  Ti  Ti44  1  0.36753354  0.88080515  0.38334836  1
  Ti  Ti45  1  0.36868584  0.11862826  0.11548170  1
  Ti  Ti46  1  0.13187814  0.62019518  0.37299087  1
  Ti  Ti47  1  0.12229918  0.87804225  0.38943093  1
  Ti  Ti48  1  0.37838705  0.13234352  0.63397061  1
  Ti  Ti49  1  0.11828724  0.14861111  0.62066269  1
  Ti  Ti50  1  0.63032833  0.12786170  0.13350528  1
  Ti  Ti51  1  0.63771878  0.87763285  0.13739605  1
  Ti  Ti52  1  0.12764805  0.87937604  0.12327529  1
  Ti  Ti53  1  0.62335062  0.61043302  0.11907537  1
  Ti  Ti54  1  0.88304625  0.87467268  0.88132773  1
  Ti  Ti55  1  0.38393627  0.12093503  0.86767939  1
  Ti  Ti56  1  0.87292559  0.61416029  0.87933772  1
  Ti  Ti57  1  0.62365687  0.11727063  0.87385257  1
  Ti  Ti58  1  0.86660704  0.86105513  0.37388289  1
  Ti  Ti59  1  0.13071064  0.37000705  0.11313760  1
  Ti  Ti60  1  0.63853616  0.86812676  0.87253068  1
  Ti  Ti61  1  0.12616797  0.87996876  0.62985460  1
  Ti  Ti62  1  0.60228942  0.36048390  0.36652139  1
  Ti  Ti63  1  0.37407601  0.88748902  0.87097938  1
  Ti  Ti64  1  0.12807686  0.62059219  0.88560595  1
  Ti  Ti65  1  0.61308174  0.11890974  0.63435564  1
  Ti  Ti66  1  0.12183489  0.37991501  0.63793407  1
  Ti  Ti67  1  0.62843610  0.63418410  0.62848687  1
  Ti  Ti68  1  0.36090495  0.38237418  0.61842759  1
  Ti  Ti69  1  0.12585852  0.61950210  0.63633401  1
  Ti  Ti70  1  0.11608338  0.38268966  0.88065842  1
  Ti  Ti71  1  0.87845633  0.14072546  0.38156328  1
  Ti  Ti72  1  0.11581841  0.13230045  0.87150039  1
  Ti  Ti73  1  0.87636914  0.62556152  0.37692644  1
  Bi  Bi74  1  0.73415834  0.01012189  0.51726044  1
  Bi  Bi75  1  0.26181898  0.75434657  0.02828838  1
  Bi  Bi76  1  0.78106437  0.74149585  0.76107809  1
  Bi  Bi77  1  0.52920505  0.29762132  0.75608966  1
  Bi  Bi78  1  0.49317962  0.76441466  0.27418059  1
  Bi  Bi79  1  0.27094805  0.25769941  0.48130868  1
  Bi  Bi80  1  0.53642971  0.52511956  0.27489981  1
  Bi  Bi81  1  0.24962762  0.75279695  0.26786705  1
  Bi  Bi82  1  0.25150025  0.23837848  -0.02606490  1
  Bi  Bi83  1  0.00323421  0.51563163  0.03629300  1
  Bi  Bi84  1  -0.02103646  0.50858295  0.26025891  1
  Bi  Bi85  1  0.48525983  0.24170316  0.23047652  1
  Bi  Bi86  1  0.00803986  0.71448007  0.51394288  1
  Bi  Bi87  1  -0.01575514  0.02700785  0.74942993  1
  Bi  Bi88  1  0.77032717  0.02111255  0.74716104  1
  Bi  Bi89  1  -0.02528949  0.50319232  0.75168690  1
  Bi  Bi90  1  0.74644571  0.78076594  0.51323543  1
  Bi  Bi91  1  0.74977241  0.00773476  0.01394004  1
  Bi  Bi92  1  0.51118223  -0.02735226  0.00376741  1
  Bi  Bi93  1  0.21710108  0.48096124  0.49208922  1
  Bi  Bi94  1  -0.00597517  0.01873293  0.51098308  1
  Bi  Bi95  1  0.73248903  0.25478945  0.01335349  1
  Bi  Bi96  1  0.47492438  -0.00411497  0.24599540  1
  Bi  Bi97  1  0.49362319  0.27939212  -0.01147677  1
  Bi  Bi98  1  -0.01339741  0.25055647  0.02108714  1
  Bi  Bi99  1  0.26162030  0.77843048  0.76213009  1
  Bi  Bi100  1  0.50528714  0.52974958  0.75376809  1
  Bi  Bi101  1  0.25726312  0.75261412  0.52615749  1
  Bi  Bi102  1  -0.01668925  0.00489028  0.27017435  1
  Bi  Bi103  1  0.22379232  0.02297478  0.25285025  1
  Bi  Bi104  1  0.24721276  0.48472867  0.21309544  1
  Bi  Bi105  1  0.47974583  -0.02589163  0.51148070  1
  Bi  Bi106  1  0.25983335  0.03084494  0.51049490  1
  Bi  Bi107  1  0.27789321  0.27377826  0.76855308  1
  Bi  Bi108  1  0.73716454  0.27957505  0.75515532  1
  Bi  Bi109  1  -0.01574801  0.26904076  0.25834527  1
  Bi  Bi110  1  0.01610888  0.75374235  0.27724098  1
  Bi  Bi111  1  0.26708133  0.50922674  0.77709020  1
  Bi  Bi112  1  0.50648641  0.48038082  0.53166418  1
  Bi  Bi113  1  0.70650448  0.27268452  0.52304972  1
  Bi  Bi114  1  -0.01567553  0.01762093  0.01811746  1
  Bi  Bi115  1  0.70955786  0.53501593  0.48135412  1
  Bi  Bi116  1  0.22491786  0.00114459  -0.02928787  1
  Bi  Bi117  1  -0.03072573  0.26688485  0.74999508  1
  Bi  Bi118  1  0.01956510  0.74592656  0.77883941  1
  Bi  Bi119  1  0.26298340  0.25916968  0.24613360  1
  Bi  Bi120  1  0.00502238  0.74676887  0.02353699  1
  Bi  Bi121  1  0.74407591  0.01633094  0.26746670  1
  Bi  Bi122  1  0.74348476  0.73485331  0.02240833  1
  Bi  Bi123  1  0.75286179  0.46651374  0.25525701  1
  Bi  Bi124  1  0.49170159  0.75400247  0.03880346  1
  O  O125  1  0.13222469  0.10323814  -0.00822921  1
  O  O126  1  0.13101009  0.13349498  0.25963622  1
  O  O127  1  0.11785730  0.09921458  0.50656626  1
  O  O128  1  0.11807619  0.14044083  0.74560686  1
  O  O129  1  0.09206127  0.39001110  -0.00524540  1
  O  O130  1  0.15924642  0.36922808  0.23456168  1
  O  O131  1  0.09196994  0.41251264  0.49568697  1
  O  O132  1  0.14892156  0.35883132  0.74664396  1
  O  O133  1  0.11445189  0.60633283  -0.00431428  1
  O  O134  1  0.14067475  0.65953225  0.25379969  1
  O  O135  1  0.09708536  0.60018849  0.49178289  1
  O  O136  1  0.13682351  0.64255338  0.74750326  1
  O  O137  1  0.11986107  0.91027879  0.00177054  1
  O  O138  1  0.13211723  0.84032302  0.24513355  1
  O  O139  1  0.12193609  0.89716149  0.50121503  1
  O  O140  1  0.12616724  0.83873017  0.74465802  1
  O  O141  1  0.36842814  0.14131642  0.00131887  1
  O  O142  1  0.38408096  0.10273286  0.24946316  1
  O  O143  1  0.35433046  0.14011968  0.51054032  1
  O  O144  1  0.35721493  0.10385818  0.75023347  1
  O  O145  1  0.41096918  0.38806444  0.00551064  1
  O  O146  1  0.33387622  0.37996199  0.24546235  1
  O  O147  1  0.38967179  0.33107522  0.50578820  1
  O  O148  1  0.34313616  0.39312205  0.73894642  1
  O  O149  1  0.39368844  0.64646322  -0.00263727  1
  O  O150  1  0.34951165  0.62647483  0.25403310  1
  O  O151  1  0.40581024  0.64864887  0.49463655  1
  O  O152  1  0.37015854  0.59490089  0.73685405  1
  O  O153  1  0.40225958  0.86280726  -0.00727212  1
  O  O154  1  0.36641054  0.90862301  0.25444342  1
  O  O155  1  0.39130404  0.86399170  0.50029756  1
  O  O156  1  0.34611208  0.88600786  0.75460671  1
  O  O157  1  0.64633961  0.13965975  -0.00925549  1
  O  O158  1  0.62643517  0.09965257  0.24668212  1
  O  O159  1  0.64599487  0.14085913  0.49225724  1
  O  O160  1  0.59934939  0.08529014  0.74208740  1
  O  O161  1  0.61989038  0.34191901  0.00140459  1
  O  O162  1  0.62996033  0.40732549  0.25116887  1
  O  O163  1  0.58904346  0.33388053  0.48662105  1
  O  O164  1  0.64622875  0.38518318  0.75329476  1
  O  O165  1  0.61500463  0.65447805  -0.00221208  1
  O  O166  1  0.64670205  0.60701394  0.24329665  1
  O  O167  1  0.61801523  0.63592612  0.50517594  1
  O  O168  1  0.62985141  0.59383467  0.74376266  1
  O  O169  1  0.60853680  0.86358741  -0.01110446  1
  O  O170  1  0.64267759  0.90480545  0.24654728  1
  O  O171  1  0.63040448  0.86902411  0.50410806  1
  O  O172  1  0.63926796  0.89526478  0.74521104  1
  O  O173  1  0.86700189  0.08927056  -0.00189545  1
  O  O174  1  0.90655445  0.12895020  0.25993550  1
  O  O175  1  0.87120632  0.09488622  0.49475139  1
  O  O176  1  0.88455712  0.12612539  0.74819425  1
  O  O177  1  0.87554799  0.40593624  -0.00245359  1
  O  O178  1  0.85726814  0.32430037  0.25216483  1
  O  O179  1  0.92010500  0.39331454  0.50388435  1
  O  O180  1  0.86216439  0.35075529  0.75530969  1
  O  O181  1  0.87702729  0.59511201  -0.00660868  1
  O  O182  1  0.87746251  0.62604361  0.25891069  1
  O  O183  1  0.91162137  0.60123942  0.49563971  1
  O  O184  1  0.86856246  0.64021803  0.75198232  1
  O  O185  1  0.88651435  0.90178164  -0.00679107  1
  O  O186  1  0.87506432  0.85169090  0.24365824  1
  O  O187  1  0.86064597  0.87521843  0.49253568  1
  O  O188  1  0.86979088  0.84713894  0.74509753  1
  O  O189  1  0.00160025  0.13600927  0.10133275  1
  O  O190  1  0.00166144  0.09257173  0.38906357  1
  O  O191  1  0.00255368  0.10714839  0.62095522  1
  O  O192  1  0.00242800  0.10419747  0.87713852  1
  O  O193  1  0.00347982  0.34389941  0.13723838  1
  O  O194  1  0.00332481  0.38161630  0.33960509  1
  O  O195  1  0.00303704  0.38391688  0.66092696  1
  O  O196  1  -0.00038595  0.38366740  0.84347745  1
  O  O197  1  0.00035242  0.64143068  0.11488141  1
  O  O198  1  0.01224199  0.61169316  0.35269079  1
  O  O199  1  0.00819809  0.62843571  0.63704415  1
  O  O200  1  -0.00230153  0.61667914  0.86209725  1
  O  O201  1  0.00267954  0.84929188  0.12126981  1
  O  O202  1  0.00113955  0.87990838  0.35885732  1
  O  O203  1  -0.00083250  0.86413728  0.61737988  1
  O  O204  1  -0.00243596  0.86626538  0.86011782  1
  O  O205  1  0.25553979  0.10275491  0.12871006  1
  O  O206  1  0.23783625  0.11668810  0.38949681  1
  O  O207  1  0.23842119  0.12292780  0.62897190  1
  O  O208  1  0.24709076  0.13741176  0.87609339  1
  O  O209  1  0.24573316  0.40672948  0.08805365  1
  O  O210  1  0.24604983  0.37459622  0.40763343  1
  O  O211  1  0.24072724  0.36862751  0.59079369  1
  O  O212  1  0.23996206  0.36399105  0.89586505  1
  O  O213  1  0.25848285  0.63737461  0.11030028  1
  O  O214  1  0.24940143  0.65864359  0.38996804  1
  O  O215  1  0.25507506  0.62709339  0.59798616  1
  O  O216  1  0.25145229  0.62886926  0.87517810  1
  O  O217  1  0.24751647  0.87049628  0.11164638  1
  O  O218  1  0.24641773  0.85586784  0.37840902  1
  O  O219  1  0.24530827  0.85669071  0.61984797  1
  O  O220  1  0.25387317  0.85771534  0.88740344  1
  O  O221  1  0.51361302  0.15061062  0.12382072  1
  O  O222  1  0.50783480  0.11110141  0.38089791  1
  O  O223  1  0.49554950  0.15125682  0.60949882  1
  O  O224  1  0.49733949  0.12183988  0.87906833  1
  O  O225  1  0.50650136  0.33486782  0.13547461  1
  O  O226  1  0.49306493  0.36372804  0.33763633  1
  O  O227  1  0.48566250  0.37833081  0.63053479  1
  O  O228  1  0.51129523  0.36769845  0.87031119  1
  O  O229  1  0.50453186  0.64939188  0.14252278  1
  O  O230  1  0.48619560  0.63215907  0.34821633  1
  O  O231  1  0.50145623  0.60041869  0.63015590  1
  O  O232  1  0.49522601  0.63466850  0.84554319  1
  O  O233  1  0.51363263  0.87074149  0.12955149  1
  O  O234  1  0.49398596  0.89429392  0.35687722  1
  O  O235  1  0.50472401  0.89675814  0.64287438  1
  O  O236  1  0.49412308  0.87939304  0.84007620  1
  O  O237  1  0.75195053  0.08889836  0.12730025  1
  O  O238  1  0.76590644  0.14881374  0.34520255  1
  O  O239  1  0.74322848  0.10967924  0.63186942  1
  O  O240  1  0.74318450  0.11596895  0.84976738  1
  O  O241  1  0.75038630  0.41147896  0.12541356  1
  O  O242  1  0.74229259  0.36778638  0.36631519  1
  O  O243  1  0.76056953  0.37139097  0.61081889  1
  O  O244  1  0.75502418  0.35011129  0.88349579  1
  O  O245  1  0.74722859  0.61308020  0.09651301  1
  O  O246  1  0.76147428  0.63936549  0.39476864  1
  O  O247  1  0.74230428  0.60295289  0.61229695  1
  O  O248  1  0.74410533  0.62733141  0.88032245  1
  O  O249  1  0.75760142  0.90116695  0.10954444  1
  O  O250  1  0.75346687  0.82572451  0.36774545  1
  O  O251  1  0.74882505  0.88655234  0.61206943  1
  O  O252  1  0.75120293  0.87000882  0.88132189  1
  O  O253  1  0.12198388  -0.00680660  0.15753724  1
  O  O254  1  0.12976969  -0.01054764  0.35272180  1
  O  O255  1  0.13638172  -0.01160390  0.65595971  1
  O  O256  1  0.15585417  0.00495180  0.84830698  1
  O  O257  1  0.14885123  0.25562409  0.09937725  1
  O  O258  1  0.10472709  0.24811506  0.39807012  1
  O  O259  1  0.10131531  0.25835824  0.59372655  1
  O  O260  1  0.11880203  0.24881236  0.89281089  1
  O  O261  1  0.10373358  0.49777504  0.13636255  1
  O  O262  1  0.15809409  0.50911073  0.35432816  1
  O  O263  1  0.13983987  0.49918393  0.64178463  1
  O  O264  1  0.13248205  0.49745722  0.85830076  1
  O  O265  1  0.13209811  0.75452458  0.08518840  1
  O  O266  1  0.09940280  0.75029261  0.39438059  1
  O  O267  1  0.13125327  0.73820450  0.59051278  1
  O  O268  1  0.10890369  0.74055574  0.88601734  1
  O  O269  1  0.41014328  0.00612565  0.11105826  1
  O  O270  1  0.36553747  -0.00078657  0.41126381  1
  O  O271  1  0.37714664  0.00792408  0.60178876  1
  O  O272  1  0.36790318  0.00130234  0.89348019  1
  O  O273  1  0.36533616  0.24272152  0.14924589  1
  O  O274  1  0.34827269  0.24745678  0.35792985  1
  O  O275  1  0.36721058  0.25042994  0.65556162  1
  O  O276  1  0.37105412  0.24388287  0.86973060  1
  O  O277  1  0.37974347  0.51003025  0.13287317  1
  O  O278  1  0.36434038  0.50733274  0.39292090  1
  O  O279  1  0.36722898  0.49446991  0.59199670  1
  O  O280  1  0.36619366  0.50912359  0.88772902  1
  O  O281  1  0.37664219  0.75599000  0.12634414  1
  O  O282  1  0.38423915  0.76129988  0.35766583  1
  O  O283  1  0.36981546  0.74254809  0.63875995  1
  O  O284  1  0.38008791  0.74867847  0.85007152  1
  O  O285  1  0.61611165  0.00244278  0.09366191  1
  O  O286  1  0.66278538  0.00926381  0.38514090  1
  O  O287  1  0.61567303  0.00583761  0.59404181  1
  O  O288  1  0.61372739  -0.00483626  0.88270494  1
  O  O289  1  0.67489957  0.24007129  0.14524067  1
  O  O290  1  0.62609776  0.24536096  0.33805802  1
  O  O291  1  0.63183512  0.24241111  0.63478027  1
  O  O292  1  0.62245214  0.23455574  0.83814141  1
  O  O293  1  0.59739133  0.50604847  0.10636518  1
  O  O294  1  0.59957897  0.48754076  0.39640202  1
  O  O295  1  0.62669358  0.49476649  0.59445501  1
  O  O296  1  0.59292889  0.51273222  0.89703858  1
  O  O297  1  0.65839164  0.76153721  0.13270209  1
  O  O298  1  0.59458644  0.75578319  0.36432996  1
  O  O299  1  0.63060773  0.75107283  0.63745454  1
  O  O300  1  0.61750460  0.75119268  0.84865494  1
  O  O301  1  0.90804498  -0.00803607  0.14013039  1
  O  O302  1  0.86550393  -0.01707543  0.35103966  1
  O  O303  1  0.88149001  -0.01044174  0.64716524  1
  O  O304  1  0.87565728  -0.01070012  0.84050390  1
  O  O305  1  0.86653251  0.24590407  0.08725692  1
  O  O306  1  0.91390762  0.24648320  0.40488609  1
  O  O307  1  0.89418128  0.25819630  0.62181963  1
  O  O308  1  0.89899685  0.25572406  0.89305728  1
  O  O309  1  0.89485644  0.49925587  0.13990708  1
  O  O310  1  0.88261176  0.49838795  0.36233298  1
  O  O311  1  0.86761328  0.49072059  0.65575603  1
  O  O312  1  0.87066001  0.49718773  0.84849119  1
  O  O313  1  0.86348479  0.75527221  0.09369444  1
  O  O314  1  0.90844430  0.74336813  0.38618435  1
  O  O315  1  0.85259423  0.74868493  0.61278753  1
  O  O316  1  0.86813450  0.74584472  0.88236050  1
