# generated using pymatgen
data_Mg32Ti42(Bi17O64)3
_symmetry_space_group_name_H-M   'P 1'
_cell_length_a   15.94849553
_cell_length_b   15.97587480
_cell_length_c   15.95532968
_cell_angle_alpha   89.97272155
_cell_angle_beta   90.06408416
_cell_angle_gamma   89.84344595
_symmetry_Int_Tables_number   1
_chemical_formula_structural   Mg32Ti42(Bi17O64)3
_chemical_formula_sum   'Mg32 Ti42 Bi51 O192'
_cell_volume   4065.25889678
_cell_formula_units_Z   1
loop_
 _symmetry_equiv_pos_site_id
 _symmetry_equiv_pos_as_xyz
  1  'x, y, z'
loop_
 _atom_site_type_symbol
 _atom_site_label
 _atom_site_symmetry_multiplicity
 _atom_site_fract_x
 _atom_site_fract_y
 _atom_site_fract_z
 _atom_site_occupancy
  Mg  Mg0  1  0.37544434  0.62733841  0.62786189  1
  Mg  Mg1  1  0.12968639  0.63139371  0.10690603  1
  Mg  Mg2  1  0.61774171  0.62361693  0.37029389  1
  Mg  Mg3  1  0.62515903  0.87048498  0.61765095  1
  Mg  Mg4  1  0.38327980  0.37652859  0.61632186  1
  Mg  Mg5  1  0.62921594  0.62031143  0.88029677  1
  Mg  Mg6  1  0.88653753  0.63666715  0.85650895  1
  Mg  Mg7  1  0.12942380  0.12230108  0.12011139  1
  Mg  Mg8  1  0.11707793  0.37676735  0.12384719  1
  Mg  Mg9  1  0.37863326  0.12320756  0.62699163  1
  Mg  Mg10  1  0.37837832  0.11919996  0.87753639  1
  Mg  Mg11  1  0.87585586  0.87328937  0.37265368  1
  Mg  Mg12  1  0.37065298  0.87158066  0.62096113  1
  Mg  Mg13  1  0.87795783  0.61830836  0.37401835  1
  Mg  Mg14  1  0.11347078  0.12492576  0.37485748  1
  Mg  Mg15  1  0.87030459  0.12132327  0.12274332  1
  Mg  Mg16  1  0.37374308  0.87781929  0.12426133  1
  Mg  Mg17  1  0.12675803  0.38312267  0.37770657  1
  Mg  Mg18  1  0.87245526  0.36715643  0.87252405  1
  Mg  Mg19  1  0.49081552  0.31759773  0.81504967  1
  Mg  Mg20  1  0.52901927  0.72827288  -0.01476501  1
  Mg  Mg21  1  0.07669166  0.25408836  0.00675544  1
  Mg  Mg22  1  0.47509058  0.53290934  0.27129698  1
  Mg  Mg23  1  -0.06356321  0.23697404  0.74792840  1
  Mg  Mg24  1  0.73081252  0.19965491  0.00691180  1
  Mg  Mg25  1  0.20493202  0.47067964  0.01749228  1
  Mg  Mg26  1  0.03796887  0.81027750  0.75768955  1
  Mg  Mg27  1  0.01406542  0.51261329  0.18002100  1
  Mg  Mg28  1  0.44301662  0.48956910  -0.04871616  1
  Mg  Mg29  1  0.78474786  0.50733185  -0.04035223  1
  Mg  Mg30  1  -0.01198727  0.43991659  0.74483465  1
  Mg  Mg31  1  0.23928952  -0.05738159  -0.05341807  1
  Ti  Ti32  1  0.14371326  0.13443507  0.87622251  1
  Ti  Ti33  1  0.61831539  0.62292555  0.62149022  1
  Ti  Ti34  1  0.11941614  0.14289025  0.63461155  1
  Ti  Ti35  1  0.62430776  0.11815096  0.63165975  1
  Ti  Ti36  1  0.63093123  0.11806900  0.37843502  1
  Ti  Ti37  1  0.86204823  0.12143413  0.61997747  1
  Ti  Ti38  1  0.13032263  0.61697816  0.86841416  1
  Ti  Ti39  1  0.13540466  0.87624800  0.12852147  1
  Ti  Ti40  1  0.63411342  0.12246699  0.13989799  1
  Ti  Ti41  1  0.35773372  0.86543716  0.37212389  1
  Ti  Ti42  1  0.38597429  0.62063397  0.11254041  1
  Ti  Ti43  1  0.36798522  0.38656564  0.36043607  1
  Ti  Ti44  1  0.88820525  0.86964084  0.11962161  1
  Ti  Ti45  1  0.12069213  0.36666376  0.86999773  1
  Ti  Ti46  1  0.87117718  0.36298566  0.62925195  1
  Ti  Ti47  1  0.36387718  0.62722891  0.36976476  1
  Ti  Ti48  1  0.88351905  0.61802817  0.62837922  1
  Ti  Ti49  1  0.62190408  0.86753873  0.37653937  1
  Ti  Ti50  1  0.38400608  0.63691207  0.87184866  1
  Ti  Ti51  1  0.62355267  0.61495765  0.12017847  1
  Ti  Ti52  1  0.87493464  0.37861992  0.37544560  1
  Ti  Ti53  1  0.36139671  0.12758774  0.11517108  1
  Ti  Ti54  1  0.61371982  0.37412115  0.36518062  1
  Ti  Ti55  1  0.86899633  0.12728313  0.37096767  1
  Ti  Ti56  1  0.62054584  0.86210167  0.87719686  1
  Ti  Ti57  1  0.11561859  0.87395775  0.36910413  1
  Ti  Ti58  1  0.87808083  0.62181630  0.12534892  1
  Ti  Ti59  1  0.61179328  0.11397882  0.87735101  1
  Ti  Ti60  1  0.61521052  0.37176550  0.62691275  1
  Ti  Ti61  1  0.87174493  0.38582499  0.11576030  1
  Ti  Ti62  1  0.12286330  0.87560628  0.62162381  1
  Ti  Ti63  1  0.12013529  0.61365211  0.37330291  1
  Ti  Ti64  1  0.12755757  0.62901206  0.64070624  1
  Ti  Ti65  1  0.38622089  0.87447007  0.87650936  1
  Ti  Ti66  1  0.39408310  0.39338395  0.12978847  1
  Ti  Ti67  1  0.86743887  0.14036936  0.88424404  1
  Ti  Ti68  1  0.87766175  0.87268028  0.62007048  1
  Ti  Ti69  1  0.63723387  0.39352089  0.90059149  1
  Ti  Ti70  1  0.87617570  0.87263794  0.87346582  1
  Ti  Ti71  1  0.12955918  0.37407258  0.63130103  1
  Ti  Ti72  1  0.62921096  0.38358150  0.12266899  1
  Ti  Ti73  1  0.62527472  0.86678758  0.11906534  1
  Bi  Bi74  1  0.23209983  0.77415201  0.76137167  1
  Bi  Bi75  1  0.75584174  0.26614771  0.48746688  1
  Bi  Bi76  1  0.03981606  0.77278526  -0.03996429  1
  Bi  Bi77  1  0.47206190  0.22224285  0.27555268  1
  Bi  Bi78  1  0.01401060  0.01692215  0.22897498  1
  Bi  Bi79  1  0.49233809  0.76458787  0.72699350  1
  Bi  Bi80  1  0.76575741  0.73085678  -0.01485832  1
  Bi  Bi81  1  0.49882590  0.52130254  0.76290439  1
  Bi  Bi82  1  0.51184719  -0.02219083  0.23536138  1
  Bi  Bi83  1  0.46602235  0.01232573  0.45661101  1
  Bi  Bi84  1  -0.00038700  0.00368141  0.48215262  1
  Bi  Bi85  1  0.30366947  0.25766109  0.74477931  1
  Bi  Bi86  1  0.75758732  -0.01705408  0.48206283  1
  Bi  Bi87  1  0.75474259  0.26957483  0.23424159  1
  Bi  Bi88  1  0.01753867  0.26360757  0.47697902  1
  Bi  Bi89  1  0.51868448  0.23658776  0.51156901  1
  Bi  Bi90  1  0.74431068  0.49686418  0.73225372  1
  Bi  Bi91  1  0.48245342  -0.00323017  0.00998506  1
  Bi  Bi92  1  0.02206120  0.48953107  0.51233509  1
  Bi  Bi93  1  0.26366106  0.74248220  -0.01265842  1
  Bi  Bi94  1  0.49111559  0.76782518  0.49703810  1
  Bi  Bi95  1  0.30268028  0.29105674  -0.03277259  1
  Bi  Bi96  1  0.74216817  -0.02726681  0.73695537  1
  Bi  Bi97  1  0.23585033  0.74976489  0.50555461  1
  Bi  Bi98  1  0.03196726  0.01179114  -0.02376254  1
  Bi  Bi99  1  0.26362007  0.50256284  0.52872803  1
  Bi  Bi100  1  0.51298745  0.73656254  0.23441679  1
  Bi  Bi101  1  0.77203190  0.73336227  0.48884553  1
  Bi  Bi102  1  0.70403372  0.25387764  0.77596822  1
  Bi  Bi103  1  0.26873167  0.74983253  0.22288899  1
  Bi  Bi104  1  0.27724877  0.47024517  0.76261980  1
  Bi  Bi105  1  -0.01518383  0.25411729  0.21314069  1
  Bi  Bi106  1  -0.02380545  0.02484859  0.75006837  1
  Bi  Bi107  1  0.00768448  0.72935262  0.48604036  1
  Bi  Bi108  1  0.26213918  0.02101169  0.73991917  1
  Bi  Bi109  1  0.29915192  0.22842337  0.47745403  1
  Bi  Bi110  1  0.20686725  0.26452024  0.25794561  1
  Bi  Bi111  1  0.49807483  -0.00062140  0.72235940  1
  Bi  Bi112  1  0.76136173  -0.01296770  -0.01585660  1
  Bi  Bi113  1  0.22707624  0.03102526  0.50308979  1
  Bi  Bi114  1  0.76578407  -0.01988277  0.23075238  1
  Bi  Bi115  1  0.73044368  0.49756203  0.49546416  1
  Bi  Bi116  1  0.74861610  0.51387077  0.26497702  1
  Bi  Bi117  1  0.01954070  0.73237152  0.23508260  1
  Bi  Bi118  1  0.26691258  0.04777992  0.27415422  1
  Bi  Bi119  1  0.22699212  0.50395727  0.22203308  1
  Bi  Bi120  1  0.48499677  0.50692815  0.49163510  1
  Bi  Bi121  1  0.75915611  0.73337467  0.74345548  1
  Bi  Bi122  1  -0.02049792  0.50524671  -0.03837126  1
  Bi  Bi123  1  0.50626724  0.23653624  0.02687298  1
  Bi  Bi124  1  0.76820782  0.73859443  0.24236035  1
  O  O125  1  0.09590477  0.13384159  -0.00319700  1
  O  O126  1  0.13839177  0.10598752  0.25044363  1
  O  O127  1  0.11598587  0.12823516  0.50956995  1
  O  O128  1  0.13919009  0.11799654  0.75716639  1
  O  O129  1  0.13483256  0.36388437  -0.00326704  1
  O  O130  1  0.13821855  0.38482998  0.24919380  1
  O  O131  1  0.11503801  0.36721463  0.50726896  1
  O  O132  1  0.10830931  0.39562146  0.74968480  1
  O  O133  1  0.13876356  0.66925137  -0.01236105  1
  O  O134  1  0.09125045  0.60263909  0.25521367  1
  O  O135  1  0.12986451  0.65420897  0.49851428  1
  O  O136  1  0.14086644  0.59662101  0.75250414  1
  O  O137  1  0.14437377  0.86146624  0.00773630  1
  O  O138  1  0.11303167  0.88751801  0.25534072  1
  O  O139  1  0.11681789  0.83465146  0.50340097  1
  O  O140  1  0.14357465  0.88222610  0.73933025  1
  O  O141  1  0.40844525  0.11553087  0.00203239  1
  O  O142  1  0.35545925  0.15113914  0.23913953  1
  O  O143  1  0.37837290  0.11745207  0.50146737  1
  O  O144  1  0.35292489  0.12579119  0.75303273  1
  O  O145  1  0.38336962  0.39776008  0.00905153  1
  O  O146  1  0.38238145  0.34990949  0.24400535  1
  O  O147  1  0.36890276  0.41327328  0.48690100  1
  O  O148  1  0.38669028  0.37213984  0.74575286  1
  O  O149  1  0.37463918  0.59391034  0.00360034  1
  O  O150  1  0.39277930  0.64290747  0.25287082  1
  O  O151  1  0.36630644  0.59376403  0.49286781  1
  O  O152  1  0.40478298  0.64449388  0.75560044  1
  O  O153  1  0.36621090  0.90371395  -0.00249191  1
  O  O154  1  0.36842761  0.84982018  0.25823637  1
  O  O155  1  0.39995619  0.87506730  0.49426147  1
  O  O156  1  0.37159349  0.83785329  0.76075285  1
  O  O157  1  0.62102154  0.13369223  -0.00229009  1
  O  O158  1  0.64162261  0.12931149  0.25659389  1
  O  O159  1  0.60420183  0.12470676  0.50187889  1
  O  O160  1  0.63714461  0.12295824  0.75144071  1
  O  O161  1  0.64711645  0.35564413  0.00772292  1
  O  O162  1  0.63043420  0.35952244  0.24909081  1
  O  O163  1  0.64797597  0.37732167  0.49567245  1
  O  O164  1  0.60024791  0.37473588  0.74321093  1
  O  O165  1  0.63478487  0.65052720  0.00919404  1
  O  O166  1  0.58022538  0.60826201  0.24001820  1
  O  O167  1  0.64187320  0.61366961  0.50266994  1
  O  O168  1  0.61191066  0.59954990  0.75070353  1
  O  O169  1  0.59388054  0.84945290  0.00882418  1
  O  O170  1  0.63697215  0.90050942  0.25318919  1
  O  O171  1  0.59897044  0.86849196  0.49398689  1
  O  O172  1  0.64357859  0.87213986  0.76167145  1
  O  O173  1  0.84644115  0.12412572  -0.00103868  1
  O  O174  1  0.86340667  0.14893902  0.26017203  1
  O  O175  1  0.88529890  0.09892936  0.50917293  1
  O  O176  1  0.87383339  0.12863984  0.75417130  1
  O  O177  1  0.85973180  0.40826139  0.00371016  1
  O  O178  1  0.87752845  0.35335390  0.26360145  1
  O  O179  1  0.84948379  0.38041402  0.50919847  1
  O  O180  1  0.89973636  0.35513332  0.74734890  1
  O  O181  1  0.84271515  0.60693165  0.01140926  1
  O  O182  1  0.88514053  0.65435496  0.24661301  1
  O  O183  1  0.84445614  0.61254343  0.51066212  1
  O  O184  1  0.88282081  0.66907945  0.73670066  1
  O  O185  1  0.88235174  0.90112579  0.00430591  1
  O  O186  1  0.85427259  0.86205842  0.24574414  1
  O  O187  1  0.88431414  0.90721205  0.50896954  1
  O  O188  1  0.84778579  0.86084252  0.75848611  1
  O  O189  1  -0.00477542  0.12789211  0.14728102  1
  O  O190  1  -0.01160070  0.09742387  0.37424094  1
  O  O191  1  0.00269537  0.11930489  0.65280711  1
  O  O192  1  -0.01269664  0.09501474  0.87256181  1
  O  O193  1  -0.00785365  0.38627578  0.13475665  1
  O  O194  1  -0.00887410  0.38091213  0.40094622  1
  O  O195  1  -0.00752637  0.39836647  0.61915933  1
  O  O196  1  0.00461220  0.40740795  0.87361976  1
  O  O197  1  -0.00525588  0.62733086  0.11461355  1
  O  O198  1  0.00053537  0.61480356  0.40381280  1
  O  O199  1  -0.00249037  0.61467002  0.60376908  1
  O  O200  1  0.01095810  0.61340278  0.88280188  1
  O  O201  1  -0.00090689  0.84551543  0.12548296  1
  O  O202  1  -0.00078894  0.89989135  0.38281920  1
  O  O203  1  -0.00423173  0.87253321  0.65125927  1
  O  O204  1  -0.00778431  0.87948064  0.85952688  1
  O  O205  1  0.25408208  0.10819543  0.10864011  1
  O  O206  1  0.24295283  0.12883403  0.38540463  1
  O  O207  1  0.24003845  0.11643237  0.62110931  1
  O  O208  1  0.25054586  0.15831875  0.89398945  1
  O  O209  1  0.26808214  0.41616326  0.12266960  1
  O  O210  1  0.25580839  0.34897742  0.36851914  1
  O  O211  1  0.24319489  0.37487016  0.63276067  1
  O  O212  1  0.24028072  0.36623210  0.85615345  1
  O  O213  1  0.25996855  0.61261238  0.13714163  1
  O  O214  1  0.24393485  0.63684138  0.36079592  1
  O  O215  1  0.24371813  0.64447898  0.61747617  1
  O  O216  1  0.26271756  0.65845518  0.87137140  1
  O  O217  1  0.24717108  0.87730096  0.14543614  1
  O  O218  1  0.24253691  0.84997954  0.38359474  1
  O  O219  1  0.24426124  0.84500275  0.61125021  1
  O  O220  1  0.26103610  0.83678399  0.88384076  1
  O  O221  1  0.51212181  0.15838056  0.14026028  1
  O  O222  1  0.50698787  0.10789928  0.35733245  1
  O  O223  1  0.50474282  0.11508451  0.63806233  1
  O  O224  1  0.50302514  0.08992644  0.86800302  1
  O  O225  1  0.51334118  0.35246305  0.11919110  1
  O  O226  1  0.50345916  0.41327653  0.36360058  1
  O  O227  1  0.50642288  0.38100406  0.59404473  1
  O  O228  1  0.52119373  0.41545715  0.88615649  1
  O  O229  1  0.50100829  0.66456089  0.10349279  1
  O  O230  1  0.49074494  0.59947756  0.38438550  1
  O  O231  1  0.50471331  0.59084286  0.61537960  1
  O  O232  1  0.50101692  0.59376186  0.88905264  1
  O  O233  1  0.50196714  0.86816085  0.15171924  1
  O  O234  1  0.50177841  0.89623191  0.35875547  1
  O  O235  1  0.50105295  0.88185018  0.64969292  1
  O  O236  1  0.50049310  0.89946330  0.86880860  1
  O  O237  1  0.74608908  0.08703042  0.12560256  1
  O  O238  1  0.74625237  0.15115249  0.39778256  1
  O  O239  1  0.74861864  0.12666685  0.61106035  1
  O  O240  1  0.74540082  0.16795184  0.88064894  1
  O  O241  1  0.75440106  0.38560234  0.14899178  1
  O  O242  1  0.75018450  0.34093885  0.37112783  1
  O  O243  1  0.75530147  0.37225197  0.65316791  1
  O  O244  1  0.74482075  0.35958995  0.85618667  1
  O  O245  1  0.73931773  0.61982934  0.15698067  1
  O  O246  1  0.74623722  0.63147778  0.34371779  1
  O  O247  1  0.74600296  0.62351038  0.65439601  1
  O  O248  1  0.75457557  0.65704208  0.86084485  1
  O  O249  1  0.74175699  0.89648617  0.11332676  1
  O  O250  1  0.74521924  0.86575661  0.40525835  1
  O  O251  1  0.75278922  0.88479974  0.62119341  1
  O  O252  1  0.74088921  0.85975353  0.90977355  1
  O  O253  1  0.09852142  -0.00902261  0.11653704  1
  O  O254  1  0.13319191  -0.00853950  0.40333997  1
  O  O255  1  0.12586955  -0.01248501  0.59964512  1
  O  O256  1  0.14730025  0.01352194  0.90070780  1
  O  O257  1  0.11431005  0.25177675  0.13338552  1
  O  O258  1  0.10104272  0.25147090  0.35928782  1
  O  O259  1  0.11087871  0.25462909  0.63789661  1
  O  O260  1  0.09952022  0.25384478  0.87758758  1
  O  O261  1  0.12594344  0.50511795  0.11486733  1
  O  O262  1  0.13402602  0.50484000  0.40100442  1
  O  O263  1  0.12760297  0.50324040  0.60574416  1
  O  O264  1  0.14820260  0.50979175  0.91176741  1
  O  O265  1  0.13583107  0.74930586  0.15336884  1
  O  O266  1  0.08995755  0.75019123  0.36065381  1
  O  O267  1  0.10193540  0.74036911  0.66007939  1
  O  O268  1  0.10446172  0.74346713  0.84235664  1
  O  O269  1  0.40441560  0.00960292  0.13292376  1
  O  O270  1  0.35498140  -0.01363382  0.37677008  1
  O  O271  1  0.37045168  -0.00622779  0.65287891  1
  O  O272  1  0.33713293  -0.01394441  0.86095382  1
  O  O273  1  0.37485772  0.25001099  0.09031919  1
  O  O274  1  0.40433174  0.26820350  0.39749697  1
  O  O275  1  0.36676213  0.25022952  0.61521576  1
  O  O276  1  0.39482773  0.25216887  0.87250215  1
  O  O277  1  0.42015769  0.50482544  0.15455506  1
  O  O278  1  0.35965528  0.50079480  0.33524264  1
  O  O279  1  0.34898231  0.50289154  0.63866298  1
  O  O280  1  0.36530787  0.51564497  0.85477901  1
  O  O281  1  0.35651435  0.74431425  0.11771073  1
  O  O282  1  0.38304227  0.74217998  0.39737282  1
  O  O283  1  0.41171753  0.74661748  0.61268829  1
  O  O284  1  0.41071032  0.74674312  0.91909271  1
  O  O285  1  0.59486974  0.00316944  0.11869592  1
  O  O286  1  0.64725524  0.00500717  0.38768890  1
  O  O287  1  0.62777471  0.00051511  0.63967995  1
  O  O288  1  0.65193518  0.00208551  0.88456297  1
  O  O289  1  0.67111799  0.23657831  0.11754952  1
  O  O290  1  0.59159022  0.25520494  0.38986974  1
  O  O291  1  0.62205914  0.25032975  0.61364610  1
  O  O292  1  0.59488341  0.25234113  0.86230241  1
  O  O293  1  0.62035865  0.49744618  0.11281287  1
  O  O294  1  0.65478609  0.49214282  0.37136099  1
  O  O295  1  0.65210067  0.49253882  0.62151034  1
  O  O296  1  0.67419509  0.50179142  0.90524056  1
  O  O297  1  0.63615822  0.75530964  0.15602442  1
  O  O298  1  0.60887137  0.75378138  0.35743144  1
  O  O299  1  0.60722215  0.73907148  0.62711724  1
  O  O300  1  0.59740336  0.75104066  0.87522851  1
  O  O301  1  0.89035712  -0.00924321  0.15204609  1
  O  O302  1  0.83955771  0.00665640  0.36957087  1
  O  O303  1  0.86987416  0.00109657  0.65324534  1
  O  O304  1  0.84348235  -0.00550415  0.86813304  1
  O  O305  1  0.87285825  0.26192555  0.12532606  1
  O  O306  1  0.88683401  0.24489212  0.41114399  1
  O  O307  1  0.88607625  0.24454345  0.62359232  1
  O  O308  1  0.90416739  0.24510210  0.87488990  1
  O  O309  1  0.88409741  0.50689960  0.15709527  1
  O  O310  1  0.85032340  0.49268854  0.36567615  1
  O  O311  1  0.87004261  0.50536186  0.66376960  1
  O  O312  1  0.87251486  0.50851703  0.86864801  1
  O  O313  1  0.84967316  0.75019818  0.11429662  1
  O  O314  1  0.87654435  0.74810677  0.40325801  1
  O  O315  1  0.86487185  0.75678856  0.59523719  1
  O  O316  1  0.88499689  0.75675980  0.90727541  1
