# generated using pymatgen
data_Mg32Ti42(Bi17O64)3
_symmetry_space_group_name_H-M   'P 1'
_cell_length_a   15.98533817
_cell_length_b   15.98341465
_cell_length_c   15.94142103
_cell_angle_alpha   90.00530018
_cell_angle_beta   90.09478863
_cell_angle_gamma   89.98952787
_symmetry_Int_Tables_number   1
_chemical_formula_structural   Mg32Ti42(Bi17O64)3
_chemical_formula_sum   'Mg32 Ti42 Bi51 O192'
_cell_volume   4073.03201148
_cell_formula_units_Z   1
loop_
 _symmetry_equiv_pos_site_id
 _symmetry_equiv_pos_as_xyz
  1  'x, y, z'
loop_
 _atom_site_type_symbol
 _atom_site_label
 _atom_site_symmetry_multiplicity
 _atom_site_fract_x
 _atom_site_fract_y
 _atom_site_fract_z
 _atom_site_occupancy
  Mg  Mg0  1  0.37299302  0.86319297  0.87059596  1
  Mg  Mg1  1  0.12850033  0.87368836  0.12540714  1
  Mg  Mg2  1  0.87888531  0.87436050  0.12417617  1
  Mg  Mg3  1  0.13016995  0.88347222  0.61004554  1
  Mg  Mg4  1  0.38671647  0.87194339  0.61982752  1
  Mg  Mg5  1  0.12373562  0.85966687  0.88009997  1
  Mg  Mg6  1  0.62529503  0.62037657  0.13054680  1
  Mg  Mg7  1  0.62408372  0.12355535  0.12571870  1
  Mg  Mg8  1  0.61314487  0.87870325  0.12878913  1
  Mg  Mg9  1  0.13731009  0.12573231  0.62264910  1
  Mg  Mg10  1  0.87139938  0.61365138  0.61257668  1
  Mg  Mg11  1  0.37295626  0.63885087  0.61057598  1
  Mg  Mg12  1  0.87263509  0.12787288  0.12072491  1
  Mg  Mg13  1  0.38297940  0.37141981  0.37589639  1
  Mg  Mg14  1  0.85234740  0.86333543  0.36056551  1
  Mg  Mg15  1  0.36831542  0.37105365  0.87261986  1
  Mg  Mg16  1  0.63460749  0.38341445  0.87700872  1
  Mg  Mg17  1  0.37716840  0.36463957  0.62841178  1
  Mg  Mg18  1  0.64068354  0.62809061  0.86834892  1
  Mg  Mg19  1  0.27179912  0.74416114  -0.03114177  1
  Mg  Mg20  1  0.76429222  0.80133050  0.70043466  1
  Mg  Mg21  1  0.55915373  0.72857983  0.47687251  1
  Mg  Mg22  1  -0.02092763  0.45996375  0.48738991  1
  Mg  Mg23  1  0.27817737  -0.02275663  0.53792054  1
  Mg  Mg24  1  0.49181564  -0.05720093  0.25248590  1
  Mg  Mg25  1  0.71435833  0.69329169  0.29408001  1
  Mg  Mg26  1  0.21877503  0.26177949  0.80164000  1
  Mg  Mg27  1  0.04265915  -0.02611417  -0.00919432  1
  Mg  Mg28  1  0.54840751  0.52755904  0.26728969  1
  Mg  Mg29  1  0.47570705  -0.03813083  0.46988932  1
  Mg  Mg30  1  -0.04786595  -0.06307728  0.51435631  1
  Mg  Mg31  1  0.24569564  0.78499771  0.50617816  1
  Ti  Ti32  1  0.13950550  0.62093948  0.13577279  1
  Ti  Ti33  1  0.12129887  0.38721225  0.87696006  1
  Ti  Ti34  1  0.88564236  0.12432135  0.61845408  1
  Ti  Ti35  1  0.62495473  0.37925527  0.13332985  1
  Ti  Ti36  1  0.13385261  0.89260198  0.38860435  1
  Ti  Ti37  1  0.60696998  0.36404848  0.37381008  1
  Ti  Ti38  1  0.88312871  0.86972703  0.88774786  1
  Ti  Ti39  1  0.35723510  0.12871375  0.86706410  1
  Ti  Ti40  1  0.86935712  0.36831077  0.37534426  1
  Ti  Ti41  1  0.38177159  0.62299192  0.12957657  1
  Ti  Ti42  1  0.12628279  0.62385332  0.37724376  1
  Ti  Ti43  1  0.62416824  0.10807007  0.62081669  1
  Ti  Ti44  1  0.61962906  0.87168836  0.61406549  1
  Ti  Ti45  1  0.36507824  0.62601626  0.38182033  1
  Ti  Ti46  1  0.37779998  0.85698553  0.12495900  1
  Ti  Ti47  1  0.12915456  0.62714766  0.61248506  1
  Ti  Ti48  1  0.88583377  0.11172098  0.86758104  1
  Ti  Ti49  1  0.36736377  0.86569868  0.36780554  1
  Ti  Ti50  1  0.12312473  0.11771633  0.87547821  1
  Ti  Ti51  1  0.38108620  0.11737239  0.36867347  1
  Ti  Ti52  1  0.63205387  0.86503344  0.87142007  1
  Ti  Ti53  1  0.11765434  0.37175126  0.37685650  1
  Ti  Ti54  1  0.87449459  0.62468611  0.12967079  1
  Ti  Ti55  1  0.87678051  0.63382370  0.87857426  1
  Ti  Ti56  1  0.88033640  0.38039201  0.87012697  1
  Ti  Ti57  1  0.13744692  0.11386040  0.37442986  1
  Ti  Ti58  1  0.38418792  0.38019619  0.12100310  1
  Ti  Ti59  1  0.87076419  0.37617599  0.61883596  1
  Ti  Ti60  1  0.13017338  0.12623995  0.13165067  1
  Ti  Ti61  1  0.11585863  0.38140232  0.13864964  1
  Ti  Ti62  1  0.87706702  0.36714084  0.11946272  1
  Ti  Ti63  1  0.37314057  0.62549610  0.86650093  1
  Ti  Ti64  1  0.61396145  0.11575179  0.38093921  1
  Ti  Ti65  1  0.61904031  0.88036743  0.37317094  1
  Ti  Ti66  1  0.87683448  0.11185209  0.38731095  1
  Ti  Ti67  1  0.87515215  0.63401140  0.37165740  1
  Ti  Ti68  1  0.37539689  0.12641763  0.10972611  1
  Ti  Ti69  1  0.12433306  0.37437925  0.61525303  1
  Ti  Ti70  1  0.63691221  0.63154903  0.63324554  1
  Ti  Ti71  1  0.37209685  0.10637863  0.62535487  1
  Ti  Ti72  1  0.61859724  0.37678000  0.61805238  1
  Ti  Ti73  1  0.13018771  0.63523187  0.86964735  1
  Bi  Bi74  1  0.75969216  0.48432560  0.23556936  1
  Bi  Bi75  1  0.26519823  0.51766262  -0.00668904  1
  Bi  Bi76  1  0.00336719  -0.03901535  0.72153132  1
  Bi  Bi77  1  0.51213550  0.54478272  0.50688286  1
  Bi  Bi78  1  0.48769816  0.75890385  0.74946853  1
  Bi  Bi79  1  0.51503117  0.03818727  -0.02071636  1
  Bi  Bi80  1  0.28152151  0.50081676  0.72468826  1
  Bi  Bi81  1  0.71781001  0.51193271  0.46151961  1
  Bi  Bi82  1  0.01454421  0.22786078  -0.00379365  1
  Bi  Bi83  1  0.01852946  0.24938747  0.74502408  1
  Bi  Bi84  1  0.75071484  0.21106481  0.26003255  1
  Bi  Bi85  1  0.74164785  -0.01913634  -0.00029705  1
  Bi  Bi86  1  0.49115756  -0.00385212  0.77920579  1
  Bi  Bi87  1  0.74040584  0.75349786  0.05609560  1
  Bi  Bi88  1  0.48578532  0.23666197  0.52226237  1
  Bi  Bi89  1  0.53601601  0.22496863  0.77377901  1
  Bi  Bi90  1  0.53231733  0.72303789  0.00089858  1
  Bi  Bi91  1  0.00115977  0.75559741  0.24713030  1
  Bi  Bi92  1  0.77285501  0.50846532  -0.01705294  1
  Bi  Bi93  1  0.50756148  0.22816333  0.23319213  1
  Bi  Bi94  1  -0.01020139  0.49273513  0.27110554  1
  Bi  Bi95  1  0.51017704  0.48060728  0.76139638  1
  Bi  Bi96  1  0.74508156  0.48681873  0.74680140  1
  Bi  Bi97  1  0.54047149  0.26045379  -0.00476139  1
  Bi  Bi98  1  0.50796269  0.72126311  0.27609045  1
  Bi  Bi99  1  0.27624861  0.48200953  0.50340745  1
  Bi  Bi100  1  0.76620304  0.22895342  -0.03509268  1
  Bi  Bi101  1  0.21779957  -0.01846582  0.75362085  1
  Bi  Bi102  1  0.27540120  0.23649541  0.49419413  1
  Bi  Bi103  1  0.23363034  0.28432706  0.01305848  1
  Bi  Bi104  1  0.75895115  -0.00718561  0.50037269  1
  Bi  Bi105  1  0.25119980  0.76247472  0.70773463  1
  Bi  Bi106  1  0.75575890  0.21344493  0.73878135  1
  Bi  Bi107  1  0.02686375  0.22618032  0.49753771  1
  Bi  Bi108  1  -0.01093137  -0.01021003  0.21485663  1
  Bi  Bi109  1  0.76440716  -0.01941724  0.75814656  1
  Bi  Bi110  1  0.22558327  0.75628501  0.27187932  1
  Bi  Bi111  1  0.77862621  0.75735234  0.51609317  1
  Bi  Bi112  1  0.73142227  0.25164320  0.50295938  1
  Bi  Bi113  1  0.50617094  0.49485180  -0.02746126  1
  Bi  Bi114  1  0.27324646  0.48754018  0.26310651  1
  Bi  Bi115  1  -0.00956989  0.21988255  0.25153703  1
  Bi  Bi116  1  0.25979923  -0.03477440  -0.01184746  1
  Bi  Bi117  1  -0.00299309  0.49924339  0.71874454  1
  Bi  Bi118  1  0.74416836  -0.00832023  0.21488061  1
  Bi  Bi119  1  -0.02752049  0.73837982  0.72113222  1
  Bi  Bi120  1  0.27761061  0.25147463  0.24251698  1
  Bi  Bi121  1  0.26552156  -0.01223018  0.22889449  1
  Bi  Bi122  1  0.02130700  0.51501269  -0.00389387  1
  Bi  Bi123  1  0.00652336  0.74007019  0.01950308  1
  Bi  Bi124  1  0.00251545  0.75328482  0.49585248  1
  O  O125  1  0.09057554  0.10602142  0.00592998  1
  O  O126  1  0.12430312  0.15515033  0.25407016  1
  O  O127  1  0.11438153  0.12257843  0.49224721  1
  O  O128  1  0.14073782  0.16318471  0.76135974  1
  O  O129  1  0.13258643  0.39098348  0.00133391  1
  O  O130  1  0.10521489  0.36129433  0.25336143  1
  O  O131  1  0.09693737  0.40196390  0.50226134  1
  O  O132  1  0.12696083  0.34317765  0.75797061  1
  O  O133  1  0.14329435  0.59614629  0.01402083  1
  O  O134  1  0.10893780  0.65181744  0.25461699  1
  O  O135  1  0.12860693  0.61571280  0.49843719  1
  O  O136  1  0.10446610  0.65931584  0.76188019  1
  O  O137  1  0.14254717  0.90024355  0.00169788  1
  O  O138  1  0.10644751  0.84651430  0.26183526  1
  O  O139  1  0.18250514  0.90553644  0.49492048  1
  O  O140  1  0.11447459  0.87626222  0.75304506  1
  O  O141  1  0.38662979  0.13672396  -0.00891082  1
  O  O142  1  0.36415494  0.13421883  0.24974135  1
  O  O143  1  0.38173992  0.14013352  0.49004851  1
  O  O144  1  0.36734043  0.09194925  0.74256227  1
  O  O145  1  0.35804878  0.36384592  0.00674587  1
  O  O146  1  0.36180011  0.37736786  0.24879455  1
  O  O147  1  0.34902571  0.36462016  0.49980835  1
  O  O148  1  0.38213649  0.40348285  0.74848810  1
  O  O149  1  0.33241351  0.63782616  0.01263850  1
  O  O150  1  0.42692837  0.60474032  0.24721643  1
  O  O151  1  0.33918169  0.62310902  0.48880684  1
  O  O152  1  0.38764929  0.60834165  0.75233795  1
  O  O153  1  0.34109671  0.85023671  0.00583999  1
  O  O154  1  0.37915156  0.89791228  0.24487177  1
  O  O155  1  0.35508099  0.87946278  0.48299819  1
  O  O156  1  0.37812007  0.83806587  0.74435555  1
  O  O157  1  0.60871744  0.13815151  -0.00086369  1
  O  O158  1  0.61914785  0.13654060  0.25987695  1
  O  O159  1  0.63893946  0.14045193  0.50278950  1
  O  O160  1  0.62841383  0.13124547  0.74021421  1
  O  O161  1  0.62652598  0.37579760  0.01045092  1
  O  O162  1  0.59936954  0.35888482  0.25685149  1
  O  O163  1  0.64812191  0.37290714  0.50005552  1
  O  O164  1  0.62494693  0.39573911  0.74246580  1
  O  O165  1  0.64049130  0.63669741  0.00231194  1
  O  O166  1  0.60810268  0.63446835  0.25485370  1
  O  O167  1  0.63044113  0.62274580  0.49947825  1
  O  O168  1  0.60810390  0.61796396  0.74286100  1
  O  O169  1  0.64605266  0.87864751  -0.00604831  1
  O  O170  1  0.61111927  0.90830860  0.26075720  1
  O  O171  1  0.58459078  0.85551399  0.50343569  1
  O  O172  1  0.66777511  0.87883499  0.74265156  1
  O  O173  1  0.87707779  0.14554779  -0.00856727  1
  O  O174  1  0.87746235  0.12987950  0.26633135  1
  O  O175  1  0.86549970  0.15051175  0.50109167  1
  O  O176  1  0.87682375  0.12695569  0.74489712  1
  O  O177  1  0.85318336  0.35841030  0.00448833  1
  O  O178  1  0.87665850  0.40191750  0.25306001  1
  O  O179  1  0.87904568  0.37411856  0.49985407  1
  O  O180  1  0.87501460  0.41427538  0.75367984  1
  O  O181  1  0.84627424  0.63144598  0.00564375  1
  O  O182  1  0.90546920  0.61111105  0.24691451  1
  O  O183  1  0.87501024  0.65286519  0.48953015  1
  O  O184  1  0.90626434  0.62004414  0.76219546  1
  O  O185  1  0.84461765  0.88084031  -0.00085665  1
  O  O186  1  0.91501921  0.87740596  0.25527656  1
  O  O187  1  0.88424593  0.83344190  0.48110868  1
  O  O188  1  0.85496067  0.87531954  0.75866776  1
  O  O189  1  0.00047514  0.12951010  0.14464718  1
  O  O190  1  -0.00631279  0.14296657  0.37735089  1
  O  O191  1  -0.00062668  0.15626982  0.62538835  1
  O  O192  1  -0.00014090  0.15391084  0.86715670  1
  O  O193  1  -0.00787955  0.38991127  0.11579381  1
  O  O194  1  -0.00747478  0.37507620  0.37504136  1
  O  O195  1  0.00155096  0.36628786  0.64952437  1
  O  O196  1  -0.00220318  0.35633215  0.87660556  1
  O  O197  1  -0.00430583  0.61550327  0.09551546  1
  O  O198  1  0.00391148  0.67780652  0.37695686  1
  O  O199  1  0.00631721  0.65159861  0.62362268  1
  O  O200  1  0.00610806  0.63210789  0.91416608  1
  O  O201  1  0.00556057  0.91331793  0.10240048  1
  O  O202  1  0.02686348  0.87530025  0.42764778  1
  O  O203  1  0.00387501  0.87234372  0.61510135  1
  O  O204  1  -0.00498618  0.87250681  0.90853007  1
  O  O205  1  0.24508196  0.15242497  0.11743062  1
  O  O206  1  0.25020298  0.10980948  0.38147588  1
  O  O207  1  0.26005953  0.09011233  0.60044238  1
  O  O208  1  0.24398025  0.09864113  0.88882913  1
  O  O209  1  0.23584144  0.36380877  0.13480251  1
  O  O210  1  0.23060698  0.40232860  0.36898953  1
  O  O211  1  0.23911872  0.39742962  0.62630420  1
  O  O212  1  0.23911360  0.37113051  0.87481954  1
  O  O213  1  0.24971837  0.62925718  0.15838854  1
  O  O214  1  0.24398218  0.61561273  0.34454541  1
  O  O215  1  0.24185674  0.62124076  0.65011618  1
  O  O216  1  0.24552224  0.59678734  0.86787904  1
  O  O217  1  0.25273317  0.87831163  0.14722053  1
  O  O218  1  0.25146437  0.88994176  0.33802420  1
  O  O219  1  0.25603725  0.90283424  0.64675856  1
  O  O220  1  0.24851354  0.89632558  0.86457733  1
  O  O221  1  0.49077336  0.12246569  0.13566682  1
  O  O222  1  0.50069790  0.15372267  0.37267335  1
  O  O223  1  0.50843660  0.14041189  0.62424548  1
  O  O224  1  0.48625369  0.12652913  0.85625353  1
  O  O225  1  0.49515076  0.38642756  0.11466736  1
  O  O226  1  0.50111713  0.34443100  0.39917532  1
  O  O227  1  0.50653271  0.34975476  0.61568800  1
  O  O228  1  0.49794761  0.38335681  0.87728472  1
  O  O229  1  0.49158129  0.62107253  0.08868463  1
  O  O230  1  0.48326062  0.65677820  0.40010494  1
  O  O231  1  0.50196827  0.65615888  0.58901032  1
  O  O232  1  0.48905944  0.62810465  0.90250945  1
  O  O233  1  0.48819914  0.89431038  0.12670797  1
  O  O234  1  0.48905730  0.87020633  0.36751256  1
  O  O235  1  0.51163844  0.85622099  0.65483155  1
  O  O236  1  0.50973508  0.85664264  0.84406965  1
  O  O237  1  0.74914421  0.12932375  0.14590699  1
  O  O238  1  0.74752940  0.10723439  0.36439385  1
  O  O239  1  0.75330085  0.11553404  0.63381295  1
  O  O240  1  0.76429127  0.12456481  0.86965865  1
  O  O241  1  0.74225586  0.37281995  0.15034923  1
  O  O242  1  0.75437349  0.40813569  0.36494790  1
  O  O243  1  0.75823382  0.40539150  0.63025468  1
  O  O244  1  0.75727447  0.40918491  0.87073842  1
  O  O245  1  0.75812656  0.65513149  0.16075545  1
  O  O246  1  0.76231772  0.59196693  0.35761121  1
  O  O247  1  0.74548823  0.59318092  0.63016086  1
  O  O248  1  0.76548074  0.59790722  0.86345715  1
  O  O249  1  0.75081591  0.86561236  0.14700883  1
  O  O250  1  0.73439126  0.90298281  0.39678574  1
  O  O251  1  0.74664434  0.88371820  0.58899976  1
  O  O252  1  0.74760750  0.91373151  0.87517198  1
  O  O253  1  0.13907351  0.01253554  0.15025426  1
  O  O254  1  0.11484556  0.00356831  0.35098081  1
  O  O255  1  0.10981348  0.00802185  0.65344656  1
  O  O256  1  0.09638679  0.00826733  0.86364353  1
  O  O257  1  0.11021508  0.25559376  0.10112092  1
  O  O258  1  0.13103362  0.25990604  0.39805453  1
  O  O259  1  0.13342716  0.25973895  0.59668969  1
  O  O260  1  0.13325797  0.24411510  0.91007287  1
  O  O261  1  0.12503132  0.50037325  0.15391154  1
  O  O262  1  0.09901056  0.51363440  0.36456986  1
  O  O263  1  0.11188070  0.50955729  0.64122094  1
  O  O264  1  0.10307846  0.50006521  0.86707729  1
  O  O265  1  0.10603296  0.74299812  0.11662062  1
  O  O266  1  0.16737776  0.75812729  0.40072272  1
  O  O267  1  0.15464698  0.75589782  0.59984211  1
  O  O268  1  0.15542677  0.74009133  0.91291573  1
  O  O269  1  0.35224119  0.01337843  0.11429830  1
  O  O270  1  0.40157313  0.00626941  0.37277318  1
  O  O271  1  0.40414459  -0.00218361  0.58369784  1
  O  O272  1  0.40077479  -0.00945498  0.88205354  1
  O  O273  1  0.37926080  0.25518396  0.14152018  1
  O  O274  1  0.34411707  0.24992015  0.37054931  1
  O  O275  1  0.36881846  0.23639074  0.61174654  1
  O  O276  1  0.33797382  0.23699937  0.84202088  1
  O  O277  1  0.35692634  0.50193487  0.12072483  1
  O  O278  1  0.36766213  0.50272312  0.37602589  1
  O  O279  1  0.36819684  0.50484379  0.60878668  1
  O  O280  1  0.37990495  0.50457751  0.90416008  1
  O  O281  1  0.38460925  0.74546097  0.14680001  1
  O  O282  1  0.35307365  0.75014050  0.35193159  1
  O  O283  1  0.33324493  0.75758848  0.60106442  1
  O  O284  1  0.35430417  0.73772092  0.87487342  1
  O  O285  1  0.64839228  0.00004616  0.11562299  1
  O  O286  1  0.58777114  0.00608595  0.40765668  1
  O  O287  1  0.61812868  -0.00507486  0.61379359  1
  O  O288  1  0.59280979  -0.00816660  0.87404122  1
  O  O289  1  0.60142692  0.25462045  0.12636695  1
  O  O290  1  0.65493735  0.25129116  0.38369542  1
  O  O291  1  0.65480136  0.25964116  0.62654903  1
  O  O292  1  0.62419337  0.25881428  0.87406737  1
  O  O293  1  0.62094818  0.49632260  0.16166101  1
  O  O294  1  0.60166949  0.48956988  0.38011704  1
  O  O295  1  0.59331861  0.50062929  0.61329414  1
  O  O296  1  0.60454606  0.50642434  0.87573862  1
  O  O297  1  0.61402186  0.75280255  0.11800190  1
  O  O298  1  0.62805575  0.76324766  0.36675937  1
  O  O299  1  0.65929184  0.75086977  0.63077618  1
  O  O300  1  0.63515049  0.75271743  0.87591722  1
  O  O301  1  0.86525662  0.00235341  0.14128363  1
  O  O302  1  0.88198389  -0.00159928  0.41711242  1
  O  O303  1  0.89603300  0.01177950  0.60104851  1
  O  O304  1  0.89103661  0.00011443  0.86682341  1
  O  O305  1  0.88092628  0.25712317  0.14796549  1
  O  O306  1  0.85374534  0.25844184  0.36699566  1
  O  O307  1  0.85684177  0.26210991  0.63965708  1
  O  O308  1  0.85111011  0.26511972  0.86064755  1
  O  O309  1  0.84958467  0.50416882  0.11728749  1
  O  O310  1  0.91562408  0.51574691  0.38876190  1
  O  O311  1  0.92045850  0.49796416  0.60266856  1
  O  O312  1  0.89461600  0.49999517  0.91271067  1
  O  O313  1  0.90224803  0.74804053  0.11836712  1
  O  O314  1  0.82539380  0.73899135  0.34259983  1
  O  O315  1  0.85062869  0.73760415  0.63845601  1
  O  O316  1  0.87420633  0.75032247  0.87664826  1
