# generated using pymatgen
data_Mg32Ti42(Bi17O64)3
_symmetry_space_group_name_H-M   'P 1'
_cell_length_a   15.99481158
_cell_length_b   15.97408090
_cell_length_c   15.99757873
_cell_angle_alpha   89.93809602
_cell_angle_beta   89.88883127
_cell_angle_gamma   89.92239243
_symmetry_Int_Tables_number   1
_chemical_formula_structural   Mg32Ti42(Bi17O64)3
_chemical_formula_sum   'Mg32 Ti42 Bi51 O192'
_cell_volume   4087.40616838
_cell_formula_units_Z   1
loop_
 _symmetry_equiv_pos_site_id
 _symmetry_equiv_pos_as_xyz
  1  'x, y, z'
loop_
 _atom_site_type_symbol
 _atom_site_label
 _atom_site_symmetry_multiplicity
 _atom_site_fract_x
 _atom_site_fract_y
 _atom_site_fract_z
 _atom_site_occupancy
  Mg  Mg0  1  0.36524231  0.87154789  0.12181218  1
  Mg  Mg1  1  0.88145191  0.38457933  0.62272264  1
  Mg  Mg2  1  0.11807121  0.13380913  0.12473466  1
  Mg  Mg3  1  0.87533739  0.88555429  0.37225623  1
  Mg  Mg4  1  0.37445260  0.87649309  0.62650805  1
  Mg  Mg5  1  0.86545681  0.38230826  0.36732438  1
  Mg  Mg6  1  0.37211313  0.87483062  0.87743232  1
  Mg  Mg7  1  0.36784255  0.86885858  0.37470050  1
  Mg  Mg8  1  0.38066868  0.61175252  0.12219679  1
  Mg  Mg9  1  0.12039517  0.62305700  0.13766021  1
  Mg  Mg10  1  0.87564546  0.38150232  0.12513880  1
  Mg  Mg11  1  0.37067604  0.12488563  0.37684041  1
  Mg  Mg12  1  0.12306442  0.88296596  0.62567435  1
  Mg  Mg13  1  0.37125131  0.37932154  0.87268335  1
  Mg  Mg14  1  0.13137450  0.61822205  0.88546081  1
  Mg  Mg15  1  0.11804640  0.37796758  0.36685855  1
  Mg  Mg16  1  0.86831258  0.11797954  0.13048182  1
  Mg  Mg17  1  0.63162559  0.36225931  0.87088953  1
  Mg  Mg18  1  0.11678445  0.13134945  0.87818265  1
  Mg  Mg19  1  0.70531885  -0.03136865  -0.01690076  1
  Mg  Mg20  1  0.27672877  0.70501310  0.23312492  1
  Mg  Mg21  1  0.22659090  0.51550454  0.04748104  1
  Mg  Mg22  1  0.74946352  0.24798609  0.17757368  1
  Mg  Mg23  1  0.68919213  0.72043649  0.69531002  1
  Mg  Mg24  1  0.21502868  0.45952299  0.74335290  1
  Mg  Mg25  1  0.01096724  0.23108653  0.68807614  1
  Mg  Mg26  1  0.73159238  0.19280628  -0.02678105  1
  Mg  Mg27  1  0.23446417  0.06459367  0.25653572  1
  Mg  Mg28  1  -0.05980246  0.51249211  0.24142827  1
  Mg  Mg29  1  0.74856991  0.46836142  0.22348413  1
  Mg  Mg30  1  0.47222949  0.44238239  0.30589237  1
  Mg  Mg31  1  0.01118770  0.73514295  0.81058859  1
  Ti  Ti32  1  0.13432265  0.12823156  0.60614811  1
  Ti  Ti33  1  0.87789438  0.63231904  0.88584207  1
  Ti  Ti34  1  0.61721714  0.87526781  0.12615930  1
  Ti  Ti35  1  0.86549978  0.12504845  0.36648361  1
  Ti  Ti36  1  0.88308359  0.62889906  0.63018203  1
  Ti  Ti37  1  0.62322131  0.87736716  0.62266139  1
  Ti  Ti38  1  0.87633439  0.86882553  0.64143948  1
  Ti  Ti39  1  0.62092198  0.12972060  0.62192071  1
  Ti  Ti40  1  0.87765044  0.11011270  0.88616629  1
  Ti  Ti41  1  0.63840338  0.37653218  0.36953395  1
  Ti  Ti42  1  0.37626008  0.12317741  0.12109085  1
  Ti  Ti43  1  0.86171685  0.62442605  0.37565982  1
  Ti  Ti44  1  0.62483354  0.11631520  0.11724759  1
  Ti  Ti45  1  0.36512225  0.11917150  0.87430639  1
  Ti  Ti46  1  0.38135317  0.62610082  0.36783093  1
  Ti  Ti47  1  0.61627604  0.86755245  0.37666242  1
  Ti  Ti48  1  0.13092538  0.86634494  0.13782215  1
  Ti  Ti49  1  0.63438244  0.86656467  0.85327302  1
  Ti  Ti50  1  0.86928096  0.87142776  0.87585257  1
  Ti  Ti51  1  0.62358685  0.11312316  0.86346964  1
  Ti  Ti52  1  0.61855183  0.61769019  0.35851196  1
  Ti  Ti53  1  0.86327332  0.62897045  0.13490147  1
  Ti  Ti54  1  0.12165977  0.37740619  0.13693209  1
  Ti  Ti55  1  0.89793722  0.37635305  0.87760273  1
  Ti  Ti56  1  0.62630133  0.38906916  0.12373471  1
  Ti  Ti57  1  0.13023696  0.88108719  0.37353265  1
  Ti  Ti58  1  0.37240085  0.62637413  0.63565318  1
  Ti  Ti59  1  0.11446900  0.38278844  0.61552172  1
  Ti  Ti60  1  0.36448933  0.12274748  0.62935688  1
  Ti  Ti61  1  0.12389654  0.62962078  0.61978319  1
  Ti  Ti62  1  0.61848197  0.62103926  0.13212645  1
  Ti  Ti63  1  0.63517058  0.62803402  0.88157011  1
  Ti  Ti64  1  0.62735156  0.36162524  0.63573014  1
  Ti  Ti65  1  0.12969236  0.63118745  0.37932698  1
  Ti  Ti66  1  0.86035665  0.88109286  0.12356334  1
  Ti  Ti67  1  0.37217189  0.62150422  0.87820648  1
  Ti  Ti68  1  0.62254252  0.14424290  0.37791142  1
  Ti  Ti69  1  0.36938354  0.37976022  0.10584422  1
  Ti  Ti70  1  0.12843873  0.13484824  0.37751338  1
  Ti  Ti71  1  0.10935823  0.87488645  0.87448874  1
  Ti  Ti72  1  0.37144802  0.38629096  0.63847036  1
  Ti  Ti73  1  0.13317342  0.38987045  0.88985723  1
  Bi  Bi74  1  0.76113113  0.47392728  -0.01971147  1
  Bi  Bi75  1  0.01832232  0.01644950  0.26644393  1
  Bi  Bi76  1  -0.04130000  0.02637800  0.51100153  1
  Bi  Bi77  1  0.01638873  0.03421515  0.73794179  1
  Bi  Bi78  1  0.54403362  0.53223578  0.72583495  1
  Bi  Bi79  1  0.01915949  0.53064703  0.75197289  1
  Bi  Bi80  1  0.48049962  0.00859659  0.48336107  1
  Bi  Bi81  1  0.72116543  0.02291296  0.25583435  1
  Bi  Bi82  1  0.77596551  0.76377690  0.50271459  1
  Bi  Bi83  1  -0.00124777  0.75084939  0.28412313  1
  Bi  Bi84  1  0.47953062  0.25279795  0.74750845  1
  Bi  Bi85  1  0.28952476  0.50828540  0.48547971  1
  Bi  Bi86  1  0.47394658  0.76876512  0.75455510  1
  Bi  Bi87  1  0.49733841  0.25064136  -0.02650908  1
  Bi  Bi88  1  0.72739239  -0.00691692  0.49126005  1
  Bi  Bi89  1  0.48133737  -0.01484387  -0.00253427  1
  Bi  Bi90  1  0.46012103  -0.00734322  0.24992825  1
  Bi  Bi91  1  0.00505428  0.78459503  0.51761143  1
  Bi  Bi92  1  0.78742992  0.49640877  0.76205164  1
  Bi  Bi93  1  0.25191983  0.73197411  0.01652447  1
  Bi  Bi94  1  0.29234835  0.28004998  0.26268674  1
  Bi  Bi95  1  0.52057484  0.48171699  0.49313028  1
  Bi  Bi96  1  0.73075287  0.74041347  0.01369303  1
  Bi  Bi97  1  -0.00092435  -0.00890348  0.02993747  1
  Bi  Bi98  1  0.48763934  0.74079339  -0.00947140  1
  Bi  Bi99  1  0.25461606  0.74869872  0.52638973  1
  Bi  Bi100  1  0.21269412  0.26516002  0.75731033  1
  Bi  Bi101  1  0.46925163  0.26989645  0.48517280  1
  Bi  Bi102  1  0.77422521  0.02291055  0.72171804  1
  Bi  Bi103  1  0.23430477  -0.01431581  0.76523209  1
  Bi  Bi104  1  -0.01746006  0.27341749  0.48160175  1
  Bi  Bi105  1  0.23680582  0.76176744  0.78220890  1
  Bi  Bi106  1  0.22475860  0.24921137  0.00642638  1
  Bi  Bi107  1  0.00155219  0.51893015  0.02014716  1
  Bi  Bi108  1  0.26424423  -0.02400885  0.49627193  1
  Bi  Bi109  1  0.25104290  0.28386895  0.47586140  1
  Bi  Bi110  1  0.75486979  0.76995644  0.27222783  1
  Bi  Bi111  1  -0.03153791  0.22993107  0.01167088  1
  Bi  Bi112  1  0.00364121  0.51190692  0.45934057  1
  Bi  Bi113  1  0.48461710  0.00859187  0.73820770  1
  Bi  Bi114  1  0.78362859  0.24016835  0.54053668  1
  Bi  Bi115  1  0.80240109  0.24072640  0.75282578  1
  Bi  Bi116  1  0.52820017  0.71352216  0.51135951  1
  Bi  Bi117  1  0.46644328  0.76889076  0.24534897  1
  Bi  Bi118  1  0.50868110  0.26378659  0.21026224  1
  Bi  Bi119  1  -0.00329407  0.76847625  0.02863008  1
  Bi  Bi120  1  0.73252619  0.53366546  0.53968676  1
  Bi  Bi121  1  0.23569175  0.01266211  0.02972854  1
  Bi  Bi122  1  -0.02495501  0.26374829  0.24431607  1
  Bi  Bi123  1  0.23753345  0.51338172  0.26414945  1
  Bi  Bi124  1  0.51091310  0.49388225  -0.03404997  1
  O  O125  1  0.15736410  0.12279206  -0.00212537  1
  O  O126  1  0.11480642  0.12663908  0.25183625  1
  O  O127  1  0.14370134  0.10279843  0.49749250  1
  O  O128  1  0.08386587  0.15158824  0.75671160  1
  O  O129  1  0.17010526  0.40600226  -0.00405769  1
  O  O130  1  0.10225993  0.35364649  0.24372864  1
  O  O131  1  0.15873264  0.38738012  0.50624487  1
  O  O132  1  0.10419328  0.34626689  0.73697004  1
  O  O133  1  0.12158676  0.58518380  0.00793220  1
  O  O134  1  0.16709718  0.63724371  0.25825008  1
  O  O135  1  0.11916128  0.61238761  0.49944655  1
  O  O136  1  0.09670591  0.64607656  0.73917642  1
  O  O137  1  0.09557590  0.88010692  -0.01148593  1
  O  O138  1  0.13981939  0.85331919  0.24740237  1
  O  O139  1  0.09242406  0.89264706  0.48767530  1
  O  O140  1  0.15302705  0.86549845  0.74664061  1
  O  O141  1  0.35235756  0.12079742  -0.00413318  1
  O  O142  1  0.37448883  0.10711435  0.24341849  1
  O  O143  1  0.37116602  0.09643871  0.51312948  1
  O  O144  1  0.40566469  0.12810897  0.75243220  1
  O  O145  1  0.36241405  0.35119172  -0.00259419  1
  O  O146  1  0.39885760  0.36441066  0.23961363  1
  O  O147  1  0.35741092  0.36503834  0.51636226  1
  O  O148  1  0.40668891  0.37151599  0.74831452  1
  O  O149  1  0.37543694  0.65635006  -0.00019639  1
  O  O150  1  0.35202677  0.60183864  0.25050942  1
  O  O151  1  0.37377129  0.61816136  0.49812612  1
  O  O152  1  0.37788332  0.63690012  0.75313959  1
  O  O153  1  0.40768190  0.86659558  -0.00155951  1
  O  O154  1  0.37724999  0.88455394  0.24910526  1
  O  O155  1  0.38437835  0.90481477  0.50302177  1
  O  O156  1  0.36104748  0.84761828  0.74987748  1
  O  O157  1  0.66345546  0.09182626  0.01004193  1
  O  O158  1  0.61391104  0.12039144  0.26302187  1
  O  O159  1  0.65372763  0.11354823  0.50431143  1
  O  O160  1  0.60234590  0.12502199  0.75243099  1
  O  O161  1  0.64188680  0.39915404  0.00969813  1
  O  O162  1  0.58675293  0.37077799  0.25265813  1
  O  O163  1  0.64136378  0.41036957  0.48952686  1
  O  O164  1  0.60878245  0.35571270  0.74548877  1
  O  O165  1  0.64821527  0.61837282  0.00542356  1
  O  O166  1  0.61995526  0.65360538  0.24713363  1
  O  O167  1  0.61141770  0.60736791  0.48743305  1
  O  O168  1  0.61388871  0.64508917  0.76159820  1
  O  O169  1  0.60111410  0.90235842  0.00997619  1
  O  O170  1  0.64786030  0.86186601  0.25527496  1
  O  O171  1  0.61702861  0.89767386  0.50388188  1
  O  O172  1  0.65740224  0.83716687  0.74623601  1
  O  O173  1  0.84822780  0.15466918  -0.00009370  1
  O  O174  1  0.90246766  0.10797553  0.25593511  1
  O  O175  1  0.88443413  0.14262837  0.49021027  1
  O  O176  1  0.88705397  0.12259812  0.76491224  1
  O  O177  1  0.86205772  0.38230796  -0.00173503  1
  O  O178  1  0.91299125  0.38571262  0.24754409  1
  O  O179  1  0.85967376  0.34620678  0.49546176  1
  O  O180  1  0.88548803  0.39874893  0.75562908  1
  O  O181  1  0.88035371  0.62780380  0.00390832  1
  O  O182  1  0.87885937  0.63240336  0.25027268  1
  O  O183  1  0.87129709  0.63143669  0.49275894  1
  O  O184  1  0.88260484  0.61054214  0.74800818  1
  O  O185  1  0.90200944  0.86778870  -0.00742239  1
  O  O186  1  0.83915042  0.87851547  0.23902677  1
  O  O187  1  0.88391429  0.85727437  0.49992883  1
  O  O188  1  0.85598695  0.88606134  0.75237845  1
  O  O189  1  -0.00490786  0.12484623  0.09742930  1
  O  O190  1  0.01142609  0.08943471  0.38485371  1
  O  O191  1  0.01183678  0.11157918  0.61744885  1
  O  O192  1  -0.00801342  0.12962035  0.91474366  1
  O  O193  1  0.01290722  0.40195033  0.09957713  1
  O  O194  1  -0.00094885  0.38304724  0.40419386  1
  O  O195  1  0.00475877  0.38791708  0.59094857  1
  O  O196  1  0.01182968  0.38815869  0.89539810  1
  O  O197  1  -0.00487435  0.58728319  0.14008256  1
  O  O198  1  0.00344469  0.63070462  0.36568456  1
  O  O199  1  -0.00250108  0.60065465  0.61712759  1
  O  O200  1  -0.00172061  0.62061733  0.87085826  1
  O  O201  1  0.00114082  0.87703934  0.12417093  1
  O  O202  1  0.00036270  0.88144576  0.34207282  1
  O  O203  1  -0.00458880  0.87859842  0.62660854  1
  O  O204  1  0.00014329  0.86321069  0.84129541  1
  O  O205  1  0.25281861  0.10199198  0.13614255  1
  O  O206  1  0.24505026  0.13184425  0.36018442  1
  O  O207  1  0.25170181  0.13637692  0.64037906  1
  O  O208  1  0.25546820  0.11809367  0.84571213  1
  O  O209  1  0.25588461  0.35142315  0.14524441  1
  O  O210  1  0.24420329  0.36258132  0.36142116  1
  O  O211  1  0.25556174  0.36812284  0.66028699  1
  O  O212  1  0.24744542  0.37865201  0.83502771  1
  O  O213  1  0.24856010  0.63545192  0.10958909  1
  O  O214  1  0.24998193  0.61042037  0.39272591  1
  O  O215  1  0.24426464  0.63394962  0.61995609  1
  O  O216  1  0.25736901  0.64120136  0.88789360  1
  O  O217  1  0.24194550  0.87182217  0.09934782  1
  O  O218  1  0.24402636  0.86946863  0.40741968  1
  O  O219  1  0.24659217  0.87378200  0.59098726  1
  O  O220  1  0.24598416  0.86255275  0.87952221  1
  O  O221  1  0.50562171  0.12131585  0.10712159  1
  O  O222  1  0.50912015  0.13511621  0.40382372  1
  O  O223  1  0.51039849  0.08788371  0.61651828  1
  O  O224  1  0.51298738  0.11704954  0.90291786  1
  O  O225  1  0.50303047  0.36311359  0.10822106  1
  O  O226  1  0.50713210  0.37358124  0.40325423  1
  O  O227  1  0.50390803  0.38977147  0.60172057  1
  O  O228  1  0.50638740  0.37022720  0.90067482  1
  O  O229  1  0.50852602  0.61665555  0.11214846  1
  O  O230  1  0.49460921  0.64393485  0.36792116  1
  O  O231  1  0.49069581  0.61504780  0.62494392  1
  O  O232  1  0.50791689  0.62567173  0.90140845  1
  O  O233  1  0.50604187  0.86865447  0.14944498  1
  O  O234  1  0.50359333  0.87404188  0.35916637  1
  O  O235  1  0.51004709  0.88768749  0.65156725  1
  O  O236  1  0.51752513  0.87344657  0.84054335  1
  O  O237  1  0.74437534  0.12612886  0.15747997  1
  O  O238  1  0.75302453  0.13249241  0.35465489  1
  O  O239  1  0.74258953  0.14281036  0.65675395  1
  O  O240  1  0.75260780  0.13594741  0.86120518  1
  O  O241  1  0.73941720  0.36673281  0.15281576  1
  O  O242  1  0.74297278  0.40405884  0.33333112  1
  O  O243  1  0.74403574  0.34435575  0.63062866  1
  O  O244  1  0.75344838  0.39294113  0.86848600  1
  O  O245  1  0.75170895  0.65352973  0.13019118  1
  O  O246  1  0.74355152  0.62632756  0.36974715  1
  O  O247  1  0.75670500  0.64644675  0.62075574  1
  O  O248  1  0.75301681  0.62576098  0.87101341  1
  O  O249  1  0.74906994  0.87882526  0.08619383  1
  O  O250  1  0.74800289  0.85454498  0.38857009  1
  O  O251  1  0.75437058  0.85003356  0.60834095  1
  O  O252  1  0.75415168  0.87470037  0.90194184  1
  O  O253  1  0.12040959  -0.00510848  0.11510609  1
  O  O254  1  0.14674004  -0.00757700  0.33899950  1
  O  O255  1  0.13710952  0.01088807  0.66118962  1
  O  O256  1  0.12072220  -0.00122218  0.84865727  1
  O  O257  1  0.11767552  0.26008930  0.09223990  1
  O  O258  1  0.10992098  0.24513071  0.39466268  1
  O  O259  1  0.11459504  0.24581388  0.60737258  1
  O  O260  1  0.14353798  0.26359414  0.89280037  1
  O  O261  1  0.15762895  0.49346791  0.15072464  1
  O  O262  1  0.11332554  0.50743470  0.36392221  1
  O  O263  1  0.13372965  0.49722909  0.65341330  1
  O  O264  1  0.13536436  0.49893120  0.83581764  1
  O  O265  1  0.11454805  0.74986743  0.10810291  1
  O  O266  1  0.10963041  0.75161100  0.38070398  1
  O  O267  1  0.12528452  0.74888341  0.59957823  1
  O  O268  1  0.12104128  0.74982827  0.87367991  1
  O  O269  1  0.39086642  -0.00237993  0.11118512  1
  O  O270  1  0.38974100  0.00165771  0.37328449  1
  O  O271  1  0.36788635  0.00207200  0.65932708  1
  O  O272  1  0.38800785  0.00089054  0.86961754  1
  O  O273  1  0.38228972  0.23846847  0.12742043  1
  O  O274  1  0.36986900  0.24685148  0.39519185  1
  O  O275  1  0.39739482  0.24087429  0.63061297  1
  O  O276  1  0.39897622  0.24115343  0.86897264  1
  O  O277  1  0.34724745  0.49107254  0.09557821  1
  O  O278  1  0.38422622  0.50192597  0.38039386  1
  O  O279  1  0.35744694  0.50147388  0.62858287  1
  O  O280  1  0.39047396  0.50723743  0.88881602  1
  O  O281  1  0.36857312  0.74566342  0.15117828  1
  O  O282  1  0.35389512  0.74182889  0.33895052  1
  O  O283  1  0.37263110  0.74509870  0.60846680  1
  O  O284  1  0.40656971  0.74828240  0.87434172  1
  O  O285  1  0.62850391  -0.00257631  0.15018541  1
  O  O286  1  0.64262877  -0.00250863  0.37734437  1
  O  O287  1  0.66144254  -0.00471059  0.63634865  1
  O  O288  1  0.64325359  -0.00706241  0.86637416  1
  O  O289  1  0.62987488  0.24258517  0.12390948  1
  O  O290  1  0.63650361  0.25867344  0.38428975  1
  O  O291  1  0.60258045  0.24295700  0.60934267  1
  O  O292  1  0.62937635  0.23691345  0.91049428  1
  O  O293  1  0.64503185  0.50411314  0.15223327  1
  O  O294  1  0.59142812  0.50554485  0.35162970  1
  O  O295  1  0.64704485  0.48971845  0.64460924  1
  O  O296  1  0.61388956  0.50737739  0.86635678  1
  O  O297  1  0.62728324  0.75616813  0.10375467  1
  O  O298  1  0.61877164  0.75202703  0.40420455  1
  O  O299  1  0.61470542  0.75877697  0.60461552  1
  O  O300  1  0.62842378  0.75486677  0.90374293  1
  O  O301  1  0.88041368  -0.00644401  0.11055914  1
  O  O302  1  0.85934287  0.00662416  0.40005431  1
  O  O303  1  0.85747765  -0.01064211  0.61553646  1
  O  O304  1  0.87763790  -0.00253969  0.88883913  1
  O  O305  1  0.87507973  0.25192491  0.14410074  1
  O  O306  1  0.90086855  0.24631388  0.36094330  1
  O  O307  1  0.89116301  0.25537293  0.64235082  1
  O  O308  1  0.88680699  0.26290098  0.86844883  1
  O  O309  1  0.84534013  0.50701807  0.14858732  1
  O  O310  1  0.89117505  0.50962170  0.36515928  1
  O  O311  1  0.84535943  0.50489427  0.62119526  1
  O  O312  1  0.86989119  0.50627997  0.88085457  1
  O  O313  1  0.89136333  0.75295933  0.12366212  1
  O  O314  1  0.87882605  0.75149760  0.35950516  1
  O  O315  1  0.89397448  0.74671256  0.62532185  1
  O  O316  1  0.88789070  0.74845104  0.86588455  1
