# generated using pymatgen
data_Mg32Ti42(Bi17O64)3
_symmetry_space_group_name_H-M   'P 1'
_cell_length_a   15.92854192
_cell_length_b   15.99668004
_cell_length_c   15.92448432
_cell_angle_alpha   90.12675035
_cell_angle_beta   90.12767666
_cell_angle_gamma   90.32711928
_symmetry_Int_Tables_number   1
_chemical_formula_structural   Mg32Ti42(Bi17O64)3
_chemical_formula_sum   'Mg32 Ti42 Bi51 O192'
_cell_volume   4057.53268777
_cell_formula_units_Z   1
loop_
 _symmetry_equiv_pos_site_id
 _symmetry_equiv_pos_as_xyz
  1  'x, y, z'
loop_
 _atom_site_type_symbol
 _atom_site_label
 _atom_site_symmetry_multiplicity
 _atom_site_fract_x
 _atom_site_fract_y
 _atom_site_fract_z
 _atom_site_occupancy
  Mg  Mg0  1  0.62128699  0.12191588  0.37219968  1
  Mg  Mg1  1  0.63016771  0.36490181  0.11831008  1
  Mg  Mg2  1  0.87662375  0.37700215  0.87485459  1
  Mg  Mg3  1  0.87892573  0.12746502  0.38109684  1
  Mg  Mg4  1  0.86687478  0.11071394  0.88084547  1
  Mg  Mg5  1  0.62346759  0.62720450  0.12692465  1
  Mg  Mg6  1  0.12229427  0.11948415  0.13039270  1
  Mg  Mg7  1  0.62245393  0.61037297  0.86180435  1
  Mg  Mg8  1  0.62418365  0.61634496  0.37700482  1
  Mg  Mg9  1  0.12104194  0.11300884  0.61774713  1
  Mg  Mg10  1  0.37146906  0.36763793  0.38477184  1
  Mg  Mg11  1  0.63451854  0.37840332  0.38173402  1
  Mg  Mg12  1  0.87265793  0.62940958  0.87224948  1
  Mg  Mg13  1  0.62090236  0.13318359  0.63156996  1
  Mg  Mg14  1  0.86550989  0.86109252  0.36996513  1
  Mg  Mg15  1  0.38533221  0.12560512  0.12006009  1
  Mg  Mg16  1  0.12805464  0.38334604  0.89073081  1
  Mg  Mg17  1  0.12628382  0.37796190  0.62301436  1
  Mg  Mg18  1  0.12113115  0.62843816  0.87601147  1
  Mg  Mg19  1  0.27440102  0.46624486  0.00008890  1
  Mg  Mg20  1  0.78237314  0.49018179  0.77405256  1
  Mg  Mg21  1  0.79062312  0.24717334  -0.03973373  1
  Mg  Mg22  1  -0.06514471  0.81415325  0.73185399  1
  Mg  Mg23  1  -0.02248313  -0.02673387  0.02329558  1
  Mg  Mg24  1  0.77847730  0.77969731  0.55905119  1
  Mg  Mg25  1  0.73878062  -0.03854861  0.03814704  1
  Mg  Mg26  1  0.23581952  -0.01012541  0.49577922  1
  Mg  Mg27  1  0.51507594  0.22356974  0.52169706  1
  Mg  Mg28  1  0.52750104  0.21395070  -0.00594949  1
  Mg  Mg29  1  -0.04789596  0.75481675  0.55523365  1
  Mg  Mg30  1  0.73103349  0.50322216  -0.04027321  1
  Mg  Mg31  1  0.77284143  0.47127991  0.53396476  1
  Ti  Ti32  1  0.61982238  0.86793493  0.36809884  1
  Ti  Ti33  1  0.12006574  0.11493572  0.36840245  1
  Ti  Ti34  1  0.37282339  0.61935918  0.37967683  1
  Ti  Ti35  1  0.37456058  0.12205505  0.63420792  1
  Ti  Ti36  1  0.36626487  0.87853133  0.63333325  1
  Ti  Ti37  1  0.86607513  0.62872801  0.39909419  1
  Ti  Ti38  1  0.13589625  0.62970098  0.37186909  1
  Ti  Ti39  1  0.13624666  0.37376790  0.37211110  1
  Ti  Ti40  1  0.37489769  0.12449942  0.38740570  1
  Ti  Ti41  1  0.63728750  0.37861115  0.62206139  1
  Ti  Ti42  1  0.87364041  0.38648546  0.39656005  1
  Ti  Ti43  1  0.13004181  0.61988283  0.12432846  1
  Ti  Ti44  1  0.62710978  0.88017841  0.88726203  1
  Ti  Ti45  1  0.63812120  0.60998493  0.61833433  1
  Ti  Ti46  1  0.37185129  0.61971779  0.87149002  1
  Ti  Ti47  1  0.11458420  0.62962873  0.62601900  1
  Ti  Ti48  1  0.86677886  0.10746418  0.11030142  1
  Ti  Ti49  1  0.37228372  0.62687229  0.63272535  1
  Ti  Ti50  1  0.37276557  0.62372629  0.12024395  1
  Ti  Ti51  1  0.87953819  0.36060659  0.11545085  1
  Ti  Ti52  1  0.12588223  0.87092477  0.37552470  1
  Ti  Ti53  1  0.63369085  0.13166598  0.11892746  1
  Ti  Ti54  1  0.38345280  0.36536899  0.88500745  1
  Ti  Ti55  1  0.87139823  0.86554557  0.12831474  1
  Ti  Ti56  1  0.36953587  0.87494178  0.11581944  1
  Ti  Ti57  1  0.37187085  0.88087516  0.38115005  1
  Ti  Ti58  1  0.87027693  0.61699840  0.12460437  1
  Ti  Ti59  1  0.11501588  0.86327161  0.86450000  1
  Ti  Ti60  1  0.86668452  0.87968096  0.88963536  1
  Ti  Ti61  1  0.11613469  0.87906718  0.13181059  1
  Ti  Ti62  1  0.12454796  0.37477265  0.11819542  1
  Ti  Ti63  1  0.61636974  0.86603577  0.13021565  1
  Ti  Ti64  1  0.88576770  0.37452016  0.63504675  1
  Ti  Ti65  1  0.63214781  0.11747567  0.87057136  1
  Ti  Ti66  1  0.36484069  0.35445191  0.62481935  1
  Ti  Ti67  1  0.87448241  0.12357079  0.61699616  1
  Ti  Ti68  1  0.38386146  0.36288844  0.12333197  1
  Ti  Ti69  1  0.36868730  0.87085921  0.87667925  1
  Ti  Ti70  1  0.12228135  0.87028024  0.61805230  1
  Ti  Ti71  1  0.62804474  0.37539301  0.87553363  1
  Ti  Ti72  1  0.38365443  0.11866883  0.88468898  1
  Ti  Ti73  1  0.87513385  0.61080847  0.62628340  1
  Bi  Bi74  1  0.73813513  -0.03672312  0.71690054  1
  Bi  Bi75  1  0.53296021  0.73777321  0.49867898  1
  Bi  Bi76  1  0.51700852  -0.01806513  0.53970266  1
  Bi  Bi77  1  0.20261923  0.00308780  -0.01658040  1
  Bi  Bi78  1  0.49539326  -0.00505645  0.76015350  1
  Bi  Bi79  1  0.26161849  0.76403243  0.23696996  1
  Bi  Bi80  1  0.49069624  0.00951693  0.26499693  1
  Bi  Bi81  1  0.02745745  0.48689351  0.76984484  1
  Bi  Bi82  1  0.75880347  0.72641589  0.75820699  1
  Bi  Bi83  1  0.77281250  0.47674694  0.23684203  1
  Bi  Bi84  1  0.48823228  0.73368361  -0.01803934  1
  Bi  Bi85  1  0.24764017  0.47375532  0.76949809  1
  Bi  Bi86  1  -0.03187666  -0.04688768  0.50496083  1
  Bi  Bi87  1  0.03371956  0.50546538  0.49054522  1
  Bi  Bi88  1  0.52263031  0.48610913  0.23937594  1
  Bi  Bi89  1  0.24000914  0.21301889  0.50762468  1
  Bi  Bi90  1  0.73316772  0.72328189  0.26482434  1
  Bi  Bi91  1  0.27127110  0.48065030  0.23715991  1
  Bi  Bi92  1  0.51223289  0.24108447  0.76303779  1
  Bi  Bi93  1  0.74065219  -0.02551980  0.49519670  1
  Bi  Bi94  1  0.22005681  0.23141306  0.78496918  1
  Bi  Bi95  1  -0.01659308  0.72418892  0.27192589  1
  Bi  Bi96  1  0.53246269  0.49991540  0.01593847  1
  Bi  Bi97  1  0.73414934  0.21188577  0.49747654  1
  Bi  Bi98  1  0.01492354  0.49330904  0.23969007  1
  Bi  Bi99  1  -0.02391718  -0.01084678  0.27284449  1
  Bi  Bi100  1  -0.01559326  0.26285744  0.26996311  1
  Bi  Bi101  1  0.76302654  0.24165302  0.76203562  1
  Bi  Bi102  1  0.73415345  0.01272904  0.25752833  1
  Bi  Bi103  1  0.74845158  0.25449924  0.27038978  1
  Bi  Bi104  1  0.72873018  0.71909695  -0.00428006  1
  Bi  Bi105  1  0.26971105  0.76022285  0.50282944  1
  Bi  Bi106  1  0.23363818  0.73291713  0.73770130  1
  Bi  Bi107  1  0.51899847  0.48008870  0.48942535  1
  Bi  Bi108  1  0.48794090  0.73322536  0.26387026  1
  Bi  Bi109  1  0.21672808  0.00287946  0.74162500  1
  Bi  Bi110  1  0.26770611  0.22626522  0.23548370  1
  Bi  Bi111  1  0.26077814  0.00000072  0.23213174  1
  Bi  Bi112  1  -0.03354370  0.50623044  -0.01771474  1
  Bi  Bi113  1  -0.01115395  0.00669306  0.78526011  1
  Bi  Bi114  1  0.00964030  0.19741683  -0.01124804  1
  Bi  Bi115  1  -0.01421925  0.22285908  0.76054278  1
  Bi  Bi116  1  0.50046043  0.00120820  0.01999276  1
  Bi  Bi117  1  0.01831255  0.23969474  0.51895594  1
  Bi  Bi118  1  -0.00735679  0.73352974  0.01492080  1
  Bi  Bi119  1  0.23453228  0.73406243  -0.00955911  1
  Bi  Bi120  1  0.26810201  0.48909011  0.52158153  1
  Bi  Bi121  1  0.49407729  0.46786563  0.73285874  1
  Bi  Bi122  1  0.22458361  0.23211218  0.00190701  1
  Bi  Bi123  1  0.54784390  0.76347696  0.70871392  1
  Bi  Bi124  1  0.50676841  0.26504926  0.29429801  1
  O  O125  1  0.13581787  0.12448884  0.00093410  1
  O  O126  1  0.15516884  0.13543349  0.25433090  1
  O  O127  1  0.11145767  0.12793716  0.48990434  1
  O  O128  1  0.14753479  0.12508198  0.74053800  1
  O  O129  1  0.16115741  0.40492047  0.01274379  1
  O  O130  1  0.09819886  0.37559751  0.25438635  1
  O  O131  1  0.13930219  0.41140694  0.49230063  1
  O  O132  1  0.12239909  0.38659241  0.75001619  1
  O  O133  1  0.15106060  0.62023458  0.00881467  1
  O  O134  1  0.10461387  0.64454244  0.25237919  1
  O  O135  1  0.13074844  0.61190197  0.49365412  1
  O  O136  1  0.11645550  0.65203404  0.74172275  1
  O  O137  1  0.09881246  0.91111798  -0.01048944  1
  O  O138  1  0.14304376  0.87025434  0.24776322  1
  O  O139  1  0.12110844  0.89493135  0.49917650  1
  O  O140  1  0.15752627  0.85718663  0.74640356  1
  O  O141  1  0.42207012  0.13823671  -0.00473836  1
  O  O142  1  0.35051062  0.10890573  0.25005970  1
  O  O143  1  0.40618855  0.15102941  0.49527385  1
  O  O144  1  0.35880072  0.11719287  0.74778636  1
  O  O145  1  0.35433979  0.36699980  0.00345690  1
  O  O146  1  0.39112676  0.40180454  0.24415713  1
  O  O147  1  0.34148212  0.37090824  0.50789820  1
  O  O148  1  0.38131866  0.38506441  0.75156486  1
  O  O149  1  0.36095932  0.65715218  0.00402396  1
  O  O150  1  0.39356927  0.61814407  0.25136797  1
  O  O151  1  0.35469667  0.64840863  0.49926887  1
  O  O152  1  0.38039710  0.61351393  0.75339022  1
  O  O153  1  0.39509115  0.86545900  0.00057599  1
  O  O154  1  0.35294738  0.88917270  0.25006261  1
  O  O155  1  0.38058003  0.85908426  0.49676202  1
  O  O156  1  0.36845983  0.88967304  0.75135095  1
  O  O157  1  0.59996249  0.10593435  -0.01228316  1
  O  O158  1  0.65482101  0.13144786  0.23553760  1
  O  O159  1  0.61026949  0.13247443  0.49926535  1
  O  O160  1  0.63134421  0.16480025  0.75507210  1
  O  O161  1  0.64349567  0.40872871  -0.00913742  1
  O  O162  1  0.59505903  0.37099206  0.24829358  1
  O  O163  1  0.65252793  0.41477352  0.50603859  1
  O  O164  1  0.59668351  0.36760361  0.74750118  1
  O  O165  1  0.65402068  0.59918474  -0.00259193  1
  O  O166  1  0.60763314  0.65033797  0.25153913  1
  O  O167  1  0.59599978  0.61077344  0.50277656  1
  O  O168  1  0.62347323  0.64180905  0.73732368  1
  O  O169  1  0.61933487  0.91467028  0.00382266  1
  O  O170  1  0.63009148  0.84578330  0.24500642  1
  O  O171  1  0.61782833  0.90454026  0.48519966  1
  O  O172  1  0.66969515  0.85669611  0.77080175  1
  O  O173  1  0.87462892  0.16120886  -0.00319724  1
  O  O174  1  0.86884167  0.09475678  0.22899938  1
  O  O175  1  0.88123104  0.16428267  0.50495014  1
  O  O176  1  0.88335506  0.11477767  0.74631258  1
  O  O177  1  0.85959351  0.34487390  0.00553882  1
  O  O178  1  0.89497330  0.40932917  0.25545641  1
  O  O179  1  0.84150157  0.36364763  0.50631323  1
  O  O180  1  0.88271095  0.41112270  0.74797532  1
  O  O181  1  0.86824750  0.64937666  0.00468523  1
  O  O182  1  0.90288569  0.61113779  0.24022698  1
  O  O183  1  0.85539203  0.66801582  0.50742589  1
  O  O184  1  0.84548876  0.60079660  0.74118332  1
  O  O185  1  0.91286252  0.85692457  -0.00040613  1
  O  O186  1  0.86923772  0.89776539  0.24219805  1
  O  O187  1  0.88517584  0.84426818  0.49568009  1
  O  O188  1  0.86306093  0.91574245  0.76543297  1
  O  O189  1  -0.00556780  0.09497060  0.08715670  1
  O  O190  1  0.00484176  0.14198869  0.34641145  1
  O  O191  1  -0.00197180  0.15038172  0.62654579  1
  O  O192  1  -0.00223591  0.13025977  0.86549577  1
  O  O193  1  0.00118316  0.39803658  0.11550273  1
  O  O194  1  -0.00869008  0.37080507  0.39635288  1
  O  O195  1  -0.00350455  0.36028240  0.60818985  1
  O  O196  1  0.00064708  0.40920034  0.88654313  1
  O  O197  1  0.00572805  0.61496527  0.10207567  1
  O  O198  1  -0.01366579  0.63993103  0.38803164  1
  O  O199  1  -0.00724958  0.64642923  0.60883496  1
  O  O200  1  -0.00490729  0.60188109  0.88760188  1
  O  O201  1  0.00399204  0.90970605  0.13684554  1
  O  O202  1  0.00658874  0.87088431  0.35934523  1
  O  O203  1  0.00891269  0.84314227  0.62961377  1
  O  O204  1  0.00635467  0.86664878  0.82831820  1
  O  O205  1  0.25816144  0.15267452  0.11251341  1
  O  O206  1  0.25609012  0.09891075  0.40685007  1
  O  O207  1  0.25602634  0.09654035  0.58615595  1
  O  O208  1  0.26873909  0.14892112  0.89063488  1
  O  O209  1  0.24916480  0.36987899  0.15610391  1
  O  O210  1  0.24765350  0.39449740  0.35049698  1
  O  O211  1  0.25291355  0.40847851  0.63592632  1
  O  O212  1  0.26043847  0.37122546  0.86223929  1
  O  O213  1  0.24745230  0.65283523  0.14440065  1
  O  O214  1  0.24856904  0.61508693  0.35882909  1
  O  O215  1  0.24865869  0.61542086  0.63918471  1
  O  O216  1  0.25640058  0.66000300  0.86938141  1
  O  O217  1  0.25235265  0.85191703  0.11442502  1
  O  O218  1  0.25081606  0.90455229  0.39443597  1
  O  O219  1  0.25517593  0.90655970  0.59971361  1
  O  O220  1  0.25599334  0.86163618  0.89215728  1
  O  O221  1  0.51433545  0.08548366  0.13497854  1
  O  O222  1  0.49723177  0.12864742  0.34162691  1
  O  O223  1  0.49035183  0.15834878  0.63649503  1
  O  O224  1  0.50195235  0.11570019  0.84003874  1
  O  O225  1  0.49390138  0.39578039  0.10454126  1
  O  O226  1  0.49987117  0.33528964  0.41496978  1
  O  O227  1  0.48308991  0.36986275  0.61968652  1
  O  O228  1  0.49700767  0.41151271  0.88222445  1
  O  O229  1  0.49050832  0.61702433  0.10205116  1
  O  O230  1  0.48900979  0.65739830  0.38473781  1
  O  O231  1  0.48870152  0.66871218  0.62460413  1
  O  O232  1  0.49559345  0.61996731  0.89773727  1
  O  O233  1  0.50217228  0.89352472  0.13239730  1
  O  O234  1  0.49821791  0.85958224  0.35906239  1
  O  O235  1  0.49185095  0.86499611  0.62053544  1
  O  O236  1  0.51305024  0.89659430  0.86313653  1
  O  O237  1  0.74887831  0.12735859  0.09289830  1
  O  O238  1  0.75141064  0.12187520  0.38555374  1
  O  O239  1  0.75115589  0.13041414  0.61368172  1
  O  O240  1  0.74480286  0.15267188  0.88152507  1
  O  O241  1  0.75874091  0.36372461  0.15552293  1
  O  O242  1  0.75572311  0.38153047  0.34227064  1
  O  O243  1  0.74668860  0.40153124  0.64942023  1
  O  O244  1  0.74125263  0.33488864  0.86850964  1
  O  O245  1  0.75703919  0.64681863  0.14370592  1
  O  O246  1  0.75047089  0.61596661  0.35193967  1
  O  O247  1  0.74585031  0.58398401  0.60046988  1
  O  O248  1  0.74563625  0.65001419  0.87272189  1
  O  O249  1  0.75966790  0.85320738  0.10694126  1
  O  O250  1  0.74357262  0.89497057  0.37975455  1
  O  O251  1  0.74666898  0.89145939  0.60166001  1
  O  O252  1  0.75895083  0.89781410  0.92073587  1
  O  O253  1  0.15959025  -0.00395513  0.12262714  1
  O  O254  1  0.10845534  0.00288779  0.35987236  1
  O  O255  1  0.10976423  -0.01171098  0.65019067  1
  O  O256  1  0.13484403  -0.01140428  0.85177686  1
  O  O257  1  0.11638677  0.26017027  0.10740474  1
  O  O258  1  0.13844247  0.26101088  0.38863624  1
  O  O259  1  0.13777080  0.25242561  0.59722809  1
  O  O260  1  0.12923572  0.25801761  0.88304099  1
  O  O261  1  0.13913832  0.50758294  0.15276047  1
  O  O262  1  0.10092157  0.51011285  0.36145282  1
  O  O263  1  0.09952732  0.51360807  0.62729561  1
  O  O264  1  0.14018441  0.50821368  0.85402665  1
  O  O265  1  0.10457556  0.76321491  0.10502562  1
  O  O266  1  0.14216084  0.75593919  0.38223322  1
  O  O267  1  0.15732472  0.75300256  0.60793060  1
  O  O268  1  0.11651830  0.75437075  0.90349051  1
  O  O269  1  0.35533634  -0.00589298  0.11872574  1
  O  O270  1  0.40078153  -0.00072853  0.38279441  1
  O  O271  1  0.40040707  0.00382393  0.62415105  1
  O  O272  1  0.37505398  0.00352096  0.88790213  1
  O  O273  1  0.39407615  0.25387783  0.14779820  1
  O  O274  1  0.36075241  0.24072084  0.35417474  1
  O  O275  1  0.33716542  0.24511636  0.63180636  1
  O  O276  1  0.40365878  0.25573012  0.87264154  1
  O  O277  1  0.34015198  0.51071267  0.10482824  1
  O  O278  1  0.38872140  0.50805434  0.40061292  1
  O  O279  1  0.39089197  0.51658449  0.60744464  1
  O  O280  1  0.34282262  0.51191533  0.89862995  1
  O  O281  1  0.38359383  0.75474952  0.15094777  1
  O  O282  1  0.35294280  0.75801660  0.35652484  1
  O  O283  1  0.34177874  0.76008012  0.63027816  1
  O  O284  1  0.40187545  0.75925804  0.86892675  1
  O  O285  1  0.66200560  -0.01366503  0.13992710  1
  O  O286  1  0.61311364  -0.00382880  0.33519216  1
  O  O287  1  0.59621027  0.00926611  0.64959820  1
  O  O288  1  0.63657443  0.00765858  0.84118754  1
  O  O289  1  0.60254920  0.23941835  0.09530767  1
  O  O290  1  0.63891780  0.25147132  0.36191513  1
  O  O291  1  0.62420169  0.26712441  0.59610726  1
  O  O292  1  0.58707882  0.25917330  0.89123433  1
  O  O293  1  0.62052471  0.50018006  0.13654972  1
  O  O294  1  0.58761006  0.49630739  0.36730038  1
  O  O295  1  0.59129528  0.50019722  0.63192568  1
  O  O296  1  0.67059489  0.48920055  0.84476281  1
  O  O297  1  0.61486561  0.75488466  0.09278051  1
  O  O298  1  0.63651587  0.75452380  0.39529599  1
  O  O299  1  0.64514539  0.73868719  0.60445863  1
  O  O300  1  0.61768875  0.76445895  0.90575129  1
  O  O301  1  0.85622142  -0.00685548  0.08229658  1
  O  O302  1  0.89641527  -0.00094650  0.39189209  1
  O  O303  1  0.87888520  0.01236052  0.59351598  1
  O  O304  1  0.91655517  -0.00633246  0.90529929  1
  O  O305  1  0.89733815  0.25238464  0.15364274  1
  O  O306  1  0.86949308  0.25869805  0.34900152  1
  O  O307  1  0.86922657  0.26037290  0.65844469  1
  O  O308  1  0.87952005  0.25370825  0.84650199  1
  O  O309  1  0.85391925  0.50257323  0.11066855  1
  O  O310  1  0.86381708  0.50466891  0.41505430  1
  O  O311  1  0.88715048  0.50093586  0.59800229  1
  O  O312  1  0.84278233  0.49890008  0.90132661  1
  O  O313  1  0.90850780  0.75410707  0.13592266  1
  O  O314  1  0.86009264  0.73953307  0.34372412  1
  O  O315  1  0.86044560  0.74521957  0.65032047  1
  O  O316  1  0.87051584  0.76532874  0.83954430  1
