# generated using pymatgen
data_Mg32Ti42(Bi17O64)3
_symmetry_space_group_name_H-M   'P 1'
_cell_length_a   15.93988088
_cell_length_b   15.94976789
_cell_length_c   15.95040030
_cell_angle_alpha   90.00983110
_cell_angle_beta   89.92742359
_cell_angle_gamma   90.04167597
_symmetry_Int_Tables_number   1
_chemical_formula_structural   Mg32Ti42(Bi17O64)3
_chemical_formula_sum   'Mg32 Ti42 Bi51 O192'
_cell_volume   4055.18392197
_cell_formula_units_Z   1
loop_
 _symmetry_equiv_pos_site_id
 _symmetry_equiv_pos_as_xyz
  1  'x, y, z'
loop_
 _atom_site_type_symbol
 _atom_site_label
 _atom_site_symmetry_multiplicity
 _atom_site_fract_x
 _atom_site_fract_y
 _atom_site_fract_z
 _atom_site_occupancy
  Mg  Mg0  1  0.87199139  0.62437163  0.61971134  1
  Mg  Mg1  1  0.86674699  0.11800429  0.12119554  1
  Mg  Mg2  1  0.13030475  0.61945295  0.13097410  1
  Mg  Mg3  1  0.62596840  0.37674904  0.62165348  1
  Mg  Mg4  1  0.10589317  0.37744001  0.62626896  1
  Mg  Mg5  1  0.87263306  0.87642964  0.62333211  1
  Mg  Mg6  1  0.62137662  0.87928353  0.61653493  1
  Mg  Mg7  1  0.13900536  0.12906795  0.87170992  1
  Mg  Mg8  1  0.87982887  0.37525273  0.13467908  1
  Mg  Mg9  1  0.37890277  0.12907652  0.37542558  1
  Mg  Mg10  1  0.11877165  0.37048274  0.14532208  1
  Mg  Mg11  1  0.62098892  0.63624565  0.37367218  1
  Mg  Mg12  1  0.87378949  0.87799648  0.10817483  1
  Mg  Mg13  1  0.62756775  0.87102134  0.88576367  1
  Mg  Mg14  1  0.88255908  0.62796296  0.37496100  1
  Mg  Mg15  1  0.37244400  0.87584351  0.37466825  1
  Mg  Mg16  1  0.36738712  0.61882788  0.87860275  1
  Mg  Mg17  1  0.12637015  0.86943379  0.88314140  1
  Mg  Mg18  1  0.13255681  0.87953377  0.62035080  1
  Mg  Mg19  1  0.49802985  0.79757788  0.05845485  1
  Mg  Mg20  1  0.77597944  -0.03965988  0.25832481  1
  Mg  Mg21  1  0.20305709  0.26925196  0.72072534  1
  Mg  Mg22  1  -0.00459289  0.50592232  0.81844329  1
  Mg  Mg23  1  0.74235900  0.02520927  0.04733700  1
  Mg  Mg24  1  0.50559048  0.29934510  0.45682887  1
  Mg  Mg25  1  0.48010830  0.72962180  0.52672186  1
  Mg  Mg26  1  0.71596531  0.01865957  0.49003846  1
  Mg  Mg27  1  0.23166338  0.48976262  0.22768727  1
  Mg  Mg28  1  0.18434540  0.22327938  0.07400578  1
  Mg  Mg29  1  0.02588638  0.22825138  0.76821972  1
  Mg  Mg30  1  0.01892199  0.18417625  0.21277773  1
  Mg  Mg31  1  0.24493239  0.06328418  0.02384555  1
  Ti  Ti32  1  0.37119053  0.64035456  0.12399926  1
  Ti  Ti33  1  0.88587806  0.36114902  0.86020033  1
  Ti  Ti34  1  0.12194310  0.12786146  0.63443524  1
  Ti  Ti35  1  0.87645110  0.12079106  0.37743819  1
  Ti  Ti36  1  0.11639739  0.13525266  0.37800787  1
  Ti  Ti37  1  0.38361317  0.36393670  0.62532430  1
  Ti  Ti38  1  0.62697606  0.63786783  0.12684130  1
  Ti  Ti39  1  0.36691540  0.61814693  0.62453793  1
  Ti  Ti40  1  0.36286174  0.89510051  0.12554278  1
  Ti  Ti41  1  0.64034936  0.37803310  0.37427562  1
  Ti  Ti42  1  0.38043711  0.13797932  0.89150173  1
  Ti  Ti43  1  0.12294061  0.62945666  0.36894089  1
  Ti  Ti44  1  0.13408934  0.36475818  0.87045714  1
  Ti  Ti45  1  0.61055214  0.12038572  0.61477698  1
  Ti  Ti46  1  0.12183640  0.36940665  0.38460858  1
  Ti  Ti47  1  0.61503603  0.12387046  0.37509019  1
  Ti  Ti48  1  0.62285394  0.13187237  0.13549458  1
  Ti  Ti49  1  0.86544477  0.38566598  0.62468099  1
  Ti  Ti50  1  0.37886758  0.12994234  0.62760939  1
  Ti  Ti51  1  0.63037725  0.12369273  0.87760340  1
  Ti  Ti52  1  0.12408864  0.88948639  0.37106460  1
  Ti  Ti53  1  0.61854398  0.63003702  0.62635194  1
  Ti  Ti54  1  0.63379588  0.38753729  0.12836126  1
  Ti  Ti55  1  0.87940008  0.88634202  0.88331371  1
  Ti  Ti56  1  0.37839273  0.86730641  0.62059857  1
  Ti  Ti57  1  0.87778557  0.37413908  0.37160963  1
  Ti  Ti58  1  0.36877320  0.36821343  0.87252042  1
  Ti  Ti59  1  0.88056686  0.87297798  0.38283866  1
  Ti  Ti60  1  0.37825576  0.86885040  0.89274616  1
  Ti  Ti61  1  0.13374931  0.61020656  0.86390038  1
  Ti  Ti62  1  0.36813802  0.39104481  0.38535466  1
  Ti  Ti63  1  0.88619676  0.13126180  0.64966737  1
  Ti  Ti64  1  0.64608793  0.87880245  0.11504364  1
  Ti  Ti65  1  0.37395335  0.63331568  0.38361598  1
  Ti  Ti66  1  0.38226560  0.12847210  0.12873856  1
  Ti  Ti67  1  0.63403327  0.88499461  0.37584880  1
  Ti  Ti68  1  0.88517493  0.61809497  0.13272738  1
  Ti  Ti69  1  0.62729492  0.38195689  0.87868827  1
  Ti  Ti70  1  0.87267461  0.11370174  0.88453678  1
  Ti  Ti71  1  0.13166360  0.87445699  0.11263650  1
  Ti  Ti72  1  0.61976759  0.63464891  0.87910251  1
  Ti  Ti73  1  0.12021881  0.62369262  0.62823364  1
  Bi  Bi74  1  0.22846528  0.76403709  0.23881531  1
  Bi  Bi75  1  0.73338103  0.01428868  0.73217047  1
  Bi  Bi76  1  -0.00922233  0.71711007  -0.01706529  1
  Bi  Bi77  1  0.74859489  0.52871407  0.49236962  1
  Bi  Bi78  1  0.47856112  -0.02088236  0.50532084  1
  Bi  Bi79  1  0.77531079  0.23578110  0.24153827  1
  Bi  Bi80  1  0.52083467  0.50617657  0.51836773  1
  Bi  Bi81  1  -0.03801316  0.73771945  0.76917956  1
  Bi  Bi82  1  0.77665162  0.53810868  0.76972255  1
  Bi  Bi83  1  0.22554628  0.72510056  -0.01357195  1
  Bi  Bi84  1  0.48658575  -0.01119444  0.24989478  1
  Bi  Bi85  1  0.23138695  0.04020469  0.23829577  1
  Bi  Bi86  1  0.27743211  0.00351673  0.78354349  1
  Bi  Bi87  1  0.74512416  0.75809334  0.52252050  1
  Bi  Bi88  1  -0.00826142  -0.00390044  0.53198593  1
  Bi  Bi89  1  0.02781926  -0.02294894  0.76650475  1
  Bi  Bi90  1  0.78443197  0.48315380  0.00574149  1
  Bi  Bi91  1  0.24240854  0.78268979  0.76043057  1
  Bi  Bi92  1  0.26984374  0.44824462  0.03589122  1
  Bi  Bi93  1  0.52896787  0.00563125  0.00275663  1
  Bi  Bi94  1  0.51454812  -0.02281515  0.76733562  1
  Bi  Bi95  1  0.02221738  0.49705944  0.26039506  1
  Bi  Bi96  1  0.74373103  0.78400979  0.75708448  1
  Bi  Bi97  1  0.77717422  0.71469485  -0.01822014  1
  Bi  Bi98  1  0.23647246  0.76795682  0.48789666  1
  Bi  Bi99  1  -0.01540981  0.49803468  0.50959363  1
  Bi  Bi100  1  -0.00285083  0.23736503  0.02241553  1
  Bi  Bi101  1  0.49011517  0.28624793  0.03380764  1
  Bi  Bi102  1  0.48203625  0.49692242  0.77206616  1
  Bi  Bi103  1  0.28671830  0.27752490  0.24047220  1
  Bi  Bi104  1  0.02538861  0.47794030  0.02115124  1
  Bi  Bi105  1  0.45497336  0.49427922  0.22695555  1
  Bi  Bi106  1  0.51974835  0.26759355  0.75148565  1
  Bi  Bi107  1  -0.01335208  0.76860609  0.22967280  1
  Bi  Bi108  1  -0.00234125  0.24724020  0.51243371  1
  Bi  Bi109  1  0.23193309  0.51992491  0.48852775  1
  Bi  Bi110  1  0.48656777  0.74093597  0.27248887  1
  Bi  Bi111  1  -0.02535175  -0.00776764  0.23732394  1
  Bi  Bi112  1  0.00555831  0.75634502  0.53110828  1
  Bi  Bi113  1  0.51459928  0.27236172  0.26197476  1
  Bi  Bi114  1  0.75959145  0.25377226  -0.00150751  1
  Bi  Bi115  1  0.24456486  0.48429944  0.71883249  1
  Bi  Bi116  1  0.75550332  0.76282478  0.27666118  1
  Bi  Bi117  1  0.76777206  0.23272096  0.49402525  1
  Bi  Bi118  1  0.26090023  0.02116627  0.48567003  1
  Bi  Bi119  1  0.49605846  0.52924801  -0.00022407  1
  Bi  Bi120  1  0.24355553  0.25316264  0.51655907  1
  Bi  Bi121  1  0.75098433  0.53036820  0.26583890  1
  Bi  Bi122  1  0.03915920  0.02923815  0.00367046  1
  Bi  Bi123  1  0.73994539  0.26118608  0.73173349  1
  Bi  Bi124  1  0.47761510  0.73535202  0.76729560  1
  O  O125  1  0.13667944  0.13440775  -0.00186815  1
  O  O126  1  0.10374499  0.10554115  0.26165008  1
  O  O127  1  0.14024075  0.15502069  0.50144595  1
  O  O128  1  0.09776781  0.11237785  0.74826092  1
  O  O129  1  0.09909005  0.36217048  -0.01174694  1
  O  O130  1  0.14161128  0.40303848  0.26578415  1
  O  O131  1  0.12041044  0.34617973  0.50235175  1
  O  O132  1  0.14965149  0.39000746  0.74900945  1
  O  O133  1  0.11720344  0.63932851  0.00265689  1
  O  O134  1  0.14201260  0.58297662  0.25674725  1
  O  O135  1  0.13652971  0.63587683  0.49755151  1
  O  O136  1  0.13779293  0.59751628  0.74649995  1
  O  O137  1  0.11889812  0.83400539  0.00617002  1
  O  O138  1  0.15463855  0.88965133  0.25357024  1
  O  O139  1  0.11648566  0.84296913  0.48914293  1
  O  O140  1  0.14545650  0.88673168  0.74554934  1
  O  O141  1  0.36255043  0.14542266  0.00602576  1
  O  O142  1  0.37658233  0.09302481  0.24414484  1
  O  O143  1  0.34052699  0.14008617  0.50693337  1
  O  O144  1  0.37490923  0.09573799  0.74002895  1
  O  O145  1  0.39300322  0.37341965  -0.00883222  1
  O  O146  1  0.33428640  0.40479363  0.26547026  1
  O  O147  1  0.40266758  0.35421898  0.50356188  1
  O  O148  1  0.36515467  0.39590976  0.74963793  1
  O  O149  1  0.39245943  0.62509397  0.00824159  1
  O  O150  1  0.39773150  0.62242613  0.25337910  1
  O  O151  1  0.37427282  0.65312283  0.50031237  1
  O  O152  1  0.38333081  0.60886119  0.74221980  1
  O  O153  1  0.39471190  0.85255110  0.00414322  1
  O  O154  1  0.36520867  0.91243124  0.24426857  1
  O  O155  1  0.41708482  0.84820427  0.49939666  1
  O  O156  1  0.35334440  0.88472974  0.73614252  1
  O  O157  1  0.64329642  0.10932822  -0.00584295  1
  O  O158  1  0.60528215  0.13302196  0.24983641  1
  O  O159  1  0.64541042  0.12880965  0.49825651  1
  O  O160  1  0.61510584  0.09223106  0.74268889  1
  O  O161  1  0.59594884  0.37333003  -0.00149237  1
  O  O162  1  0.64117346  0.35770459  0.24581990  1
  O  O163  1  0.59986815  0.37906113  0.49148670  1
  O  O164  1  0.63730310  0.35867093  0.75650536  1
  O  O165  1  0.59974469  0.62293604  -0.00260238  1
  O  O166  1  0.63784410  0.63240712  0.24291419  1
  O  O167  1  0.61971941  0.59548161  0.49137186  1
  O  O168  1  0.62997917  0.63729428  0.74107647  1
  O  O169  1  0.58660439  0.87216604  0.00584622  1
  O  O170  1  0.67132796  0.88396509  0.23226849  1
  O  O171  1  0.63624182  0.89817805  0.48788983  1
  O  O172  1  0.63474377  0.89676415  0.74702671  1
  O  O173  1  0.83622839  0.09248199  -0.00786551  1
  O  O174  1  0.89537365  0.15955265  0.25207018  1
  O  O175  1  0.82728828  0.09628354  0.48291041  1
  O  O176  1  0.91537495  0.16098017  0.75438066  1
  O  O177  1  0.90118237  0.40568759  -0.01121676  1
  O  O178  1  0.86661736  0.34359185  0.25894300  1
  O  O179  1  0.87088591  0.40640240  0.50135891  1
  O  O180  1  0.85309676  0.34762890  0.74710976  1
  O  O181  1  0.88417963  0.62162686  0.00504941  1
  O  O182  1  0.85360528  0.63854561  0.24474535  1
  O  O183  1  0.87843986  0.58877612  0.49681453  1
  O  O184  1  0.84910967  0.65070008  0.74240100  1
  O  O185  1  0.90719847  0.89987765  -0.01032352  1
  O  O186  1  0.86304740  0.85393624  0.23928839  1
  O  O187  1  0.88221157  0.90058296  0.49171296  1
  O  O188  1  0.86830255  0.84417281  0.74647718  1
  O  O189  1  -0.01027306  0.11882951  0.10415037  1
  O  O190  1  -0.00495113  0.12616249  0.40217355  1
  O  O191  1  -0.00105615  0.12819695  0.59192790  1
  O  O192  1  -0.01063671  0.13111123  0.90897317  1
  O  O193  1  0.00040424  0.41222367  0.14019363  1
  O  O194  1  0.00073150  0.38306801  0.37689210  1
  O  O195  1  -0.01645584  0.39678959  0.61715421  1
  O  O196  1  -0.00164789  0.35749073  0.83650669  1
  O  O197  1  -0.00100542  0.59643600  0.14702261  1
  O  O198  1  0.00808113  0.61487248  0.36404723  1
  O  O199  1  0.00496428  0.60202361  0.61485230  1
  O  O200  1  0.00942704  0.62896584  0.86294138  1
  O  O201  1  0.01121902  0.88401402  0.14918662  1
  O  O202  1  -0.00069110  0.88040348  0.34130723  1
  O  O203  1  0.00216422  0.87542977  0.60903818  1
  O  O204  1  0.00200547  0.86236675  0.84552264  1
  O  O205  1  0.25302161  0.14011770  0.13760255  1
  O  O206  1  0.24105867  0.11164205  0.36183857  1
  O  O207  1  0.23705779  0.16577321  0.64409905  1
  O  O208  1  0.26241005  0.09983237  0.88297348  1
  O  O209  1  0.23861750  0.33452752  0.10988171  1
  O  O210  1  0.25439238  0.37596879  0.41059083  1
  O  O211  1  0.25971770  0.34850428  0.62980635  1
  O  O212  1  0.25022641  0.37800239  0.89031844  1
  O  O213  1  0.25693983  0.66072280  0.12401259  1
  O  O214  1  0.25502735  0.62157524  0.37827862  1
  O  O215  1  0.25288617  0.63788455  0.62424272  1
  O  O216  1  0.24533471  0.60760668  0.89967338  1
  O  O217  1  0.25299923  0.84460028  0.12118168  1
  O  O218  1  0.24600345  0.87599391  0.39904960  1
  O  O219  1  0.25817693  0.85243081  0.59568023  1
  O  O220  1  0.25678056  0.86932700  0.87501465  1
  O  O221  1  0.49823061  0.11071812  0.11257220  1
  O  O222  1  0.50525891  0.10388159  0.38884925  1
  O  O223  1  0.49621141  0.10464052  0.60346408  1
  O  O224  1  0.49648632  0.12268752  0.88839853  1
  O  O225  1  0.50868461  0.37852400  0.13925957  1
  O  O226  1  0.49490672  0.37972054  0.35200568  1
  O  O227  1  0.49922669  0.37299099  0.65438073  1
  O  O228  1  0.50053852  0.36756131  0.85038438  1
  O  O229  1  0.50212567  0.58884028  0.12916488  1
  O  O230  1  0.49721631  0.65909377  0.38820271  1
  O  O231  1  0.49682823  0.62012517  0.60627756  1
  O  O232  1  0.49954503  0.62111560  0.86037557  1
  O  O233  1  0.48740346  0.90541050  0.13643008  1
  O  O234  1  0.51580107  0.88742315  0.34418434  1
  O  O235  1  0.49720690  0.90643788  0.63454205  1
  O  O236  1  0.49119821  0.85786705  0.84636222  1
  O  O237  1  0.74095976  0.12583483  0.13708280  1
  O  O238  1  0.75537066  0.16402046  0.35535611  1
  O  O239  1  0.76717161  0.13401039  0.65424587  1
  O  O240  1  0.74789824  0.11629029  0.84523401  1
  O  O241  1  0.75035898  0.36742264  0.08787390  1
  O  O242  1  0.75076352  0.35284930  0.39193016  1
  O  O243  1  0.74843884  0.34364699  0.61669675  1
  O  O244  1  0.74652267  0.37265738  0.90610485  1
  O  O245  1  0.74271155  0.64455917  0.10050582  1
  O  O246  1  0.75155992  0.61684512  0.37995202  1
  O  O247  1  0.74052570  0.63569033  0.59401556  1
  O  O248  1  0.73991582  0.61458466  0.89434596  1
  O  O249  1  0.74994508  0.88658616  0.07385091  1
  O  O250  1  0.76169386  0.88120233  0.36488463  1
  O  O251  1  0.74637651  0.84812538  0.62562110  1
  O  O252  1  0.75962943  0.86653236  0.87515546  1
  O  O253  1  0.15451520  -0.01446805  0.08786544  1
  O  O254  1  0.11660172  -0.00160446  0.39693794  1
  O  O255  1  0.11982067  0.01004620  0.60582718  1
  O  O256  1  0.10734015  -0.00244258  0.87901580  1
  O  O257  1  0.08113526  0.25472022  0.13550111  1
  O  O258  1  0.12176089  0.25001361  0.35639750  1
  O  O259  1  0.09121141  0.25150021  0.65758889  1
  O  O260  1  0.13638243  0.25180887  0.83521335  1
  O  O261  1  0.16013315  0.49217952  0.11319601  1
  O  O262  1  0.12715806  0.49417570  0.40663010  1
  O  O263  1  0.15187863  0.49853547  0.60707248  1
  O  O264  1  0.10238159  0.49241934  0.87971553  1
  O  O265  1  0.11445424  0.74847945  0.16071853  1
  O  O266  1  0.12861632  0.74389837  0.34747991  1
  O  O267  1  0.10209119  0.73990247  0.63550919  1
  O  O268  1  0.14797497  0.73764613  0.86128789  1
  O  O269  1  0.34049967  0.00206212  0.09287429  1
  O  O270  1  0.37184410  -0.00115482  0.40924990  1
  O  O271  1  0.36188321  -0.00301488  0.58794018  1
  O  O272  1  0.38315588  -0.01303227  0.87687175  1
  O  O273  1  0.39271363  0.24358201  0.15580796  1
  O  O274  1  0.38576634  0.25787129  0.34914722  1
  O  O275  1  0.39620727  0.24372776  0.64218495  1
  O  O276  1  0.37509822  0.24855671  0.85838493  1
  O  O277  1  0.34191846  0.51239582  0.14222509  1
  O  O278  1  0.38489703  0.50699790  0.39369026  1
  O  O279  1  0.36395831  0.49711527  0.60923533  1
  O  O280  1  0.39354762  0.49301714  0.87872196  1
  O  O281  1  0.40994918  0.75096884  0.14088932  1
  O  O282  1  0.36999025  0.75351752  0.34538056  1
  O  O283  1  0.40067292  0.75058402  0.63928553  1
  O  O284  1  0.36514302  0.74677154  0.84898019  1
  O  O285  1  0.63000760  0.00010647  0.10914340  1
  O  O286  1  0.65966047  0.01299025  0.36963373  1
  O  O287  1  0.66318465  0.00935438  0.60838280  1
  O  O288  1  0.60486780  -0.00358831  0.88149175  1
  O  O289  1  0.61524865  0.24582159  0.11403803  1
  O  O290  1  0.59432966  0.25080183  0.38005787  1
  O  O291  1  0.61757998  0.23481005  0.64243893  1
  O  O292  1  0.62407940  0.23999279  0.86870436  1
  O  O293  1  0.64664994  0.49862773  0.12528630  1
  O  O294  1  0.64413359  0.49060624  0.35911867  1
  O  O295  1  0.61480297  0.50330641  0.62223989  1
  O  O296  1  0.61519795  0.49526070  0.86581680  1
  O  O297  1  0.60087971  0.75459131  0.12382746  1
  O  O298  1  0.64199718  0.76596808  0.36889038  1
  O  O299  1  0.60505764  0.74594994  0.58511123  1
  O  O300  1  0.62932165  0.74588808  0.87284082  1
  O  O301  1  0.85671936  -0.00277879  0.15960950  1
  O  O302  1  0.87133277  0.00580316  0.33804750  1
  O  O303  1  0.89587859  0.00970104  0.63836966  1
  O  O304  1  0.88976721  0.00258965  0.84374304  1
  O  O305  1  0.87146356  0.25005476  0.09143798  1
  O  O306  1  0.88554609  0.25091456  0.41544106  1
  O  O307  1  0.88137183  0.24465521  0.59397556  1
  O  O308  1  0.86348994  0.24806219  0.90301623  1
  O  O309  1  0.84802410  0.50390190  0.13143678  1
  O  O310  1  0.86432144  0.48909952  0.34586357  1
  O  O311  1  0.84368096  0.49660798  0.65020114  1
  O  O312  1  0.87785531  0.48491199  0.84328538  1
  O  O313  1  0.90698121  0.74430637  0.11038926  1
  O  O314  1  0.86994669  0.75636299  0.38364088  1
  O  O315  1  0.87764965  0.74826999  0.58778046  1
  O  O316  1  0.88871590  0.75480766  0.88895867  1
