# generated using pymatgen
data_Mg32Ti42(Bi17O64)3
_symmetry_space_group_name_H-M   'P 1'
_cell_length_a   15.91552180
_cell_length_b   15.95658994
_cell_length_c   15.94900183
_cell_angle_alpha   90.00837353
_cell_angle_beta   89.97533566
_cell_angle_gamma   90.08073183
_symmetry_Int_Tables_number   1
_chemical_formula_structural   Mg32Ti42(Bi17O64)3
_chemical_formula_sum   'Mg32 Ti42 Bi51 O192'
_cell_volume   4050.36347527
_cell_formula_units_Z   1
loop_
 _symmetry_equiv_pos_site_id
 _symmetry_equiv_pos_as_xyz
  1  'x, y, z'
loop_
 _atom_site_type_symbol
 _atom_site_label
 _atom_site_symmetry_multiplicity
 _atom_site_fract_x
 _atom_site_fract_y
 _atom_site_fract_z
 _atom_site_occupancy
  Mg  Mg0  1  0.87740876  0.87768616  0.37484650  1
  Mg  Mg1  1  0.13335908  0.37589684  0.12642235  1
  Mg  Mg2  1  0.38270258  0.87930954  0.12454039  1
  Mg  Mg3  1  0.62939079  0.61971080  0.86756636  1
  Mg  Mg4  1  0.37186488  0.36836176  0.38818521  1
  Mg  Mg5  1  0.37147354  0.88337852  0.87490903  1
  Mg  Mg6  1  0.63557498  0.87998063  0.88017500  1
  Mg  Mg7  1  0.62997398  0.37726139  0.36725408  1
  Mg  Mg8  1  0.37888853  0.11287658  0.62159788  1
  Mg  Mg9  1  0.36934391  0.37986470  0.63433897  1
  Mg  Mg10  1  0.87641010  0.37640756  0.37961638  1
  Mg  Mg11  1  0.88018105  0.62347082  0.12174342  1
  Mg  Mg12  1  0.61784327  0.61489182  0.13077293  1
  Mg  Mg13  1  0.12869639  0.12556894  0.12292323  1
  Mg  Mg14  1  0.87195136  0.37277784  0.63244530  1
  Mg  Mg15  1  0.12310867  0.87330887  0.13159180  1
  Mg  Mg16  1  0.62781743  0.12186189  0.38184554  1
  Mg  Mg17  1  0.13112569  0.62632392  0.13042922  1
  Mg  Mg18  1  0.88315613  0.13594502  0.37038620  1
  Mg  Mg19  1  0.53254952  0.24932625  -0.00488146  1
  Mg  Mg20  1  0.54388110  0.31699045  0.51513523  1
  Mg  Mg21  1  0.68650586  0.26426840  0.69529046  1
  Mg  Mg22  1  0.76759144  0.01472972  0.80537921  1
  Mg  Mg23  1  0.25025178  0.24482366  0.18155048  1
  Mg  Mg24  1  -0.04725402  0.29308315  0.24882040  1
  Mg  Mg25  1  -0.05461317  0.26020966  0.53016123  1
  Mg  Mg26  1  0.49717285  0.44854282  0.29111847  1
  Mg  Mg27  1  0.72402234  0.20514240  -0.00223326  1
  Mg  Mg28  1  0.28858813  0.24954063  0.00204335  1
  Mg  Mg29  1  0.25987608  0.78589838  0.48027641  1
  Mg  Mg30  1  0.77226803  0.02088169  0.45871446  1
  Mg  Mg31  1  0.54248878  0.43631899  0.72162396  1
  Ti  Ti32  1  0.12266691  0.62865093  0.86974227  1
  Ti  Ti33  1  0.87512386  0.87076935  0.13068530  1
  Ti  Ti34  1  0.88457606  0.35692321  0.87624773  1
  Ti  Ti35  1  0.85878314  0.12580196  0.64070251  1
  Ti  Ti36  1  0.38658359  0.36661384  0.12661801  1
  Ti  Ti37  1  0.38953159  0.12376412  0.88511819  1
  Ti  Ti38  1  0.38974208  0.12681621  0.11691456  1
  Ti  Ti39  1  0.87797677  0.14053342  0.12398311  1
  Ti  Ti40  1  0.12211509  0.88586613  0.87666255  1
  Ti  Ti41  1  0.13101700  0.62676204  0.38840167  1
  Ti  Ti42  1  0.88356585  0.37785344  0.10834144  1
  Ti  Ti43  1  0.37091042  0.13046490  0.38861870  1
  Ti  Ti44  1  0.64150861  0.36162600  0.87250179  1
  Ti  Ti45  1  0.87654418  0.61439453  0.38093747  1
  Ti  Ti46  1  0.13234792  0.12592378  0.88048623  1
  Ti  Ti47  1  0.37818393  0.87636557  0.36860792  1
  Ti  Ti48  1  0.62794430  0.12992760  0.86149894  1
  Ti  Ti49  1  0.11551047  0.37233332  0.37833897  1
  Ti  Ti50  1  0.63912468  0.87967635  0.37081506  1
  Ti  Ti51  1  0.11919589  0.85550831  0.36581017  1
  Ti  Ti52  1  0.87101506  0.88344934  0.88782078  1
  Ti  Ti53  1  0.88039987  0.62788166  0.88306215  1
  Ti  Ti54  1  0.61759234  0.12759032  0.12428036  1
  Ti  Ti55  1  0.61404081  0.36790529  0.12434056  1
  Ti  Ti56  1  0.38524439  0.36172485  0.87623209  1
  Ti  Ti57  1  0.86088878  0.88769166  0.62157828  1
  Ti  Ti58  1  0.61244988  0.63972278  0.63481980  1
  Ti  Ti59  1  0.62574634  0.11320023  0.61210796  1
  Ti  Ti60  1  0.11984019  0.63054277  0.62369497  1
  Ti  Ti61  1  0.87740857  0.13368926  0.88796898  1
  Ti  Ti62  1  0.35624072  0.63161119  0.61938557  1
  Ti  Ti63  1  0.37474278  0.87326122  0.62363348  1
  Ti  Ti64  1  0.12996265  0.14627079  0.37182672  1
  Ti  Ti65  1  0.62992208  0.86842419  0.62706160  1
  Ti  Ti66  1  0.13393439  0.37322144  0.87400399  1
  Ti  Ti67  1  0.62175505  0.60527847  0.37510346  1
  Ti  Ti68  1  0.36756190  0.61544062  0.37490756  1
  Ti  Ti69  1  0.86710905  0.62868784  0.63082895  1
  Ti  Ti70  1  0.11747076  0.87174235  0.61692578  1
  Ti  Ti71  1  0.37314489  0.61231394  0.13376076  1
  Ti  Ti72  1  0.62519061  0.87477094  0.13084698  1
  Ti  Ti73  1  0.12502541  0.37705966  0.62568791  1
  Bi  Bi74  1  0.47743520  0.74685674  0.49297610  1
  Bi  Bi75  1  0.73680231  0.72271331  0.01670312  1
  Bi  Bi76  1  0.73816364  0.27624523  0.51280449  1
  Bi  Bi77  1  0.00984064  0.49069587  0.75887291  1
  Bi  Bi78  1  0.49425925  0.24946872  0.29426357  1
  Bi  Bi79  1  0.27227936  0.22506311  0.75237702  1
  Bi  Bi80  1  0.46663934  0.72882550  0.78039460  1
  Bi  Bi81  1  0.50952334  -0.03378242  0.76623397  1
  Bi  Bi82  1  0.73334292  0.49944976  0.02892616  1
  Bi  Bi83  1  0.02833339  0.74483599  0.01801068  1
  Bi  Bi84  1  0.25885976  -0.01539161  0.02637910  1
  Bi  Bi85  1  -0.00674786  0.72484321  0.25649694  1
  Bi  Bi86  1  0.03906687  0.25214313  0.01447409  1
  Bi  Bi87  1  0.53060754  -0.01758502  0.50072248  1
  Bi  Bi88  1  -0.02199169  0.75581521  0.50897482  1
  Bi  Bi89  1  0.51988908  -0.01832460  0.00756262  1
  Bi  Bi90  1  0.22546786  0.20741275  0.54313204  1
  Bi  Bi91  1  0.77553652  0.01038902  0.25088243  1
  Bi  Bi92  1  0.26636892  0.74656131  -0.00372741  1
  Bi  Bi93  1  0.48017689  0.49999453  0.53615906  1
  Bi  Bi94  1  0.74843840  0.71858699  0.25995060  1
  Bi  Bi95  1  0.71647483  0.48940385  0.55281206  1
  Bi  Bi96  1  0.29365658  0.52117272  0.78049690  1
  Bi  Bi97  1  0.01738471  0.02004965  0.73423774  1
  Bi  Bi98  1  0.01538266  0.24256303  0.72627684  1
  Bi  Bi99  1  0.01105641  0.00307309  0.02654359  1
  Bi  Bi100  1  0.78464995  0.49923801  0.77498384  1
  Bi  Bi101  1  0.49093682  0.23753264  0.70399327  1
  Bi  Bi102  1  0.24807738  0.47859511  0.50350837  1
  Bi  Bi103  1  0.51617901  0.49214339  -0.04211082  1
  Bi  Bi104  1  0.50189099  0.02466306  0.26547010  1
  Bi  Bi105  1  -0.02538750  0.77165501  0.75834324  1
  Bi  Bi106  1  0.24852883  -0.00237318  0.72846171  1
  Bi  Bi107  1  0.50641014  0.72848148  0.25257731  1
  Bi  Bi108  1  0.24889643  0.47505222  0.25847852  1
  Bi  Bi109  1  0.74432004  0.24387054  0.27839193  1
  Bi  Bi110  1  0.02949887  0.49897545  0.00355256  1
  Bi  Bi111  1  0.01230728  0.01916948  0.26983921  1
  Bi  Bi112  1  0.24047846  -0.01521572  0.46867744  1
  Bi  Bi113  1  0.23498071  0.01992743  0.24776202  1
  Bi  Bi114  1  0.73664017  0.75227426  0.77948972  1
  Bi  Bi115  1  0.48049569  0.71998456  -0.00797164  1
  Bi  Bi116  1  0.02233249  0.49840467  0.25323272  1
  Bi  Bi117  1  0.26978740  0.75947436  0.22972100  1
  Bi  Bi118  1  0.77303497  0.47765134  0.24423414  1
  Bi  Bi119  1  -0.00458367  0.49601046  0.52690183  1
  Bi  Bi120  1  0.28338458  0.50082411  -0.00300364  1
  Bi  Bi121  1  0.75490531  0.74744625  0.48710056  1
  Bi  Bi122  1  -0.01931803  0.04000864  0.50169218  1
  Bi  Bi123  1  0.22155914  0.76726068  0.75318197  1
  Bi  Bi124  1  0.75621670  0.00166776  0.02145578  1
  O  O125  1  0.13087846  0.10575645  -0.00433342  1
  O  O126  1  0.11951640  0.11593485  0.25170185  1
  O  O127  1  0.14175033  0.11421982  0.48817798  1
  O  O128  1  0.09137189  0.13349965  0.76422207  1
  O  O129  1  0.12979317  0.39522393  -0.00591505  1
  O  O130  1  0.12693669  0.39671219  0.25482744  1
  O  O131  1  0.13395742  0.38807923  0.49940843  1
  O  O132  1  0.09636006  0.37367725  0.74896026  1
  O  O133  1  0.11211285  0.61395976  -0.00503815  1
  O  O134  1  0.10011999  0.63256703  0.26103889  1
  O  O135  1  0.12711555  0.60522735  0.50226527  1
  O  O136  1  0.12229386  0.63454494  0.74720414  1
  O  O137  1  0.13864752  0.90045152  -0.00847424  1
  O  O138  1  0.11139622  0.83500532  0.25386210  1
  O  O139  1  0.15997960  0.87569884  0.50581472  1
  O  O140  1  0.10497958  0.84640815  0.74653540  1
  O  O141  1  0.34446249  0.13292374  -0.00266586  1
  O  O142  1  0.40601658  0.13120107  0.23526635  1
  O  O143  1  0.34532965  0.11855221  0.49934783  1
  O  O144  1  0.38851517  0.14797372  0.76066947  1
  O  O145  1  0.33740628  0.37110547  0.00341136  1
  O  O146  1  0.41372530  0.36694094  0.24123000  1
  O  O147  1  0.36854304  0.41044947  0.50604477  1
  O  O148  1  0.40649921  0.38101716  0.76324809  1
  O  O149  1  0.36837372  0.62971180  0.01469858  1
  O  O150  1  0.37588691  0.66177192  0.25502174  1
  O  O151  1  0.37475552  0.60176556  0.49399917  1
  O  O152  1  0.36189566  0.65021599  0.73928703  1
  O  O153  1  0.33567824  0.87653735  -0.00255417  1
  O  O154  1  0.38218376  0.84995038  0.25336926  1
  O  O155  1  0.34243263  0.89075364  0.50204555  1
  O  O156  1  0.40179797  0.85200687  0.74301627  1
  O  O157  1  0.64447649  0.10245695  0.00384820  1
  O  O158  1  0.60011994  0.13469149  0.24296416  1
  O  O159  1  0.65206608  0.08279905  0.50245622  1
  O  O160  1  0.61803044  0.16194019  0.75057588  1
  O  O161  1  0.63523615  0.40453224  -0.00920166  1
  O  O162  1  0.59442747  0.36357995  0.23801528  1
  O  O163  1  0.64941565  0.38447793  0.49066709  1
  O  O164  1  0.61197556  0.34016438  0.76156562  1
  O  O165  1  0.64550575  0.60981137  -0.00252933  1
  O  O166  1  0.61813570  0.64572387  0.25413928  1
  O  O167  1  0.63435174  0.60083410  0.49280257  1
  O  O168  1  0.61556252  0.65781268  0.74621812  1
  O  O169  1  0.64170250  0.91086965  0.00442015  1
  O  O170  1  0.61694547  0.86904889  0.24928687  1
  O  O171  1  0.63348578  0.89309216  0.49761208  1
  O  O172  1  0.59905900  0.85764330  0.74063636  1
  O  O173  1  0.84210607  0.15453613  0.00183070  1
  O  O174  1  0.88979860  0.09949492  0.23919758  1
  O  O175  1  0.89214476  0.14825373  0.50127964  1
  O  O176  1  0.86325554  0.08771477  0.75050109  1
  O  O177  1  0.86880743  0.35268756  -0.00395549  1
  O  O178  1  0.89143155  0.40465504  0.23943903  1
  O  O179  1  0.85912562  0.34528933  0.49871315  1
  O  O180  1  0.88987380  0.39902338  0.75626096  1
  O  O181  1  0.87083768  0.64649481  -0.00570673  1
  O  O182  1  0.88876170  0.62174906  0.25593385  1
  O  O183  1  0.86198046  0.65079160  0.49818317  1
  O  O184  1  0.88508989  0.60757736  0.74380435  1
  O  O185  1  0.84760903  0.86471451  -0.00381948  1
  O  O186  1  0.88563374  0.90177511  0.24369653  1
  O  O187  1  0.86110092  0.84359059  0.50373467  1
  O  O188  1  0.90074289  0.89021034  0.73347413  1
  O  O189  1  -0.00464862  0.14192892  0.09730186  1
  O  O190  1  0.01271338  0.12240552  0.37644435  1
  O  O191  1  -0.01362091  0.11086459  0.63468374  1
  O  O192  1  -0.00971649  0.13150540  0.90211973  1
  O  O193  1  0.00207211  0.33904212  0.12645668  1
  O  O194  1  0.00460433  0.35278759  0.35927616  1
  O  O195  1  -0.00182631  0.36477388  0.59538710  1
  O  O196  1  -0.00087236  0.36907187  0.88603082  1
  O  O197  1  0.00219937  0.66428202  0.12535707  1
  O  O198  1  -0.00582926  0.65570382  0.38841884  1
  O  O199  1  -0.00126411  0.62980118  0.60509945  1
  O  O200  1  -0.00254599  0.64239053  0.86940897  1
  O  O201  1  -0.00710800  0.86108396  0.09691989  1
  O  O202  1  0.00532040  0.84449618  0.39237929  1
  O  O203  1  0.00360203  0.87847390  0.59418351  1
  O  O204  1  -0.00415429  0.86209942  0.87951790  1
  O  O205  1  0.25597538  0.11756158  0.15173212  1
  O  O206  1  0.25208786  0.10948132  0.35516701  1
  O  O207  1  0.25110130  0.12576618  0.65071934  1
  O  O208  1  0.24307281  0.11868924  0.84863136  1
  O  O209  1  0.26244190  0.37383396  0.16300238  1
  O  O210  1  0.24967391  0.40282838  0.37467099  1
  O  O211  1  0.24008675  0.39945161  0.62969084  1
  O  O212  1  0.24523446  0.39822385  0.85380031  1
  O  O213  1  0.25551839  0.61120428  0.14685278  1
  O  O214  1  0.24907700  0.60222264  0.36719948  1
  O  O215  1  0.24462387  0.60552467  0.62419410  1
  O  O216  1  0.24140900  0.60238754  0.87765787  1
  O  O217  1  0.24805553  0.90582238  0.14253395  1
  O  O218  1  0.25268436  0.88044603  0.36533346  1
  O  O219  1  0.24954607  0.87112568  0.65722288  1
  O  O220  1  0.24060665  0.87831365  0.84204061  1
  O  O221  1  0.50323299  0.15424838  0.08781510  1
  O  O222  1  0.49304700  0.12533638  0.38101575  1
  O  O223  1  0.50303233  0.12301473  0.62160842  1
  O  O224  1  0.50310249  0.14656848  0.90151745  1
  O  O225  1  0.50223365  0.34809772  0.08892383  1
  O  O226  1  0.50194697  0.35505117  0.39496946  1
  O  O227  1  0.49850670  0.37993682  0.61291120  1
  O  O228  1  0.49426384  0.35089729  0.91310376  1
  O  O229  1  0.49273437  0.64683434  0.13326841  1
  O  O230  1  0.50311946  0.65314483  0.37622390  1
  O  O231  1  0.49704214  0.64496876  0.61146058  1
  O  O232  1  0.50699821  0.63078814  0.89519728  1
  O  O233  1  0.50691306  0.87027075  0.09552854  1
  O  O234  1  0.49467916  0.86132851  0.39912465  1
  O  O235  1  0.49171628  0.86942335  0.59186817  1
  O  O236  1  0.50694019  0.89283898  0.88676183  1
  O  O237  1  0.74850908  0.10449006  0.13754618  1
  O  O238  1  0.75504330  0.10824834  0.35751560  1
  O  O239  1  0.74189243  0.15058655  0.63704323  1
  O  O240  1  0.74512300  0.12228075  0.86969873  1
  O  O241  1  0.75849189  0.39182592  0.13261675  1
  O  O242  1  0.75127797  0.37982909  0.33433992  1
  O  O243  1  0.74674627  0.35615301  0.63024864  1
  O  O244  1  0.75357943  0.38582116  0.86120868  1
  O  O245  1  0.75192037  0.61522197  0.12541449  1
  O  O246  1  0.74748011  0.60829410  0.35474304  1
  O  O247  1  0.74916598  0.62457818  0.63193470  1
  O  O248  1  0.75634051  0.62096276  0.84973685  1
  O  O249  1  0.74794391  0.90936903  0.13278301  1
  O  O250  1  0.74784180  0.91745225  0.37541565  1
  O  O251  1  0.74721678  0.87392534  0.64050677  1
  O  O252  1  0.75882132  0.89193209  0.84066996  1
  O  O253  1  0.09173633  -0.00106374  0.14001268  1
  O  O254  1  0.12165195  -0.02111989  0.36139472  1
  O  O255  1  0.12823474  -0.01316231  0.65005397  1
  O  O256  1  0.11299655  -0.00069196  0.85304565  1
  O  O257  1  0.15827287  0.25024115  0.09439500  1
  O  O258  1  0.14765096  0.25656490  0.37704029  1
  O  O259  1  0.12186057  0.25638465  0.63030720  1
  O  O260  1  0.13608242  0.25277443  0.88626781  1
  O  O261  1  0.09539388  0.50149040  0.12803065  1
  O  O262  1  0.09915127  0.50300709  0.37377538  1
  O  O263  1  0.09274261  0.49905253  0.63588605  1
  O  O264  1  0.10266718  0.50122437  0.86460521  1
  O  O265  1  0.14944523  0.75320802  0.09218453  1
  O  O266  1  0.15768982  0.74316663  0.40144515  1
  O  O267  1  0.13379617  0.74605974  0.61516088  1
  O  O268  1  0.14055426  0.74764348  0.88371728  1
  O  O269  1  0.39068410  0.00805270  0.10716052  1
  O  O270  1  0.38247238  -0.00439342  0.36066655  1
  O  O271  1  0.36743360  -0.01027844  0.64711620  1
  O  O272  1  0.38666211  0.01089149  0.86757596  1
  O  O273  1  0.35508784  0.24975595  0.11486483  1
  O  O274  1  0.36880793  0.24353042  0.37027518  1
  O  O275  1  0.36280135  0.25258527  0.63580361  1
  O  O276  1  0.34471359  0.25184793  0.88367538  1
  O  O277  1  0.38365156  0.49525407  0.11549683  1
  O  O278  1  0.39630236  0.50876540  0.34153431  1
  O  O279  1  0.39350173  0.51488850  0.64069956  1
  O  O280  1  0.37877170  0.49197204  0.89224872  1
  O  O281  1  0.34604327  0.75396767  0.11555200  1
  O  O282  1  0.36105179  0.74991177  0.40510961  1
  O  O283  1  0.35398563  0.74973904  0.58664069  1
  O  O284  1  0.38872884  0.75706451  0.89185377  1
  O  O285  1  0.59360076  0.00846533  0.13690415  1
  O  O286  1  0.59654037  -0.00428120  0.36605308  1
  O  O287  1  0.60741995  -0.00533520  0.63518540  1
  O  O288  1  0.62592837  0.01216944  0.83811682  1
  O  O289  1  0.64763824  0.25017791  0.09447932  1
  O  O290  1  0.64633552  0.24774649  0.37999128  1
  O  O291  1  0.60933594  0.23840548  0.59179736  1
  O  O292  1  0.63897018  0.24994439  0.91495847  1
  O  O293  1  0.62716131  0.48923929  0.12509936  1
  O  O294  1  0.59633756  0.50004711  0.34869041  1
  O  O295  1  0.61142425  0.51317885  0.64059147  1
  O  O296  1  0.59148731  0.48340745  0.84402322  1
  O  O297  1  0.64108804  0.75968611  0.11350287  1
  O  O298  1  0.65644074  0.76067854  0.37800466  1
  O  O299  1  0.63029384  0.75387454  0.59748757  1
  O  O300  1  0.65707796  0.75444139  0.89201508  1
  O  O301  1  0.88916606  0.00473154  0.09640552  1
  O  O302  1  0.88989088  0.00394011  0.40110872  1
  O  O303  1  0.85415240  0.00247511  0.58270765  1
  O  O304  1  0.86951691  0.00324410  0.89349375  1
  O  O305  1  0.86663619  0.25013781  0.15518246  1
  O  O306  1  0.86686970  0.25340061  0.33612909  1
  O  O307  1  0.89074649  0.24025302  0.64511443  1
  O  O308  1  0.87581271  0.24624160  0.84848830  1
  O  O309  1  0.90095346  0.49295319  0.09679654  1
  O  O310  1  0.89101154  0.50460678  0.39525022  1
  O  O311  1  0.88069887  0.50467957  0.60597709  1
  O  O312  1  0.87543112  0.50710334  0.88097483  1
  O  O313  1  0.85105288  0.76041368  0.14260370  1
  O  O314  1  0.83709505  0.75231457  0.36504613  1
  O  O315  1  0.88383910  0.75100722  0.63844747  1
  O  O316  1  0.86218090  0.75562781  0.85048505  1
