# generated using pymatgen
data_Mg32Ti42(Bi17O64)3
_symmetry_space_group_name_H-M   'P 1'
_cell_length_a   15.95802805
_cell_length_b   16.00458734
_cell_length_c   15.98214222
_cell_angle_alpha   90.04635017
_cell_angle_beta   89.89143098
_cell_angle_gamma   90.04849533
_symmetry_Int_Tables_number   1
_chemical_formula_structural   Mg32Ti42(Bi17O64)3
_chemical_formula_sum   'Mg32 Ti42 Bi51 O192'
_cell_volume   4081.85543185
_cell_formula_units_Z   1
loop_
 _symmetry_equiv_pos_site_id
 _symmetry_equiv_pos_as_xyz
  1  'x, y, z'
loop_
 _atom_site_type_symbol
 _atom_site_label
 _atom_site_symmetry_multiplicity
 _atom_site_fract_x
 _atom_site_fract_y
 _atom_site_fract_z
 _atom_site_occupancy
  Mg  Mg0  1  0.62926616  0.87785208  0.11200744  1
  Mg  Mg1  1  0.87557019  0.87723471  0.37529058  1
  Mg  Mg2  1  0.87210126  0.63067552  0.36923035  1
  Mg  Mg3  1  0.12740141  0.87335700  0.62752966  1
  Mg  Mg4  1  0.36867723  0.38320830  0.63552594  1
  Mg  Mg5  1  0.12740876  0.88393420  0.37732470  1
  Mg  Mg6  1  0.12450297  0.12211380  0.62456379  1
  Mg  Mg7  1  0.87455812  0.11994077  0.62800933  1
  Mg  Mg8  1  0.36788738  0.36926198  0.12730212  1
  Mg  Mg9  1  0.87954093  0.37165126  0.12866219  1
  Mg  Mg10  1  0.87587665  0.88981380  0.87387776  1
  Mg  Mg11  1  0.37544955  0.37777456  0.87797970  1
  Mg  Mg12  1  0.62517020  0.37180288  0.37297057  1
  Mg  Mg13  1  0.64034272  0.36631892  0.12256668  1
  Mg  Mg14  1  0.87289617  0.37975165  0.87446587  1
  Mg  Mg15  1  0.87971345  0.37150406  0.38053322  1
  Mg  Mg16  1  0.37903318  0.87978049  0.61852740  1
  Mg  Mg17  1  0.87501116  0.62795447  0.62890553  1
  Mg  Mg18  1  0.12701799  0.87596314  0.11351580  1
  Mg  Mg19  1  0.53304152  0.25385821  0.21886311  1
  Mg  Mg20  1  0.67196738  0.23872477  0.50780637  1
  Mg  Mg21  1  0.77304778  0.01362823  0.02768778  1
  Mg  Mg22  1  0.75217528  0.69519396  0.50675426  1
  Mg  Mg23  1  0.75542780  0.25210324  0.32246891  1
  Mg  Mg24  1  0.72705291  0.04653353  0.75422239  1
  Mg  Mg25  1  0.00421985  0.01235812  0.73018989  1
  Mg  Mg26  1  0.24756744  0.03057522  0.73448754  1
  Mg  Mg27  1  -0.02092913  0.52530640  0.46588533  1
  Mg  Mg28  1  0.19303961  0.27940543  0.24556435  1
  Mg  Mg29  1  0.51191590  0.68139818  0.51296262  1
  Mg  Mg30  1  0.50476355  0.06274400  0.50273426  1
  Mg  Mg31  1  0.50955437  0.56378460  0.74625015  1
  Ti  Ti32  1  0.62257666  0.38617188  0.62665914  1
  Ti  Ti33  1  0.13348566  0.13586911  0.11938900  1
  Ti  Ti34  1  0.61332746  0.88365068  0.39561904  1
  Ti  Ti35  1  0.37953412  0.89219672  0.39168475  1
  Ti  Ti36  1  0.38201202  0.61605678  0.62785832  1
  Ti  Ti37  1  0.11281081  0.63290783  0.62554910  1
  Ti  Ti38  1  0.87585446  0.10945566  0.86352872  1
  Ti  Ti39  1  0.12528430  0.37942801  0.87524652  1
  Ti  Ti40  1  0.11501328  0.89151336  0.86869449  1
  Ti  Ti41  1  0.11985206  0.38112995  0.11791350  1
  Ti  Ti42  1  0.87502199  0.87975918  0.12899465  1
  Ti  Ti43  1  0.61603599  0.12871171  0.35540551  1
  Ti  Ti44  1  0.39025773  0.62759325  0.12375275  1
  Ti  Ti45  1  0.87400104  0.62863180  0.87416951  1
  Ti  Ti46  1  0.11672967  0.63384360  0.87021544  1
  Ti  Ti47  1  0.63478074  0.62328546  0.88065788  1
  Ti  Ti48  1  0.61666094  0.12025183  0.87885131  1
  Ti  Ti49  1  0.36520884  0.13277468  0.87488320  1
  Ti  Ti50  1  0.88233326  0.63028871  0.13684963  1
  Ti  Ti51  1  0.61839092  0.11846003  0.63610947  1
  Ti  Ti52  1  0.12290976  0.12532826  0.87983809  1
  Ti  Ti53  1  0.63258216  0.63749234  0.13061981  1
  Ti  Ti54  1  0.63111309  0.12312695  0.11081920  1
  Ti  Ti55  1  0.11901226  0.11972535  0.37605765  1
  Ti  Ti56  1  0.62928636  0.38745794  0.87188723  1
  Ti  Ti57  1  0.38003554  0.35058806  0.34388206  1
  Ti  Ti58  1  0.63506101  0.88785458  0.86924800  1
  Ti  Ti59  1  0.63316089  0.61607204  0.37937373  1
  Ti  Ti60  1  0.37093928  0.12272146  0.62065966  1
  Ti  Ti61  1  0.11810353  0.63133212  0.35780134  1
  Ti  Ti62  1  0.37901987  0.12061107  0.36032039  1
  Ti  Ti63  1  0.86118792  0.13667029  0.14047128  1
  Ti  Ti64  1  0.62750617  0.88471608  0.62736075  1
  Ti  Ti65  1  0.63262449  0.63160255  0.63065812  1
  Ti  Ti66  1  0.87238497  0.12562006  0.38003569  1
  Ti  Ti67  1  0.88134776  0.36318957  0.62351395  1
  Ti  Ti68  1  0.85120001  0.87008465  0.61987608  1
  Ti  Ti69  1  0.13224169  0.37650665  0.63820942  1
  Ti  Ti70  1  0.37520661  0.86297043  0.11966137  1
  Ti  Ti71  1  0.39179251  0.60985663  0.87647647  1
  Ti  Ti72  1  0.37104399  0.12968930  0.13379568  1
  Ti  Ti73  1  0.12480701  0.63457896  0.11628052  1
  Bi  Bi74  1  0.76105567  0.49859003  0.02618871  1
  Bi  Bi75  1  0.76457782  0.24409317  -0.04010276  1
  Bi  Bi76  1  0.25717691  0.76913175  0.28452853  1
  Bi  Bi77  1  -0.01763332  0.26775742  -0.01287739  1
  Bi  Bi78  1  0.49957895  0.26030552  0.01228553  1
  Bi  Bi79  1  -0.00348920  0.79089482  0.74133337  1
  Bi  Bi80  1  0.02999784  0.30154520  0.48898597  1
  Bi  Bi81  1  0.20674235  0.50919284  0.47935876  1
  Bi  Bi82  1  0.74546364  -0.01704418  0.27356445  1
  Bi  Bi83  1  0.25924476  0.27080005  -0.00710899  1
  Bi  Bi84  1  0.26813404  0.74190465  -0.02506058  1
  Bi  Bi85  1  0.25639954  0.51160499  0.22405982  1
  Bi  Bi86  1  -0.00677738  0.50606062  0.74289789  1
  Bi  Bi87  1  0.00714687  0.76272787  0.00398081  1
  Bi  Bi88  1  0.02132721  0.23833513  0.74671810  1
  Bi  Bi89  1  0.76050599  0.76617603  0.76633286  1
  Bi  Bi90  1  0.51239015  0.45988316  0.23027912  1
  Bi  Bi91  1  0.76522167  0.46971773  0.49725273  1
  Bi  Bi92  1  0.26289849  0.78208663  0.74045982  1
  Bi  Bi93  1  0.02454984  0.46803105  0.27752552  1
  Bi  Bi94  1  0.22752922  -0.00956302  0.52234940  1
  Bi  Bi95  1  0.50802755  -0.02495886  0.23233618  1
  Bi  Bi96  1  0.24974343  0.25236455  0.45678182  1
  Bi  Bi97  1  -0.00927247  0.22917995  0.24769186  1
  Bi  Bi98  1  -0.00918838  -0.01245331  0.52863071  1
  Bi  Bi99  1  0.24379102  0.52457975  0.74381011  1
  Bi  Bi100  1  0.28332311  0.72822271  0.50517761  1
  Bi  Bi101  1  0.76832175  0.76900047  0.01389897  1
  Bi  Bi102  1  0.77543966  0.47694331  0.26116379  1
  Bi  Bi103  1  0.75701077  0.01950841  0.49585129  1
  Bi  Bi104  1  0.74282848  0.24857759  0.72568387  1
  Bi  Bi105  1  0.26979616  0.25379420  0.74832250  1
  Bi  Bi106  1  0.48522530  0.01431827  0.01320649  1
  Bi  Bi107  1  -0.01613921  0.51222286  -0.00892521  1
  Bi  Bi108  1  -0.02746777  0.74747164  0.49883677  1
  Bi  Bi109  1  0.47891591  0.72851631  0.29548580  1
  Bi  Bi110  1  -0.02188354  0.02965276  0.01155524  1
  Bi  Bi111  1  0.47391515  0.28244444  0.51161691  1
  Bi  Bi112  1  0.50104361  0.27901436  0.75723783  1
  Bi  Bi113  1  0.44848608  -0.02066577  0.76562885  1
  Bi  Bi114  1  0.44620415  0.49382348  0.45751995  1
  Bi  Bi115  1  0.27142440  -0.02803031  -0.03387477  1
  Bi  Bi116  1  0.25957170  0.50827051  -0.01410778  1
  Bi  Bi117  1  0.01269325  -0.00210704  0.24748622  1
  Bi  Bi118  1  0.49953376  0.78921878  -0.03401226  1
  Bi  Bi119  1  0.52735554  0.49585905  0.01774944  1
  Bi  Bi120  1  0.00780167  0.77041332  0.26765017  1
  Bi  Bi121  1  0.49645015  0.77150973  0.72849204  1
  Bi  Bi122  1  0.76815064  0.48993635  0.72987258  1
  Bi  Bi123  1  0.23854586  -0.01737784  0.22533748  1
  Bi  Bi124  1  0.72293085  0.76621964  0.28149060  1
  O  O125  1  0.13300482  0.11271738  0.00395644  1
  O  O126  1  0.12564575  0.16387427  0.25701672  1
  O  O127  1  0.14220307  0.09607417  0.49424067  1
  O  O128  1  0.10020158  0.12113173  0.75871620  1
  O  O129  1  0.15198973  0.37980994  -0.00074398  1
  O  O130  1  0.08921139  0.35069001  0.23796853  1
  O  O131  1  0.14257615  0.37639876  0.51723878  1
  O  O132  1  0.09384725  0.36041450  0.75814143  1
  O  O133  1  0.10945639  0.61134858  -0.00303818  1
  O  O134  1  0.13720621  0.63946200  0.24518818  1
  O  O135  1  0.09370927  0.57990150  0.51252200  1
  O  O136  1  0.14051606  0.63317690  0.75088109  1
  O  O137  1  0.08665751  0.88447732  -0.01331848  1
  O  O138  1  0.15826032  0.86249671  0.24259922  1
  O  O139  1  0.11637741  0.90992357  0.50142839  1
  O  O140  1  0.13999584  0.84865729  0.75478601  1
  O  O141  1  0.36448276  0.08473513  -0.00714763  1
  O  O142  1  0.39872880  0.14836442  0.24711978  1
  O  O143  1  0.37955171  0.09740036  0.50876137  1
  O  O144  1  0.38919985  0.15680582  0.76135815  1
  O  O145  1  0.33709831  0.38862032  0.00339931  1
  O  O146  1  0.42388147  0.33196432  0.24205916  1
  O  O147  1  0.37584803  0.38242029  0.50745933  1
  O  O148  1  0.37963516  0.34338445  0.75632568  1
  O  O149  1  0.37302234  0.59516206  -0.00021358  1
  O  O150  1  0.37309116  0.65591449  0.23645377  1
  O  O151  1  0.38761465  0.63406804  0.50902243  1
  O  O152  1  0.39008825  0.62032974  0.75497184  1
  O  O153  1  0.39031739  0.89890805  -0.00119952  1
  O  O154  1  0.34923500  0.86081391  0.23730501  1
  O  O155  1  0.39193836  0.90797937  0.49881856  1
  O  O156  1  0.37736710  0.85988961  0.75106361  1
  O  O157  1  0.66016518  0.09476881  -0.00161189  1
  O  O158  1  0.59696980  0.14587669  0.24497963  1
  O  O159  1  0.63198651  0.11492921  0.51257593  1
  O  O160  1  0.61722281  0.13130022  0.75872273  1
  O  O161  1  0.62976128  0.39904367  -0.00545513  1
  O  O162  1  0.60220980  0.35636509  0.24548835  1
  O  O163  1  0.63851756  0.36192486  0.51177897  1
  O  O164  1  0.62453788  0.35411211  0.75163226  1
  O  O165  1  0.62914052  0.59561410  -0.00458837  1
  O  O166  1  0.63123253  0.64757483  0.24844233  1
  O  O167  1  0.63389726  0.62853065  0.50033021  1
  O  O168  1  0.61627173  0.62970021  0.74832751  1
  O  O169  1  0.60711269  0.88478633  -0.01567244  1
  O  O170  1  0.64551620  0.88257387  0.24029470  1
  O  O171  1  0.60800362  0.90206425  0.50676636  1
  O  O172  1  0.64533351  0.84553868  0.74543446  1
  O  O173  1  0.87815383  0.13887168  0.02030115  1
  O  O174  1  0.89762411  0.10722206  0.25047340  1
  O  O175  1  0.84566021  0.12890138  0.49545053  1
  O  O176  1  0.89122453  0.07280702  0.75847450  1
  O  O177  1  0.86120866  0.33936368  0.00234921  1
  O  O178  1  0.89605792  0.40666387  0.25360899  1
  O  O179  1  0.85277832  0.36078077  0.50823310  1
  O  O180  1  0.87995734  0.40477711  0.74852843  1
  O  O181  1  0.90170912  0.64534376  -0.01144393  1
  O  O182  1  0.86633198  0.60810935  0.24463136  1
  O  O183  1  0.87621157  0.64974905  0.50186305  1
  O  O184  1  0.87067715  0.58556692  0.75527106  1
  O  O185  1  0.89597184  0.84798086  -0.00310633  1
  O  O186  1  0.84497310  0.88375984  0.24100192  1
  O  O187  1  0.89996333  0.86363432  0.50092193  1
  O  O188  1  0.84650686  0.87459828  0.73965896  1
  O  O189  1  0.01153455  0.14290400  0.12724986  1
  O  O190  1  0.00108987  0.11405218  0.37951586  1
  O  O191  1  -0.00073047  0.08797019  0.62343800  1
  O  O192  1  0.00004242  0.10243979  0.89469122  1
  O  O193  1  0.00549390  0.36539003  0.09152435  1
  O  O194  1  0.00042867  0.40982984  0.40688552  1
  O  O195  1  -0.00595531  0.38903036  0.61278419  1
  O  O196  1  0.00216608  0.38329365  0.90560809  1
  O  O197  1  0.00053613  0.64113786  0.13443842  1
  O  O198  1  0.00453108  0.60095986  0.36871044  1
  O  O199  1  -0.00024674  0.60706035  0.64879017  1
  O  O200  1  0.00171840  0.59109202  0.86036438  1
  O  O201  1  -0.00573812  0.87699561  0.14988835  1
  O  O202  1  0.00276408  0.89051285  0.33688332  1
  O  O203  1  0.00045366  0.91108348  0.64709625  1
  O  O204  1  -0.00021520  0.90849489  0.82873028  1
  O  O205  1  0.25740138  0.11170864  0.14050409  1
  O  O206  1  0.26197138  0.14111792  0.37545932  1
  O  O207  1  0.25668470  0.13484405  0.65139743  1
  O  O208  1  0.24534325  0.15197833  0.87027096  1
  O  O209  1  0.24531863  0.38374570  0.16753822  1
  O  O210  1  0.26479930  0.32430950  0.33998935  1
  O  O211  1  0.24343390  0.36324786  0.65950101  1
  O  O212  1  0.23957580  0.34178639  0.86325641  1
  O  O213  1  0.24603870  0.60517252  0.11386992  1
  O  O214  1  0.22828386  0.63779969  0.41327809  1
  O  O215  1  0.24465590  0.63908378  0.60991207  1
  O  O216  1  0.23954868  0.63824035  0.88599109  1
  O  O217  1  0.25693896  0.90339211  0.10028371  1
  O  O218  1  0.25622590  0.86776191  0.38693732  1
  O  O219  1  0.25444860  0.84399671  0.61810612  1
  O  O220  1  0.23496366  0.84902898  0.89290505  1
  O  O221  1  0.49977121  0.13669771  0.08603223  1
  O  O222  1  0.50376178  0.11528305  0.39035145  1
  O  O223  1  0.50371828  0.10083755  0.62263367  1
  O  O224  1  0.50152297  0.09886025  0.89091368  1
  O  O225  1  0.49741088  0.38124029  0.10461982  1
  O  O226  1  0.49811329  0.38051582  0.39356453  1
  O  O227  1  0.50427569  0.36908371  0.63535458  1
  O  O228  1  0.50688856  0.36970718  0.87239815  1
  O  O229  1  0.50379718  0.63469781  0.11520791  1
  O  O230  1  0.51128359  0.63248262  0.38778036  1
  O  O231  1  0.49874970  0.59449538  0.62320686  1
  O  O232  1  0.50362497  0.58737188  0.87086534  1
  O  O233  1  0.49438865  0.86891814  0.14188028  1
  O  O234  1  0.49927415  0.88539400  0.35582176  1
  O  O235  1  0.50932893  0.88864715  0.65411249  1
  O  O236  1  0.51356325  0.87069063  0.85363881  1
  O  O237  1  0.74722839  0.10864791  0.13792267  1
  O  O238  1  0.75142129  0.12925829  0.34810318  1
  O  O239  1  0.74934931  0.12594124  0.65666188  1
  O  O240  1  0.75821659  0.13160661  0.85350323  1
  O  O241  1  0.75687298  0.40615605  0.13898845  1
  O  O242  1  0.75350170  0.37206775  0.35178274  1
  O  O243  1  0.74901139  0.36662847  0.64573439  1
  O  O244  1  0.74672608  0.34780119  0.87049479  1
  O  O245  1  0.75088229  0.61060453  0.11224996  1
  O  O246  1  0.74674220  0.66083340  0.38333832  1
  O  O247  1  0.74563483  0.65127330  0.62489683  1
  O  O248  1  0.75297032  0.64246594  0.87638176  1
  O  O249  1  0.75599029  0.89295596  0.07854458  1
  O  O250  1  0.74126884  0.87696393  0.37631515  1
  O  O251  1  0.74338227  0.83725995  0.59750421  1
  O  O252  1  0.75009007  0.84393566  0.88166535  1
  O  O253  1  0.12166868  0.00876199  0.15127177  1
  O  O254  1  0.13319030  0.00879343  0.33373517  1
  O  O255  1  0.16524184  -0.00300354  0.64378954  1
  O  O256  1  0.15302554  -0.00037289  0.85923182  1
  O  O257  1  0.15579988  0.25164810  0.11692586  1
  O  O258  1  0.12183505  0.24297633  0.40298227  1
  O  O259  1  0.09973095  0.25106318  0.63045561  1
  O  O260  1  0.09615682  0.24210862  0.87877411  1
  O  O261  1  0.11780451  0.49550303  0.14156911  1
  O  O262  1  0.15005485  0.50580706  0.35706819  1
  O  O263  1  0.13726532  0.49430483  0.65454615  1
  O  O264  1  0.14517175  0.49244326  0.86073290  1
  O  O265  1  0.13384709  0.74723014  0.09978222  1
  O  O266  1  0.10256947  0.75067067  0.37321488  1
  O  O267  1  0.09684803  0.74380070  0.61274265  1
  O  O268  1  0.08315595  0.74392576  0.88045414  1
  O  O269  1  0.40309504  0.00804503  0.13907478  1
  O  O270  1  0.37148935  0.00566133  0.34772469  1
  O  O271  1  0.35783808  0.00456331  0.66200673  1
  O  O272  1  0.33303677  0.01450757  0.83818874  1
  O  O273  1  0.37151235  0.24243015  0.09128671  1
  O  O274  1  0.39085191  0.24407142  0.40471177  1
  O  O275  1  0.38194905  0.24306564  0.60785367  1
  O  O276  1  0.38317251  0.24403436  0.91245330  1
  O  O277  1  0.38226830  0.50551440  0.15338913  1
  O  O278  1  0.36348717  0.47117115  0.35209715  1
  O  O279  1  0.34796555  0.50562104  0.63866596  1
  O  O280  1  0.34131833  0.49950724  0.86684230  1
  O  O281  1  0.36952307  0.75085688  0.09144244  1
  O  O282  1  0.38057385  0.76690984  0.38151493  1
  O  O283  1  0.39532671  0.74273020  0.63160387  1
  O  O284  1  0.38332697  0.72946889  0.89626882  1
  O  O285  1  0.60150760  0.00879058  0.13203311  1
  O  O286  1  0.63332411  0.00615485  0.36350010  1
  O  O287  1  0.65416175  -0.00642721  0.65062104  1
  O  O288  1  0.65499581  -0.00421496  0.84754518  1
  O  O289  1  0.61522115  0.24364787  0.10892871  1
  O  O290  1  0.64210679  0.24177680  0.38745820  1
  O  O291  1  0.63114317  0.23859032  0.62666421  1
  O  O292  1  0.61566705  0.23284460  0.90218988  1
  O  O293  1  0.60486423  0.50559244  0.13480947  1
  O  O294  1  0.63951498  0.50542697  0.36562145  1
  O  O295  1  0.64051082  0.49952066  0.63331515  1
  O  O296  1  0.64444930  0.49631002  0.85186208  1
  O  O297  1  0.64672721  0.74783202  0.10230614  1
  O  O298  1  0.61619730  0.76676168  0.37451213  1
  O  O299  1  0.58395338  0.73944198  0.61078089  1
  O  O300  1  0.60436067  0.73365179  0.88911102  1
  O  O301  1  0.87711409  0.00013466  0.11048979  1
  O  O302  1  0.85232573  0.00248068  0.38549025  1
  O  O303  1  0.85133388  -0.01141752  0.59453723  1
  O  O304  1  0.85873247  0.00536070  0.92706382  1
  O  O305  1  0.86659211  0.24755001  0.16322686  1
  O  O306  1  0.87916951  0.24421698  0.35784206  1
  O  O307  1  0.87763565  0.25030335  0.65504199  1
  O  O308  1  0.88616408  0.23432307  0.87323893  1
  O  O309  1  0.88527649  0.51026552  0.09492838  1
  O  O310  1  0.85970285  0.50522525  0.40510648  1
  O  O311  1  0.84392446  0.49888234  0.60984755  1
  O  O312  1  0.86498736  0.50220812  0.91219842  1
  O  O313  1  0.85575358  0.75132984  0.12985290  1
  O  O314  1  0.90814768  0.75389863  0.36257792  1
  O  O315  1  0.90339370  0.75833958  0.63048690  1
  O  O316  1  0.89219657  0.74046186  0.84024778  1
