# generated using pymatgen
data_Mg32Ti42(Bi17O64)3
_symmetry_space_group_name_H-M   'P 1'
_cell_length_a   15.93751310
_cell_length_b   15.95522371
_cell_length_c   15.86542199
_cell_angle_alpha   90.09166079
_cell_angle_beta   89.79457659
_cell_angle_gamma   90.11538921
_symmetry_Int_Tables_number   1
_chemical_formula_structural   Mg32Ti42(Bi17O64)3
_chemical_formula_sum   'Mg32 Ti42 Bi51 O192'
_cell_volume   4034.32477851
_cell_formula_units_Z   1
loop_
 _symmetry_equiv_pos_site_id
 _symmetry_equiv_pos_as_xyz
  1  'x, y, z'
loop_
 _atom_site_type_symbol
 _atom_site_label
 _atom_site_symmetry_multiplicity
 _atom_site_fract_x
 _atom_site_fract_y
 _atom_site_fract_z
 _atom_site_occupancy
  Mg  Mg0  1  0.37525693  0.13362242  0.12575509  1
  Mg  Mg1  1  0.87136670  0.37467721  0.87215828  1
  Mg  Mg2  1  0.37566563  0.62339745  0.62698175  1
  Mg  Mg3  1  0.87711631  0.62610062  0.12531299  1
  Mg  Mg4  1  0.63085675  0.11203096  0.13167161  1
  Mg  Mg5  1  0.35869739  0.37261345  0.11878463  1
  Mg  Mg6  1  0.37102493  0.62640493  0.11549952  1
  Mg  Mg7  1  0.62683332  0.37121460  0.86816155  1
  Mg  Mg8  1  0.63257363  0.11552990  0.62009458  1
  Mg  Mg9  1  0.12401860  0.86898988  0.37788691  1
  Mg  Mg10  1  0.11910739  0.13155483  0.62761606  1
  Mg  Mg11  1  0.11634429  0.87038083  0.62552256  1
  Mg  Mg12  1  0.37869911  0.87832032  0.62767852  1
  Mg  Mg13  1  0.12785556  0.13326312  0.12146234  1
  Mg  Mg14  1  0.62466467  0.37295750  0.62939013  1
  Mg  Mg15  1  0.87686657  0.37138629  0.37281190  1
  Mg  Mg16  1  0.61598918  0.36971296  0.37765886  1
  Mg  Mg17  1  0.62567709  0.87315125  0.36716684  1
  Mg  Mg18  1  0.88090888  0.86033238  0.37831927  1
  Mg  Mg19  1  0.55275024  0.45095631  0.01368705  1
  Mg  Mg20  1  0.78914989  0.75374031  0.02406103  1
  Mg  Mg21  1  0.00339232  0.27218735  0.49356688  1
  Mg  Mg22  1  0.72475215  0.22683210  0.72374133  1
  Mg  Mg23  1  0.00492963  -0.06261826  0.77669530  1
  Mg  Mg24  1  0.47163886  0.71507211  -0.00331102  1
  Mg  Mg25  1  0.20562618  0.28234961  0.25328241  1
  Mg  Mg26  1  -0.01892423  0.71210964  0.48440052  1
  Mg  Mg27  1  0.00499550  -0.00248722  0.31031045  1
  Mg  Mg28  1  0.52344428  0.22687312  0.54899644  1
  Mg  Mg29  1  0.26195417  0.73727157  0.29172644  1
  Mg  Mg30  1  0.24503083  0.51865710  0.74511868  1
  Mg  Mg31  1  0.30555679  0.21090310  -0.01428892  1
  Ti  Ti32  1  0.87165240  0.14820907  0.87307233  1
  Ti  Ti33  1  0.61911836  0.62340066  0.62387334  1
  Ti  Ti34  1  0.61116358  0.62208185  0.87756066  1
  Ti  Ti35  1  0.87500640  0.12734318  0.38626963  1
  Ti  Ti36  1  0.37022995  0.35932604  0.62315781  1
  Ti  Ti37  1  0.12462288  0.63461985  0.38825323  1
  Ti  Ti38  1  0.37156997  0.12288615  0.61009935  1
  Ti  Ti39  1  0.61640136  0.12581858  0.36802093  1
  Ti  Ti40  1  0.86879351  0.36531376  0.63166966  1
  Ti  Ti41  1  0.12554840  0.12789900  0.38194324  1
  Ti  Ti42  1  0.38572622  0.61578123  0.37805325  1
  Ti  Ti43  1  0.35996260  0.87049942  0.12052867  1
  Ti  Ti44  1  0.12725356  0.37105341  0.87104988  1
  Ti  Ti45  1  0.36511460  0.38024136  0.88330350  1
  Ti  Ti46  1  0.86995394  0.11767605  0.62714534  1
  Ti  Ti47  1  0.62026103  0.63454943  0.10337854  1
  Ti  Ti48  1  0.87765050  0.11722647  0.13018202  1
  Ti  Ti49  1  0.12748526  0.61696105  0.86560235  1
  Ti  Ti50  1  0.38557339  0.87768032  0.87785772  1
  Ti  Ti51  1  0.11049395  0.13821658  0.87470364  1
  Ti  Ti52  1  0.64096316  0.13015798  0.86789691  1
  Ti  Ti53  1  0.62489006  0.62045109  0.36234252  1
  Ti  Ti54  1  0.85759220  0.62750588  0.88407669  1
  Ti  Ti55  1  0.37125207  0.36796166  0.36290796  1
  Ti  Ti56  1  0.11992493  0.38082341  0.63103959  1
  Ti  Ti57  1  0.37097606  0.14111577  0.37358863  1
  Ti  Ti58  1  0.88104413  0.86332686  0.63046242  1
  Ti  Ti59  1  0.37123956  0.61682236  0.87490487  1
  Ti  Ti60  1  0.12864792  0.88747786  0.13503445  1
  Ti  Ti61  1  0.12596104  0.38915851  0.37741043  1
  Ti  Ti62  1  0.86597448  0.86757162  0.87482038  1
  Ti  Ti63  1  0.13217622  0.37473103  0.11400989  1
  Ti  Ti64  1  0.61865030  0.87193659  0.88627368  1
  Ti  Ti65  1  0.88867170  0.87077235  0.12305744  1
  Ti  Ti66  1  0.86870047  0.62406845  0.35907048  1
  Ti  Ti67  1  0.62513612  0.87837109  0.11716056  1
  Ti  Ti68  1  0.87972755  0.37185667  0.13273227  1
  Ti  Ti69  1  0.12361906  0.62258604  0.11224256  1
  Ti  Ti70  1  0.87237375  0.62238766  0.62956954  1
  Ti  Ti71  1  0.12203371  0.62707702  0.62328825  1
  Ti  Ti72  1  0.36507041  0.87562089  0.36298891  1
  Ti  Ti73  1  0.61805363  0.87343529  0.63054228  1
  Bi  Bi74  1  0.74267447  -0.02637366  0.49514297  1
  Bi  Bi75  1  0.22263886  0.26328331  0.50759263  1
  Bi  Bi76  1  0.50339200  0.24501571  0.76375819  1
  Bi  Bi77  1  0.25995432  0.50785882  0.52769397  1
  Bi  Bi78  1  0.48272757  0.49345757  0.21726316  1
  Bi  Bi79  1  0.72600689  0.25336446  0.03088553  1
  Bi  Bi80  1  0.24265077  0.51199507  -0.01296995  1
  Bi  Bi81  1  0.71326082  0.47401791  0.21866259  1
  Bi  Bi82  1  -0.00871402  0.23515783  0.26410313  1
  Bi  Bi83  1  -0.00233755  -0.02506772  0.50860383  1
  Bi  Bi84  1  0.49013763  0.48045374  0.49391235  1
  Bi  Bi85  1  0.52806644  0.28382734  0.21355881  1
  Bi  Bi86  1  0.48594822  0.78009804  0.49061214  1
  Bi  Bi87  1  0.73273251  0.73543953  0.48383460  1
  Bi  Bi88  1  0.48417602  0.48410152  0.73515391  1
  Bi  Bi89  1  -0.00225388  0.23951852  0.02421080  1
  Bi  Bi90  1  0.47762038  0.74107087  0.76180650  1
  Bi  Bi91  1  -0.01941676  0.48755119  0.00434593  1
  Bi  Bi92  1  0.72920588  0.74098448  0.74684263  1
  Bi  Bi93  1  0.02580404  0.77524257  -0.01247961  1
  Bi  Bi94  1  0.74299028  0.24761435  0.49728890  1
  Bi  Bi95  1  0.77100268  -0.02575330  0.26096065  1
  Bi  Bi96  1  0.25755194  0.52673848  0.23975651  1
  Bi  Bi97  1  0.46176393  0.01846914  0.76009492  1
  Bi  Bi98  1  0.22709537  -0.00022901  0.52723387  1
  Bi  Bi99  1  0.23006792  0.76640161  0.74171659  1
  Bi  Bi100  1  0.47676288  0.01070485  0.23133403  1
  Bi  Bi101  1  0.49291528  0.01157088  0.48721587  1
  Bi  Bi102  1  0.03193949  0.73726852  0.24944608  1
  Bi  Bi103  1  0.74133092  0.48083555  -0.01743687  1
  Bi  Bi104  1  0.20634076  -0.02139247  0.76846505  1
  Bi  Bi105  1  -0.00866260  0.73115548  0.74549880  1
  Bi  Bi106  1  0.73307115  -0.01664442  0.74521618  1
  Bi  Bi107  1  0.73347535  0.48568002  0.48723758  1
  Bi  Bi108  1  -0.02693010  0.48987459  0.49130053  1
  Bi  Bi109  1  0.27188679  0.75917953  0.51055352  1
  Bi  Bi110  1  0.23866601  0.04201832  0.25515438  1
  Bi  Bi111  1  0.74330119  0.25059307  0.26200144  1
  Bi  Bi112  1  0.73545848  0.48693696  0.74672994  1
  Bi  Bi113  1  0.23437430  0.77871224  -0.02403145  1
  Bi  Bi114  1  0.25133628  0.03521971  -0.00702294  1
  Bi  Bi115  1  0.73555504  0.75318698  0.22198367  1
  Bi  Bi116  1  0.26383184  0.22909356  0.76891229  1
  Bi  Bi117  1  -0.01512488  -0.00557978  -0.03082317  1
  Bi  Bi118  1  -0.00020340  0.50534351  0.24351658  1
  Bi  Bi119  1  -0.00915022  0.23187319  0.72959632  1
  Bi  Bi120  1  0.50225006  0.03828556  -0.01114233  1
  Bi  Bi121  1  0.49205942  0.26653063  -0.00679498  1
  Bi  Bi122  1  0.48574762  0.75529063  0.22242744  1
  Bi  Bi123  1  -0.01733255  0.48924734  0.75842607  1
  Bi  Bi124  1  0.75193248  0.01032484  -0.00153336  1
  O  O125  1  0.10556539  0.10269231  -0.01255053  1
  O  O126  1  0.15616097  0.16226137  0.25197665  1
  O  O127  1  0.12597146  0.09224090  0.49720702  1
  O  O128  1  0.13819107  0.17227509  0.75225643  1
  O  O129  1  0.15104100  0.40324269  0.00001796  1
  O  O130  1  0.10131570  0.35470458  0.26672737  1
  O  O131  1  0.16145129  0.39037319  0.50489666  1
  O  O132  1  0.10912245  0.36598884  0.74881486  1
  O  O133  1  0.11445505  0.59790236  -0.00122456  1
  O  O134  1  0.14948099  0.66471230  0.26631501  1
  O  O135  1  0.08607543  0.61943379  0.50910783  1
  O  O136  1  0.16218280  0.62443455  0.75173907  1
  O  O137  1  0.12999242  0.86819024  0.00595275  1
  O  O138  1  0.11359365  0.85517201  0.24717676  1
  O  O139  1  0.12569661  0.90721250  0.50403153  1
  O  O140  1  0.12631481  0.86929163  0.75317306  1
  O  O141  1  0.37983615  0.09744154  -0.00314473  1
  O  O142  1  0.37873771  0.13131708  0.25406743  1
  O  O143  1  0.37547313  0.09343892  0.49139582  1
  O  O144  1  0.40622668  0.14614294  0.72896704  1
  O  O145  1  0.33722493  0.40090096  -0.00911737  1
  O  O146  1  0.39562535  0.35669574  0.25264964  1
  O  O147  1  0.36150135  0.40371171  0.50817617  1
  O  O148  1  0.40510566  0.35514131  0.74547300  1
  O  O149  1  0.39709406  0.61212810  -0.01104547  1
  O  O150  1  0.34211739  0.64128882  0.26129232  1
  O  O151  1  0.38474878  0.58532122  0.49567486  1
  O  O152  1  0.36363078  0.65644142  0.75299338  1
  O  O153  1  0.36244738  0.88632894  0.00018145  1
  O  O154  1  0.36302391  0.82979874  0.24818174  1
  O  O155  1  0.37530197  0.87648779  0.49060778  1
  O  O156  1  0.39593366  0.85510713  0.75351007  1
  O  O157  1  0.61939779  0.15176781  -0.01012442  1
  O  O158  1  0.63134648  0.09094066  0.25927353  1
  O  O159  1  0.62548643  0.17941480  0.48938546  1
  O  O160  1  0.65801906  0.10755309  0.74787033  1
  O  O161  1  0.64761421  0.36675116  -0.00445047  1
  O  O162  1  0.60244861  0.39784055  0.25016594  1
  O  O163  1  0.65364782  0.36320032  0.50345409  1
  O  O164  1  0.60852553  0.41714832  0.75100885  1
  O  O165  1  0.58526990  0.65937541  -0.00461738  1
  O  O166  1  0.64611633  0.60966053  0.25113270  1
  O  O167  1  0.61880141  0.65192665  0.50943111  1
  O  O168  1  0.65038558  0.61228113  0.75424684  1
  O  O169  1  0.61852283  0.85024201  -0.00119197  1
  O  O170  1  0.65487548  0.88208646  0.24084973  1
  O  O171  1  0.65400764  0.86087811  0.50753271  1
  O  O172  1  0.61745735  0.89851792  0.74817903  1
  O  O173  1  0.89831188  0.10489618  -0.00545899  1
  O  O174  1  0.87089926  0.15607341  0.24524567  1
  O  O175  1  0.87591953  0.10456536  0.50067631  1
  O  O176  1  0.85461412  0.16771038  0.74840234  1
  O  O177  1  0.86817678  0.40653191  -0.00048954  1
  O  O178  1  0.90605581  0.35063967  0.24661331  1
  O  O179  1  0.86183629  0.40174497  0.51284217  1
  O  O180  1  0.90616465  0.36553409  0.74696222  1
  O  O181  1  0.88787528  0.60104647  -0.00475543  1
  O  O182  1  0.84519834  0.64206330  0.25115470  1
  O  O183  1  0.89736506  0.61601839  0.51594341  1
  O  O184  1  0.86740658  0.66516422  0.75760818  1
  O  O185  1  0.87083828  0.90367366  0.00092092  1
  O  O186  1  0.85957891  0.86434264  0.24295113  1
  O  O187  1  0.87696935  0.89184134  0.51407183  1
  O  O188  1  0.89571680  0.85234719  0.75862797  1
  O  O189  1  -0.00215554  0.14206384  0.13345206  1
  O  O190  1  0.00699954  0.11466546  0.35561934  1
  O  O191  1  -0.01067315  0.11872837  0.64470849  1
  O  O192  1  -0.00787811  0.15190300  0.85174551  1
  O  O193  1  0.00134165  0.37328621  0.09494015  1
  O  O194  1  0.00995216  0.37772854  0.41693574  1
  O  O195  1  0.00904466  0.40540001  0.61034248  1
  O  O196  1  0.01167718  0.40981269  0.88592572  1
  O  O197  1  0.00565277  0.61721265  0.16016881  1
  O  O198  1  -0.00389554  0.61603206  0.34236081  1
  O  O199  1  0.00417512  0.61237875  0.66405428  1
  O  O200  1  0.01301231  0.61664947  0.84929798  1
  O  O201  1  0.00372942  0.88524381  0.11388414  1
  O  O202  1  -0.00124899  0.90244051  0.38707955  1
  O  O203  1  -0.00467975  0.91070676  0.64071504  1
  O  O204  1  -0.00569156  0.86579953  0.88758297  1
  O  O205  1  0.25122894  0.13493828  0.08442017  1
  O  O206  1  0.25216421  0.12453786  0.38070648  1
  O  O207  1  0.25860039  0.14703688  0.61155326  1
  O  O208  1  0.23802198  0.14289078  0.89138878  1
  O  O209  1  0.23800264  0.36294626  0.15932609  1
  O  O210  1  0.24438093  0.35073290  0.35805796  1
  O  O211  1  0.25615679  0.33185182  0.63959936  1
  O  O212  1  0.25176838  0.34806617  0.84720546  1
  O  O213  1  0.24143651  0.61457033  0.11721578  1
  O  O214  1  0.23840619  0.64363268  0.40519161  1
  O  O215  1  0.24337624  0.63969339  0.59776341  1
  O  O216  1  0.25868670  0.64260648  0.89719889  1
  O  O217  1  0.24778646  0.85391346  0.12453852  1
  O  O218  1  0.24995427  0.83743642  0.37278128  1
  O  O219  1  0.25092858  0.85371897  0.62777036  1
  O  O220  1  0.26431711  0.84963186  0.86230370  1
  O  O221  1  0.50230659  0.09989340  0.12390339  1
  O  O222  1  0.49863881  0.11155064  0.38245489  1
  O  O223  1  0.50878924  0.10398091  0.58929669  1
  O  O224  1  0.51821818  0.11237304  0.86134927  1
  O  O225  1  0.49237297  0.39518951  0.11171458  1
  O  O226  1  0.48767707  0.38223268  0.39689695  1
  O  O227  1  0.49622563  0.40634339  0.61433756  1
  O  O228  1  0.49304322  0.38530836  0.91274231  1
  O  O229  1  0.50166671  0.61582406  0.14719540  1
  O  O230  1  0.50082159  0.61473003  0.35888157  1
  O  O231  1  0.50755420  0.59792511  0.64005394  1
  O  O232  1  0.50038783  0.61388459  0.84288104  1
  O  O233  1  0.50509622  0.88497323  0.15253733  1
  O  O234  1  0.49532313  0.86726177  0.37073817  1
  O  O235  1  0.50816539  0.88529379  0.60161413  1
  O  O236  1  0.50400723  0.90412570  0.88255003  1
  O  O237  1  0.75824198  0.12216234  0.10037954  1
  O  O238  1  0.75594264  0.15226365  0.37846157  1
  O  O239  1  0.75335349  0.16487362  0.61234883  1
  O  O240  1  0.75878931  0.11311852  0.89404568  1
  O  O241  1  0.76052015  0.36615185  0.14319171  1
  O  O242  1  0.75028285  0.36101392  0.34808812  1
  O  O243  1  0.75604789  0.34763969  0.66329279  1
  O  O244  1  0.74840766  0.40660917  0.86278094  1
  O  O245  1  0.73986158  0.66031785  0.09922499  1
  O  O246  1  0.75026925  0.61689803  0.40125791  1
  O  O247  1  0.75980499  0.65601938  0.62199443  1
  O  O248  1  0.74443176  0.62009557  0.89516014  1
  O  O249  1  0.74937529  0.84491954  0.10739985  1
  O  O250  1  0.75645533  0.89362286  0.37779178  1
  O  O251  1  0.76239485  0.85479647  0.65298358  1
  O  O252  1  0.74917684  0.87251853  0.86195881  1
  O  O253  1  0.14624123  -0.00006849  0.14035044  1
  O  O254  1  0.13192300  0.00770325  0.33894276  1
  O  O255  1  0.15328778  0.00751836  0.64457160  1
  O  O256  1  0.09430563  0.02097440  0.83304400  1
  O  O257  1  0.11401627  0.25966247  0.10489147  1
  O  O258  1  0.11111312  0.24326416  0.41181151  1
  O  O259  1  0.10342427  0.25942953  0.58863185  1
  O  O260  1  0.10873459  0.26256899  0.89881939  1
  O  O261  1  0.11585876  0.49686892  0.15097736  1
  O  O262  1  0.12734563  0.50442396  0.36614402  1
  O  O263  1  0.15876338  0.49711225  0.64140630  1
  O  O264  1  0.16877293  0.49919816  0.86061931  1
  O  O265  1  0.10592038  0.73837858  0.11345952  1
  O  O266  1  0.08183821  0.74444709  0.40147130  1
  O  O267  1  0.11193619  0.74238287  0.63904539  1
  O  O268  1  0.12599854  0.73602738  0.89490512  1
  O  O269  1  0.36661362  -0.01375232  0.14938322  1
  O  O270  1  0.36140541  -0.01353604  0.34338290  1
  O  O271  1  0.36588043  0.00799516  0.64469980  1
  O  O272  1  0.36414633  -0.00718755  0.85118269  1
  O  O273  1  0.38530131  0.25345645  0.08036576  1
  O  O274  1  0.37514883  0.25020532  0.39608644  1
  O  O275  1  0.40735420  0.25142291  0.59199526  1
  O  O276  1  0.38630950  0.25879265  0.89774819  1
  O  O277  1  0.36048127  0.50110837  0.15046276  1
  O  O278  1  0.35591800  0.49636515  0.34914895  1
  O  O279  1  0.33658844  0.49577032  0.65147907  1
  O  O280  1  0.35019892  0.50148067  0.84388170  1
  O  O281  1  0.40887605  0.75205837  0.10335472  1
  O  O282  1  0.38226487  0.73341848  0.40422578  1
  O  O283  1  0.39018470  0.74546466  0.59082796  1
  O  O284  1  0.41585462  0.75288870  0.88989240  1
  O  O285  1  0.64034004  -0.00914905  0.09357335  1
  O  O286  1  0.62951854  0.01264048  0.41830411  1
  O  O287  1  0.65917067  -0.00920611  0.61603168  1
  O  O288  1  0.64573603  -0.00242686  0.89844146  1
  O  O289  1  0.64006015  0.23966763  0.14333444  1
  O  O290  1  0.61386964  0.24685564  0.32880981  1
  O  O291  1  0.59279787  0.24953355  0.65346534  1
  O  O292  1  0.64770065  0.24603352  0.83538158  1
  O  O293  1  0.63763399  0.51399515  0.10308372  1
  O  O294  1  0.62573207  0.50288899  0.39929376  1
  O  O295  1  0.65896685  0.50954563  0.60717763  1
  O  O296  1  0.61557811  0.51173094  0.91493464  1
  O  O297  1  0.60842349  0.74912429  0.14854101  1
  O  O298  1  0.64427082  0.74214258  0.36831142  1
  O  O299  1  0.62032632  0.75034308  0.65111561  1
  O  O300  1  0.61459927  0.75420255  0.84946719  1
  O  O301  1  0.87136636  0.00264652  0.14421644  1
  O  O302  1  0.87821091  0.01444862  0.34570921  1
  O  O303  1  0.84592782  0.00951277  0.64629667  1
  O  O304  1  0.89942016  -0.00760171  0.85664063  1
  O  O305  1  0.87537085  0.25323911  0.09870641  1
  O  O306  1  0.91079399  0.24492129  0.39430361  1
  O  O307  1  0.90945482  0.26265027  0.59807179  1
  O  O308  1  0.86245049  0.25411304  0.90397905  1
  O  O309  1  0.88664703  0.49452881  0.14808750  1
  O  O310  1  0.88215664  0.50137561  0.37439768  1
  O  O311  1  0.86540949  0.50748225  0.65425678  1
  O  O312  1  0.87402702  0.51435875  0.84185381  1
  O  O313  1  0.89017247  0.75593155  0.10283555  1
  O  O314  1  0.88408043  0.73692448  0.40202127  1
  O  O315  1  0.91987164  0.75288083  0.61350081  1
  O  O316  1  0.85953268  0.75102164  0.91447929  1
