# generated using pymatgen
data_Mg32Ti42(Bi17O64)3
_symmetry_space_group_name_H-M   'P 1'
_cell_length_a   15.96852132
_cell_length_b   15.95357542
_cell_length_c   15.93880309
_cell_angle_alpha   89.91374915
_cell_angle_beta   89.87964316
_cell_angle_gamma   89.93537691
_symmetry_Int_Tables_number   1
_chemical_formula_structural   Mg32Ti42(Bi17O64)3
_chemical_formula_sum   'Mg32 Ti42 Bi51 O192'
_cell_volume   4060.47379855
_cell_formula_units_Z   1
loop_
 _symmetry_equiv_pos_site_id
 _symmetry_equiv_pos_as_xyz
  1  'x, y, z'
loop_
 _atom_site_type_symbol
 _atom_site_label
 _atom_site_symmetry_multiplicity
 _atom_site_fract_x
 _atom_site_fract_y
 _atom_site_fract_z
 _atom_site_occupancy
  Mg  Mg0  1  0.12429315  0.37750736  0.13126570  1
  Mg  Mg1  1  0.61221574  0.37999758  0.87526872  1
  Mg  Mg2  1  0.11953918  0.37699752  0.62693615  1
  Mg  Mg3  1  0.12639118  0.12238516  0.11938524  1
  Mg  Mg4  1  0.87082037  0.62346354  0.13087471  1
  Mg  Mg5  1  0.86930036  0.12921982  0.87596713  1
  Mg  Mg6  1  0.11982313  0.87434247  0.10982986  1
  Mg  Mg7  1  0.13247824  0.12495252  0.37841488  1
  Mg  Mg8  1  0.86405236  0.36730902  0.87025036  1
  Mg  Mg9  1  0.87203692  0.11995258  0.12964508  1
  Mg  Mg10  1  0.38420325  0.87454823  0.12934786  1
  Mg  Mg11  1  0.38269201  0.62142706  0.12037490  1
  Mg  Mg12  1  0.87120235  0.12293146  0.37910186  1
  Mg  Mg13  1  0.37781636  0.86512149  0.88119195  1
  Mg  Mg14  1  0.62605074  0.14194200  0.62055835  1
  Mg  Mg15  1  0.61794603  0.37192676  0.12293456  1
  Mg  Mg16  1  0.61474518  0.61861522  0.36273944  1
  Mg  Mg17  1  0.61733173  0.12350550  0.12778273  1
  Mg  Mg18  1  0.62629608  0.88591730  0.38473189  1
  Mg  Mg19  1  0.70058594  0.28770199  0.49266090  1
  Mg  Mg20  1  0.70449656  0.24335449  0.81607960  1
  Mg  Mg21  1  0.43134261  0.76819557  0.69671559  1
  Mg  Mg22  1  0.28271827  -0.06697545  0.70704922  1
  Mg  Mg23  1  0.70250314  0.00646212  0.54277141  1
  Mg  Mg24  1  0.50233295  0.50141444  0.25287917  1
  Mg  Mg25  1  0.75533557  0.69860375  0.02865445  1
  Mg  Mg26  1  0.68992531  0.23924089  -0.01618093  1
  Mg  Mg27  1  0.54738287  0.77717488  0.26120406  1
  Mg  Mg28  1  0.55631594  0.51677190  0.55639071  1
  Mg  Mg29  1  0.30743960  0.80843860  0.51926595  1
  Mg  Mg30  1  0.51082669  0.19026505  -0.02048778  1
  Mg  Mg31  1  0.71889927  0.68283011  0.51273514  1
  Ti  Ti32  1  0.12633350  0.86681965  0.62142566  1
  Ti  Ti33  1  0.37788285  0.11798430  0.11973694  1
  Ti  Ti34  1  0.86964358  0.61909274  0.88299540  1
  Ti  Ti35  1  0.87073737  0.61742081  0.37589641  1
  Ti  Ti36  1  0.12558126  0.61668984  0.62094275  1
  Ti  Ti37  1  0.11999241  0.87992851  0.87581351  1
  Ti  Ti38  1  0.11378005  0.37965777  0.86952521  1
  Ti  Ti39  1  0.12108954  0.36936168  0.36835316  1
  Ti  Ti40  1  0.62750027  0.13173209  0.38334770  1
  Ti  Ti41  1  0.36804013  0.61630310  0.59331585  1
  Ti  Ti42  1  0.62797797  0.87119621  0.62874981  1
  Ti  Ti43  1  0.36994390  0.11804483  0.37224531  1
  Ti  Ti44  1  0.87200974  0.37080838  0.13126372  1
  Ti  Ti45  1  0.36988331  0.36970526  0.36829745  1
  Ti  Ti46  1  0.37055417  0.63629358  0.88134171  1
  Ti  Ti47  1  0.14038278  0.86427116  0.38454453  1
  Ti  Ti48  1  0.38761421  0.38126880  0.60985166  1
  Ti  Ti49  1  0.37825333  0.12783797  0.64004719  1
  Ti  Ti50  1  0.38177614  0.37020080  0.86625484  1
  Ti  Ti51  1  0.62970355  0.86033733  0.86758003  1
  Ti  Ti52  1  0.63115215  0.88516590  0.12820291  1
  Ti  Ti53  1  0.62662537  0.62503507  0.13162320  1
  Ti  Ti54  1  0.87744929  0.36828793  0.37170192  1
  Ti  Ti55  1  0.14052728  0.62257000  0.37673914  1
  Ti  Ti56  1  0.38046608  0.37247460  0.11897887  1
  Ti  Ti57  1  0.86500952  0.88268912  0.61281250  1
  Ti  Ti58  1  0.87132656  0.35210084  0.62938642  1
  Ti  Ti59  1  0.87121820  0.87243379  0.37841115  1
  Ti  Ti60  1  0.85983693  0.87837790  0.86983583  1
  Ti  Ti61  1  0.63386586  0.62999797  0.88746953  1
  Ti  Ti62  1  0.12545592  0.62471790  0.11085334  1
  Ti  Ti63  1  0.11137981  0.61649952  0.87175834  1
  Ti  Ti64  1  0.87868190  0.62881091  0.61810952  1
  Ti  Ti65  1  0.86726784  0.11912248  0.61826596  1
  Ti  Ti66  1  0.13092585  0.11518314  0.88071468  1
  Ti  Ti67  1  0.85831658  0.87342172  0.12613802  1
  Ti  Ti68  1  0.60544906  0.38385059  0.36660722  1
  Ti  Ti69  1  0.38151815  0.62088227  0.36255907  1
  Ti  Ti70  1  0.12354759  0.12046860  0.62758285  1
  Ti  Ti71  1  0.38686729  0.85914344  0.36220281  1
  Ti  Ti72  1  0.36465691  0.11673192  0.87250261  1
  Ti  Ti73  1  0.62206319  0.36381553  0.64153802  1
  Bi  Bi74  1  -0.00332155  0.48004719  0.49034788  1
  Bi  Bi75  1  0.02898874  0.75237747  0.23903011  1
  Bi  Bi76  1  -0.02029009  -0.00906463  0.73926290  1
  Bi  Bi77  1  0.47381057  -0.03338089  0.74808914  1
  Bi  Bi78  1  0.49436909  0.24392112  0.23476708  1
  Bi  Bi79  1  -0.00084605  0.73177463  0.47550236  1
  Bi  Bi80  1  0.24129920  0.47459233  0.48417892  1
  Bi  Bi81  1  -0.02944142  0.24145458  0.01515472  1
  Bi  Bi82  1  0.52818599  0.71676940  0.50753143  1
  Bi  Bi83  1  -0.00897544  -0.01986065  0.23057751  1
  Bi  Bi84  1  0.26245277  0.74204535  0.22790196  1
  Bi  Bi85  1  0.00329820  0.21323094  0.24911696  1
  Bi  Bi86  1  0.24899179  0.23556507  0.52420375  1
  Bi  Bi87  1  0.26829089  -0.01964961  -0.01049975  1
  Bi  Bi88  1  0.49789557  0.00999449  0.26333654  1
  Bi  Bi89  1  -0.03143398  0.00296845  -0.01115497  1
  Bi  Bi90  1  0.50624889  0.50341490  -0.00799817  1
  Bi  Bi91  1  0.24085908  0.23481117  0.23285222  1
  Bi  Bi92  1  0.47977469  0.53672821  0.76097074  1
  Bi  Bi93  1  0.23614964  0.00286228  0.50647321  1
  Bi  Bi94  1  0.71822106  0.03508234  0.75131951  1
  Bi  Bi95  1  0.22011585  0.74095524  0.75836810  1
  Bi  Bi96  1  -0.01498462  0.74930890  0.74203405  1
  Bi  Bi97  1  0.74068294  0.46234000  -0.01656375  1
  Bi  Bi98  1  -0.00208557  -0.01040379  0.46780033  1
  Bi  Bi99  1  -0.01040584  0.21990049  0.76702383  1
  Bi  Bi100  1  0.75112138  0.73107174  0.73329866  1
  Bi  Bi101  1  0.48380064  -0.02473888  0.52713579  1
  Bi  Bi102  1  0.51608933  0.21732497  0.78858550  1
  Bi  Bi103  1  -0.02563320  0.47872496  0.73434661  1
  Bi  Bi104  1  -0.00782380  0.46978817  0.01998676  1
  Bi  Bi105  1  0.22861131  0.26635749  0.00929073  1
  Bi  Bi106  1  0.22181970  0.24668915  0.75348682  1
  Bi  Bi107  1  -0.03214519  0.75539579  0.00395185  1
  Bi  Bi108  1  0.73109951  0.23712765  0.22296139  1
  Bi  Bi109  1  0.48497974  0.22435700  0.49909774  1
  Bi  Bi110  1  0.00114510  0.53019534  0.23694870  1
  Bi  Bi111  1  0.73353154  0.51784624  0.74185851  1
  Bi  Bi112  1  0.26009727  0.48197014  0.72958553  1
  Bi  Bi113  1  0.75063040  0.01365841  0.26718763  1
  Bi  Bi114  1  0.72929524  0.48667875  0.23375860  1
  Bi  Bi115  1  -0.01035073  0.22744127  0.48851089  1
  Bi  Bi116  1  0.72320570  0.03986917  -0.02721971  1
  Bi  Bi117  1  0.50793693  -0.01340294  -0.02007615  1
  Bi  Bi118  1  0.27599484  0.49715455  0.23534698  1
  Bi  Bi119  1  0.73627611  0.75228501  0.29435993  1
  Bi  Bi120  1  0.26451856  0.48946429  -0.01248504  1
  Bi  Bi121  1  0.25503240  0.74748655  -0.00447765  1
  Bi  Bi122  1  0.23125158  -0.01688565  0.22402601  1
  Bi  Bi123  1  0.52166124  0.75576724  0.02834452  1
  Bi  Bi124  1  0.74603261  0.47386967  0.49882541  1
  O  O125  1  0.13562252  0.14061769  -0.00691695  1
  O  O126  1  0.12011546  0.14136602  0.25319534  1
  O  O127  1  0.15899398  0.12929743  0.50426923  1
  O  O128  1  0.13523379  0.12840906  0.74532413  1
  O  O129  1  0.11342486  0.35932705  -0.01122043  1
  O  O130  1  0.14703677  0.36532953  0.25600867  1
  O  O131  1  0.11741314  0.39784038  0.49934582  1
  O  O132  1  0.15605572  0.38000493  0.75335514  1
  O  O133  1  0.10891253  0.63922266  -0.00289433  1
  O  O134  1  0.11744521  0.62585639  0.25680693  1
  O  O135  1  0.11290904  0.62776820  0.50486663  1
  O  O136  1  0.14130769  0.62301031  0.75479618  1
  O  O137  1  0.09747072  0.86744113  -0.01164717  1
  O  O138  1  0.14900881  0.86906806  0.26621601  1
  O  O139  1  0.09893040  0.85854322  0.50863944  1
  O  O140  1  0.17455627  0.88122189  0.74972819  1
  O  O141  1  0.37602108  0.11191079  -0.00136197  1
  O  O142  1  0.39794847  0.14103711  0.25086263  1
  O  O143  1  0.36924665  0.12920740  0.49677275  1
  O  O144  1  0.38090843  0.15022587  0.75320504  1
  O  O145  1  0.38741483  0.40708499  0.00387073  1
  O  O146  1  0.34212071  0.36129987  0.25075249  1
  O  O147  1  0.38896667  0.39599267  0.49569006  1
  O  O148  1  0.35623805  0.36829689  0.75220876  1
  O  O149  1  0.37595120  0.59047186  -0.00552478  1
  O  O150  1  0.34749524  0.63045036  0.24521664  1
  O  O151  1  0.37474902  0.60001362  0.48415852  1
  O  O152  1  0.40456286  0.66338576  0.76549170  1
  O  O153  1  0.39223949  0.90913655  0.00328628  1
  O  O154  1  0.33971771  0.86231359  0.25216794  1
  O  O155  1  0.40637564  0.87690843  0.48273307  1
  O  O156  1  0.37704421  0.86425524  0.75458738  1
  O  O157  1  0.61656706  0.11763362  0.00504149  1
  O  O158  1  0.60872684  0.16310220  0.25124599  1
  O  O159  1  0.64692005  0.10786952  0.49360989  1
  O  O160  1  0.64655144  0.15277776  0.74684889  1
  O  O161  1  0.61405660  0.40766241  0.00261841  1
  O  O162  1  0.65251417  0.36002800  0.25428187  1
  O  O163  1  0.61543042  0.41514370  0.48639429  1
  O  O164  1  0.64109680  0.33701687  0.74995023  1
  O  O165  1  0.63127456  0.59202696  0.00074614  1
  O  O166  1  0.62505020  0.67005694  0.24097241  1
  O  O167  1  0.61328632  0.61138869  0.49029062  1
  O  O168  1  0.65596110  0.63388493  0.76537823  1
  O  O169  1  0.60465382  0.88677838  0.00120955  1
  O  O170  1  0.64938532  0.85407890  0.24126611  1
  O  O171  1  0.61030119  0.92171788  0.50694806  1
  O  O172  1  0.63486250  0.85163294  0.74764733  1
  O  O173  1  0.89374967  0.12393423  0.00260777  1
  O  O174  1  0.90842372  0.11328656  0.25429576  1
  O  O175  1  0.87523501  0.14499236  0.50535693  1
  O  O176  1  0.88675847  0.11155886  0.74612353  1
  O  O177  1  0.88254062  0.38387829  0.00286710  1
  O  O178  1  0.86086383  0.37973510  0.25572921  1
  O  O179  1  0.90969633  0.36880041  0.50881972  1
  O  O180  1  0.85495211  0.39435885  0.74067073  1
  O  O181  1  0.89199176  0.63215631  -0.00084775  1
  O  O182  1  0.87012010  0.60644996  0.26141946  1
  O  O183  1  0.87340288  0.65141608  0.50635536  1
  O  O184  1  0.85807656  0.64114039  0.75723565  1
  O  O185  1  0.89619211  0.87770569  -0.00213790  1
  O  O186  1  0.86418693  0.88277518  0.24718254  1
  O  O187  1  0.89606111  0.86363308  0.50287940  1
  O  O188  1  0.86637090  0.90570483  0.75280224  1
  O  O189  1  0.00441147  0.15648469  0.12213964  1
  O  O190  1  0.00663034  0.11612215  0.40133697  1
  O  O191  1  0.01098253  0.13258083  0.61424481  1
  O  O192  1  0.01287453  0.11180691  0.86345168  1
  O  O193  1  -0.00304148  0.36212000  0.11825523  1
  O  O194  1  0.00178761  0.40470418  0.36857836  1
  O  O195  1  -0.00662642  0.36878249  0.65601132  1
  O  O196  1  0.00236501  0.39769367  0.85298278  1
  O  O197  1  -0.00213754  0.64559906  0.15004948  1
  O  O198  1  -0.00650699  0.61319768  0.38923833  1
  O  O199  1  -0.00258658  0.65133749  0.63912981  1
  O  O200  1  -0.00195876  0.61621066  0.85696226  1
  O  O201  1  -0.00297936  0.85576315  0.14607591  1
  O  O202  1  0.00536815  0.89371817  0.36481343  1
  O  O203  1  0.01105936  0.87232102  0.66100184  1
  O  O204  1  0.00729346  0.90143346  0.84914232  1
  O  O205  1  0.25848155  0.10836628  0.14413558  1
  O  O206  1  0.25888667  0.13136077  0.35858394  1
  O  O207  1  0.26135670  0.13916058  0.62720055  1
  O  O208  1  0.25333401  0.15415986  0.87057655  1
  O  O209  1  0.25034917  0.40024374  0.09606308  1
  O  O210  1  0.25043063  0.36373682  0.40052334  1
  O  O211  1  0.25895137  0.39563266  0.60999028  1
  O  O212  1  0.26258142  0.37561306  0.89764001  1
  O  O213  1  0.23845780  0.60363778  0.11495479  1
  O  O214  1  0.24817680  0.64586803  0.37721866  1
  O  O215  1  0.24561696  0.60139790  0.61947766  1
  O  O216  1  0.25129339  0.64690090  0.88545344  1
  O  O217  1  0.24836550  0.90572378  0.10892951  1
  O  O218  1  0.25456856  0.85757315  0.41340276  1
  O  O219  1  0.24752874  0.88358644  0.59650162  1
  O  O220  1  0.25050714  0.86456802  0.91338140  1
  O  O221  1  0.49121049  0.16683426  0.11335706  1
  O  O222  1  0.50603409  0.12287757  0.39303547  1
  O  O223  1  0.49683687  0.13345284  0.61294541  1
  O  O224  1  0.48972343  0.11260360  0.87404810  1
  O  O225  1  0.49240163  0.35076377  0.13532178  1
  O  O226  1  0.49460639  0.39629773  0.33673395  1
  O  O227  1  0.50709067  0.39503256  0.63004675  1
  O  O228  1  0.49259065  0.42300432  0.86637391  1
  O  O229  1  0.50756485  0.64218591  0.11104616  1
  O  O230  1  0.48974084  0.59787631  0.33713062  1
  O  O231  1  0.49158592  0.61811216  0.60802119  1
  O  O232  1  0.51041940  0.60449128  0.88453256  1
  O  O233  1  0.51206406  0.83339142  0.14549723  1
  O  O234  1  0.49860335  0.87938869  0.32756792  1
  O  O235  1  0.50506769  0.87450664  0.63718847  1
  O  O236  1  0.50607444  0.89525036  0.86821284  1
  O  O237  1  0.74692917  0.10492822  0.15960623  1
  O  O238  1  0.74781502  0.12996065  0.34526133  1
  O  O239  1  0.75527156  0.09603206  0.61982874  1
  O  O240  1  0.74812660  0.15402668  0.89921040  1
  O  O241  1  0.75466366  0.40416483  0.11927536  1
  O  O242  1  0.76161526  0.36646958  0.41054579  1
  O  O243  1  0.75282632  0.36373794  0.58828466  1
  O  O244  1  0.74065055  0.33903780  0.90540439  1
  O  O245  1  0.74585037  0.60650099  0.12216900  1
  O  O246  1  0.75118524  0.64634056  0.39244805  1
  O  O247  1  0.75764103  0.64189371  0.62581543  1
  O  O248  1  0.75544560  0.65627481  0.90671353  1
  O  O249  1  0.74918481  0.90451360  0.10917912  1
  O  O250  1  0.75517197  0.86284133  0.38404292  1
  O  O251  1  0.75127507  0.90045611  0.60497189  1
  O  O252  1  0.74975810  0.85284671  0.87819756  1
  O  O253  1  0.11128201  -0.00246761  0.14845508  1
  O  O254  1  0.13985755  -0.01018054  0.40456968  1
  O  O255  1  0.13602106  0.00127056  0.61000349  1
  O  O256  1  0.15028415  0.00139076  0.88543427  1
  O  O257  1  0.15593566  0.25284486  0.12470222  1
  O  O258  1  0.10381704  0.25804039  0.38809077  1
  O  O259  1  0.14583807  0.25111015  0.62436509  1
  O  O260  1  0.11572448  0.25571522  0.84961159  1
  O  O261  1  0.09195375  0.50603589  0.12579059  1
  O  O262  1  0.14746788  0.50337624  0.37515610  1
  O  O263  1  0.09444654  0.50719050  0.63524916  1
  O  O264  1  0.13653854  0.50319441  0.88598653  1
  O  O265  1  0.13543107  0.74710666  0.13812908  1
  O  O266  1  0.10446034  0.74830838  0.37899041  1
  O  O267  1  0.13572765  0.74952895  0.64564323  1
  O  O268  1  0.11915233  0.75624165  0.85194637  1
  O  O269  1  0.40365694  0.00723228  0.14614634  1
  O  O270  1  0.38102331  0.00169119  0.35930464  1
  O  O271  1  0.37248913  0.00872907  0.64717263  1
  O  O272  1  0.35338642  0.00433772  0.85324854  1
  O  O273  1  0.33950620  0.25577496  0.11559233  1
  O  O274  1  0.39220237  0.25635346  0.38401468  1
  O  O275  1  0.38015968  0.26188516  0.60541413  1
  O  O276  1  0.41163798  0.26042656  0.88925010  1
  O  O277  1  0.39712841  0.49233885  0.16451161  1
  O  O278  1  0.34719575  0.49803699  0.35460745  1
  O  O279  1  0.37918217  0.50501509  0.65168723  1
  O  O280  1  0.36091598  0.51709302  0.83765769  1
  O  O281  1  0.34248602  0.74915533  0.11224665  1
  O  O282  1  0.39655143  0.74472758  0.37756660  1
  O  O283  1  0.36597913  0.73410097  0.59832480  1
  O  O284  1  0.37660916  0.74736189  0.92225478  1
  O  O285  1  0.59509618  -0.00690405  0.14384451  1
  O  O286  1  0.62898475  0.01124094  0.34089584  1
  O  O287  1  0.62308284  -0.00001432  0.65577895  1
  O  O288  1  0.64647329  -0.01021993  0.86833949  1
  O  O289  1  0.65989185  0.25190528  0.10606954  1
  O  O290  1  0.61923330  0.25937073  0.39968054  1
  O  O291  1  0.62031439  0.26132947  0.58532089  1
  O  O292  1  0.59209273  0.25495551  0.89892426  1
  O  O293  1  0.60487951  0.50742888  0.16810700  1
  O  O294  1  0.63557501  0.49609458  0.34087840  1
  O  O295  1  0.64462967  0.48520693  0.64147422  1
  O  O296  1  0.65921080  0.50127643  0.85721389  1
  O  O297  1  0.64809587  0.74343132  0.08284260  1
  O  O298  1  0.61338522  0.75569559  0.38043150  1
  O  O299  1  0.63800853  0.76449054  0.57857829  1
  O  O300  1  0.60886324  0.74806506  0.89336718  1
  O  O301  1  0.90361861  -0.00636414  0.11759960  1
  O  O302  1  0.87407770  -0.00691215  0.38933154  1
  O  O303  1  0.90128872  -0.00072255  0.61352737  1
  O  O304  1  0.86007379  -0.00059348  0.89554320  1
  O  O305  1  0.86243560  0.25490688  0.12003538  1
  O  O306  1  0.90124999  0.25579060  0.37579632  1
  O  O307  1  0.87315354  0.24200907  0.64410792  1
  O  O308  1  0.90585305  0.24946344  0.86842710  1
  O  O309  1  0.90890615  0.49917499  0.12874236  1
  O  O310  1  0.86395126  0.50121760  0.40423752  1
  O  O311  1  0.88467648  0.51325530  0.61716317  1
  O  O312  1  0.85216570  0.50801475  0.87407918  1
  O  O313  1  0.85170793  0.75580908  0.10089746  1
  O  O314  1  0.89884969  0.75256655  0.36805579  1
  O  O315  1  0.87318310  0.76809513  0.65104638  1
  O  O316  1  0.90274369  0.76327015  0.87615404  1
