# generated using pymatgen
data_Mg32Ti42(Bi17O64)3
_symmetry_space_group_name_H-M   'P 1'
_cell_length_a   15.89720398
_cell_length_b   15.90560297
_cell_length_c   15.98146723
_cell_angle_alpha   89.97039512
_cell_angle_beta   89.93858445
_cell_angle_gamma   89.92211118
_symmetry_Int_Tables_number   1
_chemical_formula_structural   Mg32Ti42(Bi17O64)3
_chemical_formula_sum   'Mg32 Ti42 Bi51 O192'
_cell_volume   4040.98114702
_cell_formula_units_Z   1
loop_
 _symmetry_equiv_pos_site_id
 _symmetry_equiv_pos_as_xyz
  1  'x, y, z'
loop_
 _atom_site_type_symbol
 _atom_site_label
 _atom_site_symmetry_multiplicity
 _atom_site_fract_x
 _atom_site_fract_y
 _atom_site_fract_z
 _atom_site_occupancy
  Mg  Mg0  1  0.13294888  0.11418664  0.36004495  1
  Mg  Mg1  1  0.37487258  0.36802949  0.36975760  1
  Mg  Mg2  1  0.87880514  0.37330670  0.87109915  1
  Mg  Mg3  1  0.13217647  0.62340672  0.36762275  1
  Mg  Mg4  1  0.88027431  0.62591418  0.37422375  1
  Mg  Mg5  1  0.36930689  0.37638515  0.86882306  1
  Mg  Mg6  1  0.62144943  0.61775455  0.88189582  1
  Mg  Mg7  1  0.87722707  0.61945692  0.12575306  1
  Mg  Mg8  1  0.87999331  0.12091214  0.89258627  1
  Mg  Mg9  1  0.12698570  0.36741051  0.62322544  1
  Mg  Mg10  1  0.86758966  0.88981152  0.12262514  1
  Mg  Mg11  1  0.37370803  0.88993028  0.11240307  1
  Mg  Mg12  1  0.62073053  0.38415112  0.11482224  1
  Mg  Mg13  1  0.36850589  0.11853712  0.11431131  1
  Mg  Mg14  1  0.12778755  0.36834929  0.12049762  1
  Mg  Mg15  1  0.62844432  0.12826770  0.36951584  1
  Mg  Mg16  1  0.87376265  0.36974647  0.37209126  1
  Mg  Mg17  1  0.36024297  0.88027124  0.87717077  1
  Mg  Mg18  1  0.38136689  0.63635494  0.11306668  1
  Mg  Mg19  1  -0.00634465  0.26627878  0.01851729  1
  Mg  Mg20  1  0.26730240  0.55582483  0.22460026  1
  Mg  Mg21  1  0.01362842  0.02824328  0.50003933  1
  Mg  Mg22  1  0.21795961  -0.01917763  0.19000860  1
  Mg  Mg23  1  0.71604247  0.24540566  0.18930136  1
  Mg  Mg24  1  0.27048322  0.02319023  -0.02791112  1
  Mg  Mg25  1  0.22471895  0.29150281  0.25499010  1
  Mg  Mg26  1  0.69004741  0.76135895  0.80640189  1
  Mg  Mg27  1  0.70760321  0.03148261  0.52305123  1
  Mg  Mg28  1  0.78462496  0.44687355  0.00092041  1
  Mg  Mg29  1  0.74402687  -0.06538755  0.75639453  1
  Mg  Mg30  1  0.48271919  0.50974804  -0.00381269  1
  Mg  Mg31  1  0.49331551  0.00124736  0.00020806  1
  Ti  Ti32  1  0.87205390  0.63574200  0.61814847  1
  Ti  Ti33  1  0.62896618  0.61760660  0.37607318  1
  Ti  Ti34  1  0.87554817  0.87383684  0.62019377  1
  Ti  Ti35  1  0.39083293  0.88267017  0.38882237  1
  Ti  Ti36  1  0.37964757  0.13217736  0.37085847  1
  Ti  Ti37  1  0.12721433  0.62030093  0.12633183  1
  Ti  Ti38  1  0.63548323  0.38556507  0.62098361  1
  Ti  Ti39  1  0.62429507  0.62844012  0.12088899  1
  Ti  Ti40  1  0.13736417  0.13360459  0.11599102  1
  Ti  Ti41  1  0.13990924  0.61888161  0.87243337  1
  Ti  Ti42  1  0.12456718  0.85488543  0.85997608  1
  Ti  Ti43  1  0.12080244  0.12724234  0.62600111  1
  Ti  Ti44  1  0.63638445  0.36995049  0.36116184  1
  Ti  Ti45  1  0.63862708  0.87234485  0.61767196  1
  Ti  Ti46  1  0.86435738  0.62012553  0.86989417  1
  Ti  Ti47  1  0.37842354  0.36709514  0.62686276  1
  Ti  Ti48  1  0.62995060  0.38454734  0.87236358  1
  Ti  Ti49  1  0.39070936  0.11636121  0.87387737  1
  Ti  Ti50  1  0.13183845  0.89210954  0.37726854  1
  Ti  Ti51  1  0.38639382  0.87613374  0.62551188  1
  Ti  Ti52  1  0.87571290  0.36235783  0.63100547  1
  Ti  Ti53  1  0.11745734  0.12404595  0.89746615  1
  Ti  Ti54  1  0.62941288  0.13420248  0.87357600  1
  Ti  Ti55  1  0.63120247  0.89435669  0.38204970  1
  Ti  Ti56  1  0.88388240  0.88826803  0.37386537  1
  Ti  Ti57  1  0.37029222  0.13618308  0.62535003  1
  Ti  Ti58  1  0.37619639  0.62602562  0.88271308  1
  Ti  Ti59  1  0.87637672  0.86625115  0.88286832  1
  Ti  Ti60  1  0.11918014  0.88475892  0.62565194  1
  Ti  Ti61  1  0.12940278  0.62532934  0.62131400  1
  Ti  Ti62  1  0.37942631  0.62433164  0.61824412  1
  Ti  Ti63  1  0.87303003  0.36175369  0.13405398  1
  Ti  Ti64  1  0.37649102  0.61815984  0.37067198  1
  Ti  Ti65  1  0.12069685  0.37076889  0.87902063  1
  Ti  Ti66  1  0.87939464  0.11693926  0.37139355  1
  Ti  Ti67  1  0.36639638  0.37231198  0.14219787  1
  Ti  Ti68  1  0.88278249  0.10339870  0.62083775  1
  Ti  Ti69  1  0.11996893  0.38753872  0.37574917  1
  Ti  Ti70  1  0.62398852  0.11440044  0.10121715  1
  Ti  Ti71  1  0.88228697  0.12985752  0.12614123  1
  Ti  Ti72  1  0.63292452  0.62171702  0.63027592  1
  Ti  Ti73  1  0.61991707  0.87628423  0.12816130  1
  Bi  Bi74  1  0.77709912  0.76733167  0.23825550  1
  Bi  Bi75  1  0.51092697  0.79065691  -0.02617803  1
  Bi  Bi76  1  0.26697857  0.49646181  0.02585914  1
  Bi  Bi77  1  0.52888513  0.75420901  0.26940972  1
  Bi  Bi78  1  0.77206088  0.75572664  0.47171939  1
  Bi  Bi79  1  0.46048053  0.00190318  0.23710042  1
  Bi  Bi80  1  0.51037899  0.50902470  0.22403310  1
  Bi  Bi81  1  0.76394656  0.50011744  0.75474746  1
  Bi  Bi82  1  0.76953161  0.49537112  0.49008423  1
  Bi  Bi83  1  0.23596112  0.79546736  0.02976101  1
  Bi  Bi84  1  -0.00339377  0.23419928  0.76190202  1
  Bi  Bi85  1  0.49367352  0.74158649  0.74913028  1
  Bi  Bi86  1  0.76873624  0.49916816  0.23008125  1
  Bi  Bi87  1  0.52219174  0.73126696  0.49978530  1
  Bi  Bi88  1  0.49715528  0.29657754  -0.01277070  1
  Bi  Bi89  1  0.23269574  0.23040151  0.76544228  1
  Bi  Bi90  1  0.27087750  0.25202807  -0.01003894  1
  Bi  Bi91  1  -0.00399619  0.24228864  0.47294278  1
  Bi  Bi92  1  0.52458727  0.24112572  0.48412818  1
  Bi  Bi93  1  0.02136820  0.48583501  0.73970624  1
  Bi  Bi94  1  0.26047757  0.00752417  0.73793469  1
  Bi  Bi95  1  0.26343386  0.01027346  0.49600916  1
  Bi  Bi96  1  0.50258732  0.48038885  0.46915352  1
  Bi  Bi97  1  0.77221303  0.21472493  0.75642111  1
  Bi  Bi98  1  0.29116849  0.77332280  0.23909210  1
  Bi  Bi99  1  0.72306712  -0.03332520  -0.04222777  1
  Bi  Bi100  1  -0.00516819  0.72221255  -0.02725791  1
  Bi  Bi101  1  0.77308638  0.25113121  -0.00206656  1
  Bi  Bi102  1  0.02709183  -0.04059710  0.01009774  1
  Bi  Bi103  1  -0.00452836  0.74601691  0.72632422  1
  Bi  Bi104  1  0.02546494  0.00591501  0.22466510  1
  Bi  Bi105  1  0.75221209  0.72665577  0.00650894  1
  Bi  Bi106  1  0.24651216  0.74791061  0.46971524  1
  Bi  Bi107  1  0.49143708  0.49457641  0.77228535  1
  Bi  Bi108  1  0.02679200  0.25982682  0.24883164  1
  Bi  Bi109  1  0.73267079  0.02186707  0.24746173  1
  Bi  Bi110  1  0.53965423  -0.03157565  0.77438512  1
  Bi  Bi111  1  -0.02878907  -0.00778522  0.77218217  1
  Bi  Bi112  1  -0.01241813  0.47539314  0.51101515  1
  Bi  Bi113  1  0.26268470  0.48697853  0.73356301  1
  Bi  Bi114  1  0.01512430  0.78034136  0.22162036  1
  Bi  Bi115  1  0.54251991  0.24574611  0.71965946  1
  Bi  Bi116  1  0.02226052  0.75127437  0.46857491  1
  Bi  Bi117  1  0.51546182  0.02253868  0.54346862  1
  Bi  Bi118  1  0.26281579  0.48168798  0.49713796  1
  Bi  Bi119  1  0.00328866  0.52973930  0.26114317  1
  Bi  Bi120  1  0.49637024  0.23312123  0.21067268  1
  Bi  Bi121  1  0.23323147  0.24565902  0.46819228  1
  Bi  Bi122  1  0.26474870  0.75911211  0.72689455  1
  Bi  Bi123  1  0.03016305  0.49671303  -0.00274414  1
  Bi  Bi124  1  0.75916760  0.22421031  0.49494637  1
  O  O125  1  0.08967026  0.16730913  0.00607714  1
  O  O126  1  0.14821817  0.08405848  0.23577283  1
  O  O127  1  0.10479087  0.14486363  0.51213860  1
  O  O128  1  0.15723277  0.11150385  0.76134101  1
  O  O129  1  0.08831406  0.35449822  -0.00628118  1
  O  O130  1  0.13066800  0.37883789  0.25412379  1
  O  O131  1  0.11161105  0.35102775  0.49520089  1
  O  O132  1  0.13550535  0.40167139  0.75539773  1
  O  O133  1  0.10418065  0.63005389  -0.00238393  1
  O  O134  1  0.14670962  0.59069380  0.24195531  1
  O  O135  1  0.12297445  0.65014372  0.50805607  1
  O  O136  1  0.12184963  0.59800294  0.76046580  1
  O  O137  1  0.11535641  0.85645485  -0.01418770  1
  O  O138  1  0.12430615  0.90952267  0.26294074  1
  O  O139  1  0.11763753  0.84770496  0.51041177  1
  O  O140  1  0.11006858  0.90295426  0.75229482  1
  O  O141  1  0.39399742  0.08365161  -0.01102703  1
  O  O142  1  0.38279470  0.13857484  0.25629186  1
  O  O143  1  0.37756194  0.09858530  0.51069300  1
  O  O144  1  0.34357926  0.13332706  0.74978301  1
  O  O145  1  0.40184999  0.40552145  -0.00095174  1
  O  O146  1  0.34029704  0.34116279  0.24882764  1
  O  O147  1  0.38039535  0.40426302  0.50637132  1
  O  O148  1  0.34421466  0.36768634  0.74137391  1
  O  O149  1  0.37710996  0.59234257  -0.00559098  1
  O  O150  1  0.36178464  0.63740702  0.25184187  1
  O  O151  1  0.38160978  0.60833738  0.50427301  1
  O  O152  1  0.38447786  0.65221319  0.75301726  1
  O  O153  1  0.31683432  0.90333590  -0.00215679  1
  O  O154  1  0.39261371  0.86478421  0.26311326  1
  O  O155  1  0.37000819  0.89912277  0.50741945  1
  O  O156  1  0.38125292  0.84948693  0.74855740  1
  O  O157  1  0.60337006  0.07474474  -0.00911330  1
  O  O158  1  0.66312627  0.14124936  0.24643733  1
  O  O159  1  0.60814673  0.11150990  0.49853970  1
  O  O160  1  0.63773935  0.15199532  0.75829485  1
  O  O161  1  0.58595841  0.40940644  -0.00863425  1
  O  O162  1  0.65089680  0.34368192  0.25234975  1
  O  O163  1  0.61740256  0.40644119  0.50776710  1
  O  O164  1  0.64234546  0.35101428  0.75220854  1
  O  O165  1  0.64267881  0.62981508  0.00752223  1
  O  O166  1  0.61032460  0.63850510  0.25607619  1
  O  O167  1  0.60453616  0.61280297  0.49863959  1
  O  O168  1  0.63023966  0.66118719  0.73951671  1
  O  O169  1  0.63575473  0.87106283  0.00812384  1
  O  O170  1  0.61507716  0.86330330  0.25541740  1
  O  O171  1  0.63257722  0.92568151  0.50101838  1
  O  O172  1  0.63757038  0.85730229  0.73781036  1
  O  O173  1  0.89849343  0.17154788  0.01320196  1
  O  O174  1  0.85596799  0.10911436  0.26060910  1
  O  O175  1  0.92531561  0.12492148  0.50943336  1
  O  O176  1  0.85336465  0.10422239  0.74186149  1
  O  O177  1  0.88489518  0.35299684  0.00246351  1
  O  O178  1  0.86755958  0.39876941  0.24652635  1
  O  O179  1  0.89371097  0.36492656  0.51020213  1
  O  O180  1  0.85656246  0.39738597  0.74668934  1
  O  O181  1  0.86762032  0.64913429  0.00128499  1
  O  O182  1  0.87136290  0.58752603  0.25215428  1
  O  O183  1  0.87507621  0.65613787  0.50347412  1
  O  O184  1  0.86514268  0.60266337  0.75267738  1
  O  O185  1  0.87083446  0.85739539  -0.00238249  1
  O  O186  1  0.86206459  0.89010079  0.25979502  1
  O  O187  1  0.87268860  0.85108465  0.50175651  1
  O  O188  1  0.86825368  0.89662943  0.74700768  1
  O  O189  1  -0.00296971  0.14117456  0.15438061  1
  O  O190  1  0.00244106  0.14975628  0.35957768  1
  O  O191  1  0.00636096  0.12849375  0.66446570  1
  O  O192  1  0.00487129  0.12060431  0.85247348  1
  O  O193  1  -0.00847405  0.33760925  0.13118935  1
  O  O194  1  0.00243952  0.35275758  0.36407278  1
  O  O195  1  -0.00403778  0.37729710  0.64484203  1
  O  O196  1  0.00286974  0.39822228  0.85656550  1
  O  O197  1  0.00391907  0.59402303  0.13698163  1
  O  O198  1  0.00614064  0.64007658  0.34508083  1
  O  O199  1  -0.00526016  0.64062752  0.63484493  1
  O  O200  1  -0.01478056  0.60707907  0.88949189  1
  O  O201  1  -0.00499889  0.88952879  0.13850340  1
  O  O202  1  -0.00064046  0.85620741  0.37234892  1
  O  O203  1  -0.00309801  0.85117171  0.63344356  1
  O  O204  1  -0.00047242  0.88994626  0.87102256  1
  O  O205  1  0.24411711  0.11338243  0.07716816  1
  O  O206  1  0.25463318  0.11173884  0.40107905  1
  O  O207  1  0.24401080  0.09706476  0.61553921  1
  O  O208  1  0.23978772  0.15067289  0.89996608  1
  O  O209  1  0.25615726  0.36523990  0.09704335  1
  O  O210  1  0.24569965  0.38180476  0.39889635  1
  O  O211  1  0.25043384  0.40259128  0.60932549  1
  O  O212  1  0.24344249  0.35467627  0.89781801  1
  O  O213  1  0.24761392  0.61717540  0.10998620  1
  O  O214  1  0.25637384  0.62680127  0.38995113  1
  O  O215  1  0.24868620  0.61584399  0.63080286  1
  O  O216  1  0.25162199  0.63794523  0.87705397  1
  O  O217  1  0.24220810  0.86605392  0.14554891  1
  O  O218  1  0.24864265  0.88822048  0.39004400  1
  O  O219  1  0.24056137  0.87842464  0.64055593  1
  O  O220  1  0.23804653  0.84443523  0.85369251  1
  O  O221  1  0.50372948  0.10921381  0.14010707  1
  O  O222  1  0.49917458  0.15371201  0.37551050  1
  O  O223  1  0.48605564  0.13742190  0.63288828  1
  O  O224  1  0.50158190  0.09829812  0.84868068  1
  O  O225  1  0.49389643  0.38568207  0.15814087  1
  O  O226  1  0.50797734  0.36075439  0.38732307  1
  O  O227  1  0.49398766  0.37027510  0.63937766  1
  O  O228  1  0.50031854  0.37638875  0.85063578  1
  O  O229  1  0.50151317  0.59093816  0.11014154  1
  O  O230  1  0.49374094  0.64277956  0.37759215  1
  O  O231  1  0.49925718  0.65184713  0.62684102  1
  O  O232  1  0.49754489  0.58123568  0.88474887  1
  O  O233  1  0.50051183  0.91786629  0.10461401  1
  O  O234  1  0.50576550  0.86693220  0.39578729  1
  O  O235  1  0.50035056  0.85658489  0.61880543  1
  O  O236  1  0.48438593  0.90991405  0.90987720  1
  O  O237  1  0.73916759  0.14183787  0.09708107  1
  O  O238  1  0.76090700  0.10667756  0.41738888  1
  O  O239  1  0.77066646  0.11248286  0.59173867  1
  O  O240  1  0.74774093  0.14184183  0.88751811  1
  O  O241  1  0.74274904  0.35800961  0.09476491  1
  O  O242  1  0.74807784  0.39727855  0.38898846  1
  O  O243  1  0.75236675  0.38997923  0.61095410  1
  O  O244  1  0.74147420  0.36674530  0.90565336  1
  O  O245  1  0.74359564  0.65210368  0.13753677  1
  O  O246  1  0.74335244  0.60878844  0.38875085  1
  O  O247  1  0.74824946  0.61409314  0.61540080  1
  O  O248  1  0.74795872  0.66806292  0.87534491  1
  O  O249  1  0.74206573  0.85939660  0.13501561  1
  O  O250  1  0.74779347  0.87805911  0.38463263  1
  O  O251  1  0.75300821  0.90502077  0.62497206  1
  O  O252  1  0.75451143  0.86087652  0.86615575  1
  O  O253  1  0.10904131  0.00989086  0.10783818  1
  O  O254  1  0.10576175  -0.00093794  0.41428904  1
  O  O255  1  0.10167295  -0.00290565  0.60118317  1
  O  O256  1  0.14017963  0.01364878  0.92368462  1
  O  O257  1  0.14899239  0.24266023  0.16159892  1
  O  O258  1  0.15780523  0.24328047  0.35214562  1
  O  O259  1  0.14200793  0.24189835  0.65267688  1
  O  O260  1  0.11156568  0.25291771  0.85014976  1
  O  O261  1  0.13338378  0.49200561  0.09254272  1
  O  O262  1  0.10829746  0.49859238  0.39282431  1
  O  O263  1  0.10484003  0.50826188  0.61665601  1
  O  O264  1  0.13636643  0.49865157  0.90404632  1
  O  O265  1  0.11140797  0.73571612  0.13245023  1
  O  O266  1  0.13663724  0.75730388  0.37584625  1
  O  O267  1  0.12776853  0.74528466  0.66202309  1
  O  O268  1  0.09697706  0.73967960  0.86032648  1
  O  O269  1  0.34674240  0.00286824  0.16304444  1
  O  O270  1  0.38992191  0.00249768  0.36750525  1
  O  O271  1  0.38111667  -0.00654042  0.65256226  1
  O  O272  1  0.33462242  0.00915306  0.85867017  1
  O  O273  1  0.39790724  0.25029436  0.10910400  1
  O  O274  1  0.35790836  0.24517105  0.40316091  1
  O  O275  1  0.35541705  0.25131286  0.60790518  1
  O  O276  1  0.38340288  0.23973003  0.90059169  1
  O  O277  1  0.34881260  0.49195999  0.15026873  1
  O  O278  1  0.38885636  0.50211186  0.36095028  1
  O  O279  1  0.38276043  0.50872178  0.65121269  1
  O  O280  1  0.36237581  0.50345693  0.83855620  1
  O  O281  1  0.36582235  0.75995949  0.12123840  1
  O  O282  1  0.36342593  0.75865399  0.39106615  1
  O  O283  1  0.35310807  0.75108596  0.61210094  1
  O  O284  1  0.40434969  0.74267194  0.89220174  1
  O  O285  1  0.64445030  0.00080987  0.14070524  1
  O  O286  1  0.62577564  0.00277390  0.34486297  1
  O  O287  1  0.60353436  -0.00706734  0.64776100  1
  O  O288  1  0.65853786  0.00292972  0.83767581  1
  O  O289  1  0.60214102  0.24063207  0.11131063  1
  O  O290  1  0.64306686  0.25525786  0.40834580  1
  O  O291  1  0.62142718  0.26532797  0.60816276  1
  O  O292  1  0.60843892  0.24532410  0.90219658  1
  O  O293  1  0.63285245  0.50755097  0.15248109  1
  O  O294  1  0.60325977  0.49750807  0.35716228  1
  O  O295  1  0.61656096  0.50707088  0.65021231  1
  O  O296  1  0.64078466  0.49673263  0.84463633  1
  O  O297  1  0.58941006  0.75292427  0.13250756  1
  O  O298  1  0.62368968  0.74766600  0.38887695  1
  O  O299  1  0.63556940  0.75846277  0.58455750  1
  O  O300  1  0.58466574  0.74391018  0.87353369  1
  O  O301  1  0.87428797  0.01806738  0.11081352  1
  O  O302  1  0.90768241  -0.00019154  0.39763957  1
  O  O303  1  0.90995062  -0.00828918  0.60635474  1
  O  O304  1  0.87338396  -0.00541928  0.88576683  1
  O  O305  1  0.84432515  0.25022401  0.15983298  1
  O  O306  1  0.86241574  0.23918445  0.39559610  1
  O  O307  1  0.87140659  0.24771991  0.64288864  1
  O  O308  1  0.88079921  0.24598616  0.84574989  1
  O  O309  1  0.83944694  0.49020561  0.10788613  1
  O  O310  1  0.88800406  0.50084970  0.41186405  1
  O  O311  1  0.88370518  0.50951605  0.59934262  1
  O  O312  1  0.83074154  0.50718973  0.89016252  1
  O  O313  1  0.89038245  0.74812862  0.16065073  1
  O  O314  1  0.85725020  0.75219506  0.36357986  1
  O  O315  1  0.86455835  0.75211777  0.64962405  1
  O  O316  1  0.90024116  0.74957472  0.86307971  1
