# generated using pymatgen
data_Mg32Ti42(Bi17O64)3
_symmetry_space_group_name_H-M   'P 1'
_cell_length_a   15.96876136
_cell_length_b   15.95496656
_cell_length_c   15.94062496
_cell_angle_alpha   90.03274724
_cell_angle_beta   89.90417626
_cell_angle_gamma   89.96276336
_symmetry_Int_Tables_number   1
_chemical_formula_structural   Mg32Ti42(Bi17O64)3
_chemical_formula_sum   'Mg32 Ti42 Bi51 O192'
_cell_volume   4061.36201932
_cell_formula_units_Z   1
loop_
 _symmetry_equiv_pos_site_id
 _symmetry_equiv_pos_as_xyz
  1  'x, y, z'
loop_
 _atom_site_type_symbol
 _atom_site_label
 _atom_site_symmetry_multiplicity
 _atom_site_fract_x
 _atom_site_fract_y
 _atom_site_fract_z
 _atom_site_occupancy
  Mg  Mg0  1  0.12021513  0.62282492  0.36883077  1
  Mg  Mg1  1  0.38445101  0.13088330  0.86972596  1
  Mg  Mg2  1  0.87948466  0.62477778  0.88441865  1
  Mg  Mg3  1  0.64136337  0.11404225  0.12504064  1
  Mg  Mg4  1  0.12816043  0.88285706  0.39023084  1
  Mg  Mg5  1  0.61724314  0.62261854  0.88431188  1
  Mg  Mg6  1  0.62094940  0.37906462  0.37914387  1
  Mg  Mg7  1  0.86047888  0.12876009  0.36764139  1
  Mg  Mg8  1  0.37814459  0.87466505  0.13068902  1
  Mg  Mg9  1  0.87249048  0.87494673  0.38077038  1
  Mg  Mg10  1  0.62907551  0.87194988  0.12178233  1
  Mg  Mg11  1  0.61851637  0.88047197  0.62552590  1
  Mg  Mg12  1  0.61668297  0.12692415  0.61555564  1
  Mg  Mg13  1  0.62963042  0.61892481  0.62537439  1
  Mg  Mg14  1  0.87627909  0.36907525  0.87328962  1
  Mg  Mg15  1  0.87709391  0.87453779  0.62622424  1
  Mg  Mg16  1  0.88812955  0.37965793  0.36943142  1
  Mg  Mg17  1  0.88491999  0.13139655  0.61745136  1
  Mg  Mg18  1  0.87313014  0.12226564  0.86706531  1
  Mg  Mg19  1  0.24849853  0.19668775  0.21117487  1
  Mg  Mg20  1  -0.05272536  0.28519194  0.18810074  1
  Mg  Mg21  1  0.01811691  0.44673742  0.23351474  1
  Mg  Mg22  1  0.49741757  0.02823138  0.46576997  1
  Mg  Mg23  1  0.20943523  0.74774558  0.45462822  1
  Mg  Mg24  1  0.19742723  0.75992160  0.26342547  1
  Mg  Mg25  1  0.76411479  0.06603816  -0.01563615  1
  Mg  Mg26  1  0.51190900  0.45382297  0.05760818  1
  Mg  Mg27  1  0.24974185  0.44109845  -0.02426823  1
  Mg  Mg28  1  0.28201667  0.02148131  0.48257760  1
  Mg  Mg29  1  0.79674688  0.27411510  0.04804772  1
  Mg  Mg30  1  -0.04378096  0.04203865  0.49223793  1
  Mg  Mg31  1  0.00248205  0.20495435  0.77772429  1
  Ti  Ti32  1  0.37451705  0.12924390  0.35841553  1
  Ti  Ti33  1  0.62929867  0.37714759  0.61869102  1
  Ti  Ti34  1  0.38108835  0.87713395  0.38619891  1
  Ti  Ti35  1  0.62284965  0.13608848  0.87224012  1
  Ti  Ti36  1  0.37238397  0.62804974  0.12162982  1
  Ti  Ti37  1  0.12149301  0.38575306  0.62834519  1
  Ti  Ti38  1  0.14347602  0.11703351  0.36991687  1
  Ti  Ti39  1  0.62178650  0.13168628  0.37769121  1
  Ti  Ti40  1  0.88783975  0.63863911  0.12807158  1
  Ti  Ti41  1  0.11945577  0.87414703  0.86944352  1
  Ti  Ti42  1  0.11342874  0.11959393  0.12530333  1
  Ti  Ti43  1  0.37624505  0.87473882  0.61464226  1
  Ti  Ti44  1  0.13906155  0.86690323  0.62759493  1
  Ti  Ti45  1  0.37665319  0.64106553  0.36976479  1
  Ti  Ti46  1  0.36928304  0.63510267  0.62001481  1
  Ti  Ti47  1  0.62790129  0.88510545  0.37880158  1
  Ti  Ti48  1  0.36789905  0.37408772  0.12865805  1
  Ti  Ti49  1  0.38303718  0.37315781  0.87907644  1
  Ti  Ti50  1  0.38509596  0.60906096  0.88978442  1
  Ti  Ti51  1  0.87562739  0.61911989  0.62185455  1
  Ti  Ti52  1  0.36504609  0.38184106  0.62784727  1
  Ti  Ti53  1  0.63438106  0.87162471  0.87530472  1
  Ti  Ti54  1  0.86653960  0.87988211  0.86703612  1
  Ti  Ti55  1  0.87925434  0.87913014  0.12248410  1
  Ti  Ti56  1  0.88208269  0.62649897  0.37684146  1
  Ti  Ti57  1  0.89518845  0.37918088  0.62229682  1
  Ti  Ti58  1  0.63649308  0.63250892  0.37198320  1
  Ti  Ti59  1  0.12319594  0.63009632  0.89015115  1
  Ti  Ti60  1  0.12285634  0.37654843  0.86685104  1
  Ti  Ti61  1  0.38515864  0.12682836  0.11642817  1
  Ti  Ti62  1  0.13878499  0.36700554  0.11919650  1
  Ti  Ti63  1  0.12019811  0.63051223  0.12597082  1
  Ti  Ti64  1  0.87523708  0.12067174  0.12820146  1
  Ti  Ti65  1  0.37692866  0.12446987  0.61883980  1
  Ti  Ti66  1  0.61994857  0.37895390  0.86636969  1
  Ti  Ti67  1  0.62822526  0.63421491  0.12342286  1
  Ti  Ti68  1  0.12461049  0.11247917  0.87500572  1
  Ti  Ti69  1  0.36454608  0.38706603  0.37503039  1
  Ti  Ti70  1  0.13301858  0.12723880  0.60631561  1
  Ti  Ti71  1  0.13065794  0.63664132  0.63300770  1
  Ti  Ti72  1  0.11904692  0.88660395  0.12408524  1
  Ti  Ti73  1  0.13290119  0.36873266  0.36299771  1
  Bi  Bi74  1  -0.01301938  0.00067228  -0.01566364  1
  Bi  Bi75  1  0.24981884  0.53865289  0.48983825  1
  Bi  Bi76  1  0.00583280  0.77591051  0.26987018  1
  Bi  Bi77  1  0.76021954  0.75228316  0.24761302  1
  Bi  Bi78  1  0.71974078  0.02478584  0.74768912  1
  Bi  Bi79  1  0.24463126  0.77519133  0.02621884  1
  Bi  Bi80  1  0.75731211  -0.00611487  0.23932084  1
  Bi  Bi81  1  -0.00736287  0.51494469  0.77624029  1
  Bi  Bi82  1  0.25850928  -0.03997973  0.26952026  1
  Bi  Bi83  1  0.54642783  0.25553319  0.02700134  1
  Bi  Bi84  1  0.75490217  0.77507606  0.50782252  1
  Bi  Bi85  1  0.26783525  0.25452300  0.76979292  1
  Bi  Bi86  1  0.52510455  0.75575271  0.51045794  1
  Bi  Bi87  1  0.76358755  0.47979307  0.48035575  1
  Bi  Bi88  1  0.23543882  0.51614500  0.22533895  1
  Bi  Bi89  1  0.54250941  -0.00077190  -0.00189050  1
  Bi  Bi90  1  0.51669611  0.01037633  0.23658342  1
  Bi  Bi91  1  0.01004405  0.00563759  0.70534338  1
  Bi  Bi92  1  -0.01856453  0.74700173  0.73627674  1
  Bi  Bi93  1  0.00062861  0.75979740  0.51039206  1
  Bi  Bi94  1  0.48611843  0.51889641  0.73162962  1
  Bi  Bi95  1  0.75144879  0.73123144  -0.00390231  1
  Bi  Bi96  1  0.80157604  0.48834216  0.22973199  1
  Bi  Bi97  1  0.52252278  0.51337828  0.49084782  1
  Bi  Bi98  1  0.71271278  0.46485545  0.02286729  1
  Bi  Bi99  1  0.50949104  0.76899567  0.23369187  1
  Bi  Bi100  1  0.02235522  0.48772527  0.47638762  1
  Bi  Bi101  1  0.71389936  0.28525029  0.22035121  1
  Bi  Bi102  1  0.49622090  0.28742878  0.26504266  1
  Bi  Bi103  1  0.78291422  0.25153301  0.48027434  1
  Bi  Bi104  1  0.24162845  0.26822752  0.51255529  1
  Bi  Bi105  1  0.74677972  0.71727566  0.75188772  1
  Bi  Bi106  1  0.52171254  0.25038299  0.72956675  1
  Bi  Bi107  1  0.75566648  0.47886553  0.78198431  1
  Bi  Bi108  1  0.79049357  0.24111862  0.73585476  1
  Bi  Bi109  1  -0.02547241  0.45750646  0.02167106  1
  Bi  Bi110  1  0.24537866  0.52352658  0.77257644  1
  Bi  Bi111  1  0.24724766  0.22009201  0.01133161  1
  Bi  Bi112  1  0.47028073  -0.03570351  0.78163057  1
  Bi  Bi113  1  -0.00909051  0.24012930  -0.03159731  1
  Bi  Bi114  1  0.75548472  0.01033223  0.53728454  1
  Bi  Bi115  1  0.01058633  0.23728865  0.46514326  1
  Bi  Bi116  1  -0.01082921  0.76516017  -0.01723976  1
  Bi  Bi117  1  0.52868953  0.74416452  0.74565902  1
  Bi  Bi118  1  0.47532212  0.78112984  -0.02355015  1
  Bi  Bi119  1  0.49123239  0.26642100  0.49992193  1
  Bi  Bi120  1  0.26360569  0.01253270  0.73573713  1
  Bi  Bi121  1  0.28839076  0.76743239  0.77957843  1
  Bi  Bi122  1  0.50659219  0.52729013  0.24722638  1
  Bi  Bi123  1  0.29728372  -0.01291246  -0.00999101  1
  Bi  Bi124  1  -0.02033189  0.00197781  0.28861238  1
  O  O125  1  0.11520258  0.14163882  0.00343067  1
  O  O126  1  0.14796983  0.12348241  0.25137338  1
  O  O127  1  0.13394482  0.15271857  0.49406105  1
  O  O128  1  0.09757038  0.11323380  0.75329003  1
  O  O129  1  0.13230474  0.37218992  0.00338935  1
  O  O130  1  0.13644888  0.39070188  0.24963545  1
  O  O131  1  0.10342690  0.35776925  0.50134864  1
  O  O132  1  0.13456076  0.38561551  0.74875133  1
  O  O133  1  0.13047017  0.64112388  0.00558746  1
  O  O134  1  0.15476300  0.63178086  0.24699017  1
  O  O135  1  0.14372112  0.64414423  0.51074007  1
  O  O136  1  0.10960743  0.59803455  0.75243794  1
  O  O137  1  0.12186942  0.85799196  0.00354286  1
  O  O138  1  0.12940163  0.87695369  0.24299717  1
  O  O139  1  0.14272659  0.83840161  0.51245956  1
  O  O140  1  0.09799715  0.88808762  0.75743470  1
  O  O141  1  0.36257173  0.13278566  -0.00279007  1
  O  O142  1  0.35392110  0.12880761  0.24231710  1
  O  O143  1  0.39128304  0.09176395  0.50346992  1
  O  O144  1  0.34390681  0.13056467  0.74099025  1
  O  O145  1  0.36873209  0.37353269  -0.00493164  1
  O  O146  1  0.36588367  0.36768243  0.24740456  1
  O  O147  1  0.38268026  0.36209455  0.49417462  1
  O  O148  1  0.34811197  0.37931828  0.74455050  1
  O  O149  1  0.39495617  0.61869585  0.00543998  1
  O  O150  1  0.36925714  0.61480995  0.25414030  1
  O  O151  1  0.37943056  0.61724750  0.50327330  1
  O  O152  1  0.36992168  0.60140261  0.75087992  1
  O  O153  1  0.36153155  0.86548407  0.00071516  1
  O  O154  1  0.38300058  0.88685906  0.25886060  1
  O  O155  1  0.33919783  0.89952215  0.50316536  1
  O  O156  1  0.39886513  0.85322413  0.74480734  1
  O  O157  1  0.64177417  0.10166359  -0.00732818  1
  O  O158  1  0.62267167  0.10276097  0.25432220  1
  O  O159  1  0.59086003  0.11398341  0.49104882  1
  O  O160  1  0.62873676  0.12992083  0.75159723  1
  O  O161  1  0.60195253  0.38373138  -0.00541554  1
  O  O162  1  0.61293274  0.37118003  0.25067144  1
  O  O163  1  0.58562067  0.37089540  0.50337334  1
  O  O164  1  0.62021054  0.37876373  0.74561340  1
  O  O165  1  0.62443664  0.65519133  0.01077566  1
  O  O166  1  0.63244192  0.59649502  0.25733147  1
  O  O167  1  0.60467663  0.63398358  0.49832109  1
  O  O168  1  0.62859961  0.63884856  0.75426246  1
  O  O169  1  0.63633248  0.88816299  -0.00483181  1
  O  O170  1  0.59268348  0.88972514  0.26248129  1
  O  O171  1  0.62774872  0.84735439  0.49468210  1
  O  O172  1  0.60197468  0.86502680  0.75251155  1
  O  O173  1  0.85502356  0.15706546  0.00947609  1
  O  O174  1  0.87042454  0.09030264  0.24799517  1
  O  O175  1  0.86787821  0.13543615  0.49403078  1
  O  O176  1  0.89694360  0.14135910  0.74147572  1
  O  O177  1  0.88600613  0.35448489  0.00122847  1
  O  O178  1  0.89848994  0.39339918  0.24409555  1
  O  O179  1  0.88879684  0.39163913  0.50181904  1
  O  O180  1  0.85078046  0.37314919  0.73994252  1
  O  O181  1  0.87627275  0.66150052  0.00899092  1
  O  O182  1  0.86910323  0.61138003  0.24830924  1
  O  O183  1  0.87147046  0.63502694  0.50231807  1
  O  O184  1  0.90367885  0.62375742  0.75294209  1
  O  O185  1  0.86765980  0.84627764  0.01064371  1
  O  O186  1  0.87816665  0.91109602  0.24929390  1
  O  O187  1  0.88021446  0.83398700  0.49984684  1
  O  O188  1  0.88226443  0.89823715  0.75784341  1
  O  O189  1  -0.00251823  0.16310283  0.13753453  1
  O  O190  1  0.01903328  0.10502744  0.39310553  1
  O  O191  1  0.01111253  0.11121084  0.60004545  1
  O  O192  1  -0.00272743  0.11198598  0.89137859  1
  O  O193  1  0.01627319  0.36885205  0.12856410  1
  O  O194  1  0.01330409  0.40955920  0.36161453  1
  O  O195  1  0.00327744  0.35621080  0.64133259  1
  O  O196  1  0.00586281  0.40010007  0.88215502  1
  O  O197  1  0.00531274  0.65210696  0.13060923  1
  O  O198  1  -0.00454856  0.60465800  0.38425955  1
  O  O199  1  0.00508491  0.65633710  0.61653717  1
  O  O200  1  0.00743074  0.59027994  0.89131744  1
  O  O201  1  0.00067868  0.85739583  0.12517909  1
  O  O202  1  0.00398271  0.88143918  0.36381710  1
  O  O203  1  0.00795174  0.84447167  0.62014712  1
  O  O204  1  -0.00631491  0.88829684  0.90068542  1
  O  O205  1  0.23720224  0.11559401  0.10812771  1
  O  O206  1  0.25897628  0.14524763  0.39093830  1
  O  O207  1  0.24735584  0.08258906  0.60073590  1
  O  O208  1  0.23518716  0.14831422  0.87400301  1
  O  O209  1  0.25227974  0.41404131  0.11099286  1
  O  O210  1  0.24822321  0.35335177  0.38551537  1
  O  O211  1  0.24369169  0.38272919  0.59955839  1
  O  O212  1  0.24191548  0.34561428  0.88128983  1
  O  O213  1  0.25868330  0.59634624  0.11711044  1
  O  O214  1  0.25745851  0.64637502  0.39356297  1
  O  O215  1  0.25046494  0.60462291  0.63455738  1
  O  O216  1  0.24107256  0.63783620  0.85724613  1
  O  O217  1  0.24407016  0.89322817  0.11165094  1
  O  O218  1  0.25115662  0.84502603  0.35514252  1
  O  O219  1  0.25057802  0.88111327  0.66240624  1
  O  O220  1  0.23419871  0.85223473  0.87229167  1
  O  O221  1  0.49730009  0.14606119  0.12380430  1
  O  O222  1  0.49008959  0.09274653  0.35769050  1
  O  O223  1  0.48898570  0.14593570  0.64011156  1
  O  O224  1  0.50885810  0.10912859  0.87967693  1
  O  O225  1  0.48772066  0.34341252  0.11732810  1
  O  O226  1  0.48680563  0.39283206  0.35727593  1
  O  O227  1  0.47985833  0.34207537  0.63465220  1
  O  O228  1  0.49409165  0.39078350  0.86167916  1
  O  O229  1  0.50303402  0.63807879  0.15486302  1
  O  O230  1  0.49339287  0.60022383  0.36834758  1
  O  O231  1  0.49031628  0.62687024  0.64430058  1
  O  O232  1  0.49397482  0.59193908  0.86265443  1
  O  O233  1  0.50058672  0.84537708  0.11514097  1
  O  O234  1  0.49155864  0.90853726  0.40924164  1
  O  O235  1  0.48861836  0.87160431  0.59730444  1
  O  O236  1  0.50328786  0.89284563  0.89851862  1
  O  O237  1  0.76172421  0.07384445  0.12105033  1
  O  O238  1  0.73550452  0.15656096  0.38057145  1
  O  O239  1  0.75501571  0.11815621  0.63196468  1
  O  O240  1  0.74906227  0.12203081  0.86267528  1
  O  O241  1  0.75208563  0.37695878  0.12392621  1
  O  O242  1  0.74882140  0.37009061  0.39704936  1
  O  O243  1  0.73903311  0.38751635  0.59687741  1
  O  O244  1  0.74159837  0.36717301  0.86954868  1
  O  O245  1  0.75075656  0.64400802  0.12198531  1
  O  O246  1  0.74839555  0.65270559  0.37794473  1
  O  O247  1  0.75875197  0.61757813  0.64610037  1
  O  O248  1  0.75265058  0.65181377  0.87981527  1
  O  O249  1  0.75451630  0.87858641  0.15379040  1
  O  O250  1  0.74439754  0.84982505  0.37327497  1
  O  O251  1  0.75109891  0.87939340  0.60248259  1
  O  O252  1  0.75129083  0.84799074  0.86620948  1
  O  O253  1  0.09791282  0.00537283  0.12177642  1
  O  O254  1  0.16790529  0.00389660  0.39094282  1
  O  O255  1  0.11517163  -0.01460798  0.62143141  1
  O  O256  1  0.13599154  -0.00204556  0.88962626  1
  O  O257  1  0.15841803  0.25596498  0.13675051  1
  O  O258  1  0.10201548  0.25505944  0.36334549  1
  O  O259  1  0.15193896  0.23749630  0.63249497  1
  O  O260  1  0.08809217  0.25145416  0.86176675  1
  O  O261  1  0.10742743  0.51049783  0.14612473  1
  O  O262  1  0.14317334  0.49983182  0.40038447  1
  O  O263  1  0.10849540  0.49643312  0.60962138  1
  O  O264  1  0.15757322  0.49350878  0.88989726  1
  O  O265  1  0.15529115  0.75153659  0.13834092  1
  O  O266  1  0.11300871  0.74936739  0.36315530  1
  O  O267  1  0.14568057  0.74480649  0.66302314  1
  O  O268  1  0.09370773  0.74545268  0.87211351  1
  O  O269  1  0.38603043  0.00747062  0.10527808  1
  O  O270  1  0.34400360  -0.00089927  0.37178814  1
  O  O271  1  0.37826509  -0.00556791  0.65803994  1
  O  O272  1  0.35571974  0.00388757  0.85720246  1
  O  O273  1  0.33839281  0.24808800  0.12495491  1
  O  O274  1  0.40166921  0.24192372  0.37551542  1
  O  O275  1  0.34333584  0.23875463  0.61029553  1
  O  O276  1  0.38198571  0.25609712  0.85156845  1
  O  O277  1  0.41149438  0.48864850  0.12598958  1
  O  O278  1  0.34433727  0.49795128  0.38013022  1
  O  O279  1  0.39150354  0.49192573  0.61981717  1
  O  O280  1  0.33723365  0.49352105  0.88478959  1
  O  O281  1  0.35284221  0.74138056  0.12356328  1
  O  O282  1  0.39884809  0.75449697  0.38028026  1
  O  O283  1  0.36251727  0.74883395  0.61741052  1
  O  O284  1  0.38412940  0.72924989  0.87512287  1
  O  O285  1  0.60114480  -0.00477618  0.12641751  1
  O  O286  1  0.64749931  -0.00473544  0.38850969  1
  O  O287  1  0.63954167  0.00287599  0.62924573  1
  O  O288  1  0.63432876  -0.00810143  0.85690623  1
  O  O289  1  0.66418896  0.23664101  0.10058747  1
  O  O290  1  0.58697604  0.24576798  0.37401875  1
  O  O291  1  0.62086245  0.25541035  0.63119187  1
  O  O292  1  0.61129802  0.25250450  0.88351675  1
  O  O293  1  0.61270663  0.51301784  0.10427912  1
  O  O294  1  0.63618411  0.50465322  0.40721962  1
  O  O295  1  0.59647436  0.49520673  0.61781197  1
  O  O296  1  0.64820388  0.49685019  0.88035307  1
  O  O297  1  0.63197343  0.74964347  0.16793953  1
  O  O298  1  0.59819813  0.74492242  0.36076339  1
  O  O299  1  0.61020992  0.74861000  0.62530659  1
  O  O300  1  0.59416414  0.75460002  0.87723486  1
  O  O301  1  0.90250043  -0.00232244  0.09999255  1
  O  O302  1  0.88667825  0.00110450  0.39198122  1
  O  O303  1  0.88762997  -0.00327209  0.59225437  1
  O  O304  1  0.86136905  -0.00311039  0.91716078  1
  O  O305  1  0.84368495  0.23280913  0.15600509  1
  O  O306  1  0.88916589  0.25467022  0.38170017  1
  O  O307  1  0.86040523  0.26118146  0.61761368  1
  O  O308  1  0.90722166  0.24904633  0.85852328  1
  O  O309  1  0.87847636  0.51836804  0.11077311  1
  O  O310  1  0.84846639  0.50744581  0.37197177  1
  O  O311  1  0.89628619  0.50381962  0.62976347  1
  O  O312  1  0.85945757  0.49812086  0.86742729  1
  O  O313  1  0.87239701  0.75762794  0.16169754  1
  O  O314  1  0.89181703  0.74503517  0.34806349  1
  O  O315  1  0.86740319  0.74613767  0.65476302  1
  O  O316  1  0.90225394  0.75864471  0.86648889  1
