# generated using pymatgen
data_Mg32Ti42(Bi17O64)3
_symmetry_space_group_name_H-M   'P 1'
_cell_length_a   15.94956198
_cell_length_b   15.93515985
_cell_length_c   15.95160850
_cell_angle_alpha   89.99330323
_cell_angle_beta   89.94521392
_cell_angle_gamma   89.98355604
_symmetry_Int_Tables_number   1
_chemical_formula_structural   Mg32Ti42(Bi17O64)3
_chemical_formula_sum   'Mg32 Ti42 Bi51 O192'
_cell_volume   4054.23994175
_cell_formula_units_Z   1
loop_
 _symmetry_equiv_pos_site_id
 _symmetry_equiv_pos_as_xyz
  1  'x, y, z'
loop_
 _atom_site_type_symbol
 _atom_site_label
 _atom_site_symmetry_multiplicity
 _atom_site_fract_x
 _atom_site_fract_y
 _atom_site_fract_z
 _atom_site_occupancy
  Mg  Mg0  1  0.12684990  0.88055155  0.36040029  1
  Mg  Mg1  1  0.63116838  0.87456674  0.87448146  1
  Mg  Mg2  1  0.88184586  0.87475425  0.87821411  1
  Mg  Mg3  1  0.37983248  0.87256024  0.62291453  1
  Mg  Mg4  1  0.62349945  0.13243079  0.12651969  1
  Mg  Mg5  1  0.62708001  0.37900026  0.63631113  1
  Mg  Mg6  1  0.11749612  0.37814874  0.62774965  1
  Mg  Mg7  1  0.37431040  0.87727898  0.87540901  1
  Mg  Mg8  1  0.37132857  0.38068675  0.37928195  1
  Mg  Mg9  1  0.12333154  0.12739808  0.87246549  1
  Mg  Mg10  1  0.62840938  0.62061118  0.36916208  1
  Mg  Mg11  1  0.62333713  0.86890237  0.12783562  1
  Mg  Mg12  1  0.37206462  0.12805044  0.38584003  1
  Mg  Mg13  1  0.88624582  0.87098737  0.12809932  1
  Mg  Mg14  1  0.63025357  0.37410566  0.37442412  1
  Mg  Mg15  1  0.62571136  0.12482107  0.63035847  1
  Mg  Mg16  1  0.13278561  0.63379931  0.12452953  1
  Mg  Mg17  1  0.12671870  0.12549263  0.12708403  1
  Mg  Mg18  1  0.38069586  0.87574728  0.37238957  1
  Mg  Mg19  1  0.31584609  0.27100162  0.77367780  1
  Mg  Mg20  1  0.71723086  0.47845130  0.25645770  1
  Mg  Mg21  1  0.52825395  0.53157931  -0.02528758  1
  Mg  Mg22  1  0.00102108  0.04841918  0.29126371  1
  Mg  Mg23  1  0.66841363  -0.00223901  0.24595701  1
  Mg  Mg24  1  0.46370087  0.05987326  0.25096519  1
  Mg  Mg25  1  -0.02831892  0.46950218  0.77749826  1
  Mg  Mg26  1  0.27805901  0.74733723  0.21407927  1
  Mg  Mg27  1  0.00787876  0.53555813  0.04036224  1
  Mg  Mg28  1  0.67956026  0.24047220  -0.01112036  1
  Mg  Mg29  1  0.77948806  0.49404771  0.44907429  1
  Mg  Mg30  1  0.49093337  0.21749560  -0.05237079  1
  Mg  Mg31  1  0.54769076  0.24017400  0.75716506  1
  Ti  Ti32  1  0.38526808  0.14465943  0.63433888  1
  Ti  Ti33  1  0.87659889  0.12550013  0.63317145  1
  Ti  Ti34  1  0.37657810  0.38395662  0.63512845  1
  Ti  Ti35  1  0.62178908  0.11552541  0.86864775  1
  Ti  Ti36  1  0.87650374  0.13781799  0.13186514  1
  Ti  Ti37  1  0.13039417  0.87528479  0.13094490  1
  Ti  Ti38  1  0.87582334  0.37482871  0.36375352  1
  Ti  Ti39  1  0.13564500  0.61728866  0.88361250  1
  Ti  Ti40  1  0.86519134  0.61627543  0.35821611  1
  Ti  Ti41  1  0.12662008  0.88588451  0.88311115  1
  Ti  Ti42  1  0.87329596  0.37406138  0.89094517  1
  Ti  Ti43  1  0.12973664  0.62181081  0.62831878  1
  Ti  Ti44  1  0.37185764  0.11636986  0.87313554  1
  Ti  Ti45  1  0.87695996  0.89538691  0.36227405  1
  Ti  Ti46  1  0.11695354  0.37440160  0.86592103  1
  Ti  Ti47  1  0.36879392  0.62396198  0.63492957  1
  Ti  Ti48  1  0.64388421  0.62888768  0.87967161  1
  Ti  Ti49  1  0.37239809  0.14588977  0.12410007  1
  Ti  Ti50  1  0.36833657  0.62443192  0.37906458  1
  Ti  Ti51  1  0.11459146  0.36846661  0.13593321  1
  Ti  Ti52  1  0.87485610  0.62686695  0.12037966  1
  Ti  Ti53  1  0.87247765  0.37485174  0.62888230  1
  Ti  Ti54  1  0.11984094  0.63128353  0.37072907  1
  Ti  Ti55  1  0.61054144  0.37126501  0.12038510  1
  Ti  Ti56  1  0.38131996  0.61922353  0.11184787  1
  Ti  Ti57  1  0.11968396  0.13170955  0.62833598  1
  Ti  Ti58  1  0.61827433  0.11966842  0.37883588  1
  Ti  Ti59  1  0.13073289  0.12233121  0.38710394  1
  Ti  Ti60  1  0.37984994  0.38279839  0.12823171  1
  Ti  Ti61  1  0.61826732  0.62660798  0.61691473  1
  Ti  Ti62  1  0.38252137  0.87916297  0.13002341  1
  Ti  Ti63  1  0.12417859  0.38817586  0.37950916  1
  Ti  Ti64  1  0.87709633  0.12375524  0.88558698  1
  Ti  Ti65  1  0.87252306  0.37322112  0.13082764  1
  Ti  Ti66  1  0.87786552  0.61102152  0.88485480  1
  Ti  Ti67  1  0.61878153  0.86671171  0.61740734  1
  Ti  Ti68  1  0.37542732  0.62301992  0.87546173  1
  Ti  Ti69  1  0.39451431  0.38802604  0.89543377  1
  Ti  Ti70  1  0.62461777  0.38096612  0.87434633  1
  Ti  Ti71  1  0.63605625  0.61752949  0.12129084  1
  Ti  Ti72  1  0.62127084  0.87451687  0.38046629  1
  Ti  Ti73  1  0.86999023  0.12921746  0.38964108  1
  Bi  Bi74  1  0.48730560  -0.00882697  0.51810214  1
  Bi  Bi75  1  -0.02399398  0.74888903  0.53514261  1
  Bi  Bi76  1  0.26654744  0.25625496  0.51055762  1
  Bi  Bi77  1  0.74721080  0.78102337  0.26271996  1
  Bi  Bi78  1  0.74246342  0.25241428  0.53463429  1
  Bi  Bi79  1  0.01100966  0.24405637  -0.00678463  1
  Bi  Bi80  1  0.00332837  0.70513030  0.76587099  1
  Bi  Bi81  1  0.23706569  0.48470486  0.52023844  1
  Bi  Bi82  1  0.52568283  0.48909859  0.50041378  1
  Bi  Bi83  1  0.76166305  0.24550622  0.77834927  1
  Bi  Bi84  1  -0.00951521  0.01514553  0.01516703  1
  Bi  Bi85  1  0.00936456  -0.05050253  0.71233859  1
  Bi  Bi86  1  0.78307157  0.76106557  0.71959317  1
  Bi  Bi87  1  0.00034014  0.76664973  0.25974440  1
  Bi  Bi88  1  0.24669692  0.02663848  0.73701996  1
  Bi  Bi89  1  0.01950635  -0.03970605  0.50370119  1
  Bi  Bi90  1  0.01011718  0.25874827  0.74424936  1
  Bi  Bi91  1  0.50151048  0.77781357  -0.00532509  1
  Bi  Bi92  1  0.23508490  0.24572545  0.00862601  1
  Bi  Bi93  1  0.00047445  0.76922806  -0.01419885  1
  Bi  Bi94  1  0.49982196  0.76510562  0.77671145  1
  Bi  Bi95  1  0.24249741  -0.02486445  0.50450073  1
  Bi  Bi96  1  0.50538948  0.02486424  0.03644983  1
  Bi  Bi97  1  0.75646636  0.78609871  0.00075037  1
  Bi  Bi98  1  0.47073967  0.73814307  0.49804202  1
  Bi  Bi99  1  0.50758324  0.26602724  0.27305126  1
  Bi  Bi100  1  0.26075102  0.52652582  0.25209196  1
  Bi  Bi101  1  0.77379199  -0.02937965  0.52832047  1
  Bi  Bi102  1  0.52379355  0.26321327  0.51953158  1
  Bi  Bi103  1  0.78004257  -0.02505676  0.75521155  1
  Bi  Bi104  1  0.25490110  0.47931916  0.76755479  1
  Bi  Bi105  1  0.51736458  0.74377448  0.24123976  1
  Bi  Bi106  1  0.26060008  0.27031424  0.26956841  1
  Bi  Bi107  1  0.73808165  0.48049919  0.01395601  1
  Bi  Bi108  1  0.23973606  0.00660435  0.00478890  1
  Bi  Bi109  1  -0.01149032  0.25600181  0.49831421  1
  Bi  Bi110  1  0.51629619  0.51957266  0.74323255  1
  Bi  Bi111  1  0.75970040  0.00193592  0.04541005  1
  Bi  Bi112  1  0.25520324  0.77393616  0.00714915  1
  Bi  Bi113  1  0.23027634  0.48309863  0.02217375  1
  Bi  Bi114  1  0.76529502  0.70619506  0.50081010  1
  Bi  Bi115  1  -0.02821543  0.50441819  0.53005905  1
  Bi  Bi116  1  0.77574724  0.53096776  0.72171599  1
  Bi  Bi117  1  0.00009604  0.52285253  0.24214204  1
  Bi  Bi118  1  0.02117448  0.23890521  0.26830345  1
  Bi  Bi119  1  0.27248309  -0.00581736  0.27321786  1
  Bi  Bi120  1  0.21431321  0.75326831  0.48792362  1
  Bi  Bi121  1  0.22769025  0.79566284  0.72263335  1
  Bi  Bi122  1  0.50188434  -0.01547602  0.74693000  1
  Bi  Bi123  1  0.50764469  0.51456939  0.26484794  1
  Bi  Bi124  1  0.73424086  0.22045058  0.25342974  1
  O  O125  1  0.12496272  0.16350779  -0.00170213  1
  O  O126  1  0.09673661  0.11758817  0.24846882  1
  O  O127  1  0.12564304  0.13953908  0.50176794  1
  O  O128  1  0.12721607  0.10133102  0.74724264  1
  O  O129  1  0.14038177  0.35527007  -0.01406565  1
  O  O130  1  0.09926337  0.38349686  0.24908763  1
  O  O131  1  0.15554006  0.36382434  0.49295720  1
  O  O132  1  0.07073982  0.38836297  0.74833810  1
  O  O133  1  0.09986735  0.61450361  -0.00659165  1
  O  O134  1  0.13825093  0.60121684  0.25182952  1
  O  O135  1  0.12101266  0.65035677  0.49192043  1
  O  O136  1  0.13233136  0.62681768  0.74355472  1
  O  O137  1  0.12852874  0.84466287  -0.00159652  1
  O  O138  1  0.14197364  0.90089695  0.23870360  1
  O  O139  1  0.13562615  0.87596666  0.48983715  1
  O  O140  1  0.12140225  0.87571052  0.75977580  1
  O  O141  1  0.41010088  0.12734288  -0.00408224  1
  O  O142  1  0.36057482  0.14092156  0.24051257  1
  O  O143  1  0.38132373  0.14570562  0.51576760  1
  O  O144  1  0.34324450  0.14185720  0.75660753  1
  O  O145  1  0.35192747  0.38975947  0.00430538  1
  O  O146  1  0.38293616  0.35125346  0.24534227  1
  O  O147  1  0.34399743  0.37527835  0.50812890  1
  O  O148  1  0.37746978  0.38489905  0.75594386  1
  O  O149  1  0.40738652  0.60049758  0.00165540  1
  O  O150  1  0.34107729  0.64365796  0.25200681  1
  O  O151  1  0.40128387  0.61267165  0.49609055  1
  O  O152  1  0.35766823  0.62735967  0.75233743  1
  O  O153  1  0.39002042  0.87000354  0.00488475  1
  O  O154  1  0.34617775  0.85242494  0.24047212  1
  O  O155  1  0.36660830  0.91391096  0.50082491  1
  O  O156  1  0.40929472  0.87309389  0.74560685  1
  O  O157  1  0.59677960  0.13512743  -0.00415258  1
  O  O158  1  0.63801602  0.11997681  0.25013866  1
  O  O159  1  0.61186123  0.13790652  0.49235732  1
  O  O160  1  0.64005167  0.15262432  0.75707394  1
  O  O161  1  0.65932026  0.36356023  0.00511775  1
  O  O162  1  0.61528424  0.39240916  0.23882811  1
  O  O163  1  0.61655086  0.37178015  0.50067993  1
  O  O164  1  0.59514893  0.36641851  0.76088944  1
  O  O165  1  0.60384462  0.63665047  -0.00174750  1
  O  O166  1  0.63703415  0.57771546  0.23448096  1
  O  O167  1  0.60059327  0.61989517  0.50117699  1
  O  O168  1  0.63844154  0.59693422  0.75712144  1
  O  O169  1  0.62442449  0.84926600  0.00246362  1
  O  O170  1  0.63118426  0.87744764  0.25450659  1
  O  O171  1  0.65700343  0.88462309  0.49637720  1
  O  O172  1  0.59285212  0.87183432  0.73726506  1
  O  O173  1  0.86126208  0.11046598  -0.00136127  1
  O  O174  1  0.90453694  0.13642225  0.24520864  1
  O  O175  1  0.87700756  0.10058683  0.49819824  1
  O  O176  1  0.86313804  0.14321088  0.74981035  1
  O  O177  1  0.85515394  0.38069536  0.00361569  1
  O  O178  1  0.88846215  0.35319982  0.25152942  1
  O  O179  1  0.85866847  0.41453721  0.50342435  1
  O  O180  1  0.89323187  0.35614966  0.74388320  1
  O  O181  1  0.90135850  0.59459302  -0.00071600  1
  O  O182  1  0.87268322  0.60784745  0.23913185  1
  O  O183  1  0.85775492  0.60050947  0.48330829  1
  O  O184  1  0.84888535  0.64094624  0.75612773  1
  O  O185  1  0.88271958  0.85781864  0.00155609  1
  O  O186  1  0.88601419  0.84637936  0.25046603  1
  O  O187  1  0.87076483  0.88724045  0.48286562  1
  O  O188  1  0.86960862  0.86515154  0.75244223  1
  O  O189  1  -0.00358277  0.13367760  0.09213823  1
  O  O190  1  -0.00241543  0.15172644  0.37840563  1
  O  O191  1  -0.00654409  0.13821865  0.62826397  1
  O  O192  1  -0.00820156  0.11982199  0.89702671  1
  O  O193  1  0.00620465  0.33361700  0.11079354  1
  O  O194  1  0.00357487  0.34791775  0.38994691  1
  O  O195  1  -0.00485600  0.37079700  0.58522187  1
  O  O196  1  -0.01150045  0.39403098  0.89023107  1
  O  O197  1  0.00196335  0.62766888  0.13757603  1
  O  O198  1  0.00018694  0.63948436  0.35330062  1
  O  O199  1  0.00943370  0.64714827  0.62101138  1
  O  O200  1  -0.00707621  0.58737957  0.83576195  1
  O  O201  1  0.01603337  0.84654938  0.13223283  1
  O  O202  1  -0.00180351  0.85072082  0.36945413  1
  O  O203  1  0.00043117  0.85948049  0.61076534  1
  O  O204  1  0.00717917  0.87852128  0.89145074  1
  O  O205  1  0.25938433  0.11024856  0.09784659  1
  O  O206  1  0.24393983  0.09127002  0.37858330  1
  O  O207  1  0.24164715  0.10163492  0.62386887  1
  O  O208  1  0.25884110  0.13507855  0.90047842  1
  O  O209  1  0.25007516  0.40039275  0.13381244  1
  O  O210  1  0.24060070  0.39041669  0.34446891  1
  O  O211  1  0.24565864  0.40838716  0.63755995  1
  O  O212  1  0.22780314  0.35297010  0.82383870  1
  O  O213  1  0.25662805  0.59102252  0.11207718  1
  O  O214  1  0.25110965  0.60427923  0.38605200  1
  O  O215  1  0.25477543  0.60352618  0.61035140  1
  O  O216  1  0.24776051  0.63506512  0.89822625  1
  O  O217  1  0.25805421  0.89165445  0.09372561  1
  O  O218  1  0.25177833  0.90904011  0.37776165  1
  O  O219  1  0.25915515  0.90442295  0.64556046  1
  O  O220  1  0.24695660  0.86008575  0.87838792  1
  O  O221  1  0.49592209  0.12210421  0.13989580  1
  O  O222  1  0.50091049  0.14147290  0.34993029  1
  O  O223  1  0.49206430  0.17542470  0.65673719  1
  O  O224  1  0.49949985  0.13456856  0.84868395  1
  O  O225  1  0.49842242  0.35583647  0.11118429  1
  O  O226  1  0.49386205  0.34098467  0.38310841  1
  O  O227  1  0.48866504  0.36304846  0.61171107  1
  O  O228  1  0.50113672  0.41656267  0.91358396  1
  O  O229  1  0.49511853  0.63685569  0.15400060  1
  O  O230  1  0.49813489  0.63676012  0.33957010  1
  O  O231  1  0.50038523  0.63206742  0.65518199  1
  O  O232  1  0.49473043  0.59973240  0.86084204  1
  O  O233  1  0.49666547  0.84358191  0.13057347  1
  O  O234  1  0.50970323  0.86108602  0.39371392  1
  O  O235  1  0.50258459  0.86783207  0.58165518  1
  O  O236  1  0.50417428  0.86036576  0.87922244  1
  O  O237  1  0.75834306  0.10412123  0.13699905  1
  O  O238  1  0.75487433  0.12638109  0.36687664  1
  O  O239  1  0.75369290  0.13413317  0.60969531  1
  O  O240  1  0.73460079  0.16491522  0.89318742  1
  O  O241  1  0.76279593  0.41693206  0.14612421  1
  O  O242  1  0.75740241  0.40358586  0.35928717  1
  O  O243  1  0.75510220  0.36710884  0.63486278  1
  O  O244  1  0.74261886  0.36128484  0.86096921  1
  O  O245  1  0.75167208  0.60442594  0.10519508  1
  O  O246  1  0.75119310  0.58129176  0.36338574  1
  O  O247  1  0.73668303  0.61709051  0.61577874  1
  O  O248  1  0.75677937  0.63210199  0.90082438  1
  O  O249  1  0.75411924  0.87675425  0.11523875  1
  O  O250  1  0.76015670  0.89185023  0.34983668  1
  O  O251  1  0.73721363  0.89262075  0.63866052  1
  O  O252  1  0.75507252  0.86089851  0.88042296  1
  O  O253  1  0.12158128  -0.00323332  0.08544053  1
  O  O254  1  0.08923958  0.00842001  0.38057361  1
  O  O255  1  0.09332486  0.00381066  0.61298689  1
  O  O256  1  0.13551960  -0.00063048  0.89956167  1
  O  O257  1  0.15927201  0.25532171  0.13245958  1
  O  O258  1  0.14048111  0.24428735  0.35405052  1
  O  O259  1  0.12021779  0.24809623  0.64623932  1
  O  O260  1  0.09112056  0.25414960  0.85677361  1
  O  O261  1  0.10766916  0.48465028  0.10091646  1
  O  O262  1  0.10623411  0.49955479  0.39222277  1
  O  O263  1  0.11308623  0.50758134  0.59611374  1
  O  O264  1  0.14456816  0.49406060  0.86886855  1
  O  O265  1  0.17507245  0.75509985  0.13707786  1
  O  O266  1  0.14557737  0.74649253  0.35696332  1
  O  O267  1  0.15729009  0.74601514  0.61830949  1
  O  O268  1  0.09564893  0.73284114  0.86931667  1
  O  O269  1  0.40355181  -0.00746795  0.14395967  1
  O  O270  1  0.39410423  0.00324492  0.33955627  1
  O  O271  1  0.41147652  0.01947927  0.63663700  1
  O  O272  1  0.37283325  0.00441522  0.86514650  1
  O  O273  1  0.35778955  0.25521377  0.10915085  1
  O  O274  1  0.33295727  0.25045260  0.38550922  1
  O  O275  1  0.33892291  0.26146515  0.64259873  1
  O  O276  1  0.39086737  0.26835657  0.88137203  1
  O  O277  1  0.39240009  0.49737576  0.14812950  1
  O  O278  1  0.38931222  0.50568298  0.35516865  1
  O  O279  1  0.39486030  0.50321809  0.63170039  1
  O  O280  1  0.34536739  0.49753580  0.87416840  1
  O  O281  1  0.35535288  0.73735970  0.11020348  1
  O  O282  1  0.37191819  0.74810520  0.40028485  1
  O  O283  1  0.37105033  0.74308842  0.60298547  1
  O  O284  1  0.39052872  0.73821322  0.88383519  1
  O  O285  1  0.62455377  -0.00079192  0.12060751  1
  O  O286  1  0.61814581  0.00251436  0.36708483  1
  O  O287  1  0.58867968  0.00159342  0.62621233  1
  O  O288  1  0.63120810  0.00426771  0.86179711  1
  O  O289  1  0.65051897  0.25574937  0.12719652  1
  O  O290  1  0.63688198  0.24975929  0.34750158  1
  O  O291  1  0.62830289  0.25356628  0.61673230  1
  O  O292  1  0.59149486  0.26590121  0.89167912  1
  O  O293  1  0.60799423  0.49657132  0.08433790  1
  O  O294  1  0.59296451  0.49591204  0.37911664  1
  O  O295  1  0.60376612  0.50221902  0.62260118  1
  O  O296  1  0.63665040  0.50068299  0.89897761  1
  O  O297  1  0.63329431  0.73321562  0.15640570  1
  O  O298  1  0.64885407  0.75150668  0.36343320  1
  O  O299  1  0.63045022  0.74996203  0.61954223  1
  O  O300  1  0.61852687  0.73937606  0.85626387  1
  O  O301  1  0.88919874  -0.00143609  0.11386033  1
  O  O302  1  0.90021332  0.00676664  0.35223501  1
  O  O303  1  0.86920262  0.00553596  0.64511940  1
  O  O304  1  0.86576784  0.00719845  0.85985263  1
  O  O305  1  0.85605277  0.24937758  0.11801337  1
  O  O306  1  0.86711403  0.25417928  0.40748495  1
  O  O307  1  0.87384512  0.25255799  0.59592491  1
  O  O308  1  0.87698327  0.25288339  0.87624076  1
  O  O309  1  0.92290791  0.48104448  0.12726062  1
  O  O310  1  0.90528213  0.49148340  0.36082195  1
  O  O311  1  0.90349686  0.49331388  0.65520414  1
  O  O312  1  0.85714326  0.49284789  0.84824803  1
  O  O313  1  0.86393917  0.73626951  0.11596021  1
  O  O314  1  0.84418495  0.73206844  0.37583246  1
  O  O315  1  0.85192030  0.74860560  0.59801255  1
  O  O316  1  0.90909605  0.72941790  0.88104561  1
