# generated using pymatgen
data_Mg32Ti42(Bi17O64)3
_symmetry_space_group_name_H-M   'P 1'
_cell_length_a   15.93804086
_cell_length_b   15.91412959
_cell_length_c   15.93727241
_cell_angle_alpha   90.10848905
_cell_angle_beta   90.18155249
_cell_angle_gamma   90.08250438
_symmetry_Int_Tables_number   1
_chemical_formula_structural   Mg32Ti42(Bi17O64)3
_chemical_formula_sum   'Mg32 Ti42 Bi51 O192'
_cell_volume   4042.29876780
_cell_formula_units_Z   1
loop_
 _symmetry_equiv_pos_site_id
 _symmetry_equiv_pos_as_xyz
  1  'x, y, z'
loop_
 _atom_site_type_symbol
 _atom_site_label
 _atom_site_symmetry_multiplicity
 _atom_site_fract_x
 _atom_site_fract_y
 _atom_site_fract_z
 _atom_site_occupancy
  Mg  Mg0  1  0.62116025  0.13259574  0.37730876  1
  Mg  Mg1  1  0.11490487  0.87950847  0.86884587  1
  Mg  Mg2  1  0.37465334  0.87786454  0.37752573  1
  Mg  Mg3  1  0.12695103  0.87043445  0.62595842  1
  Mg  Mg4  1  0.12178518  0.37664147  0.11983983  1
  Mg  Mg5  1  0.62600641  0.12726340  0.88499995  1
  Mg  Mg6  1  0.11761365  0.87687279  0.12728078  1
  Mg  Mg7  1  0.62043241  0.62909085  0.11774253  1
  Mg  Mg8  1  0.37806652  0.37720197  0.36823969  1
  Mg  Mg9  1  0.87228757  0.62379176  0.61297402  1
  Mg  Mg10  1  0.87245430  0.13341498  0.37142748  1
  Mg  Mg11  1  0.37058831  0.62697435  0.11952115  1
  Mg  Mg12  1  0.37649499  0.37208679  0.86751789  1
  Mg  Mg13  1  0.62595486  0.87919344  0.62635981  1
  Mg  Mg14  1  0.37765795  0.11583844  0.63118400  1
  Mg  Mg15  1  0.62274007  0.87279978  0.88620668  1
  Mg  Mg16  1  0.87381479  0.63303259  0.87051120  1
  Mg  Mg17  1  0.37897824  0.89002785  0.87815713  1
  Mg  Mg18  1  0.37163751  0.12137146  0.38390319  1
  Mg  Mg19  1  0.50660567  0.51323617  0.45623969  1
  Mg  Mg20  1  0.77177494  0.29081360  0.24053726  1
  Mg  Mg21  1  0.81297439  0.71830484  0.03189235  1
  Mg  Mg22  1  0.51824502  0.01526379  0.00365015  1
  Mg  Mg23  1  0.26778578  0.45984204  -0.02285422  1
  Mg  Mg24  1  0.23119506  0.00013129  0.77063712  1
  Mg  Mg25  1  0.54753817  0.27032324  0.24331016  1
  Mg  Mg26  1  -0.01590685  0.50750980  0.19293063  1
  Mg  Mg27  1  0.72957072  0.05795050  0.25360108  1
  Mg  Mg28  1  -0.01560816  0.75904750  0.04916758  1
  Mg  Mg29  1  0.67931235  0.42178704  0.54841400  1
  Mg  Mg30  1  0.27109296  0.74939742  0.28066640  1
  Mg  Mg31  1  -0.01267391  0.75411479  0.45471372  1
  Ti  Ti32  1  0.36721266  0.62171575  0.86536405  1
  Ti  Ti33  1  0.14002378  0.63207125  0.62100712  1
  Ti  Ti34  1  0.13275924  0.62543664  0.87834230  1
  Ti  Ti35  1  0.63193908  0.37854461  0.12373793  1
  Ti  Ti36  1  0.88181365  0.37677981  0.87523976  1
  Ti  Ti37  1  0.62470200  0.62248572  0.60158225  1
  Ti  Ti38  1  0.62612857  0.13644862  0.12554879  1
  Ti  Ti39  1  0.87712438  0.88200062  0.12922679  1
  Ti  Ti40  1  0.11488863  0.11394525  0.62528722  1
  Ti  Ti41  1  0.62654374  0.38612586  0.36826242  1
  Ti  Ti42  1  0.62924302  0.11852327  0.62715529  1
  Ti  Ti43  1  0.38116057  0.37437799  0.12742686  1
  Ti  Ti44  1  0.13526927  0.12668334  0.13651675  1
  Ti  Ti45  1  0.85687455  0.62270975  0.38628150  1
  Ti  Ti46  1  0.87763375  0.38722621  0.37192096  1
  Ti  Ti47  1  0.37966941  0.38145037  0.62035003  1
  Ti  Ti48  1  0.37916338  0.12587667  0.11757045  1
  Ti  Ti49  1  0.62355821  0.63238035  0.36669331  1
  Ti  Ti50  1  0.87188849  0.12302243  0.87087897  1
  Ti  Ti51  1  0.87915208  0.12131556  0.61632849  1
  Ti  Ti52  1  0.87414198  0.36998352  0.11806400  1
  Ti  Ti53  1  0.37470030  0.61683768  0.38508368  1
  Ti  Ti54  1  0.87356652  0.13127443  0.13469021  1
  Ti  Ti55  1  0.63045661  0.36525029  0.87576033  1
  Ti  Ti56  1  0.13348656  0.38800542  0.36415702  1
  Ti  Ti57  1  0.87866839  0.87189022  0.36156822  1
  Ti  Ti58  1  0.14586509  0.62799676  0.35531916  1
  Ti  Ti59  1  0.61562225  0.87617571  0.36603262  1
  Ti  Ti60  1  0.11489442  0.13413979  0.38495785  1
  Ti  Ti61  1  0.13027475  0.37892607  0.88497442  1
  Ti  Ti62  1  0.86896063  0.85796162  0.88059118  1
  Ti  Ti63  1  0.12066713  0.86837772  0.36333684  1
  Ti  Ti64  1  0.37625336  0.61861411  0.62522552  1
  Ti  Ti65  1  0.37462437  0.11427134  0.87403222  1
  Ti  Ti66  1  0.12738109  0.12593958  0.86579912  1
  Ti  Ti67  1  0.37930950  0.88459298  0.11159803  1
  Ti  Ti68  1  0.62784549  0.63916467  0.87654961  1
  Ti  Ti69  1  0.36387517  0.88971583  0.63247996  1
  Ti  Ti70  1  0.87846495  0.86861583  0.61321455  1
  Ti  Ti71  1  0.12606545  0.62895956  0.11700113  1
  Ti  Ti72  1  0.60662693  0.88545348  0.13401753  1
  Ti  Ti73  1  0.87122212  0.37729891  0.60879856  1
  Bi  Bi74  1  -0.02967566  0.71326825  0.24287853  1
  Bi  Bi75  1  0.53896648  0.49927956  0.73238800  1
  Bi  Bi76  1  0.22529849  -0.01547314  0.00059287  1
  Bi  Bi77  1  0.25256993  0.01737584  0.50723980  1
  Bi  Bi78  1  0.74964559  0.74337991  0.73003963  1
  Bi  Bi79  1  0.76324177  0.25469231  0.72449705  1
  Bi  Bi80  1  0.21747985  0.77026446  -0.00493920  1
  Bi  Bi81  1  0.75799175  0.25087282  0.46951830  1
  Bi  Bi82  1  0.02093861  0.28087582  0.73051491  1
  Bi  Bi83  1  0.02584367  0.23944312  -0.00729767  1
  Bi  Bi84  1  0.24013454  0.77999203  0.75904357  1
  Bi  Bi85  1  0.76765227  0.24411223  -0.02043229  1
  Bi  Bi86  1  0.73207015  -0.01785860  0.02326330  1
  Bi  Bi87  1  0.02940515  0.28470402  0.51210000  1
  Bi  Bi88  1  0.26552984  0.23473755  -0.01112069  1
  Bi  Bi89  1  0.47310243  0.73540028  0.24140569  1
  Bi  Bi90  1  0.48735459  0.77743142  0.52061290  1
  Bi  Bi91  1  0.26333473  -0.02342217  0.25602769  1
  Bi  Bi92  1  0.72728439  0.77117847  0.49698569  1
  Bi  Bi93  1  0.49158090  0.50962671  -0.03087165  1
  Bi  Bi94  1  0.24777524  0.77287723  0.48658569  1
  Bi  Bi95  1  0.77536171  0.53341044  0.20874464  1
  Bi  Bi96  1  0.49842505  0.01855880  0.50049204  1
  Bi  Bi97  1  0.01587789  -0.02717944  0.49649106  1
  Bi  Bi98  1  0.27547536  0.23779723  0.26746653  1
  Bi  Bi99  1  0.50017730  0.50651293  0.23464589  1
  Bi  Bi100  1  -0.00250170  0.74479737  0.72933973  1
  Bi  Bi101  1  0.48908396  0.77853917  0.75706751  1
  Bi  Bi102  1  0.00274239  0.51876024  0.74274148  1
  Bi  Bi103  1  0.50835545  0.28156734  0.48148228  1
  Bi  Bi104  1  0.48765497  0.03844362  0.25995835  1
  Bi  Bi105  1  0.49358374  0.27770498  -0.00925263  1
  Bi  Bi106  1  -0.01229432  0.02474681  0.26233215  1
  Bi  Bi107  1  0.27152355  0.24160858  0.73319327  1
  Bi  Bi108  1  0.01233579  0.54144007  0.47090621  1
  Bi  Bi109  1  0.73727100  0.00257328  0.46321747  1
  Bi  Bi110  1  0.76681488  0.50145767  0.73567219  1
  Bi  Bi111  1  0.73150642  0.75641764  0.20797349  1
  Bi  Bi112  1  0.22773956  0.48417433  0.74430572  1
  Bi  Bi113  1  0.01504456  0.27075948  0.24216785  1
  Bi  Bi114  1  0.48440379  0.74334458  -0.00448403  1
  Bi  Bi115  1  -0.02732377  -0.01285679  0.74354224  1
  Bi  Bi116  1  0.73676945  -0.02788627  0.76736757  1
  Bi  Bi117  1  0.23069846  0.47343427  0.51885749  1
  Bi  Bi118  1  0.73535078  0.51387031  -0.02278352  1
  Bi  Bi119  1  -0.01836115  -0.00398192  -0.01463781  1
  Bi  Bi120  1  0.24247449  0.50146564  0.20069517  1
  Bi  Bi121  1  0.52181803  0.01380552  0.76638609  1
  Bi  Bi122  1  0.26715859  0.25234582  0.50898537  1
  Bi  Bi123  1  -0.01885506  0.54276511  -0.00454397  1
  Bi  Bi124  1  0.52564667  0.26080780  0.72359973  1
  O  O125  1  0.13276520  0.14455034  -0.00472150  1
  O  O126  1  0.13124616  0.11866038  0.25324419  1
  O  O127  1  0.08570760  0.12171298  0.49760769  1
  O  O128  1  0.14528744  0.10455832  0.74452472  1
  O  O129  1  0.09504426  0.36162457  -0.00288064  1
  O  O130  1  0.13652130  0.35233228  0.25132388  1
  O  O131  1  0.10539479  0.39594474  0.48697259  1
  O  O132  1  0.13120885  0.38196185  0.76204279  1
  O  O133  1  0.10657578  0.61477886  -0.00259520  1
  O  O134  1  0.15795951  0.64036094  0.24359733  1
  O  O135  1  0.12609293  0.63118370  0.50706851  1
  O  O136  1  0.13885165  0.59481178  0.75920313  1
  O  O137  1  0.12825984  0.87980706  -0.00573957  1
  O  O138  1  0.14471404  0.87521028  0.25101197  1
  O  O139  1  0.09254189  0.84605802  0.49562846  1
  O  O140  1  0.16334313  0.89363772  0.75215511  1
  O  O141  1  0.34866376  0.11260438  0.00023506  1
  O  O142  1  0.38603744  0.14663749  0.24244968  1
  O  O143  1  0.37462786  0.08577561  0.50547808  1
  O  O144  1  0.37813678  0.15343827  0.75703522  1
  O  O145  1  0.39575943  0.38829607  0.00865261  1
  O  O146  1  0.34416595  0.35245792  0.24145421  1
  O  O147  1  0.39270204  0.37413460  0.50187356  1
  O  O148  1  0.34713985  0.35609996  0.74574816  1
  O  O149  1  0.40926778  0.62552211  -0.00436444  1
  O  O150  1  0.35791602  0.65944417  0.25275619  1
  O  O151  1  0.40684190  0.60530469  0.49888400  1
  O  O152  1  0.36787376  0.62266343  0.74941513  1
  O  O153  1  0.41389825  0.91173095  0.00497181  1
  O  O154  1  0.33239004  0.85713850  0.25035559  1
  O  O155  1  0.38216311  0.88246032  0.51045120  1
  O  O156  1  0.36638521  0.84838277  0.74844600  1
  O  O157  1  0.62850227  0.09669082  0.01263057  1
  O  O158  1  0.59363637  0.14316610  0.24956630  1
  O  O159  1  0.63109455  0.08675525  0.50822031  1
  O  O160  1  0.60554035  0.14467644  0.75159939  1
  O  O161  1  0.61295993  0.39130904  0.01099439  1
  O  O162  1  0.65393444  0.34171672  0.26003431  1
  O  O163  1  0.57194792  0.40449919  0.48706386  1
  O  O164  1  0.63388200  0.34344869  0.76073434  1
  O  O165  1  0.60729675  0.59965896  -0.00469659  1
  O  O166  1  0.64999665  0.64334681  0.25490972  1
  O  O167  1  0.59975978  0.59862807  0.49340159  1
  O  O168  1  0.65399801  0.63662187  0.75918079  1
  O  O169  1  0.60155167  0.91345715  0.01413809  1
  O  O170  1  0.63874113  0.85557047  0.25289233  1
  O  O171  1  0.63728615  0.89036683  0.49495687  1
  O  O172  1  0.65707441  0.85279422  0.74943517  1
  O  O173  1  0.87086248  0.15016759  0.01795674  1
  O  O174  1  0.85941193  0.08317367  0.24831238  1
  O  O175  1  0.87833682  0.13909745  0.50567903  1
  O  O176  1  0.87011277  0.09807430  0.76010652  1
  O  O177  1  0.88677968  0.35000527  0.00761550  1
  O  O178  1  0.83908162  0.40267140  0.26256520  1
  O  O179  1  0.88523007  0.35014794  0.49773543  1
  O  O180  1  0.85046205  0.38400078  0.75762182  1
  O  O181  1  0.91695983  0.65994376  -0.01042031  1
  O  O182  1  0.89130628  0.59740041  0.26613702  1
  O  O183  1  0.90988113  0.64559941  0.49348248  1
  O  O184  1  0.87356992  0.59178284  0.74745962  1
  O  O185  1  0.88723473  0.82998596  -0.00775847  1
  O  O186  1  0.86708795  0.88928912  0.24670580  1
  O  O187  1  0.90676431  0.84838265  0.50200587  1
  O  O188  1  0.86622967  0.89866387  0.75352095  1
  O  O189  1  -0.00919916  0.11190055  0.14415961  1
  O  O190  1  -0.00389108  0.13398449  0.34660410  1
  O  O191  1  -0.00361792  0.11475149  0.64603766  1
  O  O192  1  0.00153703  0.10689658  0.88722038  1
  O  O193  1  -0.01274049  0.38259302  0.16078337  1
  O  O194  1  -0.01041171  0.36379623  0.35651945  1
  O  O195  1  -0.01087068  0.37570707  0.63209953  1
  O  O196  1  -0.00565542  0.39259451  0.85964141  1
  O  O197  1  0.00599216  0.61870426  0.13962135  1
  O  O198  1  0.02740329  0.64879737  0.37752895  1
  O  O199  1  0.00973712  0.61970840  0.64619285  1
  O  O200  1  0.00930218  0.59248654  0.86163280  1
  O  O201  1  -0.00687016  0.88154631  0.11276886  1
  O  O202  1  0.00400994  0.83876729  0.35568266  1
  O  O203  1  0.00031484  0.87241961  0.65920356  1
  O  O204  1  -0.00971783  0.90420085  0.87178456  1
  O  O205  1  0.24863148  0.15007958  0.13364385  1
  O  O206  1  0.23372587  0.10840213  0.39774944  1
  O  O207  1  0.23494093  0.13500023  0.59562124  1
  O  O208  1  0.24625216  0.16191029  0.86856030  1
  O  O209  1  0.25321348  0.40466669  0.09639688  1
  O  O210  1  0.24470854  0.38909952  0.39007594  1
  O  O211  1  0.25101383  0.36374320  0.59729706  1
  O  O212  1  0.24658541  0.35446818  0.90349123  1
  O  O213  1  0.24591015  0.60370659  0.10485198  1
  O  O214  1  0.25904877  0.59824139  0.38784617  1
  O  O215  1  0.26074054  0.64193844  0.61503858  1
  O  O216  1  0.25578089  0.64437580  0.88518057  1
  O  O217  1  0.26016134  0.87037642  0.08886400  1
  O  O218  1  0.24004495  0.89075474  0.40738716  1
  O  O219  1  0.25573794  0.84494243  0.61785938  1
  O  O220  1  0.25822339  0.85102680  0.89106055  1
  O  O221  1  0.49242288  0.09355203  0.10877538  1
  O  O222  1  0.49907945  0.10559296  0.38959727  1
  O  O223  1  0.50214148  0.09241263  0.61689626  1
  O  O224  1  0.48768175  0.08499073  0.89537875  1
  O  O225  1  0.50235899  0.37347241  0.16092352  1
  O  O226  1  0.50673914  0.33837759  0.34722630  1
  O  O227  1  0.49179214  0.38762325  0.65379612  1
  O  O228  1  0.50685708  0.38299513  0.87513415  1
  O  O229  1  0.49935109  0.62820089  0.15701302  1
  O  O230  1  0.50240739  0.64250986  0.34821264  1
  O  O231  1  0.50921341  0.60014287  0.64646012  1
  O  O232  1  0.51042193  0.59357688  0.85654460  1
  O  O233  1  0.49661308  0.89955503  0.16019673  1
  O  O234  1  0.50356692  0.87958300  0.36793881  1
  O  O235  1  0.49510528  0.87412574  0.63408389  1
  O  O236  1  0.50208087  0.88945808  0.83951660  1
  O  O237  1  0.74024738  0.14632331  0.15256785  1
  O  O238  1  0.74766583  0.11548670  0.37627653  1
  O  O239  1  0.75006289  0.13980043  0.63389394  1
  O  O240  1  0.75409577  0.14389786  0.88188445  1
  O  O241  1  0.74999651  0.35540645  0.12199275  1
  O  O242  1  0.73092337  0.38929973  0.43074697  1
  O  O243  1  0.75245594  0.34264271  0.61532077  1
  O  O244  1  0.75099513  0.35996454  0.89893050  1
  O  O245  1  0.74984175  0.64118591  0.11364505  1
  O  O246  1  0.74603172  0.62084888  0.39716860  1
  O  O247  1  0.74358285  0.65240592  0.61137951  1
  O  O248  1  0.74992818  0.63844676  0.91484858  1
  O  O249  1  0.75812786  0.85732256  0.10020692  1
  O  O250  1  0.76554475  0.87055026  0.39234224  1
  O  O251  1  0.76032733  0.85432353  0.61258386  1
  O  O252  1  0.75323095  0.88422349  0.88871684  1
  O  O253  1  0.13845052  0.00922396  0.10900159  1
  O  O254  1  0.09542459  -0.01169561  0.38220657  1
  O  O255  1  0.12495422  -0.00306670  0.59982838  1
  O  O256  1  0.14873978  0.00966177  0.88008342  1
  O  O257  1  0.09557721  0.24495167  0.12261851  1
  O  O258  1  0.12450700  0.25125095  0.39220263  1
  O  O259  1  0.10615003  0.24275835  0.62643069  1
  O  O260  1  0.09801738  0.24880008  0.86540981  1
  O  O261  1  0.11216058  0.50219095  0.14505196  1
  O  O262  1  0.11026737  0.50566466  0.35971248  1
  O  O263  1  0.15122954  0.50723343  0.62831023  1
  O  O264  1  0.16464555  0.49253914  0.89401110  1
  O  O265  1  0.10692561  0.74683278  0.10300602  1
  O  O266  1  0.17210526  0.74822849  0.36614200  1
  O  O267  1  0.12297946  0.74424151  0.66002389  1
  O  O268  1  0.11926773  0.74153207  0.86919879  1
  O  O269  1  0.35287154  0.00345315  0.14931734  1
  O  O270  1  0.37055927  0.00062322  0.34135241  1
  O  O271  1  0.33075417  -0.00404938  0.65670714  1
  O  O272  1  0.33270727  0.00912553  0.84968240  1
  O  O273  1  0.38532266  0.24913776  0.10116984  1
  O  O274  1  0.35186765  0.24580556  0.38610388  1
  O  O275  1  0.36562627  0.24645120  0.61262387  1
  O  O276  1  0.38822418  0.24544796  0.90450690  1
  O  O277  1  0.38421440  0.49691725  0.15033609  1
  O  O278  1  0.41180030  0.50305252  0.36354666  1
  O  O279  1  0.35064380  0.49585792  0.62699339  1
  O  O280  1  0.35937826  0.50243162  0.89088881  1
  O  O281  1  0.39672696  0.76345141  0.10824609  1
  O  O282  1  0.35474986  0.74674022  0.39475446  1
  O  O283  1  0.40474915  0.73530902  0.61873505  1
  O  O284  1  0.40952488  0.74431426  0.87905725  1
  O  O285  1  0.66034036  -0.00257060  0.15378270  1
  O  O286  1  0.64750555  -0.00661957  0.35494229  1
  O  O287  1  0.63566015  0.00030745  0.66562017  1
  O  O288  1  0.62974156  0.00163096  0.85232204  1
  O  O289  1  0.60053843  0.24911621  0.11925669  1
  O  O290  1  0.63137759  0.25417192  0.41121897  1
  O  O291  1  0.59601863  0.23576663  0.60965144  1
  O  O292  1  0.61418649  0.25130552  0.90886634  1
  O  O293  1  0.63246535  0.49227363  0.15118713  1
  O  O294  1  0.60480818  0.50133454  0.35502780  1
  O  O295  1  0.64932261  0.50504735  0.63753427  1
  O  O296  1  0.65596140  0.49117551  0.86482568  1
  O  O297  1  0.61756161  0.76344206  0.12196987  1
  O  O298  1  0.62758470  0.75075777  0.39635094  1
  O  O299  1  0.60954194  0.74627119  0.59358534  1
  O  O300  1  0.60042003  0.74801000  0.88937782  1
  O  O301  1  0.86364364  -0.00245032  0.09577276  1
  O  O302  1  0.90523316  -0.01578136  0.38800041  1
  O  O303  1  0.88278911  -0.00505064  0.61523448  1
  O  O304  1  0.86553059  0.00942822  0.91267220  1
  O  O305  1  0.87759142  0.25094361  0.16767342  1
  O  O306  1  0.83335272  0.26414782  0.35382996  1
  O  O307  1  0.88510230  0.24418112  0.65427026  1
  O  O308  1  0.87989827  0.25020134  0.87560220  1
  O  O309  1  0.87146623  0.49176741  0.11677553  1
  O  O310  1  0.88909039  0.50291530  0.40288725  1
  O  O311  1  0.84533401  0.49063972  0.61401738  1
  O  O312  1  0.86054462  0.49664614  0.90663125  1
  O  O313  1  0.88593737  0.75431172  0.13896698  1
  O  O314  1  0.87507829  0.73974573  0.35552165  1
  O  O315  1  0.88738461  0.74987680  0.64798665  1
  O  O316  1  0.87264329  0.75312145  0.83435617  1
