# generated using pymatgen
data_Mg32Ti42(Bi17O64)3
_symmetry_space_group_name_H-M   'P 1'
_cell_length_a   15.94195506
_cell_length_b   15.95194024
_cell_length_c   15.96589971
_cell_angle_alpha   90.00687077
_cell_angle_beta   89.92759873
_cell_angle_gamma   90.00050563
_symmetry_Int_Tables_number   1
_chemical_formula_structural   Mg32Ti42(Bi17O64)3
_chemical_formula_sum   'Mg32 Ti42 Bi51 O192'
_cell_volume   4060.20668007
_cell_formula_units_Z   1
loop_
 _symmetry_equiv_pos_site_id
 _symmetry_equiv_pos_as_xyz
  1  'x, y, z'
loop_
 _atom_site_type_symbol
 _atom_site_label
 _atom_site_symmetry_multiplicity
 _atom_site_fract_x
 _atom_site_fract_y
 _atom_site_fract_z
 _atom_site_occupancy
  Mg  Mg0  1  0.86599537  0.11951492  0.61854580  1
  Mg  Mg1  1  0.13551310  0.87344615  0.86741979  1
  Mg  Mg2  1  0.86912270  0.88370482  0.87432070  1
  Mg  Mg3  1  0.36757696  0.12479625  0.63447110  1
  Mg  Mg4  1  0.87764492  0.63052004  0.39532965  1
  Mg  Mg5  1  0.12484289  0.12349270  0.61992089  1
  Mg  Mg6  1  0.87247452  0.37278965  0.61707629  1
  Mg  Mg7  1  0.86881404  0.37303992  0.88142150  1
  Mg  Mg8  1  0.12453018  0.11159479  0.87858527  1
  Mg  Mg9  1  0.13924674  0.62029039  0.36994192  1
  Mg  Mg10  1  0.62521791  0.62379278  0.11906987  1
  Mg  Mg11  1  0.14360980  0.62612499  0.63002566  1
  Mg  Mg12  1  0.88195992  0.87163366  0.12923983  1
  Mg  Mg13  1  0.39210965  0.37397434  0.36215593  1
  Mg  Mg14  1  0.12320975  0.37500059  0.36755511  1
  Mg  Mg15  1  0.62327086  0.37615301  0.13468802  1
  Mg  Mg16  1  0.62356579  0.12502454  0.62312034  1
  Mg  Mg17  1  0.87203686  0.12396000  0.12045274  1
  Mg  Mg18  1  0.38341361  0.87560208  0.37280747  1
  Mg  Mg19  1  0.28974085  0.75578978  -0.05361124  1
  Mg  Mg20  1  0.55073124  0.50053379  0.75475770  1
  Mg  Mg21  1  0.48837923  0.01031828  0.73237498  1
  Mg  Mg22  1  0.19661633  0.78805265  0.30976464  1
  Mg  Mg23  1  0.49668299  -0.02890249  0.02794887  1
  Mg  Mg24  1  0.73986345  0.71213075  0.55358216  1
  Mg  Mg25  1  0.82491150  -0.00866394  0.24738810  1
  Mg  Mg26  1  0.54902176  0.52960816  0.32251122  1
  Mg  Mg27  1  0.28353693  0.69661890  0.74303529  1
  Mg  Mg28  1  0.48051307  0.19269210  0.24312577  1
  Mg  Mg29  1  0.26005736  0.45480895  0.45247934  1
  Mg  Mg30  1  -0.01150933  0.77382599  0.79147349  1
  Mg  Mg31  1  0.21569141  0.02273940  0.73823004  1
  Ti  Ti32  1  0.88223483  0.37876589  0.37838629  1
  Ti  Ti33  1  0.61774336  0.62266208  0.63842393  1
  Ti  Ti34  1  0.62093902  0.36340361  0.37372282  1
  Ti  Ti35  1  0.62696092  0.87806185  0.87544854  1
  Ti  Ti36  1  0.37413173  0.60499253  0.61463296  1
  Ti  Ti37  1  0.37066282  0.11661470  0.87437502  1
  Ti  Ti38  1  0.88254792  0.37829365  0.11805474  1
  Ti  Ti39  1  0.12220357  0.37973310  0.61948406  1
  Ti  Ti40  1  0.61160253  0.87078798  0.64036891  1
  Ti  Ti41  1  0.12140134  0.35793603  0.12934832  1
  Ti  Ti42  1  0.88477548  0.63016926  0.62455129  1
  Ti  Ti43  1  0.62848784  0.88915247  0.37320196  1
  Ti  Ti44  1  0.62621424  0.36700258  0.62801773  1
  Ti  Ti45  1  0.37295085  0.11734941  0.11221338  1
  Ti  Ti46  1  0.12894541  0.87022659  0.12840514  1
  Ti  Ti47  1  0.36988522  0.62177462  0.36173917  1
  Ti  Ti48  1  0.88383292  0.62338629  0.12162896  1
  Ti  Ti49  1  0.87231455  0.86784462  0.38761463  1
  Ti  Ti50  1  0.87921701  0.12169746  0.88003237  1
  Ti  Ti51  1  0.14056481  0.87275300  0.64220732  1
  Ti  Ti52  1  0.11757868  0.11966536  0.11674134  1
  Ti  Ti53  1  0.62464923  0.12775979  0.38068341  1
  Ti  Ti54  1  0.85632413  0.12078695  0.36751924  1
  Ti  Ti55  1  0.13482545  0.64401720  0.86209985  1
  Ti  Ti56  1  0.62538754  0.11051122  0.87038090  1
  Ti  Ti57  1  0.37408606  0.85748863  0.13294905  1
  Ti  Ti58  1  0.37040281  0.62915039  0.11556961  1
  Ti  Ti59  1  0.87459381  0.86939507  0.62158797  1
  Ti  Ti60  1  0.63106048  0.62208594  0.87695364  1
  Ti  Ti61  1  0.62814668  0.36827657  0.86574379  1
  Ti  Ti62  1  0.38638141  0.88551702  0.87001215  1
  Ti  Ti63  1  0.37960726  0.12081318  0.37875731  1
  Ti  Ti64  1  0.38211526  0.37046671  0.87421703  1
  Ti  Ti65  1  0.13705285  0.62782299  0.11846566  1
  Ti  Ti66  1  0.11977339  0.12938595  0.36766748  1
  Ti  Ti67  1  0.38223916  0.36680497  0.12559196  1
  Ti  Ti68  1  0.36609126  0.37194002  0.63661123  1
  Ti  Ti69  1  0.88532531  0.62412227  0.87704813  1
  Ti  Ti70  1  0.62084985  0.11857770  0.13198899  1
  Ti  Ti71  1  0.36390402  0.88442397  0.64237193  1
  Ti  Ti72  1  0.62885967  0.87117612  0.12599142  1
  Ti  Ti73  1  0.38725326  0.61706953  0.88395047  1
  Bi  Bi74  1  0.74936803  0.51660744  0.27460156  1
  Bi  Bi75  1  0.01365145  -0.02171313  0.00108658  1
  Bi  Bi76  1  0.74898979  0.51368878  0.02721476  1
  Bi  Bi77  1  0.01070195  -0.02050984  0.76424991  1
  Bi  Bi78  1  0.73357878  0.25159249  0.02536013  1
  Bi  Bi79  1  0.77142283  0.48529773  0.74585570  1
  Bi  Bi80  1  0.76502454  -0.00165247  0.02929357  1
  Bi  Bi81  1  0.50678089  0.22234958  0.76422431  1
  Bi  Bi82  1  0.22720121  0.22566494  0.75824758  1
  Bi  Bi83  1  0.24979218  0.49051357  0.25181996  1
  Bi  Bi84  1  0.76807045  0.00304286  0.73947156  1
  Bi  Bi85  1  0.22144379  0.46346414  0.78586157  1
  Bi  Bi86  1  0.75990201  0.28070685  0.25932113  1
  Bi  Bi87  1  0.28401599  0.74736884  0.48308450  1
  Bi  Bi88  1  0.47319751  0.24234457  0.51831740  1
  Bi  Bi89  1  0.51320507  0.76019712  -0.01956544  1
  Bi  Bi90  1  0.49789470  -0.02190274  0.25225831  1
  Bi  Bi91  1  0.50327015  0.49856899  0.02608034  1
  Bi  Bi92  1  0.00626836  0.74420695  0.26554544  1
  Bi  Bi93  1  0.73321275  0.51200834  0.49299547  1
  Bi  Bi94  1  0.22864223  0.26825024  0.49762353  1
  Bi  Bi95  1  0.03785794  0.51858936  0.50529586  1
  Bi  Bi96  1  0.49041208  -0.00309030  0.52447312  1
  Bi  Bi97  1  0.02602737  0.27325462  -0.04770790  1
  Bi  Bi98  1  0.04825914  0.74992134  0.50390413  1
  Bi  Bi99  1  0.26439617  -0.03655051  0.00194031  1
  Bi  Bi100  1  -0.02036692  0.22515668  0.23334521  1
  Bi  Bi101  1  0.72725718  -0.01529443  0.51890087  1
  Bi  Bi102  1  0.51633157  0.71841431  0.24317047  1
  Bi  Bi103  1  0.73035769  0.74469785  0.27017844  1
  Bi  Bi104  1  0.48419102  0.73722628  0.73914561  1
  Bi  Bi105  1  0.49429663  0.46834981  0.51362171  1
  Bi  Bi106  1  0.02601536  0.73514512  0.00158221  1
  Bi  Bi107  1  0.76430838  0.25042407  0.50916087  1
  Bi  Bi108  1  0.00070780  0.51611013  0.26377924  1
  Bi  Bi109  1  0.78005211  0.76330251  0.00092197  1
  Bi  Bi110  1  0.02400016  -0.02850824  0.27999507  1
  Bi  Bi111  1  0.25815860  0.26177154  -0.01696678  1
  Bi  Bi112  1  0.24708607  0.02380974  0.24166648  1
  Bi  Bi113  1  0.27464109  0.25861104  0.26443545  1
  Bi  Bi114  1  -0.01101313  0.22625181  0.72768907  1
  Bi  Bi115  1  0.01742403  -0.01629085  0.52142247  1
  Bi  Bi116  1  0.51631437  0.23857720  0.00634499  1
  Bi  Bi117  1  0.23816176  -0.02766304  0.46526059  1
  Bi  Bi118  1  0.78033584  0.74594759  0.75711035  1
  Bi  Bi119  1  0.00477946  0.21835028  0.49383102  1
  Bi  Bi120  1  0.76859177  0.24164981  0.76280720  1
  Bi  Bi121  1  0.53184786  0.72028200  0.47300336  1
  Bi  Bi122  1  0.03080339  0.49176141  -0.01601601  1
  Bi  Bi123  1  -0.01207140  0.46027066  0.75014513  1
  Bi  Bi124  1  0.25495852  0.48471804  0.00907037  1
  O  O125  1  0.12853440  0.08742224  0.00535978  1
  O  O126  1  0.11842993  0.13792941  0.25132848  1
  O  O127  1  0.11524394  0.10610675  0.49379996  1
  O  O128  1  0.10609830  0.15552989  0.74714164  1
  O  O129  1  0.10198888  0.37403555  0.00724956  1
  O  O130  1  0.15508822  0.37937911  0.24153453  1
  O  O131  1  0.15103962  0.39340271  0.49633729  1
  O  O132  1  0.13684133  0.36775197  0.74057385  1
  O  O133  1  0.14069732  0.65620751  0.00080220  1
  O  O134  1  0.09401604  0.62166605  0.23925078  1
  O  O135  1  0.12807920  0.62249612  0.49849486  1
  O  O136  1  0.12234565  0.63383004  0.75304044  1
  O  O137  1  0.13250068  0.89561952  0.00345158  1
  O  O138  1  0.10521380  0.86039793  0.25118418  1
  O  O139  1  0.12640830  0.89567007  0.51836118  1
  O  O140  1  0.07808840  0.85463643  0.73995321  1
  O  O141  1  0.35735180  0.15348397  -0.00381884  1
  O  O142  1  0.39226957  0.09930771  0.23515123  1
  O  O143  1  0.36329090  0.15273686  0.48916181  1
  O  O144  1  0.40895632  0.11331755  0.76043699  1
  O  O145  1  0.37713460  0.35853252  -0.00232737  1
  O  O146  1  0.35083637  0.38828127  0.23930441  1
  O  O147  1  0.37587134  0.38746033  0.49547494  1
  O  O148  1  0.35354869  0.38735376  0.75375966  1
  O  O149  1  0.34766898  0.65259189  -0.00021027  1
  O  O150  1  0.39465966  0.61796989  0.24995935  1
  O  O151  1  0.35226651  0.61658543  0.50283633  1
  O  O152  1  0.39581386  0.62998535  0.76377523  1
  O  O153  1  0.34732172  0.85220132  0.01257520  1
  O  O154  1  0.38400660  0.89642341  0.24672821  1
  O  O155  1  0.34000986  0.87905321  0.52853649  1
  O  O156  1  0.41193705  0.91004415  0.76330315  1
  O  O157  1  0.62999817  0.15363871  -0.01568723  1
  O  O158  1  0.59462584  0.12822488  0.24227805  1
  O  O159  1  0.64670644  0.13113220  0.49123250  1
  O  O160  1  0.58150804  0.10315632  0.75153864  1
  O  O161  1  0.62935807  0.34603253  -0.01854021  1
  O  O162  1  0.64556945  0.38136194  0.25760178  1
  O  O163  1  0.62232657  0.38978713  0.50187407  1
  O  O164  1  0.60598241  0.39036769  0.74238844  1
  O  O165  1  0.65288584  0.63143007  -0.00932772  1
  O  O166  1  0.59771525  0.60977921  0.24257013  1
  O  O167  1  0.64474440  0.63506422  0.51481712  1
  O  O168  1  0.58108714  0.62389118  0.75463630  1
  O  O169  1  0.63554401  0.85203334  -0.00100067  1
  O  O170  1  0.61223366  0.89280849  0.24265398  1
  O  O171  1  0.64208104  0.86993605  0.48791792  1
  O  O172  1  0.59171758  0.89421085  0.75309759  1
  O  O173  1  0.85109937  0.10968364  -0.00636670  1
  O  O174  1  0.88592205  0.11169261  0.25061597  1
  O  O175  1  0.86198970  0.14762482  0.48719322  1
  O  O176  1  0.87903492  0.14083508  0.74909277  1
  O  O177  1  0.90176563  0.36721969  0.00544169  1
  O  O178  1  0.84942602  0.39674862  0.25393755  1
  O  O179  1  0.87292102  0.34976808  0.49239519  1
  O  O180  1  0.87437004  0.37942321  0.74685704  1
  O  O181  1  0.84801102  0.62208608  -0.01036712  1
  O  O182  1  0.90698767  0.61872951  0.23776245  1
  O  O183  1  0.83235461  0.62601849  0.51531603  1
  O  O184  1  0.89826538  0.66445111  0.75006600  1
  O  O185  1  0.85025394  0.88423209  -0.00046473  1
  O  O186  1  0.90048591  0.88795447  0.25972598  1
  O  O187  1  0.84371019  0.88407320  0.50070939  1
  O  O188  1  0.88915124  0.84964712  0.74571724  1
  O  O189  1  0.00277484  0.12990278  0.11895378  1
  O  O190  1  -0.00211426  0.12514743  0.37883807  1
  O  O191  1  -0.00812882  0.14343332  0.61397589  1
  O  O192  1  -0.00586318  0.13008141  0.88127140  1
  O  O193  1  0.00414678  0.36664921  0.15554859  1
  O  O194  1  -0.00409291  0.40179253  0.37047950  1
  O  O195  1  0.00264308  0.37226197  0.63126302  1
  O  O196  1  -0.00105165  0.37784198  0.86713601  1
  O  O197  1  -0.00100361  0.62413086  0.08797367  1
  O  O198  1  -0.00116911  0.58671043  0.38180973  1
  O  O199  1  -0.00689759  0.63595178  0.58928579  1
  O  O200  1  -0.00123831  0.62597590  0.90080992  1
  O  O201  1  0.00688923  0.88673887  0.10555360  1
  O  O202  1  -0.01195270  0.91350728  0.40175716  1
  O  O203  1  -0.01368359  0.86153437  0.59412851  1
  O  O204  1  -0.00197314  0.89691715  0.88701458  1
  O  O205  1  0.25404848  0.11908162  0.13611014  1
  O  O206  1  0.25598190  0.13832492  0.34805266  1
  O  O207  1  0.24568441  0.12002858  0.66090772  1
  O  O208  1  0.25586182  0.11215438  0.83826272  1
  O  O209  1  0.24810976  0.37678533  0.09719883  1
  O  O210  1  0.26130640  0.34376742  0.37776665  1
  O  O211  1  0.25349457  0.36478440  0.61673954  1
  O  O212  1  0.25184424  0.38896815  0.89581587  1
  O  O213  1  0.24831813  0.62313735  0.14167468  1
  O  O214  1  0.25703506  0.67737548  0.35654988  1
  O  O215  1  0.26633356  0.61897511  0.65116920  1
  O  O216  1  0.25336645  0.66858006  0.86014545  1
  O  O217  1  0.24845820  0.88861457  0.13846325  1
  O  O218  1  0.25662272  0.85951603  0.38725426  1
  O  O219  1  0.24697758  0.91086354  0.67583004  1
  O  O220  1  0.26362428  0.86904730  0.88030066  1
  O  O221  1  0.49746284  0.13738882  0.10311281  1
  O  O222  1  0.49923775  0.10784431  0.37986217  1
  O  O223  1  0.49947739  0.13193581  0.59237473  1
  O  O224  1  0.49576348  0.15509003  0.88915286  1
  O  O225  1  0.49540874  0.38869458  0.12043684  1
  O  O226  1  0.50956270  0.41755643  0.36832612  1
  O  O227  1  0.49918681  0.36236812  0.60724731  1
  O  O228  1  0.49540802  0.36452198  0.86660738  1
  O  O229  1  0.49042226  0.61935730  0.09790098  1
  O  O230  1  0.48978631  0.61213042  0.39641084  1
  O  O231  1  0.48834366  0.65903410  0.61204577  1
  O  O232  1  0.49773295  0.62278106  0.91150040  1
  O  O233  1  0.49131161  0.87734965  0.11439519  1
  O  O234  1  0.50790610  0.90291355  0.37377416  1
  O  O235  1  0.49612860  0.86754342  0.60417648  1
  O  O236  1  0.49586492  0.89189033  0.92531664  1
  O  O237  1  0.73747502  0.12120774  0.12040614  1
  O  O238  1  0.74361912  0.15669218  0.35109025  1
  O  O239  1  0.74382695  0.09109760  0.63501582  1
  O  O240  1  0.73667533  0.12024123  0.83754960  1
  O  O241  1  0.75763974  0.37345214  0.10499896  1
  O  O242  1  0.74433999  0.34277227  0.38451009  1
  O  O243  1  0.74168882  0.40553724  0.62919713  1
  O  O244  1  0.74331851  0.38399173  0.85301315  1
  O  O245  1  0.75651823  0.60590947  0.13147382  1
  O  O246  1  0.76360279  0.64142527  0.34454202  1
  O  O247  1  0.73374978  0.62091484  0.65880668  1
  O  O248  1  0.74386943  0.63126893  0.84512465  1
  O  O249  1  0.74291165  0.87313893  0.13303393  1
  O  O250  1  0.75451235  0.85424938  0.34960245  1
  O  O251  1  0.73600007  0.89844797  0.63631590  1
  O  O252  1  0.73786978  0.86533149  0.85580820  1
  O  O253  1  0.12796773  0.00198358  0.15758563  1
  O  O254  1  0.14760036  0.00730757  0.35576031  1
  O  O255  1  0.10336266  -0.00363075  0.65019324  1
  O  O256  1  0.13130023  -0.00458647  0.82943621  1
  O  O257  1  0.13205770  0.24504231  0.11426710  1
  O  O258  1  0.11998267  0.24809087  0.39944474  1
  O  O259  1  0.12014717  0.25501308  0.58892034  1
  O  O260  1  0.14784843  0.23698723  0.89337482  1
  O  O261  1  0.12638355  0.50711097  0.09752347  1
  O  O262  1  0.16770897  0.49836150  0.36518626  1
  O  O263  1  0.11601846  0.49894177  0.62710149  1
  O  O264  1  0.13448323  0.52098302  0.88914595  1
  O  O265  1  0.11437928  0.75401170  0.12852166  1
  O  O266  1  0.09769374  0.74084476  0.36830416  1
  O  O267  1  0.14599874  0.75857240  0.60685396  1
  O  O268  1  0.09129289  0.75525979  0.87297540  1
  O  O269  1  0.38433529  0.00407926  0.08692803  1
  O  O270  1  0.35805714  0.00414403  0.38986440  1
  O  O271  1  0.40361634  0.00283627  0.63047298  1
  O  O272  1  0.37573176  0.00502279  0.90639146  1
  O  O273  1  0.38391747  0.25158355  0.14688668  1
  O  O274  1  0.39842346  0.24191653  0.33128102  1
  O  O275  1  0.38336412  0.25348064  0.62883246  1
  O  O276  1  0.34745980  0.25442919  0.86481136  1
  O  O277  1  0.36819839  0.50448665  0.09887992  1
  O  O278  1  0.33851046  0.50879350  0.36747224  1
  O  O279  1  0.39750782  0.49439682  0.62693885  1
  O  O280  1  0.37080534  0.50374341  0.89278280  1
  O  O281  1  0.37913099  0.74608830  0.14625435  1
  O  O282  1  0.39894560  0.75158612  0.40584386  1
  O  O283  1  0.35585462  0.77257591  0.67513819  1
  O  O284  1  0.40268837  0.76270307  0.87320670  1
  O  O285  1  0.60374504  0.00115983  0.09880168  1
  O  O286  1  0.64619243  0.00622088  0.37636198  1
  O  O287  1  0.60363065  -0.00550197  0.60227356  1
  O  O288  1  0.62637535  -0.00086156  0.89413767  1
  O  O289  1  0.62698811  0.24831426  0.11623473  1
  O  O290  1  0.59362316  0.25194501  0.37595659  1
  O  O291  1  0.64215255  0.25451694  0.63128844  1
  O  O292  1  0.62834657  0.25089760  0.83629826  1
  O  O293  1  0.62444707  0.49663050  0.09335522  1
  O  O294  1  0.65760152  0.49972550  0.37827149  1
  O  O295  1  0.58979025  0.51078378  0.63103619  1
  O  O296  1  0.61379294  0.50349626  0.86732721  1
  O  O297  1  0.61027669  0.75168636  0.14032543  1
  O  O298  1  0.61059094  0.75909959  0.34855930  1
  O  O299  1  0.63657705  0.75616213  0.63263379  1
  O  O300  1  0.59656471  0.75432109  0.86763942  1
  O  O301  1  0.85737233  -0.00233556  0.12740377  1
  O  O302  1  0.83889113  0.00800016  0.37199681  1
  O  O303  1  0.87938899  -0.01036923  0.64420937  1
  O  O304  1  0.86586448  0.00733660  0.85219865  1
  O  O305  1  0.87340917  0.25360395  0.14619661  1
  O  O306  1  0.88500703  0.25817772  0.34052758  1
  O  O307  1  0.84155816  0.24898888  0.62619783  1
  O  O308  1  0.85138906  0.24520199  0.87694527  1
  O  O309  1  0.88204608  0.49847737  0.10942926  1
  O  O310  1  0.83644242  0.49603666  0.38932051  1
  O  O311  1  0.88276115  0.51499335  0.65063923  1
  O  O312  1  0.87993508  0.50916113  0.84979218  1
  O  O313  1  0.87247856  0.74405392  0.10898847  1
  O  O314  1  0.91069106  0.75694941  0.38301262  1
  O  O315  1  0.83832398  0.75204052  0.61836617  1
  O  O316  1  0.87133546  0.75165093  0.88490499  1
