# generated using pymatgen
data_Mg32Ti42(Bi17O64)3
_symmetry_space_group_name_H-M   'P 1'
_cell_length_a   15.94644115
_cell_length_b   15.96372291
_cell_length_c   15.91154159
_cell_angle_alpha   90.06412537
_cell_angle_beta   89.88426872
_cell_angle_gamma   90.01109776
_symmetry_Int_Tables_number   1
_chemical_formula_structural   Mg32Ti42(Bi17O64)3
_chemical_formula_sum   'Mg32 Ti42 Bi51 O192'
_cell_volume   4050.50383364
_cell_formula_units_Z   1
loop_
 _symmetry_equiv_pos_site_id
 _symmetry_equiv_pos_as_xyz
  1  'x, y, z'
loop_
 _atom_site_type_symbol
 _atom_site_label
 _atom_site_symmetry_multiplicity
 _atom_site_fract_x
 _atom_site_fract_y
 _atom_site_fract_z
 _atom_site_occupancy
  Mg  Mg0  1  0.87515818  0.61710337  0.37909392  1
  Mg  Mg1  1  0.13414388  0.87048760  0.37300165  1
  Mg  Mg2  1  0.13617298  0.89636589  0.11427509  1
  Mg  Mg3  1  0.12910735  0.13661846  0.62211498  1
  Mg  Mg4  1  0.62092346  0.37837209  0.87636007  1
  Mg  Mg5  1  0.88429356  0.37376607  0.87996043  1
  Mg  Mg6  1  0.88839917  0.87096545  0.63490827  1
  Mg  Mg7  1  0.89017392  0.87441390  0.87041586  1
  Mg  Mg8  1  0.62355953  0.87147671  0.13277501  1
  Mg  Mg9  1  0.61576911  0.37829852  0.38223498  1
  Mg  Mg10  1  0.88501239  0.37536398  0.61976247  1
  Mg  Mg11  1  0.62727581  0.13056021  0.38080772  1
  Mg  Mg12  1  0.89056838  0.12919547  0.61445798  1
  Mg  Mg13  1  0.60856220  0.13538062  0.64387232  1
  Mg  Mg14  1  0.63150970  0.37804199  0.11984127  1
  Mg  Mg15  1  0.37081812  0.38450052  0.62133501  1
  Mg  Mg16  1  0.13047889  0.13007829  0.11937078  1
  Mg  Mg17  1  0.37565105  0.62888565  0.12623172  1
  Mg  Mg18  1  0.62849214  0.86949468  0.62419936  1
  Mg  Mg19  1  0.21534195  0.76114156  0.73006136  1
  Mg  Mg20  1  0.45091164  0.71166174  0.24830902  1
  Mg  Mg21  1  0.48561256  0.26007501  0.75205582  1
  Mg  Mg22  1  0.26112063  0.26030950  -0.00257056  1
  Mg  Mg23  1  0.23353003  0.05436076  -0.02428129  1
  Mg  Mg24  1  0.00761123  0.02149362  0.68378756  1
  Mg  Mg25  1  0.03102190  0.74377397  0.78438649  1
  Mg  Mg26  1  0.46089299  0.47550469  0.76579320  1
  Mg  Mg27  1  0.23288756  0.53055648  0.49999281  1
  Mg  Mg28  1  0.23748724  0.06088432  0.46526092  1
  Mg  Mg29  1  0.45373377  0.77193738  0.48378650  1
  Mg  Mg30  1  0.77066773  0.50704891  -0.05101934  1
  Mg  Mg31  1  0.05240006  0.19683452  0.44871790  1
  Ti  Ti32  1  0.87873909  0.13347339  0.11567714  1
  Ti  Ti33  1  0.37602508  0.62898510  0.38485952  1
  Ti  Ti34  1  0.37710190  0.12307024  0.65071290  1
  Ti  Ti35  1  0.12452116  0.62757866  0.37914835  1
  Ti  Ti36  1  0.13277671  0.37888930  0.86896629  1
  Ti  Ti37  1  0.37144618  0.88340678  0.36791279  1
  Ti  Ti38  1  0.37553590  0.13006196  0.88434732  1
  Ti  Ti39  1  0.38325388  0.87385429  0.13045850  1
  Ti  Ti40  1  0.12121798  0.63650138  0.63067729  1
  Ti  Ti41  1  0.61031373  0.87142726  0.38004373  1
  Ti  Ti42  1  0.86249776  0.61875307  0.11375726  1
  Ti  Ti43  1  0.61752833  0.37769015  0.64151770  1
  Ti  Ti44  1  0.12536091  0.88243101  0.62964165  1
  Ti  Ti45  1  0.12339776  0.13620880  0.85830248  1
  Ti  Ti46  1  0.37412585  0.37798908  0.38294462  1
  Ti  Ti47  1  0.61002550  0.63482784  0.12906352  1
  Ti  Ti48  1  0.12857164  0.61657520  0.13184051  1
  Ti  Ti49  1  0.38569501  0.61291953  0.86968668  1
  Ti  Ti50  1  0.86750803  0.13353238  0.38508439  1
  Ti  Ti51  1  0.88068288  0.89250749  0.11618868  1
  Ti  Ti52  1  0.88815080  0.12621232  0.87510529  1
  Ti  Ti53  1  0.12362011  0.37561664  0.37814392  1
  Ti  Ti54  1  0.87313252  0.63340939  0.86908529  1
  Ti  Ti55  1  0.13014817  0.87762664  0.86954472  1
  Ti  Ti56  1  0.37605717  0.36595394  0.88080692  1
  Ti  Ti57  1  0.61241763  0.61711039  0.38315938  1
  Ti  Ti58  1  0.62674563  0.61132649  0.85689337  1
  Ti  Ti59  1  0.38358325  0.62519838  0.62551908  1
  Ti  Ti60  1  0.64688406  0.12915474  0.12965361  1
  Ti  Ti61  1  0.12634900  0.37653097  0.61239469  1
  Ti  Ti62  1  0.36577592  0.36504204  0.13104669  1
  Ti  Ti63  1  0.87712928  0.63265148  0.62703208  1
  Ti  Ti64  1  0.38034268  0.11713235  0.37630849  1
  Ti  Ti65  1  0.87060421  0.37747022  0.12178844  1
  Ti  Ti66  1  0.36630618  0.10986754  0.13299582  1
  Ti  Ti67  1  0.61810332  0.62878375  0.62923748  1
  Ti  Ti68  1  0.36624843  0.89408880  0.88533399  1
  Ti  Ti69  1  0.14208020  0.62242665  0.87534435  1
  Ti  Ti70  1  0.13485937  0.37527252  0.13436252  1
  Ti  Ti71  1  0.61651056  0.13923226  0.87135374  1
  Ti  Ti72  1  0.88187557  0.37632222  0.38166577  1
  Ti  Ti73  1  0.36486189  0.88346801  0.62703314  1
  Bi  Bi74  1  0.22041633  0.77187018  0.23507966  1
  Bi  Bi75  1  0.47932471  0.77469902  0.74968164  1
  Bi  Bi76  1  0.24600518  0.76914641  0.50164017  1
  Bi  Bi77  1  0.21636629  0.02215296  0.26721545  1
  Bi  Bi78  1  0.73145828  0.78598019  0.78495532  1
  Bi  Bi79  1  0.76831201  -0.04154680  0.49361143  1
  Bi  Bi80  1  0.00614465  0.27411806  0.73678815  1
  Bi  Bi81  1  0.02536142  0.24512670  0.01030996  1
  Bi  Bi82  1  0.03389646  -0.00255919  0.47963199  1
  Bi  Bi83  1  -0.01459873  0.01963186  0.26579026  1
  Bi  Bi84  1  0.25897201  0.27562804  0.73739654  1
  Bi  Bi85  1  -0.03765137  0.75454626  0.25414314  1
  Bi  Bi86  1  0.27283019  0.52084967  0.00988400  1
  Bi  Bi87  1  0.72385531  0.73264419  0.26030118  1
  Bi  Bi88  1  0.52585132  0.76912909  -0.02880113  1
  Bi  Bi89  1  0.73367254  0.26778261  0.27162661  1
  Bi  Bi90  1  0.75061516  0.23402179  0.52663406  1
  Bi  Bi91  1  0.52658324  0.50676903  0.00010981  1
  Bi  Bi92  1  0.25073523  0.51219259  0.72113729  1
  Bi  Bi93  1  0.25967833  0.51147366  0.27934311  1
  Bi  Bi94  1  0.74779161  0.01379195  -0.04566671  1
  Bi  Bi95  1  0.50974339  0.47442906  0.23488328  1
  Bi  Bi96  1  0.02459100  0.00539071  0.00034082  1
  Bi  Bi97  1  0.75927773  0.49416167  0.52321587  1
  Bi  Bi98  1  0.77394323  0.48340558  0.75407201  1
  Bi  Bi99  1  0.01159816  0.76531454  0.02704631  1
  Bi  Bi100  1  0.23556023  0.02019666  0.73586038  1
  Bi  Bi101  1  0.51377194  0.25744331  0.01724769  1
  Bi  Bi102  1  0.00093257  0.51605596  0.50450488  1
  Bi  Bi103  1  -0.02166905  0.51181608  0.24481625  1
  Bi  Bi104  1  0.75419271  0.26935474  -0.01502662  1
  Bi  Bi105  1  0.52518249  0.01416150  0.01780919  1
  Bi  Bi106  1  0.73068677  0.72897374  0.49703745  1
  Bi  Bi107  1  0.50922720  0.23964073  0.51671571  1
  Bi  Bi108  1  0.78241685  0.24061098  0.74291217  1
  Bi  Bi109  1  0.53272261  0.00070765  0.25025231  1
  Bi  Bi110  1  0.73720737  0.50083753  0.26456266  1
  Bi  Bi111  1  0.00413655  0.51204756  0.76764300  1
  Bi  Bi112  1  0.53678784  -0.02419622  0.77597598  1
  Bi  Bi113  1  0.25565696  0.25179621  0.49637365  1
  Bi  Bi114  1  0.26143957  0.24684914  0.25684917  1
  Bi  Bi115  1  0.75547361  0.78605292  0.00223988  1
  Bi  Bi116  1  0.52478189  -0.00679854  0.52826086  1
  Bi  Bi117  1  0.50630430  0.48540147  0.52569756  1
  Bi  Bi118  1  -0.02797023  0.79176607  0.47349828  1
  Bi  Bi119  1  -0.00711580  0.26194049  0.25843276  1
  Bi  Bi120  1  0.77398783  -0.01060780  0.72721623  1
  Bi  Bi121  1  0.25670936  0.76845564  -0.00016115  1
  Bi  Bi122  1  0.76714979  -0.04360345  0.26959070  1
  Bi  Bi123  1  0.01699695  0.48380977  0.01596586  1
  Bi  Bi124  1  0.49920090  0.23337363  0.26800041  1
  O  O125  1  0.14827909  0.17044144  -0.01514870  1
  O  O126  1  0.10182298  0.08684675  0.23717469  1
  O  O127  1  0.15763205  0.15349326  0.50084404  1
  O  O128  1  0.10116061  0.08756572  0.74970154  1
  O  O129  1  0.10035038  0.36424680  -0.00971821  1
  O  O130  1  0.14930016  0.38969040  0.24678193  1
  O  O131  1  0.10867951  0.35203838  0.49797536  1
  O  O132  1  0.15991215  0.39231695  0.75025719  1
  O  O133  1  0.12557691  0.63683004  -0.01138667  1
  O  O134  1  0.13396349  0.59939846  0.25112577  1
  O  O135  1  0.12679265  0.63163451  0.50751288  1
  O  O136  1  0.12146260  0.58779739  0.74475789  1
  O  O137  1  0.13156402  0.84032293  -0.00946367  1
  O  O138  1  0.14436155  0.88420848  0.24319308  1
  O  O139  1  0.13114315  0.84802760  0.51239572  1
  O  O140  1  0.15593985  0.88228381  0.75188141  1
  O  O141  1  0.32718728  0.14629913  -0.00298926  1
  O  O142  1  0.40222257  0.10500771  0.25028167  1
  O  O143  1  0.34402227  0.13444561  0.49262403  1
  O  O144  1  0.39114486  0.09033343  0.75988891  1
  O  O145  1  0.38485320  0.33350369  -0.00296121  1
  O  O146  1  0.34245650  0.39185468  0.24473047  1
  O  O147  1  0.39475713  0.36304274  0.49579615  1
  O  O148  1  0.34529192  0.39310079  0.75133815  1
  O  O149  1  0.37553485  0.62451372  -0.01013596  1
  O  O150  1  0.36137825  0.61375561  0.26084151  1
  O  O151  1  0.39180109  0.65691871  0.50297257  1
  O  O152  1  0.38202269  0.57886391  0.74220828  1
  O  O153  1  0.37348315  0.85027469  -0.00121828  1
  O  O154  1  0.38017237  0.89387565  0.25450614  1
  O  O155  1  0.35815021  0.85049856  0.50480784  1
  O  O156  1  0.38223207  0.87909518  0.75202466  1
  O  O157  1  0.63710078  0.10974176  0.00839175  1
  O  O158  1  0.60059397  0.12411990  0.24419794  1
  O  O159  1  0.62475287  0.16334152  0.50765327  1
  O  O160  1  0.57351213  0.15480187  0.76763615  1
  O  O161  1  0.58118561  0.37761673  0.00262273  1
  O  O162  1  0.63682115  0.40094431  0.24806365  1
  O  O163  1  0.57923602  0.36741299  0.50344449  1
  O  O164  1  0.64915822  0.38873053  0.75020717  1
  O  O165  1  0.59475340  0.64364678  0.01267989  1
  O  O166  1  0.64741820  0.61414822  0.25961485  1
  O  O167  1  0.61479550  0.64685121  0.49820030  1
  O  O168  1  0.63659931  0.59870359  0.74287490  1
  O  O169  1  0.62711551  0.84597718  0.00931989  1
  O  O170  1  0.62292381  0.88852817  0.25918933  1
  O  O171  1  0.63383258  0.88540444  0.49816636  1
  O  O172  1  0.63065218  0.87928508  0.75056644  1
  O  O173  1  0.84771062  0.11151467  -0.00163406  1
  O  O174  1  0.91381185  0.13768521  0.23972601  1
  O  O175  1  0.84461875  0.12305702  0.49613839  1
  O  O176  1  0.88852194  0.14933852  0.75863732  1
  O  O177  1  0.90363126  0.39425680  0.00766634  1
  O  O178  1  0.87304050  0.34771680  0.24502268  1
  O  O179  1  0.89212551  0.40145063  0.49399250  1
  O  O180  1  0.85238379  0.36773395  0.75021634  1
  O  O181  1  0.86527513  0.59688600  -0.00312033  1
  O  O182  1  0.89076335  0.63348474  0.24718338  1
  O  O183  1  0.88602428  0.59004068  0.50422686  1
  O  O184  1  0.86113653  0.62598783  0.74439490  1
  O  O185  1  0.88820678  0.86660244  -0.00146331  1
  O  O186  1  0.87303152  0.86318688  0.23563954  1
  O  O187  1  0.88964687  0.89341097  0.50858157  1
  O  O188  1  0.84161572  0.86918879  0.75289154  1
  O  O189  1  0.00053994  0.11637750  0.08387107  1
  O  O190  1  -0.00371936  0.09672792  0.39114708  1
  O  O191  1  0.01120587  0.10860732  0.58916163  1
  O  O192  1  0.00233368  0.11809016  0.89949117  1
  O  O193  1  0.00797393  0.40514061  0.13775676  1
  O  O194  1  0.00568791  0.39590257  0.35156929  1
  O  O195  1  0.01059232  0.39124385  0.64944052  1
  O  O196  1  0.00905549  0.37312430  0.83919092  1
  O  O197  1  0.00818276  0.59107391  0.12047101  1
  O  O198  1  0.01092580  0.59447248  0.38307736  1
  O  O199  1  -0.00229368  0.59509892  0.62947277  1
  O  O200  1  -0.00339748  0.63510673  0.84919447  1
  O  O201  1  0.00766435  0.88128932  0.10807562  1
  O  O202  1  0.01050039  0.88949108  0.38260670  1
  O  O203  1  0.01393211  0.90067129  0.64546335  1
  O  O204  1  0.01663769  0.84872380  0.85487227  1
  O  O205  1  0.24927485  0.13212011  0.16499152  1
  O  O206  1  0.25811710  0.13075774  0.34753885  1
  O  O207  1  0.25444738  0.13708333  0.65799820  1
  O  O208  1  0.23896583  0.11913736  0.85138350  1
  O  O209  1  0.24552630  0.34400387  0.09718411  1
  O  O210  1  0.24907131  0.35231795  0.38640529  1
  O  O211  1  0.24929491  0.34394415  0.61036245  1
  O  O212  1  0.24640891  0.34219266  0.89579248  1
  O  O213  1  0.24774633  0.62550331  0.11173031  1
  O  O214  1  0.25439756  0.62545214  0.39582352  1
  O  O215  1  0.23978224  0.65262975  0.65097075  1
  O  O216  1  0.25681809  0.60177817  0.86522659  1
  O  O217  1  0.25247798  0.84777089  0.11665809  1
  O  O218  1  0.25967440  0.83860434  0.37107532  1
  O  O219  1  0.25102777  0.83515159  0.63060421  1
  O  O220  1  0.25640001  0.84988547  0.88183332  1
  O  O221  1  0.48412851  0.11818192  0.09812693  1
  O  O222  1  0.49441408  0.14220802  0.38767129  1
  O  O223  1  0.48412980  0.11296475  0.59976927  1
  O  O224  1  0.48758326  0.12177064  0.91536166  1
  O  O225  1  0.48768453  0.37038347  0.14786083  1
  O  O226  1  0.48801338  0.38159224  0.34190518  1
  O  O227  1  0.49143217  0.42467356  0.64924506  1
  O  O228  1  0.48982695  0.36694449  0.83477779  1
  O  O229  1  0.49988511  0.63083578  0.16305550  1
  O  O230  1  0.50004740  0.60261617  0.36682879  1
  O  O231  1  0.50071925  0.60552008  0.62352602  1
  O  O232  1  0.50158585  0.57848614  0.85810810  1
  O  O233  1  0.49521077  0.89544908  0.11937751  1
  O  O234  1  0.49283241  0.87169677  0.40352641  1
  O  O235  1  0.48808445  0.88021640  0.60656875  1
  O  O236  1  0.48874558  0.88095596  0.87528553  1
  O  O237  1  0.75842550  0.13571456  0.14693516  1
  O  O238  1  0.75665159  0.15923237  0.35473284  1
  O  O239  1  0.73380714  0.15478666  0.64052377  1
  O  O240  1  0.73556682  0.12202037  0.85941808  1
  O  O241  1  0.75724276  0.36576316  0.10297790  1
  O  O242  1  0.76252411  0.34974795  0.38037436  1
  O  O243  1  0.72823760  0.36449233  0.59655761  1
  O  O244  1  0.75358991  0.38266891  0.91225457  1
  O  O245  1  0.75175593  0.63622215  0.12945675  1
  O  O246  1  0.75020721  0.64392852  0.39050129  1
  O  O247  1  0.74978402  0.62755327  0.59363407  1
  O  O248  1  0.74561248  0.61631307  0.87706058  1
  O  O249  1  0.76014460  0.87383809  0.11062446  1
  O  O250  1  0.74453001  0.87546448  0.37785354  1
  O  O251  1  0.75509444  0.89565277  0.61634085  1
  O  O252  1  0.75047427  0.86840107  0.89324553  1
  O  O253  1  0.14547841  0.01300195  0.06648229  1
  O  O254  1  0.15511360  -0.00637402  0.40041174  1
  O  O255  1  0.15414052  -0.00574680  0.61468923  1
  O  O256  1  0.13219234  -0.00820233  0.89749368  1
  O  O257  1  0.09664191  0.25775062  0.13100671  1
  O  O258  1  0.10591820  0.25945946  0.35393785  1
  O  O259  1  0.11570896  0.25904967  0.65360379  1
  O  O260  1  0.11243740  0.24741235  0.83331465  1
  O  O261  1  0.14517651  0.49250156  0.09672950  1
  O  O262  1  0.15638418  0.49429743  0.39792010  1
  O  O263  1  0.15438014  0.49310586  0.60067602  1
  O  O264  1  0.11284992  0.49559534  0.88124748  1
  O  O265  1  0.10753595  0.73399587  0.13918901  1
  O  O266  1  0.11714398  0.73830061  0.35339379  1
  O  O267  1  0.09581778  0.74299204  0.66777452  1
  O  O268  1  0.14494792  0.73293489  0.83597428  1
  O  O269  1  0.35400222  -0.00086579  0.11167224  1
  O  O270  1  0.35715939  -0.00223853  0.39392711  1
  O  O271  1  0.34692988  -0.00525653  0.62254804  1
  O  O272  1  0.34525187  0.00194756  0.90562478  1
  O  O273  1  0.37164608  0.24689947  0.15602528  1
  O  O274  1  0.37496583  0.24925961  0.34957293  1
  O  O275  1  0.39084748  0.24246488  0.66281131  1
  O  O276  1  0.38083608  0.23913487  0.84435497  1
  O  O277  1  0.36730610  0.48767166  0.10329336  1
  O  O278  1  0.35458978  0.49593179  0.38989167  1
  O  O279  1  0.33075501  0.51799520  0.58954116  1
  O  O280  1  0.37266330  0.47961997  0.89795111  1
  O  O281  1  0.38631981  0.75771018  0.15259825  1
  O  O282  1  0.40366929  0.74251454  0.36196928  1
  O  O283  1  0.39223813  0.74124289  0.64882026  1
  O  O284  1  0.39666672  0.72607350  0.84850705  1
  O  O285  1  0.61943917  0.00578424  0.13195687  1
  O  O286  1  0.61291283  0.00239804  0.37277490  1
  O  O287  1  0.60931460  0.00603427  0.63365617  1
  O  O288  1  0.61505654  0.01354123  0.87920672  1
  O  O289  1  0.61806013  0.24570277  0.11983535  1
  O  O290  1  0.61632968  0.25761742  0.34770975  1
  O  O291  1  0.57020877  0.26893842  0.64557923  1
  O  O292  1  0.62607403  0.25118248  0.90936448  1
  O  O293  1  0.60852216  0.50780218  0.11984476  1
  O  O294  1  0.64959090  0.50358523  0.38535949  1
  O  O295  1  0.63182529  0.50182036  0.59401082  1
  O  O296  1  0.63778164  0.50434635  0.91515907  1
  O  O297  1  0.62785112  0.74752531  0.16040409  1
  O  O298  1  0.62309960  0.75058346  0.36349510  1
  O  O299  1  0.62526543  0.74237191  0.63896270  1
  O  O300  1  0.60468236  0.72861211  0.86329033  1
  O  O301  1  0.88126680  0.00427666  0.13603799  1
  O  O302  1  0.85731225  0.01679271  0.35379496  1
  O  O303  1  0.88390885  0.01036431  0.65609015  1
  O  O304  1  0.86083093  0.00717365  0.86369477  1
  O  O305  1  0.89328398  0.24963357  0.10429315  1
  O  O306  1  0.92061301  0.24803025  0.38477466  1
  O  O307  1  0.86442173  0.25298966  0.62368210  1
  O  O308  1  0.86445307  0.24540417  0.89301662  1
  O  O309  1  0.86412209  0.49738180  0.15285070  1
  O  O310  1  0.86158328  0.49052695  0.34806595  1
  O  O311  1  0.84493533  0.49535707  0.63469212  1
  O  O312  1  0.87228063  0.50127982  0.85907133  1
  O  O313  1  0.90113318  0.73665860  0.11697599  1
  O  O314  1  0.89507021  0.74293827  0.37574379  1
  O  O315  1  0.88600431  0.74294181  0.60538475  1
  O  O316  1  0.86423473  0.74436437  0.87922778  1
