# generated using pymatgen
data_Mg32Ti42(Bi17O64)3
_symmetry_space_group_name_H-M   'P 1'
_cell_length_a   15.93623275
_cell_length_b   15.98993480
_cell_length_c   15.95786532
_cell_angle_alpha   89.79077793
_cell_angle_beta   90.04591987
_cell_angle_gamma   90.14549830
_symmetry_Int_Tables_number   1
_chemical_formula_structural   Mg32Ti42(Bi17O64)3
_chemical_formula_sum   'Mg32 Ti42 Bi51 O192'
_cell_volume   4066.33093377
_cell_formula_units_Z   1
loop_
 _symmetry_equiv_pos_site_id
 _symmetry_equiv_pos_as_xyz
  1  'x, y, z'
loop_
 _atom_site_type_symbol
 _atom_site_label
 _atom_site_symmetry_multiplicity
 _atom_site_fract_x
 _atom_site_fract_y
 _atom_site_fract_z
 _atom_site_occupancy
  Mg  Mg0  1  0.86965282  0.12957239  0.37445568  1
  Mg  Mg1  1  0.37571463  0.12534113  0.36830671  1
  Mg  Mg2  1  0.87256677  0.87546593  0.88476643  1
  Mg  Mg3  1  0.38026513  0.13665749  0.12910688  1
  Mg  Mg4  1  0.62012381  0.14184330  0.88654262  1
  Mg  Mg5  1  0.62362317  0.63265805  0.12663814  1
  Mg  Mg6  1  0.12804459  0.37515797  0.13131046  1
  Mg  Mg7  1  0.87389317  0.37526823  0.36628176  1
  Mg  Mg8  1  0.87743935  0.62189379  0.61960567  1
  Mg  Mg9  1  0.62657091  0.37651908  0.11142236  1
  Mg  Mg10  1  0.11811488  0.87973822  0.12053239  1
  Mg  Mg11  1  0.12068240  0.12212960  0.63126219  1
  Mg  Mg12  1  0.37275478  0.13842731  0.86740070  1
  Mg  Mg13  1  0.37302519  0.88390793  0.64214998  1
  Mg  Mg14  1  0.62884904  0.12321588  0.62011242  1
  Mg  Mg15  1  0.62247322  0.37314891  0.62844666  1
  Mg  Mg16  1  0.87428095  0.87997661  0.37575241  1
  Mg  Mg17  1  0.62372347  0.63033366  0.88224333  1
  Mg  Mg18  1  0.87223530  0.13292880  0.87145212  1
  Mg  Mg19  1  0.22441059  0.30890635  0.75920011  1
  Mg  Mg20  1  0.49902550  0.24629315  0.27255628  1
  Mg  Mg21  1  0.76552174  0.05302074  0.02096578  1
  Mg  Mg22  1  -0.07456261  0.23891242  0.23963301  1
  Mg  Mg23  1  0.51586565  0.44388520  0.22832052  1
  Mg  Mg24  1  0.22444360  -0.00769105  0.78507525  1
  Mg  Mg25  1  0.49138292  0.52099662  0.80854478  1
  Mg  Mg26  1  0.78414703  0.71977244  -0.05740278  1
  Mg  Mg27  1  0.21313887  0.75961683  0.02160441  1
  Mg  Mg28  1  0.48608428  0.70176544  -0.00060215  1
  Mg  Mg29  1  0.52197648  0.28437741  0.77426116  1
  Mg  Mg30  1  0.18738683  0.48146676  0.81155593  1
  Mg  Mg31  1  0.04432750  0.43201840  -0.02950538  1
  Ti  Ti32  1  0.13186372  0.13568335  0.37694819  1
  Ti  Ti33  1  0.37651911  0.37003649  0.13210063  1
  Ti  Ti34  1  0.61581636  0.63683953  0.37212818  1
  Ti  Ti35  1  0.37953324  0.87589183  0.37999946  1
  Ti  Ti36  1  0.37997142  0.37247501  0.63534881  1
  Ti  Ti37  1  0.11569624  0.88010681  0.63016889  1
  Ti  Ti38  1  0.62266213  0.12902767  0.37491312  1
  Ti  Ti39  1  0.61549300  0.13851295  0.12581644  1
  Ti  Ti40  1  0.11514605  0.86008637  0.88937603  1
  Ti  Ti41  1  0.13061694  0.37636019  0.36815476  1
  Ti  Ti42  1  0.62341396  0.86850519  0.88115936  1
  Ti  Ti43  1  0.87250306  0.86774300  0.11415811  1
  Ti  Ti44  1  0.36746019  0.62386595  0.13324384  1
  Ti  Ti45  1  0.61801014  0.88374347  0.62914976  1
  Ti  Ti46  1  0.37958207  0.86052653  0.10328015  1
  Ti  Ti47  1  0.61643660  0.88858217  0.37642634  1
  Ti  Ti48  1  0.87334921  0.12928882  0.63085325  1
  Ti  Ti49  1  0.12512380  0.62800872  0.63570997  1
  Ti  Ti50  1  0.87947885  0.38247134  0.62651495  1
  Ti  Ti51  1  0.37989669  0.63534713  0.37581095  1
  Ti  Ti52  1  0.13734240  0.13120360  0.86328636  1
  Ti  Ti53  1  0.62744872  0.87510097  0.10579090  1
  Ti  Ti54  1  0.86580908  0.88011790  0.62309714  1
  Ti  Ti55  1  0.37196499  0.12427495  0.63710995  1
  Ti  Ti56  1  0.86852931  0.62546251  0.37533913  1
  Ti  Ti57  1  0.36202929  0.61880901  0.88020166  1
  Ti  Ti58  1  0.38712968  0.37224387  0.37522405  1
  Ti  Ti59  1  0.36960442  0.86368899  0.88702123  1
  Ti  Ti60  1  0.63103275  0.62602709  0.63200578  1
  Ti  Ti61  1  0.86982387  0.62971400  0.14176325  1
  Ti  Ti62  1  0.37547315  0.61465817  0.64146439  1
  Ti  Ti63  1  0.89311639  0.38660222  0.12164467  1
  Ti  Ti64  1  0.12101292  0.63091626  0.13710347  1
  Ti  Ti65  1  0.62231319  0.37616862  0.38064157  1
  Ti  Ti66  1  0.12863252  0.88846607  0.37961641  1
  Ti  Ti67  1  0.12655746  0.63324824  0.87600569  1
  Ti  Ti68  1  0.62867517  0.39164488  0.86565729  1
  Ti  Ti69  1  0.13219197  0.62983059  0.38568993  1
  Ti  Ti70  1  0.37920778  0.38180230  0.86656169  1
  Ti  Ti71  1  0.13542714  0.12519250  0.12845141  1
  Ti  Ti72  1  0.86950715  0.36703138  0.87731624  1
  Ti  Ti73  1  0.12298985  0.38120007  0.61335623  1
  Bi  Bi74  1  0.49050520  0.25564477  -0.01549862  1
  Bi  Bi75  1  0.74049120  0.75896894  0.75100279  1
  Bi  Bi76  1  -0.04180570  0.74431051  0.75730732  1
  Bi  Bi77  1  0.27003489  0.24870712  0.25722290  1
  Bi  Bi78  1  0.01308669  0.78434337  0.25778843  1
  Bi  Bi79  1  -0.02007106  0.50210371  0.48476794  1
  Bi  Bi80  1  0.48659245  0.75843174  0.53581607  1
  Bi  Bi81  1  -0.01538678  0.71607209  -0.00193797  1
  Bi  Bi82  1  0.51784734  0.03786356  0.75825439  1
  Bi  Bi83  1  0.76416713  0.26691728  0.51506108  1
  Bi  Bi84  1  0.78301793  0.25019661  0.02507512  1
  Bi  Bi85  1  -0.00371684  0.26425640  0.46667256  1
  Bi  Bi86  1  0.74481816  0.00846239  0.22198132  1
  Bi  Bi87  1  -0.00858711  0.01056400  0.77730631  1
  Bi  Bi88  1  0.50189234  0.52489209  0.51494250  1
  Bi  Bi89  1  0.72726284  0.23394921  0.73430020  1
  Bi  Bi90  1  0.24006574  0.77390232  0.51246496  1
  Bi  Bi91  1  0.74408330  0.78196120  0.23811950  1
  Bi  Bi92  1  -0.02247614  0.74975552  0.50344340  1
  Bi  Bi93  1  -0.01009737  0.01243140  0.50019853  1
  Bi  Bi94  1  0.48309470  0.02940968  -0.00229165  1
  Bi  Bi95  1  0.72048431  0.51210280  0.25603046  1
  Bi  Bi96  1  0.48209500  0.02605440  0.50764152  1
  Bi  Bi97  1  0.48793794  0.73944844  0.76693960  1
  Bi  Bi98  1  0.24159933  0.29413328  -0.01411357  1
  Bi  Bi99  1  0.52031864  0.50672526  0.02489157  1
  Bi  Bi100  1  0.72141374  0.77454400  0.49468469  1
  Bi  Bi101  1  0.23861043  0.24618147  0.53131085  1
  Bi  Bi102  1  0.71964290  0.27610730  0.24877617  1
  Bi  Bi103  1  0.23970580  0.02310935  -0.00951685  1
  Bi  Bi104  1  -0.00688020  0.03348790  0.25305000  1
  Bi  Bi105  1  0.24509425  0.77894855  0.75814387  1
  Bi  Bi106  1  0.00980441  0.50797957  0.25521954  1
  Bi  Bi107  1  0.76344916  0.02011921  0.48762580  1
  Bi  Bi108  1  0.26858614  0.00118195  0.21829439  1
  Bi  Bi109  1  0.02187733  0.29697237  0.76290785  1
  Bi  Bi110  1  0.24430014  0.00555605  0.52123390  1
  Bi  Bi111  1  -0.03385948  0.02355985  0.00748105  1
  Bi  Bi112  1  0.50030974  0.75509457  0.22962336  1
  Bi  Bi113  1  0.23778886  0.51862562  0.02124735  1
  Bi  Bi114  1  -0.01912342  0.53058803  0.78356628  1
  Bi  Bi115  1  0.24955254  0.77924261  0.23974251  1
  Bi  Bi116  1  0.50044561  0.01819417  0.25211653  1
  Bi  Bi117  1  0.26720640  0.50195779  0.28313696  1
  Bi  Bi118  1  0.00478992  0.23338877  0.03258460  1
  Bi  Bi119  1  0.72951718  0.50723138  0.51527713  1
  Bi  Bi120  1  0.78482950  0.52185881  0.00687582  1
  Bi  Bi121  1  0.49023936  0.24642287  0.53150656  1
  Bi  Bi122  1  0.76266794  0.52813212  0.78805605  1
  Bi  Bi123  1  0.25119244  0.50593133  0.51809039  1
  Bi  Bi124  1  0.74995786  0.00063881  0.80351287  1
  O  O125  1  0.14921693  0.13453363  -0.00917706  1
  O  O126  1  0.11294644  0.10650280  0.24569265  1
  O  O127  1  0.13952647  0.14271658  0.49391184  1
  O  O128  1  0.12559792  0.08022906  0.75384168  1
  O  O129  1  0.15373852  0.38866267  0.00446031  1
  O  O130  1  0.11503826  0.39997326  0.25455609  1
  O  O131  1  0.13090884  0.34387718  0.49827193  1
  O  O132  1  0.12847046  0.39234029  0.73958721  1
  O  O133  1  0.13226028  0.65758403  -0.00938308  1
  O  O134  1  0.12068043  0.60040805  0.24948205  1
  O  O135  1  0.13125908  0.64015932  0.49989005  1
  O  O136  1  0.13616673  0.59265899  0.74739377  1
  O  O137  1  0.10709986  0.83383180  -0.00016166  1
  O  O138  1  0.14109229  0.87829504  0.25660899  1
  O  O139  1  0.11558675  0.84732296  0.49977766  1
  O  O140  1  0.15460033  0.89076359  0.74433308  1
  O  O141  1  0.39591142  0.13831426  0.00159432  1
  O  O142  1  0.37358793  0.08207691  0.24784372  1
  O  O143  1  0.40056114  0.13726883  0.48977922  1
  O  O144  1  0.38358042  0.10831026  0.74616978  1
  O  O145  1  0.36773310  0.35743846  -0.00862428  1
  O  O146  1  0.38142891  0.41401799  0.23943825  1
  O  O147  1  0.40090097  0.35588140  0.48661738  1
  O  O148  1  0.34515330  0.36719505  0.74192668  1
  O  O149  1  0.37423977  0.64148113  -0.00837610  1
  O  O150  1  0.36360820  0.60292281  0.24741587  1
  O  O151  1  0.39383315  0.62930094  0.49454627  1
  O  O152  1  0.39423367  0.58915101  0.74983249  1
  O  O153  1  0.41024958  0.81839019  0.00126340  1
  O  O154  1  0.34469890  0.88816025  0.25950596  1
  O  O155  1  0.38454874  0.84293697  0.49828249  1
  O  O156  1  0.33314568  0.89630738  0.76896780  1
  O  O157  1  0.58659812  0.14080646  0.00921543  1
  O  O158  1  0.63118780  0.09101766  0.24055247  1
  O  O159  1  0.61045183  0.13631322  0.48828178  1
  O  O160  1  0.60367505  0.15222388  0.75611479  1
  O  O161  1  0.61697274  0.41170480  -0.01186059  1
  O  O162  1  0.63963969  0.39070680  0.24155218  1
  O  O163  1  0.60872011  0.36482250  0.49160497  1
  O  O164  1  0.63559191  0.34607688  0.75180261  1
  O  O165  1  0.59528240  0.62700567  0.00437935  1
  O  O166  1  0.63828196  0.61901639  0.25589409  1
  O  O167  1  0.62030068  0.61718503  0.49179740  1
  O  O168  1  0.64665565  0.63969986  0.74531051  1
  O  O169  1  0.60184269  0.86343179  -0.00398125  1
  O  O170  1  0.65528111  0.89830272  0.25691435  1
  O  O171  1  0.60471766  0.85865191  0.50018094  1
  O  O172  1  0.64205762  0.85914731  0.74378039  1
  O  O173  1  0.88127563  0.12669793  -0.00417933  1
  O  O174  1  0.89061263  0.11830296  0.24892991  1
  O  O175  1  0.83842422  0.14302256  0.50525200  1
  O  O176  1  0.90441177  0.11758523  0.74572138  1
  O  O177  1  0.86003429  0.37516732  -0.00459140  1
  O  O178  1  0.90183244  0.36987744  0.23709325  1
  O  O179  1  0.88679962  0.35037388  0.50327668  1
  O  O180  1  0.89745809  0.37711528  0.74719820  1
  O  O181  1  0.86338992  0.64300389  0.01278277  1
  O  O182  1  0.88536096  0.59852728  0.25644472  1
  O  O183  1  0.89912577  0.62939477  0.49505883  1
  O  O184  1  0.87771179  0.61917376  0.74529345  1
  O  O185  1  0.88230468  0.82489105  0.00466846  1
  O  O186  1  0.84056408  0.88646226  0.24846413  1
  O  O187  1  0.90088212  0.86113497  0.50239747  1
  O  O188  1  0.85178572  0.88818089  0.73796699  1
  O  O189  1  0.01061043  0.10937011  0.10755531  1
  O  O190  1  0.00754179  0.10042063  0.38152097  1
  O  O191  1  -0.00840727  0.12421405  0.59151864  1
  O  O192  1  0.01789434  0.10130265  0.88234491  1
  O  O193  1  0.00489872  0.38149498  0.08296352  1
  O  O194  1  0.00959424  0.38853700  0.39110371  1
  O  O195  1  0.00856928  0.35412870  0.62112154  1
  O  O196  1  -0.00687213  0.35604186  0.88511630  1
  O  O197  1  0.00015970  0.63288173  0.11706302  1
  O  O198  1  0.01481449  0.58578534  0.37280213  1
  O  O199  1  0.01209005  0.63674282  0.63616053  1
  O  O200  1  0.00329864  0.64791695  0.86285139  1
  O  O201  1  -0.01250407  0.88234302  0.14527263  1
  O  O202  1  0.00803063  0.88683755  0.35550172  1
  O  O203  1  0.00319938  0.87872733  0.64650340  1
  O  O204  1  0.00406155  0.87033352  0.85973100  1
  O  O205  1  0.25315778  0.13386973  0.13955284  1
  O  O206  1  0.24875196  0.14306559  0.35577582  1
  O  O207  1  0.25443510  0.11445893  0.61147929  1
  O  O208  1  0.25450767  0.09581199  0.86339991  1
  O  O209  1  0.25790897  0.34646502  0.12357130  1
  O  O210  1  0.25735324  0.35761643  0.35452948  1
  O  O211  1  0.25925220  0.38596478  0.59512859  1
  O  O212  1  0.25516579  0.38180717  0.86642140  1
  O  O213  1  0.24618953  0.64431807  0.10745730  1
  O  O214  1  0.25330603  0.62324018  0.37219099  1
  O  O215  1  0.26106159  0.60736016  0.61926852  1
  O  O216  1  0.24612922  0.59560684  0.87010376  1
  O  O217  1  0.25441517  0.84425723  0.10884633  1
  O  O218  1  0.24965694  0.85764212  0.39736143  1
  O  O219  1  0.25099443  0.88190826  0.59863831  1
  O  O220  1  0.25712276  0.83004798  0.90856075  1
  O  O221  1  0.50094330  0.09214623  0.13615193  1
  O  O222  1  0.50334342  0.12992734  0.33441400  1
  O  O223  1  0.49779336  0.12774484  0.61900248  1
  O  O224  1  0.49422794  0.09860333  0.87636934  1
  O  O225  1  0.49366798  0.38535250  0.11478880  1
  O  O226  1  0.50477569  0.37553235  0.33737071  1
  O  O227  1  0.49560646  0.33872797  0.64708459  1
  O  O228  1  0.49279631  0.39672313  0.82983999  1
  O  O229  1  0.48338188  0.64853452  0.12275207  1
  O  O230  1  0.50052225  0.62274679  0.36135142  1
  O  O231  1  0.50592781  0.62075930  0.61882812  1
  O  O232  1  0.49743070  0.64098633  0.86860884  1
  O  O233  1  0.49877451  0.87192879  0.14659189  1
  O  O234  1  0.49794022  0.86657524  0.35380477  1
  O  O235  1  0.50037234  0.85928261  0.63748543  1
  O  O236  1  0.49921282  0.84610270  0.85268839  1
  O  O237  1  0.73494109  0.14339804  0.10727363  1
  O  O238  1  0.73912647  0.10781740  0.36909694  1
  O  O239  1  0.75428100  0.11128331  0.65678219  1
  O  O240  1  0.74005771  0.10068028  0.90153202  1
  O  O241  1  0.75490127  0.35078751  0.12229365  1
  O  O242  1  0.74491505  0.35688509  0.36632720  1
  O  O243  1  0.75948494  0.39266059  0.60336668  1
  O  O244  1  0.74736131  0.40253137  0.86714408  1
  O  O245  1  0.75289580  0.60334479  0.12724107  1
  O  O246  1  0.75596202  0.63099030  0.37928448  1
  O  O247  1  0.74930244  0.60678344  0.60884223  1
  O  O248  1  0.74658682  0.60556639  0.89779080  1
  O  O249  1  0.74418994  0.84637535  0.11538671  1
  O  O250  1  0.74084241  0.88147449  0.40634548  1
  O  O251  1  0.74716011  0.87213859  0.59612878  1
  O  O252  1  0.74312231  0.89827556  0.89103243  1
  O  O253  1  0.14643819  0.00243437  0.10348776  1
  O  O254  1  0.14345068  -0.00140366  0.39570314  1
  O  O255  1  0.12415844  -0.00647244  0.59480865  1
  O  O256  1  0.15214048  -0.02790471  0.89377220  1
  O  O257  1  0.10691233  0.24343898  0.12543812  1
  O  O258  1  0.10848027  0.24932346  0.35947923  1
  O  O259  1  0.16278212  0.25824722  0.64727170  1
  O  O260  1  0.14652216  0.23979203  0.83590785  1
  O  O261  1  0.13556319  0.51286421  0.11052196  1
  O  O262  1  0.15627287  0.48941548  0.39601396  1
  O  O263  1  0.12832723  0.49766098  0.59335869  1
  O  O264  1  0.09439473  0.51442908  0.89039958  1
  O  O265  1  0.12101545  0.74901925  0.15369294  1
  O  O266  1  0.11292119  0.74018860  0.35712531  1
  O  O267  1  0.14817127  0.74772177  0.63798050  1
  O  O268  1  0.13195837  0.74774489  0.83898390  1
  O  O269  1  0.35848178  -0.02167813  0.10697618  1
  O  O270  1  0.38251380  -0.01016410  0.40412583  1
  O  O271  1  0.37965127  0.00408708  0.60021248  1
  O  O272  1  0.37318176  -0.02803642  0.91973732  1
  O  O273  1  0.39683839  0.25650509  0.16717341  1
  O  O274  1  0.38625755  0.25544201  0.33736028  1
  O  O275  1  0.36617376  0.24617936  0.61451195  1
  O  O276  1  0.41378339  0.25930438  0.86276039  1
  O  O277  1  0.35296560  0.50674750  0.10299208  1
  O  O278  1  0.36162301  0.49295041  0.38537910  1
  O  O279  1  0.39534776  0.49009756  0.60521413  1
  O  O280  1  0.39113052  0.50093700  0.89058935  1
  O  O281  1  0.37266727  0.75214605  0.16273432  1
  O  O282  1  0.37626382  0.74543768  0.35483517  1
  O  O283  1  0.38258446  0.73610729  0.64367960  1
  O  O284  1  0.36833521  0.73463683  0.83486009  1
  O  O285  1  0.66057539  -0.00845181  0.10343162  1
  O  O286  1  0.60266697  0.00029600  0.38850667  1
  O  O287  1  0.61394906  -0.00447114  0.62718813  1
  O  O288  1  0.61270164  -0.01402998  0.85143350  1
  O  O289  1  0.59857746  0.24638851  0.16310324  1
  O  O290  1  0.61521987  0.24886297  0.34338880  1
  O  O291  1  0.66127889  0.24797705  0.61660024  1
  O  O292  1  0.59253756  0.26895022  0.88927236  1
  O  O293  1  0.59585015  0.50615695  0.13858847  1
  O  O294  1  0.63793864  0.49527941  0.37413483  1
  O  O295  1  0.61757203  0.49882375  0.60530918  1
  O  O296  1  0.61412601  0.50545412  0.83878725  1
  O  O297  1  0.61911296  0.75839105  0.15365886  1
  O  O298  1  0.62876633  0.75181242  0.37198174  1
  O  O299  1  0.63210281  0.74225357  0.61123561  1
  O  O300  1  0.67125172  0.75327350  0.87484605  1
  O  O301  1  0.85042089  -0.01978064  0.08348597  1
  O  O302  1  0.87241929  0.00429317  0.40922353  1
  O  O303  1  0.87376367  0.00155296  0.59330785  1
  O  O304  1  0.88379865  0.00048831  0.87330284  1
  O  O305  1  0.89540040  0.25505905  0.11503598  1
  O  O306  1  0.90164295  0.25024576  0.36240248  1
  O  O307  1  0.84691648  0.24932356  0.63432009  1
  O  O308  1  0.84860349  0.25487021  0.86963205  1
  O  O309  1  0.88261355  0.50171968  0.11687061  1
  O  O310  1  0.87156585  0.49900744  0.39840842  1
  O  O311  1  0.89668025  0.49341238  0.61066270  1
  O  O312  1  0.88074917  0.49622025  0.87141927  1
  O  O313  1  0.86991449  0.74333754  0.16179154  1
  O  O314  1  0.90606151  0.74131421  0.37195078  1
  O  O315  1  0.88048032  0.75476327  0.62885887  1
  O  O316  1  0.85341545  0.75708997  0.84723014  1
