# generated using pymatgen
data_Mg32Ti42(Bi17O64)3
_symmetry_space_group_name_H-M   'P 1'
_cell_length_a   15.95416594
_cell_length_b   15.94912052
_cell_length_c   15.93127482
_cell_angle_alpha   89.91575005
_cell_angle_beta   89.87598140
_cell_angle_gamma   90.01634985
_symmetry_Int_Tables_number   1
_chemical_formula_structural   Mg32Ti42(Bi17O64)3
_chemical_formula_sum   'Mg32 Ti42 Bi51 O192'
_cell_volume   4053.77713811
_cell_formula_units_Z   1
loop_
 _symmetry_equiv_pos_site_id
 _symmetry_equiv_pos_as_xyz
  1  'x, y, z'
loop_
 _atom_site_type_symbol
 _atom_site_label
 _atom_site_symmetry_multiplicity
 _atom_site_fract_x
 _atom_site_fract_y
 _atom_site_fract_z
 _atom_site_occupancy
  Mg  Mg0  1  0.37972969  0.60803167  0.62789865  1
  Mg  Mg1  1  0.61669349  0.12695008  0.87734631  1
  Mg  Mg2  1  0.37686149  0.62158303  0.88250968  1
  Mg  Mg3  1  0.63129919  0.61233717  0.87773038  1
  Mg  Mg4  1  0.63092710  0.62538748  0.36910692  1
  Mg  Mg5  1  0.12455381  0.87252965  0.13157105  1
  Mg  Mg6  1  0.63043013  0.12243898  0.38100252  1
  Mg  Mg7  1  0.36897929  0.12835259  0.36867812  1
  Mg  Mg8  1  0.62186510  0.87605289  0.37669966  1
  Mg  Mg9  1  0.88286573  0.62241887  0.37842670  1
  Mg  Mg10  1  0.37793827  0.88228733  0.87493311  1
  Mg  Mg11  1  0.36999539  0.38179324  0.37960306  1
  Mg  Mg12  1  0.87225102  0.12639272  0.62444937  1
  Mg  Mg13  1  0.37427414  0.13017798  0.12614278  1
  Mg  Mg14  1  0.12521311  0.87445382  0.86446171  1
  Mg  Mg15  1  0.87944083  0.87352933  0.37325351  1
  Mg  Mg16  1  0.62902746  0.38127501  0.62966644  1
  Mg  Mg17  1  0.37630624  0.62253060  0.37365264  1
  Mg  Mg18  1  0.87788297  0.12545057  0.12283543  1
  Mg  Mg19  1  0.21555591  0.46626649  0.44415250  1
  Mg  Mg20  1  0.71235686  0.28675941  0.45311723  1
  Mg  Mg21  1  0.29218443  0.17390503  0.71845856  1
  Mg  Mg22  1  0.48903662  0.24407449  -0.00479096  1
  Mg  Mg23  1  0.24242297  -0.03437618  0.71666320  1
  Mg  Mg24  1  0.46003019  0.49178804  0.76328550  1
  Mg  Mg25  1  0.70689601  0.44025616  0.27205274  1
  Mg  Mg26  1  0.26304635  -0.01110780  0.04303017  1
  Mg  Mg27  1  0.03704081  0.50368376  0.04796144  1
  Mg  Mg28  1  -0.03385201  0.77858538  0.50655149  1
  Mg  Mg29  1  0.72956913  0.77756045  0.03049902  1
  Mg  Mg30  1  -0.04664081  0.76002183  0.72979072  1
  Mg  Mg31  1  0.81150037  0.51435273  -0.02296016  1
  Ti  Ti32  1  0.61738722  0.13010075  0.12071724  1
  Ti  Ti33  1  0.38374277  0.37513428  0.12799594  1
  Ti  Ti34  1  0.63951219  0.13349052  0.61942982  1
  Ti  Ti35  1  0.36635618  0.38399759  0.62012091  1
  Ti  Ti36  1  0.87725208  0.61683084  0.13003228  1
  Ti  Ti37  1  0.86466600  0.38070028  0.38168855  1
  Ti  Ti38  1  0.37342915  0.36775859  0.88314687  1
  Ti  Ti39  1  0.87515717  0.11313299  0.87889161  1
  Ti  Ti40  1  0.62293090  0.87481040  0.87761696  1
  Ti  Ti41  1  0.62532423  0.37549057  0.86755122  1
  Ti  Ti42  1  0.61267535  0.87242554  0.62643687  1
  Ti  Ti43  1  0.13802002  0.12383917  0.87036876  1
  Ti  Ti44  1  0.89178676  0.63108782  0.87100319  1
  Ti  Ti45  1  0.37594029  0.87065908  0.62224238  1
  Ti  Ti46  1  0.87389069  0.39062424  0.12051156  1
  Ti  Ti47  1  0.36656930  0.12681354  0.88286373  1
  Ti  Ti48  1  0.86620058  0.88057422  0.62794330  1
  Ti  Ti49  1  0.14528710  0.37698737  0.63819532  1
  Ti  Ti50  1  0.12408243  0.11047309  0.63160672  1
  Ti  Ti51  1  0.12688506  0.36905042  0.88139714  1
  Ti  Ti52  1  0.11785418  0.85714901  0.62028529  1
  Ti  Ti53  1  0.88049761  0.37178207  0.87589383  1
  Ti  Ti54  1  0.62381619  0.61505611  0.62824411  1
  Ti  Ti55  1  0.13454273  0.12427410  0.13199701  1
  Ti  Ti56  1  0.88835658  0.63306452  0.62383061  1
  Ti  Ti57  1  0.11561407  0.86615826  0.37781466  1
  Ti  Ti58  1  0.87132754  0.86786931  0.88085491  1
  Ti  Ti59  1  0.62484836  0.36773273  0.10367326  1
  Ti  Ti60  1  0.86622053  0.13714019  0.37907998  1
  Ti  Ti61  1  0.13281395  0.62680807  0.63765394  1
  Ti  Ti62  1  0.12533451  0.11620396  0.38302781  1
  Ti  Ti63  1  0.11627767  0.63047660  0.39209723  1
  Ti  Ti64  1  0.86795980  0.35849510  0.62996460  1
  Ti  Ti65  1  0.37882301  0.63969123  0.12359571  1
  Ti  Ti66  1  0.64770338  0.61888134  0.11902619  1
  Ti  Ti67  1  0.12689542  0.63002271  0.13598804  1
  Ti  Ti68  1  0.13076991  0.37247340  0.12237887  1
  Ti  Ti69  1  0.37107119  0.87300993  0.13209288  1
  Ti  Ti70  1  0.87405506  0.87980055  0.12437063  1
  Ti  Ti71  1  0.60881991  0.88126334  0.12101054  1
  Ti  Ti72  1  0.12069168  0.62969750  0.88532405  1
  Ti  Ti73  1  0.38394204  0.86926955  0.37399374  1
  Bi  Bi74  1  -0.00848108  -0.00577819  0.74613735  1
  Bi  Bi75  1  0.52714402  0.73479392  -0.01388169  1
  Bi  Bi76  1  0.24367175  0.79098381  -0.00623725  1
  Bi  Bi77  1  -0.01578508  0.01639323  0.26173699  1
  Bi  Bi78  1  -0.01024801  0.75515582  0.01844329  1
  Bi  Bi79  1  0.01682613  0.25451866  0.28561098  1
  Bi  Bi80  1  0.52493086  0.26564600  0.49813469  1
  Bi  Bi81  1  0.26024150  0.51978941  0.01780839  1
  Bi  Bi82  1  0.47226786  0.03926955  0.51984601  1
  Bi  Bi83  1  0.25327788  0.75390153  0.26636594  1
  Bi  Bi84  1  -0.01001931  0.22634974  0.75641452  1
  Bi  Bi85  1  0.28212757  0.23292122  0.51360187  1
  Bi  Bi86  1  0.24618847  -0.02446012  0.49469827  1
  Bi  Bi87  1  0.75798380  0.72989292  0.27360514  1
  Bi  Bi88  1  0.72745689  0.00084771  0.75079366  1
  Bi  Bi89  1  0.47393488  0.01560178  -0.01126533  1
  Bi  Bi90  1  0.47999409  0.72219622  0.75846267  1
  Bi  Bi91  1  0.76816632  0.51003806  0.77043303  1
  Bi  Bi92  1  -0.02560532  0.00601716  0.49679288  1
  Bi  Bi93  1  0.25358169  -0.00568761  0.26177815  1
  Bi  Bi94  1  -0.01144365  0.75556923  0.26232338  1
  Bi  Bi95  1  0.24598799  0.50996940  0.78184245  1
  Bi  Bi96  1  0.49112746  0.03727919  0.26204541  1
  Bi  Bi97  1  0.52394030  0.50218820  0.22951180  1
  Bi  Bi98  1  0.73639185  -0.03241154  0.25343405  1
  Bi  Bi99  1  0.48565950  0.03389007  0.73900877  1
  Bi  Bi100  1  0.50607511  0.48738609  -0.02511034  1
  Bi  Bi101  1  0.78225843  0.25706264  0.23059804  1
  Bi  Bi102  1  0.02755944  0.47677815  0.27217924  1
  Bi  Bi103  1  0.74643908  0.23638372  0.00509006  1
  Bi  Bi104  1  0.00929411  0.48446555  0.76238979  1
  Bi  Bi105  1  0.02339858  0.48634305  0.51521251  1
  Bi  Bi106  1  0.24712830  0.27526988  0.28190720  1
  Bi  Bi107  1  0.26589031  0.70522425  0.50563980  1
  Bi  Bi108  1  0.27196214  0.51258086  0.26005247  1
  Bi  Bi109  1  0.03643001  -0.01976043  -0.00955827  1
  Bi  Bi110  1  0.49170313  0.26373359  0.72630373  1
  Bi  Bi111  1  0.73229658  0.74917462  0.74723935  1
  Bi  Bi112  1  0.74328260  0.00428151  0.01116762  1
  Bi  Bi113  1  0.52848395  0.74479734  0.26579534  1
  Bi  Bi114  1  0.26597009  0.25868551  0.02290755  1
  Bi  Bi115  1  0.50105606  0.71890240  0.49864152  1
  Bi  Bi116  1  0.03881555  0.25727774  0.52112934  1
  Bi  Bi117  1  0.52470247  0.26778156  0.28142981  1
  Bi  Bi118  1  0.73105415  -0.01360168  0.48498866  1
  Bi  Bi119  1  0.74758665  0.72246112  0.50229602  1
  Bi  Bi120  1  0.01584230  0.22031022  0.00700976  1
  Bi  Bi121  1  0.26345784  0.77020984  0.76394494  1
  Bi  Bi122  1  0.73487121  0.23799399  0.77016196  1
  Bi  Bi123  1  0.77522008  0.48959048  0.51661300  1
  Bi  Bi124  1  0.54253047  0.47479699  0.46026496  1
  O  O125  1  0.13223791  0.13550065  -0.00827226  1
  O  O126  1  0.10828372  0.12247341  0.24529389  1
  O  O127  1  0.13431832  0.12129950  0.50305402  1
  O  O128  1  0.10011476  0.13827446  0.74974148  1
  O  O129  1  0.12097854  0.39779868  -0.00182599  1
  O  O130  1  0.10634018  0.36784006  0.23888500  1
  O  O131  1  0.13682116  0.40120692  0.51708188  1
  O  O132  1  0.09679387  0.37059473  0.74624113  1
  O  O133  1  0.10217269  0.59816062  -0.00467625  1
  O  O134  1  0.14468682  0.64069218  0.24956040  1
  O  O135  1  0.09501190  0.61870078  0.50675293  1
  O  O136  1  0.15060371  0.62751175  0.75135756  1
  O  O137  1  0.15232388  0.89578912  0.00238805  1
  O  O138  1  0.10902961  0.86477746  0.25933545  1
  O  O139  1  0.12869770  0.89216313  0.50168615  1
  O  O140  1  0.14291769  0.88285068  0.73587980  1
  O  O141  1  0.34746110  0.08395282  0.00010865  1
  O  O142  1  0.40508013  0.13923048  0.24658734  1
  O  O143  1  0.35995453  0.11548941  0.49590784  1
  O  O144  1  0.40115960  0.14320946  0.76759275  1
  O  O145  1  0.34237608  0.39008121  0.00324546  1
  O  O146  1  0.38644785  0.34743773  0.23853347  1
  O  O147  1  0.33289731  0.38176464  0.50855013  1
  O  O148  1  0.40600603  0.36589535  0.76586525  1
  O  O149  1  0.37770577  0.60079719  0.00905227  1
  O  O150  1  0.34059556  0.64429246  0.24385976  1
  O  O151  1  0.39051726  0.63517905  0.50279835  1
  O  O152  1  0.39935739  0.61195178  0.75359217  1
  O  O153  1  0.34638435  0.89455292  0.00682315  1
  O  O154  1  0.37565243  0.84614080  0.24905423  1
  O  O155  1  0.37037272  0.89669045  0.49457325  1
  O  O156  1  0.34355966  0.88439058  0.74045928  1
  O  O157  1  0.66137780  0.11938091  -0.00272870  1
  O  O158  1  0.60215072  0.14305676  0.23738671  1
  O  O159  1  0.63663484  0.08154722  0.51019893  1
  O  O160  1  0.61647275  0.15101373  0.74536243  1
  O  O161  1  0.62988055  0.41011628  -0.00663946  1
  O  O162  1  0.60946509  0.36391030  0.23134625  1
  O  O163  1  0.62313863  0.37580151  0.50146596  1
  O  O164  1  0.60508103  0.34714431  0.75044391  1
  O  O165  1  0.60006564  0.60791728  0.01127179  1
  O  O166  1  0.62768010  0.64424573  0.23646158  1
  O  O167  1  0.61792988  0.64054517  0.49925334  1
  O  O168  1  0.64932065  0.63421201  0.74633700  1
  O  O169  1  0.65457761  0.89481249  0.00406956  1
  O  O170  1  0.61955945  0.88928662  0.23886478  1
  O  O171  1  0.63495960  0.88915497  0.50857345  1
  O  O172  1  0.62196115  0.84290567  0.76040465  1
  O  O173  1  0.85603743  0.14133067  -0.00683432  1
  O  O174  1  0.87801348  0.11318711  0.25420704  1
  O  O175  1  0.87795525  0.10709685  0.49776866  1
  O  O176  1  0.90717090  0.11199602  0.75315291  1
  O  O177  1  0.85184698  0.38366711  -0.01188398  1
  O  O178  1  0.84430119  0.39814381  0.23732054  1
  O  O179  1  0.84624223  0.35726531  0.49712591  1
  O  O180  1  0.88463388  0.39540112  0.74134969  1
  O  O181  1  0.89131619  0.62875130  -0.01470222  1
  O  O182  1  0.85109409  0.61697060  0.23957847  1
  O  O183  1  0.89103473  0.67645971  0.50762809  1
  O  O184  1  0.85241282  0.62083663  0.74425836  1
  O  O185  1  0.85120011  0.84043426  -0.00360619  1
  O  O186  1  0.91130645  0.88659939  0.23898789  1
  O  O187  1  0.88147507  0.87852739  0.50743226  1
  O  O188  1  0.90386443  0.88293864  0.75081844  1
  O  O189  1  0.00547000  0.11954613  0.10215552  1
  O  O190  1  0.00276030  0.14168080  0.38002102  1
  O  O191  1  0.00442203  0.16541639  0.61768872  1
  O  O192  1  -0.00373710  0.14159595  0.88567262  1
  O  O193  1  -0.01284249  0.40647724  0.11309310  1
  O  O194  1  -0.01111777  0.37438007  0.35913066  1
  O  O195  1  -0.01043814  0.36281973  0.59759807  1
  O  O196  1  -0.00441169  0.37116556  0.87538018  1
  O  O197  1  -0.00489400  0.59550983  0.13250932  1
  O  O198  1  0.00677728  0.63985441  0.35367830  1
  O  O199  1  -0.00531473  0.65710234  0.65746734  1
  O  O200  1  0.00420576  0.62336056  0.84758648  1
  O  O201  1  -0.00128006  0.88280099  0.08695547  1
  O  O202  1  0.00374557  0.83417947  0.39632945  1
  O  O203  1  0.00356954  0.83373497  0.61891817  1
  O  O204  1  0.00007740  0.88024012  0.90182490  1
  O  O205  1  0.24746605  0.16177134  0.13431517  1
  O  O206  1  0.24060174  0.09959730  0.35622136  1
  O  O207  1  0.23361426  0.08269156  0.66109110  1
  O  O208  1  0.25268823  0.12950037  0.84087975  1
  O  O209  1  0.24546079  0.35363508  0.13301824  1
  O  O210  1  0.24964773  0.39554972  0.34661557  1
  O  O211  1  0.25141717  0.40183008  0.66316371  1
  O  O212  1  0.24652112  0.38740319  0.86079059  1
  O  O213  1  0.24040578  0.63742142  0.10178062  1
  O  O214  1  0.24392163  0.59742929  0.41076362  1
  O  O215  1  0.24474039  0.60570163  0.60970698  1
  O  O216  1  0.24695552  0.60229277  0.89009609  1
  O  O217  1  0.25066460  0.85013976  0.13825643  1
  O  O218  1  0.24247860  0.89803005  0.37121058  1
  O  O219  1  0.25184378  0.89992712  0.60848154  1
  O  O220  1  0.25038643  0.85902683  0.87118183  1
  O  O221  1  0.50350489  0.10557387  0.09735675  1
  O  O222  1  0.50108490  0.10411193  0.38290626  1
  O  O223  1  0.51287287  0.12935417  0.61623014  1
  O  O224  1  0.49366460  0.13879539  0.92080159  1
  O  O225  1  0.49702614  0.40958495  0.11232246  1
  O  O226  1  0.49014996  0.36415573  0.39777447  1
  O  O227  1  0.49116175  0.34614772  0.61190443  1
  O  O228  1  0.49167453  0.35004131  0.91865664  1
  O  O229  1  0.48946203  0.61657462  0.14897349  1
  O  O230  1  0.49934468  0.65334459  0.36597831  1
  O  O231  1  0.51076872  0.65405594  0.62660040  1
  O  O232  1  0.50924696  0.65131735  0.87509709  1
  O  O233  1  0.49608343  0.89482313  0.11300158  1
  O  O234  1  0.49589231  0.85482525  0.37416120  1
  O  O235  1  0.49952935  0.85267128  0.62085889  1
  O  O236  1  0.50968655  0.85854561  0.89983774  1
  O  O237  1  0.74326809  0.16239937  0.12925982  1
  O  O238  1  0.75511941  0.15645595  0.38832753  1
  O  O239  1  0.75001660  0.10346609  0.65014642  1
  O  O240  1  0.75728650  0.11927976  0.84369504  1
  O  O241  1  0.73765529  0.34581502  0.11819926  1
  O  O242  1  0.74919903  0.36918150  0.36560206  1
  O  O243  1  0.75546255  0.40306044  0.62843086  1
  O  O244  1  0.74010099  0.39286913  0.85180892  1
  O  O245  1  0.75171223  0.65772099  0.09451108  1
  O  O246  1  0.75541133  0.63998707  0.38574762  1
  O  O247  1  0.75220757  0.61696917  0.59459916  1
  O  O248  1  0.75180919  0.58370763  0.88738904  1
  O  O249  1  0.76029064  0.85608240  0.14072779  1
  O  O250  1  0.75633719  0.87615531  0.35556001  1
  O  O251  1  0.75610393  0.90578717  0.63564944  1
  O  O252  1  0.75853677  0.87932535  0.85473449  1
  O  O253  1  0.15835317  0.01091026  0.11903254  1
  O  O254  1  0.09151073  -0.00295424  0.37061485  1
  O  O255  1  0.08569495  0.00366176  0.62883243  1
  O  O256  1  0.12010796  0.00997513  0.86963962  1
  O  O257  1  0.10645257  0.25696635  0.11036684  1
  O  O258  1  0.13539382  0.24040388  0.36801008  1
  O  O259  1  0.14585243  0.25905749  0.61341962  1
  O  O260  1  0.12665191  0.25572040  0.88243351  1
  O  O261  1  0.13481626  0.49942832  0.13501216  1
  O  O262  1  0.11140224  0.50846099  0.37530925  1
  O  O263  1  0.09240888  0.50540071  0.63838682  1
  O  O264  1  0.12079337  0.49629394  0.84915783  1
  O  O265  1  0.09705621  0.74244195  0.11194314  1
  O  O266  1  0.15397230  0.74902936  0.38779903  1
  O  O267  1  0.15045408  0.74790462  0.61783069  1
  O  O268  1  0.12940715  0.74334986  0.89628884  1
  O  O269  1  0.34813723  -0.00736534  0.14743283  1
  O  O270  1  0.37550275  -0.00981939  0.33656014  1
  O  O271  1  0.40214366  -0.00611619  0.63746925  1
  O  O272  1  0.40100128  0.00751308  0.86161255  1
  O  O273  1  0.39228763  0.25599930  0.08352668  1
  O  O274  1  0.34194633  0.25210382  0.38452129  1
  O  O275  1  0.34467009  0.25532803  0.63620060  1
  O  O276  1  0.35978330  0.24566932  0.90718474  1
  O  O277  1  0.34793439  0.49548733  0.14113212  1
  O  O278  1  0.38474535  0.50285868  0.33794896  1
  O  O279  1  0.40379389  0.48743244  0.64474141  1
  O  O280  1  0.39038676  0.48924841  0.87108078  1
  O  O281  1  0.38804034  0.75146400  0.10329963  1
  O  O282  1  0.34304481  0.75466273  0.38333281  1
  O  O283  1  0.35620759  0.75445499  0.63535954  1
  O  O284  1  0.37153513  0.74941082  0.85006510  1
  O  O285  1  0.65273717  0.00968542  0.12336399  1
  O  O286  1  0.65519136  0.00155350  0.36391715  1
  O  O287  1  0.61405597  -0.01228395  0.66226210  1
  O  O288  1  0.62038538  -0.00572189  0.85817887  1
  O  O289  1  0.59417101  0.25516127  0.07914354  1
  O  O290  1  0.61122846  0.24500167  0.38853755  1
  O  O291  1  0.65301683  0.24045512  0.57911677  1
  O  O292  1  0.64820706  0.25538431  0.88624035  1
  O  O293  1  0.64732415  0.50247836  0.15489202  1
  O  O294  1  0.61933340  0.50199918  0.34915915  1
  O  O295  1  0.60818616  0.50600228  0.62344484  1
  O  O296  1  0.57319179  0.48725280  0.84777724  1
  O  O297  1  0.61713364  0.76340478  0.10514096  1
  O  O298  1  0.63369370  0.75458270  0.35560663  1
  O  O299  1  0.66043760  0.75904058  0.62568515  1
  O  O300  1  0.64943392  0.75350420  0.92117238  1
  O  O301  1  0.85582103  -0.00504131  0.11065582  1
  O  O302  1  0.89928907  0.00136417  0.37388074  1
  O  O303  1  0.91112642  -0.00369829  0.62814102  1
  O  O304  1  0.88023584  -0.00178101  0.88848835  1
  O  O305  1  0.88403899  0.26356237  0.13778946  1
  O  O306  1  0.88348895  0.25402015  0.35172728  1
  O  O307  1  0.85758718  0.25011649  0.65197500  1
  O  O308  1  0.85967350  0.25523366  0.85365700  1
  O  O309  1  0.84401735  0.50648909  0.09720108  1
  O  O310  1  0.87852096  0.49663032  0.40354467  1
  O  O311  1  0.89035341  0.51613836  0.59418274  1
  O  O312  1  0.88218141  0.50041792  0.86461284  1
  O  O313  1  0.90588932  0.74494602  0.13097974  1
  O  O314  1  0.87579210  0.75009787  0.34340788  1
  O  O315  1  0.85127873  0.76002682  0.64872696  1
  O  O316  1  0.88835284  0.75020152  0.84717507  1
