# generated using pymatgen
data_Mg32Ti42(Bi17O64)3
_symmetry_space_group_name_H-M   'P 1'
_cell_length_a   15.93436204
_cell_length_b   15.91371008
_cell_length_c   15.96730776
_cell_angle_alpha   90.31129495
_cell_angle_beta   90.20295539
_cell_angle_gamma   89.88168424
_symmetry_Int_Tables_number   1
_chemical_formula_structural   Mg32Ti42(Bi17O64)3
_chemical_formula_sum   'Mg32 Ti42 Bi51 O192'
_cell_volume   4048.81352473
_cell_formula_units_Z   1
loop_
 _symmetry_equiv_pos_site_id
 _symmetry_equiv_pos_as_xyz
  1  'x, y, z'
loop_
 _atom_site_type_symbol
 _atom_site_label
 _atom_site_symmetry_multiplicity
 _atom_site_fract_x
 _atom_site_fract_y
 _atom_site_fract_z
 _atom_site_occupancy
  Mg  Mg0  1  0.11516156  0.62099787  0.86391450  1
  Mg  Mg1  1  0.12444119  0.12735322  0.12170207  1
  Mg  Mg2  1  0.62163313  0.11217647  0.63324225  1
  Mg  Mg3  1  0.13422556  0.37948211  0.87902932  1
  Mg  Mg4  1  0.61869331  0.86370376  0.88165752  1
  Mg  Mg5  1  0.63186796  0.11528753  0.38123303  1
  Mg  Mg6  1  0.88439589  0.12050797  0.39263168  1
  Mg  Mg7  1  0.86419911  0.62513538  0.88078160  1
  Mg  Mg8  1  0.11997735  0.87592877  0.37768447  1
  Mg  Mg9  1  0.38067211  0.12243685  0.37414786  1
  Mg  Mg10  1  0.12595587  0.13235875  0.37537387  1
  Mg  Mg11  1  0.63157289  0.62183026  0.37702324  1
  Mg  Mg12  1  0.87134869  0.37515705  0.86798768  1
  Mg  Mg13  1  0.87467277  0.87653860  0.12830688  1
  Mg  Mg14  1  0.11514877  0.88122872  0.86152420  1
  Mg  Mg15  1  0.39547927  0.62438470  0.60790929  1
  Mg  Mg16  1  0.86151664  0.87831935  0.87138556  1
  Mg  Mg17  1  0.61978148  0.36962639  0.12777693  1
  Mg  Mg18  1  0.37626115  0.86197833  0.89000384  1
  Mg  Mg19  1  0.23951508  0.70149517  0.55773429  1
  Mg  Mg20  1  0.81871882  0.76700342  0.00286767  1
  Mg  Mg21  1  -0.06098471  -0.01738704  0.75873992  1
  Mg  Mg22  1  0.68963787  -0.08541144  0.46624121  1
  Mg  Mg23  1  0.48591798  0.51061860  0.71549213  1
  Mg  Mg24  1  0.52652604  0.43899336  0.52902441  1
  Mg  Mg25  1  0.50643011  0.77628216  0.05698294  1
  Mg  Mg26  1  -0.04650376  0.50414119  0.75698126  1
  Mg  Mg27  1  -0.00258922  -0.01253305  0.53792947  1
  Mg  Mg28  1  0.47860303  -0.04403428  0.77790007  1
  Mg  Mg29  1  0.51398633  0.75983702  0.48183500  1
  Mg  Mg30  1  0.00720322  0.28711923  0.77707722  1
  Mg  Mg31  1  0.24361394  0.73412503  0.05065413  1
  Ti  Ti32  1  0.10338220  0.59407330  0.64906300  1
  Ti  Ti33  1  0.37009441  0.86581587  0.62296957  1
  Ti  Ti34  1  0.88211635  0.37002401  0.12957704  1
  Ti  Ti35  1  0.88215856  0.13189332  0.86490659  1
  Ti  Ti36  1  0.88361820  0.36545814  0.62933058  1
  Ti  Ti37  1  0.88311349  0.11445435  0.62693195  1
  Ti  Ti38  1  0.13956814  0.89149111  0.62123721  1
  Ti  Ti39  1  0.35628083  0.87102168  0.36190529  1
  Ti  Ti40  1  0.60759628  0.87099193  0.63547954  1
  Ti  Ti41  1  0.37980239  0.11446127  0.12517498  1
  Ti  Ti42  1  0.36739345  0.86956080  0.13125448  1
  Ti  Ti43  1  0.60773727  0.12116466  0.86677374  1
  Ti  Ti44  1  0.12647911  0.12787333  0.63399972  1
  Ti  Ti45  1  0.63325941  0.37352132  0.36875726  1
  Ti  Ti46  1  0.61512840  0.37001936  0.88697093  1
  Ti  Ti47  1  0.38341999  0.11135716  0.63104590  1
  Ti  Ti48  1  0.62725683  0.12431955  0.12123190  1
  Ti  Ti49  1  0.88553930  0.87497639  0.38694588  1
  Ti  Ti50  1  0.87478778  0.62361827  0.37703320  1
  Ti  Ti51  1  0.65005940  0.86872222  0.11083611  1
  Ti  Ti52  1  0.89033404  0.37716947  0.37694322  1
  Ti  Ti53  1  0.38378173  0.11902119  0.87584549  1
  Ti  Ti54  1  0.62984931  0.63340573  0.13395913  1
  Ti  Ti55  1  0.37736103  0.37673837  0.13310800  1
  Ti  Ti56  1  0.11839688  0.87620103  0.12870932  1
  Ti  Ti57  1  0.13030628  0.37292722  0.37122879  1
  Ti  Ti58  1  0.11745075  0.12855894  0.86604914  1
  Ti  Ti59  1  0.86279391  0.62677714  0.11875489  1
  Ti  Ti60  1  0.36257907  0.63025728  0.38982518  1
  Ti  Ti61  1  0.13731387  0.37219335  0.12702762  1
  Ti  Ti62  1  0.38444708  0.37370176  0.37983865  1
  Ti  Ti63  1  0.61562569  0.61699757  0.89441928  1
  Ti  Ti64  1  0.37779445  0.62867201  0.13797779  1
  Ti  Ti65  1  0.88226939  0.62170772  0.63730932  1
  Ti  Ti66  1  0.36884581  0.63009941  0.89202493  1
  Ti  Ti67  1  0.37346294  0.38411175  0.61270876  1
  Ti  Ti68  1  0.37315175  0.38056867  0.88532344  1
  Ti  Ti69  1  0.12472619  0.36729320  0.63237824  1
  Ti  Ti70  1  0.12014845  0.63282989  0.38992574  1
  Ti  Ti71  1  0.85840095  0.87855196  0.62021584  1
  Ti  Ti72  1  0.88113973  0.12569990  0.11630438  1
  Ti  Ti73  1  0.60106651  0.63078789  0.61219648  1
  Bi  Bi74  1  0.54404815  -0.03150992  0.26630588  1
  Bi  Bi75  1  -0.00210530  0.00489105  0.27171778  1
  Bi  Bi76  1  0.25280762  0.49227664  0.27492782  1
  Bi  Bi77  1  0.02642323  0.77419543  0.52078381  1
  Bi  Bi78  1  0.02577249  0.52882143  0.21054117  1
  Bi  Bi79  1  0.24828649  0.00543618  0.48318097  1
  Bi  Bi80  1  0.71510578  0.26658328  0.73861960  1
  Bi  Bi81  1  0.22253924  -0.00135735  0.25363040  1
  Bi  Bi82  1  0.21952346  0.72302297  0.23977067  1
  Bi  Bi83  1  -0.02062761  0.74639226  0.24920423  1
  Bi  Bi84  1  0.22206074  -0.02394482  -0.00229469  1
  Bi  Bi85  1  0.75590515  0.47126549  0.01532185  1
  Bi  Bi86  1  0.25694077  0.22486729  0.50925558  1
  Bi  Bi87  1  0.24400373  0.74076107  0.75959685  1
  Bi  Bi88  1  0.73589132  0.21767522  0.51727812  1
  Bi  Bi89  1  0.03258505  0.72101565  0.01777031  1
  Bi  Bi90  1  0.00700712  0.23977276  0.25174447  1
  Bi  Bi91  1  0.51930213  0.49306862  0.26494126  1
  Bi  Bi92  1  -0.00619042  0.76882422  0.75422328  1
  Bi  Bi93  1  0.73945430  0.73257800  0.77021523  1
  Bi  Bi94  1  0.51436454  0.22271806  0.26943902  1
  Bi  Bi95  1  0.48801235  -0.03054464  0.48427898  1
  Bi  Bi96  1  0.69765564  0.49379728  0.76273785  1
  Bi  Bi97  1  0.24492289  0.22923562  -0.01419570  1
  Bi  Bi98  1  0.71766207  -0.01666572  0.76282346  1
  Bi  Bi99  1  0.21638425  0.53913926  0.01912154  1
  Bi  Bi100  1  0.50151976  0.73761912  0.28363291  1
  Bi  Bi101  1  0.48140706  0.27889536  0.73292606  1
  Bi  Bi102  1  0.76366847  -0.00142994  0.27271297  1
  Bi  Bi103  1  0.50066924  0.51216443  0.02712091  1
  Bi  Bi104  1  0.77025826  0.48395623  0.25590051  1
  Bi  Bi105  1  0.01491424  0.26153698  -0.00664734  1
  Bi  Bi106  1  0.00282844  0.23159170  0.51815531  1
  Bi  Bi107  1  0.74056121  0.01233853  -0.00187291  1
  Bi  Bi108  1  -0.01769063  -0.02650783  -0.00092966  1
  Bi  Bi109  1  0.76291690  0.23636330  -0.02162764  1
  Bi  Bi110  1  0.75225401  0.71847579  0.52822580  1
  Bi  Bi111  1  0.48818962  0.25806187  0.01618788  1
  Bi  Bi112  1  -0.02263342  0.50195997  0.49803826  1
  Bi  Bi113  1  0.72565865  0.48301886  0.53490082  1
  Bi  Bi114  1  0.49466262  0.73703244  0.77862949  1
  Bi  Bi115  1  0.22679477  0.49240508  0.50389776  1
  Bi  Bi116  1  -0.00656628  0.50117019  -0.02567309  1
  Bi  Bi117  1  0.25085350  0.22539213  0.23432102  1
  Bi  Bi118  1  0.77018876  0.22660880  0.27151131  1
  Bi  Bi119  1  0.25645157  -0.01110952  0.77349158  1
  Bi  Bi120  1  0.24923483  0.26384385  0.76009029  1
  Bi  Bi121  1  0.72972798  0.77136386  0.28969499  1
  Bi  Bi122  1  0.48897271  -0.02184167  0.01312848  1
  Bi  Bi123  1  0.28682240  0.51209792  0.75795515  1
  Bi  Bi124  1  0.51143317  0.22759682  0.51339869  1
  O  O125  1  0.12243321  0.15128117  -0.00621088  1
  O  O126  1  0.16020382  0.12542944  0.24831690  1
  O  O127  1  0.12028979  0.15197170  0.50507820  1
  O  O128  1  0.15229880  0.12910221  0.74979277  1
  O  O129  1  0.13912448  0.33943218  0.01011198  1
  O  O130  1  0.11931978  0.41135291  0.24657753  1
  O  O131  1  0.15364930  0.36836020  0.48728163  1
  O  O132  1  0.10967073  0.36182266  0.74536210  1
  O  O133  1  0.15530808  0.66010035  -0.01254336  1
  O  O134  1  0.09969843  0.63854409  0.25864471  1
  O  O135  1  0.15345938  0.62121980  0.50490169  1
  O  O136  1  0.06900481  0.56480294  0.75224236  1
  O  O137  1  0.10835697  0.88744032  -0.00522179  1
  O  O138  1  0.15218873  0.87241923  0.24270398  1
  O  O139  1  0.08930770  0.90127298  0.50252471  1
  O  O140  1  0.15786812  0.89484462  0.73687316  1
  O  O141  1  0.39279926  0.14214461  -0.00288458  1
  O  O142  1  0.35540272  0.12120531  0.24102976  1
  O  O143  1  0.38979158  0.15561444  0.50840609  1
  O  O144  1  0.37479874  0.09925041  0.74920887  1
  O  O145  1  0.35710569  0.35910252  -0.00549541  1
  O  O146  1  0.39281421  0.39741807  0.24544006  1
  O  O147  1  0.35482469  0.36600431  0.49487040  1
  O  O148  1  0.41227011  0.40735722  0.74370411  1
  O  O149  1  0.33486383  0.65334827  -0.00401411  1
  O  O150  1  0.40035249  0.62403115  0.24890865  1
  O  O151  1  0.33235595  0.63724796  0.49991002  1
  O  O152  1  0.39440514  0.59891540  0.73359019  1
  O  O153  1  0.41163631  0.85710616  0.01184172  1
  O  O154  1  0.34373507  0.89320857  0.24835298  1
  O  O155  1  0.41523047  0.85415515  0.50800422  1
  O  O156  1  0.36066626  0.90388684  0.74141820  1
  O  O157  1  0.61723436  0.09090266  -0.01578103  1
  O  O158  1  0.64588201  0.13307377  0.23686311  1
  O  O159  1  0.62404641  0.13252031  0.50574637  1
  O  O160  1  0.65192024  0.14328707  0.75587991  1
  O  O161  1  0.64399622  0.38808210  0.00119071  1
  O  O162  1  0.58541534  0.36936964  0.25068649  1
  O  O163  1  0.63887013  0.38358532  0.48588728  1
  O  O164  1  0.61376319  0.36182067  0.76073758  1
  O  O165  1  0.63385446  0.61076734  0.00439298  1
  O  O166  1  0.59079946  0.63300752  0.24699289  1
  O  O167  1  0.65405895  0.61970322  0.49972486  1
  O  O168  1  0.58116792  0.60096615  0.72691876  1
  O  O169  1  0.58844680  0.86858619  0.00593664  1
  O  O170  1  0.65029536  0.87702694  0.23420001  1
  O  O171  1  0.59067654  0.85905131  0.51602547  1
  O  O172  1  0.66069151  0.85854749  0.74761199  1
  O  O173  1  0.89329499  0.15385634  -0.00059257  1
  O  O174  1  0.84852029  0.11381761  0.23744596  1
  O  O175  1  0.93025220  0.10654750  0.51169723  1
  O  O176  1  0.88070500  0.10668961  0.74976380  1
  O  O177  1  0.85023251  0.36936866  0.00522739  1
  O  O178  1  0.88649440  0.39454734  0.24850672  1
  O  O179  1  0.87699641  0.39098489  0.49622570  1
  O  O180  1  0.91619364  0.37169388  0.74207029  1
  O  O181  1  0.83534076  0.64066248  0.00811135  1
  O  O182  1  0.90704607  0.62350898  0.25196754  1
  O  O183  1  0.87467551  0.61520701  0.49916551  1
  O  O184  1  0.88821687  0.62140148  0.75075176  1
  O  O185  1  0.90728060  0.86100677  -0.00815285  1
  O  O186  1  0.84074021  0.88286290  0.25112072  1
  O  O187  1  0.91363138  0.88645448  0.50045557  1
  O  O188  1  0.84319096  0.89510179  0.73810877  1
  O  O189  1  -0.00348498  0.13295297  0.14686087  1
  O  O190  1  0.00051525  0.12982829  0.33957400  1
  O  O191  1  0.01586309  0.17265603  0.64487054  1
  O  O192  1  0.00579730  0.17180630  0.85650023  1
  O  O193  1  -0.00290647  0.36828356  0.10912226  1
  O  O194  1  0.00613169  0.39152142  0.38602100  1
  O  O195  1  0.01245855  0.35435441  0.59996603  1
  O  O196  1  0.00543038  0.35255984  0.89086499  1
  O  O197  1  -0.01013167  0.61714795  0.09885634  1
  O  O198  1  0.00733440  0.60436578  0.39715350  1
  O  O199  1  0.00680991  0.65134228  0.61335700  1
  O  O200  1  -0.00471990  0.63180999  0.91677632  1
  O  O201  1  0.00442316  0.88878260  0.14000367  1
  O  O202  1  -0.00481347  0.88021472  0.33859811  1
  O  O203  1  0.00965694  0.85332617  0.64519916  1
  O  O204  1  -0.00911093  0.88230010  0.82474217  1
  O  O205  1  0.25847444  0.15231892  0.11061286  1
  O  O206  1  0.25399356  0.13040379  0.40041831  1
  O  O207  1  0.25896058  0.11736454  0.60506090  1
  O  O208  1  0.26459838  0.11280988  0.89013692  1
  O  O209  1  0.25506603  0.37943836  0.13799463  1
  O  O210  1  0.25596136  0.37193660  0.34670717  1
  O  O211  1  0.25672428  0.41001576  0.63375096  1
  O  O212  1  0.25929022  0.38589135  0.84229840  1
  O  O213  1  0.25274593  0.62278740  0.14211477  1
  O  O214  1  0.24434123  0.63110058  0.34372649  1
  O  O215  1  0.21515705  0.63000135  0.66617014  1
  O  O216  1  0.24910193  0.62330312  0.84002558  1
  O  O217  1  0.25133993  0.86795899  0.08101773  1
  O  O218  1  0.24569205  0.89280873  0.39587131  1
  O  O219  1  0.25804908  0.90766160  0.59717006  1
  O  O220  1  0.25293393  0.89864688  0.88315757  1
  O  O221  1  0.50146893  0.10604043  0.13243360  1
  O  O222  1  0.50641639  0.10855588  0.34987506  1
  O  O223  1  0.49838512  0.15636348  0.63486344  1
  O  O224  1  0.50117812  0.15701993  0.86267510  1
  O  O225  1  0.49338064  0.38274900  0.08967178  1
  O  O226  1  0.49503977  0.40901308  0.40032865  1
  O  O227  1  0.49319335  0.34065189  0.60310095  1
  O  O228  1  0.49820870  0.36005648  0.89633609  1
  O  O229  1  0.48569615  0.65033033  0.09033803  1
  O  O230  1  0.48249316  0.65918912  0.39743927  1
  O  O231  1  0.50351021  0.67506682  0.57812444  1
  O  O232  1  0.49119921  0.64170477  0.89032462  1
  O  O233  1  0.48738020  0.87028583  0.15360956  1
  O  O234  1  0.48508219  0.88484502  0.35801721  1
  O  O235  1  0.49767758  0.86234859  0.66790429  1
  O  O236  1  0.49709224  0.85401801  0.84942145  1
  O  O237  1  0.74763785  0.13223459  0.09166135  1
  O  O238  1  0.75856394  0.14154560  0.38238152  1
  O  O239  1  0.77235812  0.11130784  0.60146893  1
  O  O240  1  0.76119722  0.11312877  0.89774571  1
  O  O241  1  0.74492478  0.39773842  0.14022256  1
  O  O242  1  0.74933882  0.36974796  0.34582148  1
  O  O243  1  0.77067752  0.39510930  0.63987748  1
  O  O244  1  0.74271327  0.40565603  0.86256243  1
  O  O245  1  0.74205794  0.62149850  0.15549994  1
  O  O246  1  0.76164021  0.64139450  0.36047548  1
  O  O247  1  0.76349772  0.61118618  0.62672985  1
  O  O248  1  0.73049961  0.60466882  0.84660136  1
  O  O249  1  0.75559922  0.85406472  0.07505439  1
  O  O250  1  0.76738445  0.84617855  0.39962517  1
  O  O251  1  0.75463698  0.88978337  0.57737840  1
  O  O252  1  0.73680259  0.91695165  0.88678925  1
  O  O253  1  0.14485507  -0.00001305  0.12900073  1
  O  O254  1  0.11687842  0.00363581  0.34938875  1
  O  O255  1  0.10203108  0.01555714  0.61614292  1
  O  O256  1  0.11539363  0.01447008  0.87891992  1
  O  O257  1  0.12424183  0.25770026  0.15933707  1
  O  O258  1  0.11655684  0.26006004  0.34585306  1
  O  O259  1  0.16379037  0.25736558  0.62527780  1
  O  O260  1  0.15968759  0.24874993  0.86874809  1
  O  O261  1  0.11714663  0.49416211  0.10328914  1
  O  O262  1  0.15224735  0.50207641  0.38114902  1
  O  O263  1  0.11160029  0.49031713  0.59607829  1
  O  O264  1  0.12106455  0.50082785  0.91637207  1
  O  O265  1  0.13244511  0.75759192  0.12219328  1
  O  O266  1  0.11316048  0.74903946  0.39384405  1
  O  O267  1  0.14732695  0.77562699  0.59648322  1
  O  O268  1  0.11334832  0.74806637  0.82357441  1
  O  O269  1  0.36483053  0.00014922  0.10147936  1
  O  O270  1  0.36934211  -0.00367636  0.41114154  1
  O  O271  1  0.40404004  0.00284358  0.59992108  1
  O  O272  1  0.41197687  0.00272494  0.88766416  1
  O  O273  1  0.39751541  0.25748234  0.13078775  1
  O  O274  1  0.40473851  0.26046357  0.35807927  1
  O  O275  1  0.35905671  0.26550988  0.65336842  1
  O  O276  1  0.36387836  0.25634647  0.84897999  1
  O  O277  1  0.38440407  0.50872862  0.10704075  1
  O  O278  1  0.35432678  0.51088897  0.37706925  1
  O  O279  1  0.42672552  0.49351398  0.59677215  1
  O  O280  1  0.36905182  0.50604689  0.88678314  1
  O  O281  1  0.34896139  0.75292981  0.13924850  1
  O  O282  1  0.35618752  0.75695849  0.35666914  1
  O  O283  1  0.33855478  0.75536432  0.63154400  1
  O  O284  1  0.36417269  0.74304271  0.84391090  1
  O  O285  1  0.64250149  -0.00750505  0.11863974  1
  O  O286  1  0.64573577  -0.01127934  0.37322570  1
  O  O287  1  0.61874880  -0.01387911  0.64330826  1
  O  O288  1  0.59084000  0.00624457  0.83100678  1
  O  O289  1  0.60626617  0.23922736  0.10141843  1
  O  O290  1  0.60870990  0.25362776  0.36861365  1
  O  O291  1  0.65231177  0.24421681  0.62224194  1
  O  O292  1  0.64573493  0.25178650  0.88967689  1
  O  O293  1  0.59039224  0.51194635  0.13418145  1
  O  O294  1  0.63619321  0.49787670  0.34579018  1
  O  O295  1  0.60781659  0.50376085  0.60290290  1
  O  O296  1  0.59967135  0.49934931  0.86626913  1
  O  O297  1  0.61772350  0.75033804  0.12028030  1
  O  O298  1  0.61555537  0.75106130  0.36793130  1
  O  O299  1  0.65310070  0.74167311  0.62756944  1
  O  O300  1  0.62766036  0.73406304  0.85593354  1
  O  O301  1  0.87511261  0.00763642  0.09637797  1
  O  O302  1  0.87228029  -0.00415399  0.36664282  1
  O  O303  1  0.91346730  -0.00324984  0.63211970  1
  O  O304  1  0.90333081  0.01199181  0.88345767  1
  O  O305  1  0.86585909  0.25463337  0.14550771  1
  O  O306  1  0.88544873  0.25874117  0.36058761  1
  O  O307  1  0.87007152  0.24955325  0.60807160  1
  O  O308  1  0.84916981  0.24858475  0.86437215  1
  O  O309  1  0.86955767  0.50357581  0.11847960  1
  O  O310  1  0.86600795  0.50198363  0.37166028  1
  O  O311  1  0.91332702  0.50430015  0.63199643  1
  O  O312  1  0.90153519  0.49926166  0.87168902  1
  O  O313  1  0.88343462  0.74651073  0.13393583  1
  O  O314  1  0.90249996  0.74813778  0.36818469  1
  O  O315  1  0.86106172  0.75527780  0.62462194  1
  O  O316  1  0.82860496  0.75492913  0.87513802  1
