# generated using pymatgen
data_Mg32Ti42(Bi17O64)3
_symmetry_space_group_name_H-M   'P 1'
_cell_length_a   15.97895256
_cell_length_b   15.94048819
_cell_length_c   15.95609172
_cell_angle_alpha   89.79504833
_cell_angle_beta   90.02467343
_cell_angle_gamma   90.04079591
_symmetry_Int_Tables_number   1
_chemical_formula_structural   Mg32Ti42(Bi17O64)3
_chemical_formula_sum   'Mg32 Ti42 Bi51 O192'
_cell_volume   4064.18548864
_cell_formula_units_Z   1
loop_
 _symmetry_equiv_pos_site_id
 _symmetry_equiv_pos_as_xyz
  1  'x, y, z'
loop_
 _atom_site_type_symbol
 _atom_site_label
 _atom_site_symmetry_multiplicity
 _atom_site_fract_x
 _atom_site_fract_y
 _atom_site_fract_z
 _atom_site_occupancy
  Mg  Mg0  1  0.36940350  0.12550914  0.37285005  1
  Mg  Mg1  1  0.11852383  0.11574695  0.87550936  1
  Mg  Mg2  1  0.38119703  0.38035239  0.37321397  1
  Mg  Mg3  1  0.62361362  0.11596930  0.87849287  1
  Mg  Mg4  1  0.37144987  0.36980230  0.62647893  1
  Mg  Mg5  1  0.86146993  0.84994944  0.88515368  1
  Mg  Mg6  1  0.63283171  0.62712353  0.61760133  1
  Mg  Mg7  1  0.87014760  0.61601153  0.62995053  1
  Mg  Mg8  1  0.12142845  0.87394103  0.62576100  1
  Mg  Mg9  1  0.62095862  0.87570577  0.89233366  1
  Mg  Mg10  1  0.62778674  0.37401953  0.61712767  1
  Mg  Mg11  1  0.87582379  0.62378833  0.37628116  1
  Mg  Mg12  1  0.12405664  0.38484596  0.87215204  1
  Mg  Mg13  1  0.13268244  0.62703689  0.37682756  1
  Mg  Mg14  1  0.62258563  0.87095631  0.63014242  1
  Mg  Mg15  1  0.12967660  0.37600383  0.11904154  1
  Mg  Mg16  1  0.37464873  0.62016937  0.12139005  1
  Mg  Mg17  1  0.36310338  0.14352500  0.86907391  1
  Mg  Mg18  1  0.87780281  0.38069051  0.37869699  1
  Mg  Mg19  1  0.20514589  0.24431087  0.78266433  1
  Mg  Mg20  1  -0.02637806  0.27378056  0.48986547  1
  Mg  Mg21  1  -0.01856669  -0.01534384  0.55259096  1
  Mg  Mg22  1  0.01058736  0.52373976  0.74412571  1
  Mg  Mg23  1  0.51749243  0.77650729  0.26999143  1
  Mg  Mg24  1  0.53686588  0.24828307  0.19960446  1
  Mg  Mg25  1  0.72784841  0.67391998  -0.04975329  1
  Mg  Mg26  1  0.47174018  0.05755269  -0.00583589  1
  Mg  Mg27  1  0.29607667  0.74738170  0.26821554  1
  Mg  Mg28  1  0.79801658  0.24786799  0.30005565  1
  Mg  Mg29  1  -0.02938445  0.25319218  0.74925397  1
  Mg  Mg30  1  0.72597866  0.75352260  0.78743257  1
  Mg  Mg31  1  0.30986236  0.47928138  -0.00147140  1
  Ti  Ti32  1  0.38467991  0.86299005  0.88837468  1
  Ti  Ti33  1  0.11710931  0.13346712  0.62755658  1
  Ti  Ti34  1  0.88031462  0.13036412  0.86567805  1
  Ti  Ti35  1  0.87784401  0.88202694  0.38493868  1
  Ti  Ti36  1  0.12708647  0.61404480  0.87271998  1
  Ti  Ti37  1  0.62307146  0.12892838  0.62450729  1
  Ti  Ti38  1  0.62625138  0.38504319  0.13307094  1
  Ti  Ti39  1  0.37356016  0.13957733  0.13023470  1
  Ti  Ti40  1  0.38088959  0.87964448  0.37278291  1
  Ti  Ti41  1  0.13714192  0.61042207  0.12397178  1
  Ti  Ti42  1  0.86859867  0.36396687  0.12989008  1
  Ti  Ti43  1  0.13423936  0.13102453  0.12669164  1
  Ti  Ti44  1  0.11809494  0.37609070  0.39096010  1
  Ti  Ti45  1  0.87537636  0.62197063  0.86145477  1
  Ti  Ti46  1  0.35497534  0.36316084  0.86282095  1
  Ti  Ti47  1  0.88393750  0.12675960  0.63196056  1
  Ti  Ti48  1  0.36968095  0.12868305  0.62462815  1
  Ti  Ti49  1  0.37968135  0.62898770  0.63942540  1
  Ti  Ti50  1  0.62977676  0.37643427  0.36801277  1
  Ti  Ti51  1  0.12986309  0.12437352  0.38296264  1
  Ti  Ti52  1  0.89465529  0.13200925  0.12288068  1
  Ti  Ti53  1  0.89169017  0.37913331  0.62741368  1
  Ti  Ti54  1  0.37826724  0.38098140  0.13128127  1
  Ti  Ti55  1  0.87038422  0.86626702  0.63025616  1
  Ti  Ti56  1  0.91052079  0.11596019  0.39252507  1
  Ti  Ti57  1  0.88947287  0.38805853  0.86008055  1
  Ti  Ti58  1  0.38349487  0.63425595  0.37929507  1
  Ti  Ti59  1  0.39071403  0.89049419  0.12888844  1
  Ti  Ti60  1  0.37945001  0.87903149  0.64187108  1
  Ti  Ti61  1  0.63098520  0.63153762  0.37728576  1
  Ti  Ti62  1  0.63233147  0.88971241  0.13375485  1
  Ti  Ti63  1  0.11396731  0.85876214  0.37732818  1
  Ti  Ti64  1  0.62747837  0.63603948  0.13361723  1
  Ti  Ti65  1  0.62671722  0.89157330  0.36230741  1
  Ti  Ti66  1  0.62208962  0.13918672  0.37246371  1
  Ti  Ti67  1  0.35756441  0.62623282  0.88867241  1
  Ti  Ti68  1  0.86356876  0.62364223  0.11818497  1
  Ti  Ti69  1  0.86714801  0.86959878  0.12339596  1
  Ti  Ti70  1  0.12224305  0.35921190  0.63316350  1
  Ti  Ti71  1  0.13183539  0.62728418  0.62148262  1
  Ti  Ti72  1  0.13856039  0.87685542  0.87463419  1
  Ti  Ti73  1  0.61880899  0.12253963  0.10990627  1
  Bi  Bi74  1  0.27668724  0.49692520  0.51247225  1
  Bi  Bi75  1  0.26205753  0.02339793  -0.00195823  1
  Bi  Bi76  1  0.53796372  0.71562042  0.80292028  1
  Bi  Bi77  1  0.77965124  0.74410427  0.25379416  1
  Bi  Bi78  1  0.03265151  -0.02039505  0.02470028  1
  Bi  Bi79  1  0.49666083  0.26851646  0.48912341  1
  Bi  Bi80  1  0.00998714  0.50892837  0.27593855  1
  Bi  Bi81  1  0.00371106  0.73888964  0.76115514  1
  Bi  Bi82  1  0.03268865  0.74019110  0.00512519  1
  Bi  Bi83  1  0.27012559  0.52000449  0.26819244  1
  Bi  Bi84  1  0.74700270  0.47195029  -0.02088305  1
  Bi  Bi85  1  0.77247747  0.04240088  0.24827020  1
  Bi  Bi86  1  0.24706258  0.02391631  0.74966837  1
  Bi  Bi87  1  0.25148504  0.77630925  0.04783052  1
  Bi  Bi88  1  0.53415201  0.25669209  0.77103750  1
  Bi  Bi89  1  0.76244366  0.21733363  -0.00247901  1
  Bi  Bi90  1  0.52810805  0.53567454  -0.01576559  1
  Bi  Bi91  1  -0.00321551  0.48208225  0.02864241  1
  Bi  Bi92  1  0.01937343  0.25810700  0.26720829  1
  Bi  Bi93  1  0.50203044  0.03121269  0.25978804  1
  Bi  Bi94  1  0.48159857  0.02364738  0.50055519  1
  Bi  Bi95  1  0.76381616  0.48890879  0.25163737  1
  Bi  Bi96  1  0.02646364  0.25720786  -0.02768730  1
  Bi  Bi97  1  0.77239321  -0.00507905  -0.00769860  1
  Bi  Bi98  1  0.25609203  0.27580862  0.00574707  1
  Bi  Bi99  1  0.25797258  0.76968172  0.52343564  1
  Bi  Bi100  1  0.69599173  0.52205306  0.76081019  1
  Bi  Bi101  1  0.21809899  -0.00130712  0.51208530  1
  Bi  Bi102  1  0.75937024  0.25360269  0.52098244  1
  Bi  Bi103  1  0.22857567  0.48396425  0.73511969  1
  Bi  Bi104  1  0.75058071  0.49826627  0.50720105  1
  Bi  Bi105  1  0.00075287  0.51842946  0.51560238  1
  Bi  Bi106  1  0.52172633  0.76685451  0.02767751  1
  Bi  Bi107  1  -0.02861860  0.73464200  0.51008526  1
  Bi  Bi108  1  0.50933623  0.52275502  0.26369039  1
  Bi  Bi109  1  0.73016554  0.00017745  0.51769047  1
  Bi  Bi110  1  0.01440130  0.73585369  0.23042868  1
  Bi  Bi111  1  0.24283426  0.76114498  0.76241247  1
  Bi  Bi112  1  0.23355020  -0.04235552  0.24575079  1
  Bi  Bi113  1  0.24583376  0.25952435  0.26070309  1
  Bi  Bi114  1  -0.01647005  -0.03655209  0.77765212  1
  Bi  Bi115  1  0.48395915  0.01444341  0.78323866  1
  Bi  Bi116  1  0.51596459  0.49264968  0.52562589  1
  Bi  Bi117  1  0.51966474  0.29162819  -0.00906896  1
  Bi  Bi118  1  0.00257869  -0.03431741  0.24040014  1
  Bi  Bi119  1  0.72872572  0.77848900  0.49364410  1
  Bi  Bi120  1  0.73795895  0.27805244  0.78562860  1
  Bi  Bi121  1  0.72795469  -0.02935113  0.76543345  1
  Bi  Bi122  1  0.50396887  0.75553597  0.51971159  1
  Bi  Bi123  1  0.27366686  0.25688961  0.48635121  1
  Bi  Bi124  1  0.47904448  0.48414919  0.77188478  1
  O  O125  1  0.12967277  0.08756234  0.00407609  1
  O  O126  1  0.13416523  0.16456332  0.24482869  1
  O  O127  1  0.13379338  0.12567694  0.49811899  1
  O  O128  1  0.15329093  0.13162326  0.74631754  1
  O  O129  1  0.08623566  0.38518310  -0.00737515  1
  O  O130  1  0.13107119  0.34004899  0.24309344  1
  O  O131  1  0.10608183  0.38356409  0.50533072  1
  O  O132  1  0.15474141  0.35534614  0.75112283  1
  O  O133  1  0.11624765  0.62179613  -0.00554655  1
  O  O134  1  0.09829689  0.62612271  0.24076493  1
  O  O135  1  0.13848671  0.61285297  0.50650848  1
  O  O136  1  0.09498170  0.63528127  0.75328801  1
  O  O137  1  0.11389749  0.87550351  -0.00575897  1
  O  O138  1  0.11818666  0.88163019  0.25571007  1
  O  O139  1  0.14369615  0.87357999  0.49156555  1
  O  O140  1  0.14334403  0.87213432  0.75204995  1
  O  O141  1  0.36190798  0.12733393  -0.00186079  1
  O  O142  1  0.38059114  0.11905838  0.24490095  1
  O  O143  1  0.37627390  0.11326749  0.50458628  1
  O  O144  1  0.36475120  0.10187695  0.74592864  1
  O  O145  1  0.38861750  0.35146757  -0.01336258  1
  O  O146  1  0.36040072  0.38770206  0.24598606  1
  O  O147  1  0.34629185  0.37805849  0.49885408  1
  O  O148  1  0.35653682  0.40040280  0.74907844  1
  O  O149  1  0.32999250  0.61426942  -0.00373053  1
  O  O150  1  0.38874057  0.59327460  0.24618964  1
  O  O151  1  0.35786490  0.65156280  0.49027736  1
  O  O152  1  0.39866808  0.61369965  0.75132805  1
  O  O153  1  0.38806828  0.84535888  0.00599141  1
  O  O154  1  0.37435954  0.90251465  0.24378595  1
  O  O155  1  0.37460454  0.84692864  0.48694160  1
  O  O156  1  0.36121820  0.88081507  0.75563342  1
  O  O157  1  0.59601425  0.09256354  0.00228666  1
  O  O158  1  0.58742529  0.14387204  0.24893701  1
  O  O159  1  0.62900919  0.09601165  0.48737774  1
  O  O160  1  0.63319784  0.14662277  0.73667259  1
  O  O161  1  0.60475525  0.39865131  0.01079105  1
  O  O162  1  0.60976282  0.34657252  0.24910712  1
  O  O163  1  0.64012801  0.41077357  0.49268870  1
  O  O164  1  0.62971802  0.35172481  0.73905253  1
  O  O165  1  0.65254731  0.59733488  0.01816936  1
  O  O166  1  0.58428264  0.64479032  0.25311593  1
  O  O167  1  0.64098008  0.59298425  0.48833076  1
  O  O168  1  0.66033432  0.65401986  0.74097401  1
  O  O169  1  0.60559810  0.88614229  0.01956874  1
  O  O170  1  0.62865999  0.84500102  0.25245428  1
  O  O171  1  0.63174288  0.89418386  0.48765454  1
  O  O172  1  0.65967488  0.85372766  0.74966589  1
  O  O173  1  0.87091992  0.11807936  0.00086405  1
  O  O174  1  0.86207208  0.15259619  0.23860861  1
  O  O175  1  0.93193742  0.09647100  0.50200973  1
  O  O176  1  0.86883334  0.15779599  0.74638137  1
  O  O177  1  0.87636383  0.40490357  -0.01411610  1
  O  O178  1  0.85721714  0.34808924  0.24240685  1
  O  O179  1  0.91547128  0.38997256  0.50307912  1
  O  O180  1  0.87135415  0.34347008  0.74404439  1
  O  O181  1  0.83922455  0.61460806  0.00751319  1
  O  O182  1  0.89312175  0.66180724  0.25303447  1
  O  O183  1  0.89180041  0.61309203  0.50215871  1
  O  O184  1  0.89676512  0.63816940  0.75024508  1
  O  O185  1  0.87211292  0.89382525  0.00636353  1
  O  O186  1  0.88024853  0.86660803  0.25389991  1
  O  O187  1  0.88872256  0.90747993  0.49921889  1
  O  O188  1  0.85428289  0.86771208  0.74556704  1
  O  O189  1  0.00436929  0.15065689  0.12277204  1
  O  O190  1  0.01161466  0.10765818  0.34399371  1
  O  O191  1  0.00796691  0.15039721  0.65324254  1
  O  O192  1  -0.00621037  0.15546416  0.86249182  1
  O  O193  1  -0.01614834  0.37422254  0.12207378  1
  O  O194  1  0.00176390  0.38501861  0.34644067  1
  O  O195  1  0.00828147  0.33795718  0.65051268  1
  O  O196  1  -0.00480817  0.33371419  0.85474611  1
  O  O197  1  -0.01761024  0.65304196  0.10914370  1
  O  O198  1  0.00403089  0.59188756  0.38434775  1
  O  O199  1  0.00891995  0.63923656  0.61252827  1
  O  O200  1  -0.01143205  0.66019914  0.88563918  1
  O  O201  1  -0.01188633  0.87528393  0.12787390  1
  O  O202  1  0.00234106  0.89541319  0.37582680  1
  O  O203  1  -0.00640460  0.86811928  0.62564767  1
  O  O204  1  -0.01181095  0.85008091  0.85937337  1
  O  O205  1  0.24945648  0.10012900  0.12594685  1
  O  O206  1  0.24380127  0.16224350  0.37084064  1
  O  O207  1  0.25365319  0.09411178  0.62169190  1
  O  O208  1  0.24758766  0.08660671  0.87374057  1
  O  O209  1  0.25610668  0.39052365  0.08769698  1
  O  O210  1  0.23318007  0.34190134  0.37785397  1
  O  O211  1  0.24106532  0.40683960  0.61970847  1
  O  O212  1  0.25242070  0.40440369  0.90601609  1
  O  O213  1  0.24424284  0.59303619  0.14116107  1
  O  O214  1  0.25779727  0.64468846  0.33632005  1
  O  O215  1  0.25035435  0.60046768  0.64442590  1
  O  O216  1  0.24028145  0.61405912  0.84731498  1
  O  O217  1  0.26442792  0.89663961  0.11555647  1
  O  O218  1  0.25689880  0.85004025  0.34233677  1
  O  O219  1  0.25802273  0.88727583  0.60757340  1
  O  O220  1  0.25159668  0.89196919  0.88931813  1
  O  O221  1  0.48804075  0.15358013  0.11482352  1
  O  O222  1  0.49846243  0.10571934  0.38282724  1
  O  O223  1  0.50607239  0.12253775  0.61153839  1
  O  O224  1  0.49105099  0.12840603  0.86212628  1
  O  O225  1  0.49333799  0.34461642  0.12843083  1
  O  O226  1  0.50660832  0.38184029  0.40046823  1
  O  O227  1  0.49738356  0.36856084  0.59362572  1
  O  O228  1  0.48241915  0.35522460  0.85416516  1
  O  O229  1  0.50761577  0.63604214  0.09830685  1
  O  O230  1  0.49874568  0.60015074  0.38607564  1
  O  O231  1  0.49255385  0.64762065  0.60771811  1
  O  O232  1  0.47911945  0.65023864  0.90977231  1
  O  O233  1  0.49714227  0.83362445  0.14915336  1
  O  O234  1  0.50411749  0.88040070  0.35938837  1
  O  O235  1  0.49451045  0.84879856  0.62322602  1
  O  O236  1  0.49719947  0.83884938  0.86647488  1
  O  O237  1  0.73526393  0.11358607  0.11429614  1
  O  O238  1  0.73583023  0.14636547  0.34535004  1
  O  O239  1  0.76578454  0.12936902  0.59491047  1
  O  O240  1  0.75074952  0.11003429  0.89320166  1
  O  O241  1  0.74279361  0.38950061  0.11644911  1
  O  O242  1  0.74707850  0.35164728  0.36673027  1
  O  O243  1  0.77005843  0.37758423  0.59938194  1
  O  O244  1  0.76220376  0.39517147  0.86074721  1
  O  O245  1  0.74788669  0.62160722  0.17361570  1
  O  O246  1  0.74513688  0.64196879  0.35657331  1
  O  O247  1  0.75340653  0.57384698  0.61996006  1
  O  O248  1  0.76339658  0.57394070  0.87375816  1
  O  O249  1  0.74687444  0.90598472  0.12882987  1
  O  O250  1  0.75267401  0.87418798  0.37926750  1
  O  O251  1  0.75491733  0.87843259  0.59778061  1
  O  O252  1  0.74658913  0.90512862  0.88920284  1
  O  O253  1  0.09940490  0.01252873  0.14502617  1
  O  O254  1  0.15330785  0.00988955  0.37207187  1
  O  O255  1  0.10495570  0.00630553  0.60256888  1
  O  O256  1  0.08843950  -0.01026626  0.86708522  1
  O  O257  1  0.14030129  0.24571289  0.08605197  1
  O  O258  1  0.07758331  0.25211010  0.39441300  1
  O  O259  1  0.15334120  0.24774726  0.61931809  1
  O  O260  1  0.14152761  0.24552052  0.89647172  1
  O  O261  1  0.09626528  0.49961464  0.12796274  1
  O  O262  1  0.13486021  0.48909490  0.35310488  1
  O  O263  1  0.10438064  0.49832555  0.65654771  1
  O  O264  1  0.09660974  0.50647009  0.84900619  1
  O  O265  1  0.13071933  0.73639797  0.11411224  1
  O  O266  1  0.09472219  0.74866489  0.37227851  1
  O  O267  1  0.15337297  0.74465438  0.62878201  1
  O  O268  1  0.13470043  0.75263742  0.86902797  1
  O  O269  1  0.41438154  -0.00190719  0.09872151  1
  O  O270  1  0.36749764  -0.00910524  0.39236839  1
  O  O271  1  0.39794573  -0.00950543  0.62021430  1
  O  O272  1  0.41233586  -0.01720657  0.89821139  1
  O  O273  1  0.34210037  0.25089708  0.12824782  1
  O  O274  1  0.38255809  0.25265023  0.39841313  1
  O  O275  1  0.36262051  0.24153809  0.61838585  1
  O  O276  1  0.31813506  0.25614366  0.84080438  1
  O  O277  1  0.39352787  0.48889807  0.09649598  1
  O  O278  1  0.35109122  0.50708413  0.38559890  1
  O  O279  1  0.38543074  0.51176225  0.60022540  1
  O  O280  1  0.39277455  0.50499976  0.88495035  1
  O  O281  1  0.33463209  0.74431271  0.14842075  1
  O  O282  1  0.40533749  0.74519181  0.33311304  1
  O  O283  1  0.34376566  0.74741410  0.63627111  1
  O  O284  1  0.34493803  0.74708580  0.86606183  1
  O  O285  1  0.60360593  0.00099148  0.15388568  1
  O  O286  1  0.63109544  0.00285180  0.33864356  1
  O  O287  1  0.64612638  0.00510769  0.62943852  1
  O  O288  1  0.60970747  -0.00482503  0.84113038  1
  O  O289  1  0.62507612  0.24469998  0.10399230  1
  O  O290  1  0.60995261  0.25078763  0.40015865  1
  O  O291  1  0.63786191  0.24478350  0.58954273  1
  O  O292  1  0.62493960  0.24576914  0.87661793  1
  O  O293  1  0.61083057  0.49739777  0.15444340  1
  O  O294  1  0.63996252  0.49535968  0.33958746  1
  O  O295  1  0.59497520  0.50266881  0.64071370  1
  O  O296  1  0.58797423  0.51975482  0.85321898  1
  O  O297  1  0.64148543  0.74569918  0.11002444  1
  O  O298  1  0.61431985  0.74571887  0.39889393  1
  O  O299  1  0.62944706  0.74974245  0.58417293  1
  O  O300  1  0.64163516  0.74517932  0.88864511  1
  O  O301  1  0.88384869  0.01414793  0.14595289  1
  O  O302  1  0.86098679  0.01324041  0.35667456  1
  O  O303  1  0.89141837  0.01007225  0.64171715  1
  O  O304  1  0.88763970  0.01092518  0.86143285  1
  O  O305  1  0.85925782  0.25317332  0.09531588  1
  O  O306  1  0.89152109  0.23739362  0.39311803  1
  O  O307  1  0.88496917  0.24519406  0.58365941  1
  O  O308  1  0.84851902  0.25033804  0.89289691  1
  O  O309  1  0.87622522  0.50759591  0.14424103  1
  O  O310  1  0.85914264  0.50079975  0.34777093  1
  O  O311  1  0.92006518  0.49024649  0.64547053  1
  O  O312  1  0.91781248  0.49786130  0.84112030  1
  O  O313  1  0.84437023  0.75706173  0.12245753  1
  O  O314  1  0.88158079  0.76278937  0.39948067  1
  O  O315  1  0.86835148  0.75100751  0.60222646  1
  O  O316  1  0.81882651  0.72950317  0.87327972  1
