# generated using pymatgen
data_Mg32Ti42(Bi17O64)3
_symmetry_space_group_name_H-M   'P 1'
_cell_length_a   15.96018438
_cell_length_b   15.96644146
_cell_length_c   15.91759623
_cell_angle_alpha   89.92092491
_cell_angle_beta   89.97465707
_cell_angle_gamma   89.98889399
_symmetry_Int_Tables_number   1
_chemical_formula_structural   Mg32Ti42(Bi17O64)3
_chemical_formula_sum   'Mg32 Ti42 Bi51 O192'
_cell_volume   4056.23452368
_cell_formula_units_Z   1
loop_
 _symmetry_equiv_pos_site_id
 _symmetry_equiv_pos_as_xyz
  1  'x, y, z'
loop_
 _atom_site_type_symbol
 _atom_site_label
 _atom_site_symmetry_multiplicity
 _atom_site_fract_x
 _atom_site_fract_y
 _atom_site_fract_z
 _atom_site_occupancy
  Mg  Mg0  1  0.61157826  0.37237687  0.86595445  1
  Mg  Mg1  1  0.12911921  0.88953662  0.37396600  1
  Mg  Mg2  1  0.61862914  0.86528001  0.12319929  1
  Mg  Mg3  1  0.13113929  0.88406656  0.62055014  1
  Mg  Mg4  1  0.87999513  0.88318131  0.62008643  1
  Mg  Mg5  1  0.37290813  0.62513155  0.11675713  1
  Mg  Mg6  1  0.38152899  0.87688618  0.87495815  1
  Mg  Mg7  1  0.87369209  0.87676092  0.37672155  1
  Mg  Mg8  1  0.86542587  0.62657715  0.86891743  1
  Mg  Mg9  1  0.12693618  0.36308602  0.12585943  1
  Mg  Mg10  1  0.87523077  0.38040565  0.86617717  1
  Mg  Mg11  1  0.37767182  0.12696530  0.37486428  1
  Mg  Mg12  1  0.63103027  0.13066457  0.11858237  1
  Mg  Mg13  1  0.61851787  0.38034945  0.38765742  1
  Mg  Mg14  1  0.87409129  0.38612627  0.38123123  1
  Mg  Mg15  1  0.13199818  0.62455324  0.38300789  1
  Mg  Mg16  1  0.11527560  0.62807400  0.12297380  1
  Mg  Mg17  1  0.62022341  0.63266485  0.37131526  1
  Mg  Mg18  1  0.87862894  0.11707743  0.87268000  1
  Mg  Mg19  1  0.26488481  0.01285155  0.20734074  1
  Mg  Mg20  1  -0.00561512  -0.02270057  0.47961250  1
  Mg  Mg21  1  0.49316905  -0.04433973  0.45699346  1
  Mg  Mg22  1  0.28522266  0.04359704  0.00613586  1
  Mg  Mg23  1  0.73369583  0.56322911  0.74042389  1
  Mg  Mg24  1  0.47284618  0.32298502  0.72828343  1
  Mg  Mg25  1  0.52180501  0.49766375  -0.03446800  1
  Mg  Mg26  1  0.23600748  0.49377685  0.49850753  1
  Mg  Mg27  1  0.74425203  0.30634432  0.28802733  1
  Mg  Mg28  1  0.54334491  -0.04144291  0.75160758  1
  Mg  Mg29  1  0.47441655  0.53090594  0.77409199  1
  Mg  Mg30  1  0.06515446  0.01591231  0.73934466  1
  Mg  Mg31  1  0.43802152  0.71168818  0.25928232  1
  Ti  Ti32  1  0.36413307  0.61475280  0.39363986  1
  Ti  Ti33  1  0.39360659  0.13031337  0.63878532  1
  Ti  Ti34  1  0.37307949  0.62645764  0.62554143  1
  Ti  Ti35  1  0.11223433  0.88541761  0.87345896  1
  Ti  Ti36  1  0.61020901  0.62125654  0.61994960  1
  Ti  Ti37  1  0.38311305  0.89337772  0.62723825  1
  Ti  Ti38  1  0.61470764  0.11713783  0.38362540  1
  Ti  Ti39  1  0.61943817  0.86725509  0.88321106  1
  Ti  Ti40  1  0.88029558  0.62186789  0.36575730  1
  Ti  Ti41  1  0.39777022  0.12380123  0.87954534  1
  Ti  Ti42  1  0.12993256  0.12705929  0.12841472  1
  Ti  Ti43  1  0.62832422  0.37961714  0.11759276  1
  Ti  Ti44  1  0.87012803  0.13470104  0.12176495  1
  Ti  Ti45  1  0.12079724  0.12955246  0.88530882  1
  Ti  Ti46  1  0.36977654  0.63861287  0.87536042  1
  Ti  Ti47  1  0.13371190  0.88953544  0.12491488  1
  Ti  Ti48  1  0.37188715  0.87169721  0.12148893  1
  Ti  Ti49  1  0.87275377  0.38791898  0.62870241  1
  Ti  Ti50  1  0.36900468  0.87857824  0.35356656  1
  Ti  Ti51  1  0.14053101  0.12627072  0.62761769  1
  Ti  Ti52  1  0.37448920  0.38256173  0.13372518  1
  Ti  Ti53  1  0.87679588  0.37853495  0.12443806  1
  Ti  Ti54  1  0.87420403  0.61657577  0.13125406  1
  Ti  Ti55  1  0.64248422  0.11116552  0.62742843  1
  Ti  Ti56  1  0.13603024  0.62506766  0.62428263  1
  Ti  Ti57  1  0.87767678  0.86652578  0.86675606  1
  Ti  Ti58  1  0.12747857  0.62887111  0.86036299  1
  Ti  Ti59  1  0.13800507  0.37098974  0.38134567  1
  Ti  Ti60  1  0.12257517  0.37728374  0.87442847  1
  Ti  Ti61  1  0.62023006  0.62003483  0.13457332  1
  Ti  Ti62  1  0.89183536  0.11466199  0.63761548  1
  Ti  Ti63  1  0.38036327  0.13102076  0.13043577  1
  Ti  Ti64  1  0.63925833  0.39079719  0.63261906  1
  Ti  Ti65  1  0.36803810  0.36204571  0.37022114  1
  Ti  Ti66  1  0.38428473  0.38706512  0.87928555  1
  Ti  Ti67  1  0.12414726  0.37956051  0.62941560  1
  Ti  Ti68  1  0.61426674  0.61889728  0.86589946  1
  Ti  Ti69  1  0.62616338  0.11953081  0.88088102  1
  Ti  Ti70  1  0.13112417  0.12725583  0.40046907  1
  Ti  Ti71  1  0.63132041  0.87365211  0.36948450  1
  Ti  Ti72  1  0.62444554  0.87792172  0.61572470  1
  Ti  Ti73  1  0.86688823  0.62811407  0.62312348  1
  Bi  Bi74  1  0.00576038  0.52795835  0.48783216  1
  Bi  Bi75  1  0.77697138  -0.03640352  0.01368571  1
  Bi  Bi76  1  0.22075978  0.52544892  -0.00096943  1
  Bi  Bi77  1  0.00171528  0.80373507  0.24071139  1
  Bi  Bi78  1  0.24936722  0.51529920  0.22058328  1
  Bi  Bi79  1  0.75891719  0.04196205  0.25435291  1
  Bi  Bi80  1  0.75256234  0.00463120  0.78423273  1
  Bi  Bi81  1  0.01496408  0.76968984  0.72730314  1
  Bi  Bi82  1  0.25485307  0.26706841  0.00482232  1
  Bi  Bi83  1  0.03269385  0.49258294  0.23365316  1
  Bi  Bi84  1  0.79788132  0.02520976  0.48645301  1
  Bi  Bi85  1  0.78234389  0.78933982  0.22274650  1
  Bi  Bi86  1  0.23959528  0.77134745  0.48120908  1
  Bi  Bi87  1  -0.02373361  0.25617920  -0.02260416  1
  Bi  Bi88  1  0.27431396  0.00636892  0.49536528  1
  Bi  Bi89  1  0.72259021  0.25088405  0.74189804  1
  Bi  Bi90  1  0.52239549  0.23578073  0.53288754  1
  Bi  Bi91  1  0.27657598  0.47574314  0.72476206  1
  Bi  Bi92  1  0.51588065  0.00163246  0.02436839  1
  Bi  Bi93  1  -0.01410251  0.53478942  -0.01015069  1
  Bi  Bi94  1  0.46398382  0.46645335  0.53463924  1
  Bi  Bi95  1  0.76956894  0.75755761  0.48023629  1
  Bi  Bi96  1  0.53440934  -0.00336051  0.23476620  1
  Bi  Bi97  1  -0.03858853  0.25197645  0.27684168  1
  Bi  Bi98  1  0.73696424  0.50411906  0.49277167  1
  Bi  Bi99  1  -0.00894233  0.01755081  0.02461013  1
  Bi  Bi100  1  0.51323937  0.75993281  0.74167061  1
  Bi  Bi101  1  0.76400149  0.76935271  0.73389852  1
  Bi  Bi102  1  0.72886012  0.50701179  0.26983169  1
  Bi  Bi103  1  0.00366785  0.27408119  0.50978318  1
  Bi  Bi104  1  -0.01198317  0.02852220  0.28405080  1
  Bi  Bi105  1  0.22466290  0.73368290  0.23768988  1
  Bi  Bi106  1  0.74114738  0.74109277  0.00498091  1
  Bi  Bi107  1  0.29321746  0.26788620  0.54012206  1
  Bi  Bi108  1  0.00506312  0.77244804  0.49508825  1
  Bi  Bi109  1  0.24060813  0.22725260  0.25107448  1
  Bi  Bi110  1  0.50398996  0.75979922  0.47955789  1
  Bi  Bi111  1  0.26599916  0.77196416  0.72831267  1
  Bi  Bi112  1  -0.01168103  0.52123883  0.74852058  1
  Bi  Bi113  1  0.26602408  0.00948432  0.79025627  1
  Bi  Bi114  1  0.75931367  0.49287025  -0.01537786  1
  Bi  Bi115  1  0.53370057  0.25848811  0.26455060  1
  Bi  Bi116  1  -0.00059109  0.24374534  0.74176698  1
  Bi  Bi117  1  0.48951861  0.50843742  0.28120196  1
  Bi  Bi118  1  -0.01823399  0.77872820  0.02193935  1
  Bi  Bi119  1  0.25834415  0.24644816  0.76723100  1
  Bi  Bi120  1  0.50548636  0.72427647  0.01621915  1
  Bi  Bi121  1  0.50062984  0.27541749  0.01792352  1
  Bi  Bi122  1  0.24506819  0.78074546  -0.01769481  1
  Bi  Bi123  1  0.75666411  0.26700158  -0.02666401  1
  Bi  Bi124  1  0.77911805  0.24126738  0.48039154  1
  O  O125  1  0.09754619  0.12643073  0.00123466  1
  O  O126  1  0.16881342  0.10226771  0.24099343  1
  O  O127  1  0.10801304  0.14958601  0.50961562  1
  O  O128  1  0.15166271  0.11132585  0.75469962  1
  O  O129  1  0.14488655  0.35793301  -0.00590629  1
  O  O130  1  0.13329482  0.39122830  0.26451883  1
  O  O131  1  0.12494095  0.34476658  0.50400860  1
  O  O132  1  0.11478350  0.39156898  0.74688634  1
  O  O133  1  0.11719094  0.62147340  -0.00652440  1
  O  O134  1  0.15043275  0.60926225  0.25813510  1
  O  O135  1  0.10692287  0.64046579  0.51115178  1
  O  O136  1  0.13218609  0.59172983  0.74735386  1
  O  O137  1  0.11574225  0.85301047  -0.00224315  1
  O  O138  1  0.11630364  0.89467128  0.24524734  1
  O  O139  1  0.12587697  0.84687459  0.49979459  1
  O  O140  1  0.10470581  0.88843760  0.75063724  1
  O  O141  1  0.39237173  0.12563584  -0.00093590  1
  O  O142  1  0.34442078  0.10997652  0.24189930  1
  O  O143  1  0.39442186  0.16166512  0.51659427  1
  O  O144  1  0.35518953  0.11133411  0.75583744  1
  O  O145  1  0.37298908  0.35501911  -0.00144773  1
  O  O146  1  0.36127252  0.39495303  0.25287583  1
  O  O147  1  0.39971174  0.35130385  0.49028643  1
  O  O148  1  0.40123983  0.42486550  0.75251480  1
  O  O149  1  0.38473304  0.64817009  -0.00806289  1
  O  O150  1  0.35003611  0.61172287  0.26631150  1
  O  O151  1  0.39824419  0.64822670  0.50581696  1
  O  O152  1  0.36096504  0.59435387  0.74761636  1
  O  O153  1  0.37010776  0.84797098  0.00279351  1
  O  O154  1  0.33759772  0.90887786  0.24915120  1
  O  O155  1  0.40880784  0.86336095  0.51352759  1
  O  O156  1  0.34767243  0.88646889  0.74669548  1
  O  O157  1  0.60762604  0.10758093  -0.00548710  1
  O  O158  1  0.63179918  0.10439065  0.25081009  1
  O  O159  1  0.60848835  0.12150004  0.50108122  1
  O  O160  1  0.65377761  0.12628745  0.74628534  1
  O  O161  1  0.58250396  0.38966030  -0.00758981  1
  O  O162  1  0.64433097  0.36418935  0.23441199  1
  O  O163  1  0.63453782  0.40017709  0.51092476  1
  O  O164  1  0.61955480  0.34309076  0.74367415  1
  O  O165  1  0.57922168  0.60767333  -0.01158686  1
  O  O166  1  0.64932488  0.63227891  0.24221218  1
  O  O167  1  0.62072461  0.59889954  0.50708056  1
  O  O168  1  0.62909236  0.64640483  0.74851751  1
  O  O169  1  0.59822974  0.88717946  -0.00599347  1
  O  O170  1  0.63642244  0.88234040  0.25349283  1
  O  O171  1  0.58597789  0.88058622  0.50331441  1
  O  O172  1  0.63180083  0.85032224  0.74163488  1
  O  O173  1  0.90545387  0.13034897  0.00164836  1
  O  O174  1  0.88098003  0.11509001  0.24372980  1
  O  O175  1  0.87009487  0.14439703  0.50673808  1
  O  O176  1  0.85541493  0.09804610  0.74649305  1
  O  O177  1  0.88111050  0.35417451  0.00102565  1
  O  O178  1  0.84045346  0.37728581  0.23520146  1
  O  O179  1  0.86931799  0.34314852  0.50526187  1
  O  O180  1  0.89271171  0.39313783  0.74251104  1
  O  O181  1  0.89907464  0.64376259  0.00178207  1
  O  O182  1  0.85910523  0.59700901  0.24865345  1
  O  O183  1  0.87125128  0.64687044  0.50308176  1
  O  O184  1  0.86023650  0.58776923  0.74446392  1
  O  O185  1  0.86772755  0.85091833  -0.00942752  1
  O  O186  1  0.87081216  0.88577064  0.25126381  1
  O  O187  1  0.87600365  0.84147591  0.49974668  1
  O  O188  1  0.85216280  0.88385682  0.74642427  1
  O  O189  1  0.01355393  0.09053869  0.14056157  1
  O  O190  1  0.01846624  0.14770971  0.34624399  1
  O  O191  1  0.00553553  0.11414145  0.67234674  1
  O  O192  1  0.00475877  0.14804084  0.85426948  1
  O  O193  1  -0.00716243  0.39040166  0.14690326  1
  O  O194  1  0.00163588  0.34293059  0.37978122  1
  O  O195  1  -0.00064718  0.38296879  0.60521502  1
  O  O196  1  0.00850679  0.35921045  0.87914032  1
  O  O197  1  -0.00692774  0.59566485  0.13589134  1
  O  O198  1  -0.00356692  0.63293662  0.37798871  1
  O  O199  1  -0.00307674  0.61623618  0.64444510  1
  O  O200  1  0.00278932  0.61108515  0.85988750  1
  O  O201  1  0.00729071  0.88060130  0.11908196  1
  O  O202  1  0.00223773  0.86414293  0.38831605  1
  O  O203  1  0.00373985  0.85359415  0.61562788  1
  O  O204  1  -0.00749698  0.84451899  0.87817466  1
  O  O205  1  0.25301222  0.14145442  0.09134749  1
  O  O206  1  0.24790302  0.10685869  0.40566705  1
  O  O207  1  0.25415000  0.14133803  0.61198562  1
  O  O208  1  0.23447969  0.09236053  0.90187814  1
  O  O209  1  0.25785002  0.34453027  0.12302552  1
  O  O210  1  0.25434870  0.39864458  0.40772344  1
  O  O211  1  0.24305628  0.36050913  0.63716615  1
  O  O212  1  0.26444608  0.37739934  0.84126775  1
  O  O213  1  0.24630074  0.61924035  0.11826815  1
  O  O214  1  0.25598799  0.59534703  0.42155019  1
  O  O215  1  0.25309156  0.64406274  0.61980317  1
  O  O216  1  0.24966029  0.60784692  0.88785821  1
  O  O217  1  0.24246641  0.84170656  0.11275440  1
  O  O218  1  0.25721857  0.89257255  0.40846062  1
  O  O219  1  0.26071204  0.85760012  0.60940256  1
  O  O220  1  0.23193973  0.88293686  0.88396324  1
  O  O221  1  0.49434101  0.09824859  0.13774938  1
  O  O222  1  0.50329164  0.15210431  0.35671715  1
  O  O223  1  0.50706917  0.14002219  0.63995674  1
  O  O224  1  0.50598169  0.13114997  0.85773723  1
  O  O225  1  0.49409877  0.37227058  0.13023448  1
  O  O226  1  0.49554696  0.36256815  0.34942831  1
  O  O227  1  0.51764961  0.36603214  0.62031347  1
  O  O228  1  0.48460470  0.33419456  0.85746623  1
  O  O229  1  0.50076238  0.64049207  0.14259340  1
  O  O230  1  0.49302037  0.63907660  0.34592438  1
  O  O231  1  0.49615191  0.58506011  0.64559555  1
  O  O232  1  0.48638467  0.64279969  0.84503071  1
  O  O233  1  0.48842713  0.89389789  0.13061588  1
  O  O234  1  0.48824792  0.86642922  0.36033247  1
  O  O235  1  0.49559683  0.88106996  0.66181117  1
  O  O236  1  0.50312407  0.86891768  0.84230314  1
  O  O237  1  0.75661504  0.12940435  0.13125098  1
  O  O238  1  0.73942137  0.10489318  0.37865545  1
  O  O239  1  0.75432934  0.09434704  0.61120262  1
  O  O240  1  0.74687390  0.09628495  0.88939154  1
  O  O241  1  0.74083809  0.37448154  0.08343557  1
  O  O242  1  0.74577696  0.40864001  0.37763878  1
  O  O243  1  0.75600139  0.36211267  0.63650778  1
  O  O244  1  0.74223339  0.38190619  0.89569650  1
  O  O245  1  0.75169694  0.63128155  0.09611728  1
  O  O246  1  0.74959132  0.59351616  0.38182720  1
  O  O247  1  0.74608971  0.63789374  0.62997672  1
  O  O248  1  0.73128448  0.59716676  0.87132237  1
  O  O249  1  0.74456695  0.85310926  0.10037220  1
  O  O250  1  0.74255853  0.88446254  0.39664760  1
  O  O251  1  0.73696650  0.85303494  0.60478796  1
  O  O252  1  0.73870102  0.88188290  0.88216532  1
  O  O253  1  0.16594401  -0.00339799  0.10803800  1
  O  O254  1  0.09380540  0.01210272  0.40444300  1
  O  O255  1  0.13106773  0.01011431  0.62089633  1
  O  O256  1  0.08953216  -0.00203250  0.87098254  1
  O  O257  1  0.11690658  0.23819112  0.14861963  1
  O  O258  1  0.15575805  0.24800725  0.36091627  1
  O  O259  1  0.10790134  0.24965625  0.64871370  1
  O  O260  1  0.15056460  0.24562563  0.86738075  1
  O  O261  1  0.13040574  0.49325757  0.12960340  1
  O  O262  1  0.10731994  0.49081131  0.40336463  1
  O  O263  1  0.14630472  0.49632013  0.59453329  1
  O  O264  1  0.12610348  0.49085908  0.89354932  1
  O  O265  1  0.10756588  0.74846583  0.15636920  1
  O  O266  1  0.16044931  0.75109005  0.36190382  1
  O  O267  1  0.12619679  0.74118682  0.65347351  1
  O  O268  1  0.13217709  0.74164710  0.85025884  1
  O  O269  1  0.34487219  -0.00593517  0.10554676  1
  O  O270  1  0.38608830  -0.00004260  0.40909893  1
  O  O271  1  0.37880444  0.00759276  0.61175754  1
  O  O272  1  0.36973137  0.00291713  0.88758990  1
  O  O273  1  0.39745461  0.24327830  0.13646422  1
  O  O274  1  0.34697497  0.25268972  0.35642256  1
  O  O275  1  0.37802821  0.25104419  0.66100239  1
  O  O276  1  0.34687245  0.23408053  0.87052898  1
  O  O277  1  0.36124075  0.49503288  0.11594160  1
  O  O278  1  0.40350190  0.50124076  0.39507702  1
  O  O279  1  0.34219219  0.50545158  0.58827425  1
  O  O280  1  0.41133477  0.49601494  0.90404280  1
  O  O281  1  0.38262827  0.75851461  0.15822840  1
  O  O282  1  0.35668237  0.75761000  0.35752357  1
  O  O283  1  0.38616316  0.74171965  0.65687850  1
  O  O284  1  0.34689724  0.74913127  0.85422074  1
  O  O285  1  0.61975600  -0.00460015  0.12166351  1
  O  O286  1  0.59203070  -0.00152817  0.38264220  1
  O  O287  1  0.61585291  -0.00886589  0.64467391  1
  O  O288  1  0.61391267  -0.00476494  0.84805798  1
  O  O289  1  0.61189910  0.25585414  0.10333786  1
  O  O290  1  0.64146151  0.25106086  0.35872017  1
  O  O291  1  0.64922672  0.23351084  0.61453299  1
  O  O292  1  0.65212484  0.23882037  0.87707740  1
  O  O293  1  0.62554666  0.50217531  0.12633838  1
  O  O294  1  0.60695509  0.50272310  0.34900631  1
  O  O295  1  0.65363147  0.50203250  0.65758714  1
  O  O296  1  0.58136609  0.50491566  0.84961750  1
  O  O297  1  0.62633285  0.73960180  0.09191274  1
  O  O298  1  0.62887899  0.75769668  0.39259259  1
  O  O299  1  0.58436200  0.73953035  0.60629122  1
  O  O300  1  0.62470849  0.74616894  0.89983461  1
  O  O301  1  0.87321497  0.00722470  0.10144125  1
  O  O302  1  0.90162495  -0.00017846  0.39509295  1
  O  O303  1  0.90883128  0.00229652  0.57906287  1
  O  O304  1  0.87217089  -0.01490948  0.89124692  1
  O  O305  1  0.89402895  0.24920841  0.12457244  1
  O  O306  1  0.84212944  0.26054680  0.35488593  1
  O  O307  1  0.89421236  0.23647883  0.64570115  1
  O  O308  1  0.86469805  0.24766719  0.88006307  1
  O  O309  1  0.86471905  0.49694772  0.09238504  1
  O  O310  1  0.89765806  0.50597173  0.39805163  1
  O  O311  1  0.86355457  0.49901958  0.59830502  1
  O  O312  1  0.87503078  0.50179423  0.90588959  1
  O  O313  1  0.88900726  0.73756237  0.14697601  1
  O  O314  1  0.84693776  0.74078129  0.35810826  1
  O  O315  1  0.87865618  0.74185761  0.65414529  1
  O  O316  1  0.84659671  0.74944172  0.85105181  1
