# generated using pymatgen
data_Mg32Ti42(Bi17O64)3
_symmetry_space_group_name_H-M   'P 1'
_cell_length_a   15.95413536
_cell_length_b   15.94598481
_cell_length_c   15.95855199
_cell_angle_alpha   89.99231984
_cell_angle_beta   89.96796214
_cell_angle_gamma   89.86971345
_symmetry_Int_Tables_number   1
_chemical_formula_structural   Mg32Ti42(Bi17O64)3
_chemical_formula_sum   'Mg32 Ti42 Bi51 O192'
_cell_volume   4059.91467885
_cell_formula_units_Z   1
loop_
 _symmetry_equiv_pos_site_id
 _symmetry_equiv_pos_as_xyz
  1  'x, y, z'
loop_
 _atom_site_type_symbol
 _atom_site_label
 _atom_site_symmetry_multiplicity
 _atom_site_fract_x
 _atom_site_fract_y
 _atom_site_fract_z
 _atom_site_occupancy
  Mg  Mg0  1  0.87776208  0.87689151  0.12959582  1
  Mg  Mg1  1  0.62134636  0.37411859  0.36350366  1
  Mg  Mg2  1  0.12717920  0.37493747  0.37528672  1
  Mg  Mg3  1  0.86345519  0.12738607  0.87413694  1
  Mg  Mg4  1  0.62872230  0.87182646  0.62730193  1
  Mg  Mg5  1  0.86845729  0.13260221  0.62357344  1
  Mg  Mg6  1  0.62523156  0.62715607  0.36756543  1
  Mg  Mg7  1  0.61170529  0.62109392  0.63381664  1
  Mg  Mg8  1  0.12376353  0.36839000  0.86292834  1
  Mg  Mg9  1  0.87456303  0.38473386  0.87971304  1
  Mg  Mg10  1  0.88010402  0.38476467  0.13065690  1
  Mg  Mg11  1  0.13030058  0.88853950  0.12816714  1
  Mg  Mg12  1  0.37987209  0.12374999  0.86849093  1
  Mg  Mg13  1  0.62392580  0.86639071  0.12932802  1
  Mg  Mg14  1  0.37205348  0.87853337  0.12517807  1
  Mg  Mg15  1  0.62947390  0.13421745  0.36845850  1
  Mg  Mg16  1  0.37517406  0.11840182  0.38770688  1
  Mg  Mg17  1  0.37934832  0.36968721  0.37284455  1
  Mg  Mg18  1  0.88228473  0.88151277  0.62004582  1
  Mg  Mg19  1  0.74446813  -0.05887797  0.27846613  1
  Mg  Mg20  1  0.69637983  0.49342886  0.72539126  1
  Mg  Mg21  1  0.25396599  0.52572488  0.25200126  1
  Mg  Mg22  1  0.25136522  0.47538445  0.44440531  1
  Mg  Mg23  1  0.49815379  0.46676894  -0.05106926  1
  Mg  Mg24  1  0.76685778  0.28307005  0.26279000  1
  Mg  Mg25  1  0.43992117  0.75734948  0.69252568  1
  Mg  Mg26  1  0.49989304  0.24464371  0.73773427  1
  Mg  Mg27  1  -0.01834556  0.05581615  0.50942550  1
  Mg  Mg28  1  0.47408469  0.22274505  0.29455787  1
  Mg  Mg29  1  0.45073978  0.43718878  0.77376950  1
  Mg  Mg30  1  0.70683208  0.70490798  -0.00064825  1
  Mg  Mg31  1  0.30539950  0.27345463  0.79009013  1
  Ti  Ti32  1  0.14306197  0.62113523  0.61520682  1
  Ti  Ti33  1  0.36643998  0.88797966  0.36526356  1
  Ti  Ti34  1  0.12284340  0.12492116  0.86586868  1
  Ti  Ti35  1  0.86792487  0.87701786  0.88094887  1
  Ti  Ti36  1  0.88481450  0.62384954  0.89268550  1
  Ti  Ti37  1  0.36652344  0.63071405  0.37349994  1
  Ti  Ti38  1  0.36992690  0.62056122  0.11816589  1
  Ti  Ti39  1  0.88733393  0.61912642  0.11660305  1
  Ti  Ti40  1  0.63531447  0.86039475  0.87643368  1
  Ti  Ti41  1  0.38448569  0.37476170  0.13110328  1
  Ti  Ti42  1  0.86683381  0.11988143  0.36366056  1
  Ti  Ti43  1  0.61859323  0.37645638  0.61599271  1
  Ti  Ti44  1  0.13277849  0.64055917  0.38445768  1
  Ti  Ti45  1  0.62556426  0.13131095  0.87192422  1
  Ti  Ti46  1  0.87664377  0.38704832  0.37263411  1
  Ti  Ti47  1  0.87133620  0.62548424  0.37353543  1
  Ti  Ti48  1  0.37584122  0.60682733  0.61904465  1
  Ti  Ti49  1  0.11414838  0.88954504  0.62192543  1
  Ti  Ti50  1  0.86218260  0.12757724  0.13277163  1
  Ti  Ti51  1  0.37811882  0.63257643  0.86329950  1
  Ti  Ti52  1  0.12666605  0.12582187  0.10832043  1
  Ti  Ti53  1  0.61446441  0.36978220  0.12484086  1
  Ti  Ti54  1  0.13680843  0.38392173  0.12507758  1
  Ti  Ti55  1  0.11811735  0.13043798  0.38589274  1
  Ti  Ti56  1  0.38574933  0.13933632  0.11557400  1
  Ti  Ti57  1  0.61949604  0.12462185  0.62480972  1
  Ti  Ti58  1  0.88435726  0.86489482  0.37309080  1
  Ti  Ti59  1  0.13439122  0.62771749  0.86804019  1
  Ti  Ti60  1  0.86333990  0.38661180  0.62527375  1
  Ti  Ti61  1  0.37833053  0.86949660  0.87140465  1
  Ti  Ti62  1  0.12204345  0.37000323  0.62584719  1
  Ti  Ti63  1  0.13315696  0.61851862  0.11593084  1
  Ti  Ti64  1  0.62637577  0.87182915  0.38191107  1
  Ti  Ti65  1  0.60752045  0.62352066  0.12794161  1
  Ti  Ti66  1  0.63728635  0.37317107  0.87241432  1
  Ti  Ti67  1  0.60844885  0.61388284  0.87636824  1
  Ti  Ti68  1  0.11780342  0.88103324  0.37539983  1
  Ti  Ti69  1  0.37822983  0.14052393  0.62540223  1
  Ti  Ti70  1  0.11440340  0.13708831  0.62649746  1
  Ti  Ti71  1  0.13203539  0.88324331  0.86807788  1
  Ti  Ti72  1  0.62206650  0.13522989  0.12705873  1
  Ti  Ti73  1  0.37018346  0.37567635  0.62710876  1
  Bi  Bi74  1  0.01990023  0.02910241  0.24943980  1
  Bi  Bi75  1  0.24784865  0.77314445  0.73039577  1
  Bi  Bi76  1  -0.03351600  0.25607222  0.74421259  1
  Bi  Bi77  1  0.72459795  0.52020988  0.49986880  1
  Bi  Bi78  1  0.01581010  0.75682286  0.22421518  1
  Bi  Bi79  1  0.76628283  0.70173673  0.76464923  1
  Bi  Bi80  1  0.52667150  0.01396331  0.26863124  1
  Bi  Bi81  1  0.24261364  0.02448517  0.49905821  1
  Bi  Bi82  1  0.24862198  0.76948588  0.24513172  1
  Bi  Bi83  1  0.74085519  -0.01264185  0.03765688  1
  Bi  Bi84  1  0.48602776  0.26453752  -0.04367316  1
  Bi  Bi85  1  0.01398344  0.78602839  0.00491596  1
  Bi  Bi86  1  0.21945546  0.49233508  0.73908202  1
  Bi  Bi87  1  0.51605804  -0.03463607  0.75976361  1
  Bi  Bi88  1  0.25461881  0.27799049  0.49097572  1
  Bi  Bi89  1  -0.00529839  0.52481461  0.51435560  1
  Bi  Bi90  1  -0.02084957  0.73539373  0.53231714  1
  Bi  Bi91  1  0.76823029  0.25126338  0.47320343  1
  Bi  Bi92  1  0.01744984  0.26324980  0.21787565  1
  Bi  Bi93  1  -0.01362891  0.25461939  -0.02691467  1
  Bi  Bi94  1  0.29632832  0.47986947  -0.04003778  1
  Bi  Bi95  1  0.26354364  0.03961110  0.23241662  1
  Bi  Bi96  1  0.73012739  0.49198010  0.01391722  1
  Bi  Bi97  1  0.49698623  0.76814538  0.27933262  1
  Bi  Bi98  1  0.25188658  0.77644920  -0.00130580  1
  Bi  Bi99  1  0.46703223  0.50468889  0.26392661  1
  Bi  Bi100  1  0.76886538  -0.01210827  0.48676259  1
  Bi  Bi101  1  0.24478728  0.25603927  -0.02864999  1
  Bi  Bi102  1  0.75982887  0.72909546  0.52823131  1
  Bi  Bi103  1  0.27566734  0.01205128  -0.01133316  1
  Bi  Bi104  1  0.52406255  -0.00115782  0.01479276  1
  Bi  Bi105  1  0.76872491  -0.00904842  0.72648655  1
  Bi  Bi106  1  0.76789654  0.73754831  0.21372623  1
  Bi  Bi107  1  0.52413966  0.74994962  0.51820374  1
  Bi  Bi108  1  0.25825023  0.26788964  0.25060206  1
  Bi  Bi109  1  -0.02841474  0.02490304  0.00093680  1
  Bi  Bi110  1  -0.00748500  0.76056668  0.76909254  1
  Bi  Bi111  1  0.51522551  0.25006727  0.48669190  1
  Bi  Bi112  1  0.73348301  0.24078701  0.73755063  1
  Bi  Bi113  1  0.49446206  0.76434430  0.01233085  1
  Bi  Bi114  1  0.76584794  0.26711160  0.01911665  1
  Bi  Bi115  1  -0.00751799  0.27470108  0.48897855  1
  Bi  Bi116  1  0.46885033  -0.03416480  0.54499303  1
  Bi  Bi117  1  0.73032610  0.49569656  0.24795360  1
  Bi  Bi118  1  -0.02019179  0.01156678  0.75167049  1
  Bi  Bi119  1  0.50081986  0.50263787  0.48402505  1
  Bi  Bi120  1  0.02407829  0.48507044  -0.02113836  1
  Bi  Bi121  1  -0.02940817  0.51647749  0.74169758  1
  Bi  Bi122  1  0.27490074  0.01823121  0.73501568  1
  Bi  Bi123  1  0.25882348  0.78911327  0.51681517  1
  Bi  Bi124  1  0.04266134  0.51805068  0.26503044  1
  O  O125  1  0.12351263  0.09724247  0.00108711  1
  O  O126  1  0.10281666  0.14228355  0.26224646  1
  O  O127  1  0.11324370  0.08965524  0.50149180  1
  O  O128  1  0.11148935  0.13615008  0.74746937  1
  O  O129  1  0.13982437  0.39648346  0.01122073  1
  O  O130  1  0.12529737  0.33930372  0.25172843  1
  O  O131  1  0.16595579  0.39036626  0.50369300  1
  O  O132  1  0.11727755  0.36080464  0.74016987  1
  O  O133  1  0.12232004  0.60164799  0.00526801  1
  O  O134  1  0.12865088  0.63463215  0.26106486  1
  O  O135  1  0.13261498  0.59482491  0.49978701  1
  O  O136  1  0.14533697  0.63040121  0.75090331  1
  O  O137  1  0.12899458  0.87621986  -0.00497436  1
  O  O138  1  0.12799674  0.84514474  0.25638025  1
  O  O139  1  0.13640484  0.88826938  0.49985390  1
  O  O140  1  0.12123079  0.85059572  0.74722430  1
  O  O141  1  0.37970972  0.09705177  -0.00242438  1
  O  O142  1  0.37435193  0.14259608  0.23839119  1
  O  O143  1  0.37104435  0.09226437  0.51252160  1
  O  O144  1  0.33910067  0.14879032  0.74490546  1
  O  O145  1  0.40464641  0.40318342  0.01441480  1
  O  O146  1  0.38643953  0.32546842  0.24809903  1
  O  O147  1  0.34977972  0.39361417  0.50397226  1
  O  O148  1  0.39650189  0.33207603  0.73910288  1
  O  O149  1  0.37966405  0.58629979  0.01015392  1
  O  O150  1  0.36628630  0.63357613  0.25557247  1
  O  O151  1  0.37975807  0.59211963  0.50466980  1
  O  O152  1  0.37298857  0.65420750  0.75456456  1
  O  O153  1  0.34697507  0.88629135  -0.00469725  1
  O  O154  1  0.37376234  0.84321722  0.24877723  1
  O  O155  1  0.36708807  0.88914201  0.48688186  1
  O  O156  1  0.37589037  0.84112643  0.75914101  1
  O  O157  1  0.61717730  0.11045721  -0.01148394  1
  O  O158  1  0.60686993  0.13634535  0.23799740  1
  O  O159  1  0.61821846  0.13969420  0.50792653  1
  O  O160  1  0.61284761  0.17386269  0.74203398  1
  O  O161  1  0.60509995  0.40849600  0.00534470  1
  O  O162  1  0.66603899  0.36487586  0.23751073  1
  O  O163  1  0.61270238  0.38112956  0.49892663  1
  O  O164  1  0.65785082  0.37479739  0.75766159  1
  O  O165  1  0.62262429  0.60756288  -0.00127237  1
  O  O166  1  0.64847660  0.63834424  0.23880412  1
  O  O167  1  0.60594153  0.59899141  0.49579850  1
  O  O168  1  0.65791845  0.61381795  0.75956714  1
  O  O169  1  0.62686430  0.89992487  -0.01191374  1
  O  O170  1  0.63565121  0.85865715  0.25597740  1
  O  O171  1  0.59511664  0.88568788  0.49565045  1
  O  O172  1  0.61908403  0.87305869  0.75653620  1
  O  O173  1  0.87985434  0.13883125  0.00677813  1
  O  O174  1  0.89337359  0.11990445  0.24870922  1
  O  O175  1  0.85933485  0.10407410  0.49530222  1
  O  O176  1  0.90041399  0.12847294  0.75090440  1
  O  O177  1  0.88269859  0.34152337  0.00980802  1
  O  O178  1  0.86691533  0.36855973  0.25865084  1
  O  O179  1  0.86643458  0.36115454  0.50543013  1
  O  O180  1  0.89847434  0.39171146  0.74903251  1
  O  O181  1  0.91487049  0.64238065  0.00575403  1
  O  O182  1  0.85343891  0.62827506  0.25614636  1
  O  O183  1  0.89890730  0.62249694  0.49581997  1
  O  O184  1  0.86161409  0.60584878  0.76567142  1
  O  O185  1  0.89478456  0.86686887  -0.00402013  1
  O  O186  1  0.85024388  0.87314046  0.26071670  1
  O  O187  1  0.88149606  0.91013880  0.49012046  1
  O  O188  1  0.88783018  0.89229674  0.75637688  1
  O  O189  1  -0.00090739  0.11610510  0.12566426  1
  O  O190  1  -0.00827828  0.09576736  0.38634413  1
  O  O191  1  -0.00099253  0.14465969  0.60259476  1
  O  O192  1  0.00606072  0.11577206  0.89016145  1
  O  O193  1  0.01166787  0.38359991  0.13870782  1
  O  O194  1  -0.00248468  0.38321734  0.39543768  1
  O  O195  1  0.00868369  0.36163431  0.60443362  1
  O  O196  1  0.00470880  0.37172196  0.90030643  1
  O  O197  1  0.00572529  0.60471632  0.15257443  1
  O  O198  1  0.00586066  0.60235729  0.37184336  1
  O  O199  1  0.01959720  0.63160565  0.61882777  1
  O  O200  1  0.00611783  0.64590240  0.85557124  1
  O  O201  1  0.00621045  0.86685808  0.13146409  1
  O  O202  1  -0.00157575  0.88535709  0.36034996  1
  O  O203  1  0.00640558  0.84590749  0.62098301  1
  O  O204  1  0.00913045  0.85604881  0.87213712  1
  O  O205  1  0.24604986  0.13862140  0.12414179  1
  O  O206  1  0.23979345  0.12614887  0.39402473  1
  O  O207  1  0.23620584  0.09657961  0.61834592  1
  O  O208  1  0.24343213  0.13025733  0.89084179  1
  O  O209  1  0.25565805  0.35095567  0.13574688  1
  O  O210  1  0.25430194  0.34672519  0.36482343  1
  O  O211  1  0.25892744  0.38576713  0.65377448  1
  O  O212  1  0.24900903  0.35911981  0.87070746  1
  O  O213  1  0.25050730  0.62999685  0.12978896  1
  O  O214  1  0.25269506  0.65344535  0.39106534  1
  O  O215  1  0.25709916  0.58082027  0.63439012  1
  O  O216  1  0.25737457  0.60170727  0.88154584  1
  O  O217  1  0.24796868  0.84624494  0.13040206  1
  O  O218  1  0.25013120  0.85555189  0.36510231  1
  O  O219  1  0.24148855  0.87896863  0.63198431  1
  O  O220  1  0.24813043  0.86013602  0.86572829  1
  O  O221  1  0.49904810  0.11284070  0.11352345  1
  O  O222  1  0.49855503  0.10529733  0.36165083  1
  O  O223  1  0.49155962  0.15814564  0.63770375  1
  O  O224  1  0.49913279  0.16874781  0.85518963  1
  O  O225  1  0.50396669  0.38712298  0.15297104  1
  O  O226  1  0.49666611  0.41465051  0.36994366  1
  O  O227  1  0.51283671  0.34277159  0.63767590  1
  O  O228  1  0.51087776  0.36629678  0.86353302  1
  O  O229  1  0.49619918  0.61300958  0.14285934  1
  O  O230  1  0.49146728  0.59394292  0.37320581  1
  O  O231  1  0.48940115  0.65614011  0.63134085  1
  O  O232  1  0.50059033  0.64182706  0.87341576  1
  O  O233  1  0.49648220  0.87441238  0.09926352  1
  O  O234  1  0.49506653  0.88948385  0.35171585  1
  O  O235  1  0.49548624  0.85116776  0.62361220  1
  O  O236  1  0.49603710  0.87151265  0.88432176  1
  O  O237  1  0.74324331  0.11135639  0.12043945  1
  O  O238  1  0.75375193  0.17201165  0.35288275  1
  O  O239  1  0.73978081  0.10991803  0.64938167  1
  O  O240  1  0.74017862  0.12579665  0.84993401  1
  O  O241  1  0.74421613  0.37939000  0.09455278  1
  O  O242  1  0.75492781  0.34792463  0.37890042  1
  O  O243  1  0.75701415  0.42193029  0.63225391  1
  O  O244  1  0.75009394  0.39428295  0.90811324  1
  O  O245  1  0.76338511  0.65329937  0.10123773  1
  O  O246  1  0.75627314  0.63282166  0.40707947  1
  O  O247  1  0.74257818  0.61459176  0.59973130  1
  O  O248  1  0.76472256  0.63949005  0.89940657  1
  O  O249  1  0.74961022  0.88029676  0.12134035  1
  O  O250  1  0.74268861  0.86785225  0.39682620  1
  O  O251  1  0.75082774  0.90637317  0.62203387  1
  O  O252  1  0.75194378  0.88151442  0.87347965  1
  O  O253  1  0.13444682  0.01095161  0.15599971  1
  O  O254  1  0.13069920  -0.00590096  0.35125930  1
  O  O255  1  0.09048471  -0.00244174  0.64139378  1
  O  O256  1  0.13399880  -0.00389447  0.85413371  1
  O  O257  1  0.10718753  0.24707093  0.11223086  1
  O  O258  1  0.10963978  0.24288870  0.40607009  1
  O  O259  1  0.14226710  0.24636805  0.60205886  1
  O  O260  1  0.12211661  0.24187960  0.89552834  1
  O  O261  1  0.15174446  0.49675805  0.16299114  1
  O  O262  1  0.16215709  0.49958261  0.34991976  1
  O  O263  1  0.11539507  0.49505474  0.64540356  1
  O  O264  1  0.10571152  0.50300312  0.86841177  1
  O  O265  1  0.10746963  0.73493627  0.11778534  1
  O  O266  1  0.10832122  0.74906949  0.40061023  1
  O  O267  1  0.15823297  0.73657909  0.60889421  1
  O  O268  1  0.13934858  0.74039913  0.89470890  1
  O  O269  1  0.34559347  0.00359565  0.13166545  1
  O  O270  1  0.35497193  -0.00220719  0.34653128  1
  O  O271  1  0.38696619  0.01262933  0.65693356  1
  O  O272  1  0.36108803  -0.00713192  0.85757790  1
  O  O273  1  0.38744245  0.25068962  0.09062592  1
  O  O274  1  0.40212349  0.24354224  0.40164178  1
  O  O275  1  0.35500594  0.25134511  0.59684171  1
  O  O276  1  0.36269613  0.24612244  0.90108049  1
  O  O277  1  0.35398305  0.48805866  0.16460415  1
  O  O278  1  0.34227300  0.50248208  0.35013711  1
  O  O279  1  0.40444628  0.48901687  0.66090570  1
  O  O280  1  0.39781699  0.50423588  0.86599936  1
  O  O281  1  0.38393047  0.73618338  0.09546077  1
  O  O282  1  0.40565011  0.74384336  0.38529816  1
  O  O283  1  0.34121857  0.72932762  0.61414297  1
  O  O284  1  0.36775144  0.74479750  0.90968588  1
  O  O285  1  0.62018593  0.00198537  0.11789774  1
  O  O286  1  0.64118868  -0.00280065  0.34709031  1
  O  O287  1  0.59252669  0.01144254  0.64239895  1
  O  O288  1  0.60279576  0.01564584  0.84994488  1
  O  O289  1  0.62402344  0.25310023  0.10162278  1
  O  O290  1  0.57881117  0.25471694  0.36789342  1
  O  O291  1  0.67059665  0.26493842  0.61763690  1
  O  O292  1  0.64054670  0.25989754  0.89652538  1
  O  O293  1  0.64309798  0.50468485  0.13767025  1
  O  O294  1  0.65173886  0.50030248  0.35634446  1
  O  O295  1  0.61044227  0.49381303  0.63456397  1
  O  O296  1  0.60100230  0.50038210  0.86637406  1
  O  O297  1  0.61548960  0.74161847  0.09335304  1
  O  O298  1  0.59752660  0.75170635  0.38507293  1
  O  O299  1  0.63741974  0.74717978  0.59968480  1
  O  O300  1  0.63829193  0.74910336  0.89756158  1
  O  O301  1  0.87133876  0.00448708  0.10819643  1
  O  O302  1  0.82722082  0.00822162  0.35843904  1
  O  O303  1  0.89019319  0.00710454  0.64278236  1
  O  O304  1  0.88472048  -0.00181739  0.88675315  1
  O  O305  1  0.83666439  0.24419397  0.14742889  1
  O  O306  1  0.89068000  0.24334415  0.39355555  1
  O  O307  1  0.86198776  0.26123663  0.64647187  1
  O  O308  1  0.89240176  0.25362676  0.86414504  1
  O  O309  1  0.85815201  0.50822242  0.11322989  1
  O  O310  1  0.86037785  0.49990824  0.38007193  1
  O  O311  1  0.90852962  0.49677888  0.62043412  1
  O  O312  1  0.90316527  0.50903771  0.89538598  1
  O  O313  1  0.89253665  0.74600612  0.14553052  1
  O  O314  1  0.88784856  0.75010377  0.38473988  1
  O  O315  1  0.86807945  0.75477430  0.61370616  1
  O  O316  1  0.87706353  0.75352030  0.85366135  1
