# generated using pymatgen
data_Mg32Ti42(Bi17O64)3
_symmetry_space_group_name_H-M   'P 1'
_cell_length_a   15.93564860
_cell_length_b   15.93939433
_cell_length_c   15.92515123
_cell_angle_alpha   89.99985958
_cell_angle_beta   90.19994892
_cell_angle_gamma   89.95827027
_symmetry_Int_Tables_number   1
_chemical_formula_structural   Mg32Ti42(Bi17O64)3
_chemical_formula_sum   'Mg32 Ti42 Bi51 O192'
_cell_volume   4045.03575675
_cell_formula_units_Z   1
loop_
 _symmetry_equiv_pos_site_id
 _symmetry_equiv_pos_as_xyz
  1  'x, y, z'
loop_
 _atom_site_type_symbol
 _atom_site_label
 _atom_site_symmetry_multiplicity
 _atom_site_fract_x
 _atom_site_fract_y
 _atom_site_fract_z
 _atom_site_occupancy
  Mg  Mg0  1  0.12170583  0.86606353  0.61643139  1
  Mg  Mg1  1  0.37512026  0.37801886  0.87438376  1
  Mg  Mg2  1  0.36994540  0.10919673  0.88477751  1
  Mg  Mg3  1  0.63193129  0.36481591  0.88601749  1
  Mg  Mg4  1  0.36084216  0.13304686  0.36867789  1
  Mg  Mg5  1  0.38273548  0.87612168  0.37085078  1
  Mg  Mg6  1  0.12542767  0.88839659  0.11421405  1
  Mg  Mg7  1  0.86359096  0.13909952  0.12125779  1
  Mg  Mg8  1  0.86958851  0.88093986  0.86899275  1
  Mg  Mg9  1  0.87395687  0.87740106  0.12047655  1
  Mg  Mg10  1  0.11771017  0.38297202  0.37825425  1
  Mg  Mg11  1  0.38428303  0.86856670  0.12340180  1
  Mg  Mg12  1  0.63355675  0.37570496  0.63462764  1
  Mg  Mg13  1  0.12279552  0.37752220  0.12235030  1
  Mg  Mg14  1  0.63034566  0.38212915  0.36839850  1
  Mg  Mg15  1  0.37316620  0.37470526  0.38770138  1
  Mg  Mg16  1  0.12247219  0.62371974  0.87239394  1
  Mg  Mg17  1  0.63248101  0.12407836  0.62572335  1
  Mg  Mg18  1  0.63323491  0.12508062  0.87042242  1
  Mg  Mg19  1  0.75392112  0.27775518  0.76303734  1
  Mg  Mg20  1  0.70322561  0.78230572  0.49826368  1
  Mg  Mg21  1  0.76637446  0.03392564  0.27165546  1
  Mg  Mg22  1  -0.00378973  0.78133088  0.43606691  1
  Mg  Mg23  1  0.51035733  0.74445293  0.76313850  1
  Mg  Mg24  1  -0.00499270  0.73981756  0.74964202  1
  Mg  Mg25  1  -0.03434718  0.00408226  -0.02706208  1
  Mg  Mg26  1  0.75949168  0.27681963  0.01265356  1
  Mg  Mg27  1  0.05114729  0.44494141  0.54290286  1
  Mg  Mg28  1  0.72890565  0.46432938  0.77159138  1
  Mg  Mg29  1  0.74632280  0.49986012  0.48441600  1
  Mg  Mg30  1  0.30390188  -0.01007371  0.01888736  1
  Mg  Mg31  1  0.56838973  0.25492732  0.75076026  1
  Ti  Ti32  1  0.88668240  0.86553565  0.61141080  1
  Ti  Ti33  1  0.13920260  0.12625230  0.11858153  1
  Ti  Ti34  1  0.36468826  0.85215265  0.62636912  1
  Ti  Ti35  1  0.12593959  0.89445627  0.87749276  1
  Ti  Ti36  1  0.60905468  0.87616837  0.62226799  1
  Ti  Ti37  1  0.61564309  0.38881962  0.12473027  1
  Ti  Ti38  1  0.86002754  0.13808963  0.87160223  1
  Ti  Ti39  1  0.62626740  0.89140936  0.37418144  1
  Ti  Ti40  1  0.86569942  0.88837778  0.36499209  1
  Ti  Ti41  1  0.12120998  0.11903660  0.62130706  1
  Ti  Ti42  1  0.13557853  0.36708804  0.87583230  1
  Ti  Ti43  1  0.62611940  0.87997544  0.12729160  1
  Ti  Ti44  1  0.36626864  0.63262761  0.87053037  1
  Ti  Ti45  1  0.87590428  0.37908308  0.12023602  1
  Ti  Ti46  1  0.38360689  0.62860920  0.11702361  1
  Ti  Ti47  1  0.86551206  0.37185188  0.87244856  1
  Ti  Ti48  1  0.10599738  0.63015457  0.61748918  1
  Ti  Ti49  1  0.12741403  0.11930646  0.87030287  1
  Ti  Ti50  1  0.64597287  0.61580450  0.62952903  1
  Ti  Ti51  1  0.63318505  0.63082665  0.86902123  1
  Ti  Ti52  1  0.63163875  0.13496334  0.38104947  1
  Ti  Ti53  1  0.13567790  0.62529477  0.11161252  1
  Ti  Ti54  1  0.38242710  0.13206240  0.12431095  1
  Ti  Ti55  1  0.12593000  0.12420207  0.36865460  1
  Ti  Ti56  1  0.37898672  0.37622984  0.12479306  1
  Ti  Ti57  1  0.63342950  0.62167352  0.11684530  1
  Ti  Ti58  1  0.64071293  0.62351705  0.37114599  1
  Ti  Ti59  1  0.35454788  0.63310702  0.64142977  1
  Ti  Ti60  1  0.87600399  0.13084348  0.37351417  1
  Ti  Ti61  1  0.38790900  0.38776329  0.64042907  1
  Ti  Ti62  1  0.13214570  0.87774211  0.36449758  1
  Ti  Ti63  1  0.87652158  0.12931700  0.62072221  1
  Ti  Ti64  1  0.87181737  0.61561319  0.61204123  1
  Ti  Ti65  1  0.63214631  0.12718932  0.13126475  1
  Ti  Ti66  1  0.62353178  0.87691562  0.85750346  1
  Ti  Ti67  1  0.85747348  0.38369219  0.62220876  1
  Ti  Ti68  1  0.37181440  0.87931224  0.86664491  1
  Ti  Ti69  1  0.87160887  0.63171101  0.86265183  1
  Ti  Ti70  1  0.87853310  0.39165304  0.38341406  1
  Ti  Ti71  1  0.88057178  0.63926941  0.38463354  1
  Ti  Ti72  1  0.11273161  0.62962654  0.38518734  1
  Ti  Ti73  1  0.87278067  0.63179177  0.10882234  1
  Bi  Bi74  1  0.25283509  0.77905465  0.01073207  1
  Bi  Bi75  1  0.23446911  0.28317832  0.54068860  1
  Bi  Bi76  1  0.30257657  0.22870265  0.74393915  1
  Bi  Bi77  1  0.50206352  0.03431796  0.75503456  1
  Bi  Bi78  1  0.47141745  0.52007113  0.29475597  1
  Bi  Bi79  1  0.25727336  0.49836489  0.50422025  1
  Bi  Bi80  1  0.03316869  0.75777676  0.22510010  1
  Bi  Bi81  1  0.28939521  0.73801761  0.25736957  1
  Bi  Bi82  1  0.46232936  0.00819364  0.51159604  1
  Bi  Bi83  1  0.20374601  0.75984203  0.75864205  1
  Bi  Bi84  1  0.74720293  0.78005439  0.00073989  1
  Bi  Bi85  1  -0.00073340  -0.00041820  0.73712725  1
  Bi  Bi86  1  0.01357393  0.23489178  -0.02100303  1
  Bi  Bi87  1  0.21526269  0.47964323  0.72287430  1
  Bi  Bi88  1  0.01563857  0.25530825  0.22817834  1
  Bi  Bi89  1  0.77614711  0.76819371  0.72473996  1
  Bi  Bi90  1  -0.00100782  0.78100093  -0.01403165  1
  Bi  Bi91  1  0.24759767  0.01469137  0.49839701  1
  Bi  Bi92  1  0.49878530  0.77171493  -0.01953463  1
  Bi  Bi93  1  0.73813916  0.27553368  0.23538136  1
  Bi  Bi94  1  0.48838808  0.26151551  0.27966336  1
  Bi  Bi95  1  0.51102801  0.52523487  0.74123419  1
  Bi  Bi96  1  0.49916161  0.25819654  -0.02377762  1
  Bi  Bi97  1  0.74936986  0.01001439  0.50955563  1
  Bi  Bi98  1  0.27099626  0.24027944  -0.01674927  1
  Bi  Bi99  1  0.01597289  0.28259501  0.71977500  1
  Bi  Bi100  1  0.54008455  0.49041146  0.50162166  1
  Bi  Bi101  1  0.76793344  0.01159728  0.73448739  1
  Bi  Bi102  1  0.52842939  0.74650981  0.22823307  1
  Bi  Bi103  1  0.27848798  0.74141560  0.46904128  1
  Bi  Bi104  1  0.27501488  -0.01814615  0.23274602  1
  Bi  Bi105  1  -0.00761053  0.50907314  0.75618169  1
  Bi  Bi106  1  0.52393111  0.01460459  0.00123109  1
  Bi  Bi107  1  0.77678560  0.50958187  0.25351878  1
  Bi  Bi108  1  0.48869514  0.50442651  -0.01687899  1
  Bi  Bi109  1  0.73695052  0.27844699  0.49645568  1
  Bi  Bi110  1  0.26930966  0.01007256  0.72065615  1
  Bi  Bi111  1  0.26644335  0.49455621  0.00582813  1
  Bi  Bi112  1  -0.00537083  0.02515541  0.20145853  1
  Bi  Bi113  1  0.76514210  0.76611517  0.26296601  1
  Bi  Bi114  1  -0.00520750  0.24999958  0.47404048  1
  Bi  Bi115  1  0.00858189  -0.02278103  0.48144517  1
  Bi  Bi116  1  0.02585628  0.48977275  -0.01780318  1
  Bi  Bi117  1  0.23511552  0.28858489  0.24806027  1
  Bi  Bi118  1  0.74530038  0.49785975  -0.01476460  1
  Bi  Bi119  1  0.49589061  0.02151609  0.27405493  1
  Bi  Bi120  1  0.24746310  0.51609353  0.28561226  1
  Bi  Bi121  1  0.50259118  0.71485504  0.50556092  1
  Bi  Bi122  1  0.48463029  0.22250616  0.54017587  1
  Bi  Bi123  1  0.00308713  0.52249816  0.22315453  1
  Bi  Bi124  1  0.76771188  0.01876669  0.01339591  1
  O  O125  1  0.13838663  0.15496710  0.00533065  1
  O  O126  1  0.09166664  0.11847072  0.25475761  1
  O  O127  1  0.14800102  0.12371233  0.50628389  1
  O  O128  1  0.10188707  0.10376278  0.75688465  1
  O  O129  1  0.11378978  0.36173492  -0.00386524  1
  O  O130  1  0.10972695  0.36424418  0.25323788  1
  O  O131  1  0.15387535  0.38223732  0.50129978  1
  O  O132  1  0.10841391  0.39246830  0.75944734  1
  O  O133  1  0.12038777  0.63561624  0.00020789  1
  O  O134  1  0.09765905  0.62354319  0.25620909  1
  O  O135  1  0.13417693  0.64844735  0.50640022  1
  O  O136  1  0.10673152  0.58685083  0.74558226  1
  O  O137  1  0.12561133  0.84444979  -0.00944993  1
  O  O138  1  0.12076907  0.88267429  0.24655614  1
  O  O139  1  0.09125560  0.86253018  0.48860069  1
  O  O140  1  0.13460955  0.89106763  0.75937112  1
  O  O141  1  0.34132548  0.11314226  0.00931550  1
  O  O142  1  0.40923657  0.14167053  0.24334469  1
  O  O143  1  0.35879360  0.10188537  0.49222567  1
  O  O144  1  0.37762586  0.10321514  0.75650465  1
  O  O145  1  0.33983924  0.37427760  0.00415591  1
  O  O146  1  0.39825007  0.36827461  0.24136191  1
  O  O147  1  0.33801262  0.37900387  0.51188105  1
  O  O148  1  0.39773167  0.39474784  0.75318224  1
  O  O149  1  0.37912043  0.63660324  -0.00618855  1
  O  O150  1  0.37464309  0.62033020  0.23835754  1
  O  O151  1  0.35933771  0.64066711  0.52277691  1
  O  O152  1  0.39439920  0.60123354  0.75420296  1
  O  O153  1  0.37874958  0.85299956  -0.00586554  1
  O  O154  1  0.35391864  0.86605477  0.24447259  1
  O  O155  1  0.38218431  0.84157706  0.50783931  1
  O  O156  1  0.36802251  0.89128632  0.74978045  1
  O  O157  1  0.63695947  0.09517808  -0.00018218  1
  O  O158  1  0.60210321  0.13625742  0.24490346  1
  O  O159  1  0.65185410  0.11568737  0.49582620  1
  O  O160  1  0.59327207  0.13225819  0.74694034  1
  O  O161  1  0.66532645  0.37838348  0.01414189  1
  O  O162  1  0.61750165  0.35459826  0.24115777  1
  O  O163  1  0.66211677  0.39948467  0.50774872  1
  O  O164  1  0.64769976  0.35335342  0.75961992  1
  O  O165  1  0.64198371  0.61934151  -0.00018576  1
  O  O166  1  0.61399479  0.63116574  0.25712308  1
  O  O167  1  0.65965781  0.58934943  0.51500468  1
  O  O168  1  0.59540177  0.64407657  0.74903767  1
  O  O169  1  0.61589921  0.86388316  -0.00035619  1
  O  O170  1  0.63410133  0.84788197  0.25232975  1
  O  O171  1  0.63202369  0.89369341  0.49594682  1
  O  O172  1  0.60868360  0.84155602  0.74313986  1
  O  O173  1  0.82267781  0.15165081  -0.00900262  1
  O  O174  1  0.88076701  0.10384052  0.25734020  1
  O  O175  1  0.84958839  0.12808126  0.50341460  1
  O  O176  1  0.89267436  0.09380793  0.75003806  1
  O  O177  1  0.85357712  0.37658059  0.00602985  1
  O  O178  1  0.89044814  0.40068116  0.26770773  1
  O  O179  1  0.85557245  0.35072488  0.50674496  1
  O  O180  1  0.84539293  0.37734215  0.75210553  1
  O  O181  1  0.86145828  0.63387589  -0.00575502  1
  O  O182  1  0.88912478  0.60116836  0.26653098  1
  O  O183  1  0.85489571  0.64571749  0.50535669  1
  O  O184  1  0.88923631  0.60519183  0.74723332  1
  O  O185  1  0.87026794  0.84524330  -0.00825710  1
  O  O186  1  0.83911801  0.89790701  0.25008253  1
  O  O187  1  0.90289015  0.85705701  0.49603541  1
  O  O188  1  0.86018627  0.89103713  0.74368555  1
  O  O189  1  -0.00831609  0.14633399  0.12683342  1
  O  O190  1  -0.00995286  0.11212975  0.40608440  1
  O  O191  1  0.00172370  0.08423132  0.62058034  1
  O  O192  1  0.00398187  0.10916949  0.91429095  1
  O  O193  1  -0.01074120  0.35202687  0.12347580  1
  O  O194  1  -0.00403868  0.38897095  0.43028054  1
  O  O195  1  -0.01969024  0.38913289  0.63191098  1
  O  O196  1  -0.01494058  0.40015046  0.88036647  1
  O  O197  1  -0.00831916  0.63488332  0.12848201  1
  O  O198  1  -0.00569835  0.63846023  0.40819366  1
  O  O199  1  -0.00587865  0.58637077  0.61125170  1
  O  O200  1  -0.01263366  0.58405421  0.87954861  1
  O  O201  1  -0.00028873  0.84961223  0.11132869  1
  O  O202  1  -0.01558906  0.89783532  0.36222701  1
  O  O203  1  -0.00186218  0.90216237  0.63223301  1
  O  O204  1  0.00303885  0.90270545  0.89834590  1
  O  O205  1  0.24926765  0.11449816  0.15058728  1
  O  O206  1  0.23560332  0.13466151  0.35179783  1
  O  O207  1  0.23877745  0.13913196  0.65870005  1
  O  O208  1  0.24121591  0.15064945  0.86308408  1
  O  O209  1  0.25459115  0.38343662  0.15021457  1
  O  O210  1  0.24758274  0.38357292  0.34721865  1
  O  O211  1  0.25756666  0.35156858  0.65891212  1
  O  O212  1  0.24606169  0.34955769  0.86339941  1
  O  O213  1  0.24957207  0.60443954  0.11969145  1
  O  O214  1  0.23346956  0.64165989  0.36562655  1
  O  O215  1  0.24376515  0.64582134  0.65604598  1
  O  O216  1  0.25497697  0.64700004  0.86108306  1
  O  O217  1  0.25123482  0.89750951  0.08979545  1
  O  O218  1  0.24425565  0.87157158  0.38363462  1
  O  O219  1  0.25178527  0.83089355  0.62507260  1
  O  O220  1  0.25023332  0.84313711  0.88041045  1
  O  O221  1  0.49933599  0.12315697  0.09257663  1
  O  O222  1  0.51329886  0.09347631  0.39022571  1
  O  O223  1  0.50461979  0.09867205  0.60220178  1
  O  O224  1  0.49667203  0.08857817  0.88704967  1
  O  O225  1  0.50278359  0.36417076  0.09983289  1
  O  O226  1  0.50373592  0.40801779  0.38199056  1
  O  O227  1  0.50145284  0.40739217  0.61511340  1
  O  O228  1  0.50195374  0.38500155  0.91334458  1
  O  O229  1  0.50218360  0.64421128  0.12097826  1
  O  O230  1  0.51683374  0.60076765  0.40181352  1
  O  O231  1  0.51582219  0.59924323  0.60638202  1
  O  O232  1  0.51195131  0.58814798  0.87680511  1
  O  O233  1  0.50747808  0.84472241  0.12867179  1
  O  O234  1  0.51001409  0.90120639  0.36522173  1
  O  O235  1  0.50041806  0.90194996  0.62173301  1
  O  O236  1  0.49804841  0.88334243  0.88213509  1
  O  O237  1  0.74371477  0.08659464  0.14909632  1
  O  O238  1  0.74967614  0.13941738  0.35256755  1
  O  O239  1  0.76008008  0.12536878  0.64535442  1
  O  O240  1  0.75652431  0.15715447  0.82732338  1
  O  O241  1  0.75192613  0.39599746  0.16232637  1
  O  O242  1  0.75927605  0.35099696  0.36927297  1
  O  O243  1  0.75467504  0.32244947  0.63244934  1
  O  O244  1  0.75906587  0.32351501  0.88666012  1
  O  O245  1  0.74964400  0.60018991  0.13993489  1
  O  O246  1  0.75579737  0.65098014  0.35843399  1
  O  O247  1  0.75717014  0.65030894  0.64806954  1
  O  O248  1  0.74930633  0.64764829  0.85777089  1
  O  O249  1  0.74414067  0.88061221  0.10121792  1
  O  O250  1  0.74996019  0.84284005  0.38870190  1
  O  O251  1  0.76205652  0.83431367  0.60382398  1
  O  O252  1  0.73922210  0.85144420  0.87894675  1
  O  O253  1  0.10177414  0.01366253  0.11097086  1
  O  O254  1  0.12162305  0.00020205  0.39103997  1
  O  O255  1  0.16179466  -0.00308145  0.61408296  1
  O  O256  1  0.14855727  0.00406229  0.89671650  1
  O  O257  1  0.13004144  0.24678386  0.14810027  1
  O  O258  1  0.09658141  0.24468169  0.38145119  1
  O  O259  1  0.10105300  0.23767666  0.62395177  1
  O  O260  1  0.09626180  0.24886134  0.86681494  1
  O  O261  1  0.10608583  0.50441443  0.11896794  1
  O  O262  1  0.13326329  0.51281313  0.38151036  1
  O  O263  1  0.14832300  0.50830398  0.60462120  1
  O  O264  1  0.13969923  0.49212263  0.90133202  1
  O  O265  1  0.14215090  0.74353916  0.14195696  1
  O  O266  1  0.09912117  0.75887065  0.36090953  1
  O  O267  1  0.09080578  0.74021950  0.66070715  1
  O  O268  1  0.08921924  0.74470112  0.84033684  1
  O  O269  1  0.37656017  0.00155654  0.13336373  1
  O  O270  1  0.36822058  0.00440446  0.33805055  1
  O  O271  1  0.34318723  -0.02204640  0.60667895  1
  O  O272  1  0.34555272  -0.01482071  0.89787124  1
  O  O273  1  0.36686761  0.24909165  0.10860104  1
  O  O274  1  0.39787533  0.25284393  0.38010170  1
  O  O275  1  0.39723857  0.26318069  0.63568955  1
  O  O276  1  0.38524198  0.24410336  0.89450429  1
  O  O277  1  0.38257555  0.49837324  0.10419344  1
  O  O278  1  0.35856630  0.50276660  0.36739552  1
  O  O279  1  0.33871277  0.50476872  0.62463732  1
  O  O280  1  0.36491137  0.50535127  0.90445165  1
  O  O281  1  0.35433868  0.74266410  0.12624686  1
  O  O282  1  0.37266822  0.74874507  0.36791414  1
  O  O283  1  0.41448397  0.74313313  0.65840480  1
  O  O284  1  0.41482742  0.74224616  0.85535934  1
  O  O285  1  0.60403004  -0.00945903  0.13355986  1
  O  O286  1  0.65863655  -0.00295621  0.34359142  1
  O  O287  1  0.65943463  -0.01565177  0.63751563  1
  O  O288  1  0.63650342  -0.01110001  0.84657556  1
  O  O289  1  0.65950416  0.23856707  0.11035633  1
  O  O290  1  0.60795069  0.24744545  0.38849609  1
  O  O291  1  0.58956141  0.25090036  0.62215427  1
  O  O292  1  0.58961710  0.24393131  0.87859876  1
  O  O293  1  0.60504504  0.50171274  0.12877110  1
  O  O294  1  0.66263809  0.50600610  0.37221232  1
  O  O295  1  0.65675872  0.50602442  0.67254697  1
  O  O296  1  0.65772386  0.49868416  0.87324109  1
  O  O297  1  0.63860507  0.73942511  0.13265448  1
  O  O298  1  0.61363081  0.73783860  0.41274648  1
  O  O299  1  0.61308466  0.74958793  0.59121010  1
  O  O300  1  0.59676425  0.74240562  0.87929355  1
  O  O301  1  0.89679085  0.00514779  0.08228678  1
  O  O302  1  0.84268423  0.00040330  0.38848786  1
  O  O303  1  0.84812444  -0.01159041  0.61175148  1
  O  O304  1  0.85834023  0.01254478  0.89887585  1
  O  O305  1  0.83748351  0.26262183  0.13040410  1
  O  O306  1  0.89993488  0.24801532  0.37170243  1
  O  O307  1  0.90612426  0.23772869  0.63638017  1
  O  O308  1  0.90982343  0.24722444  0.86745562  1
  O  O309  1  0.88613092  0.50181046  0.12759491  1
  O  O310  1  0.84689204  0.50204049  0.40393173  1
  O  O311  1  0.83359551  0.49689031  0.60037030  1
  O  O312  1  0.82865473  0.48874328  0.87178357  1
  O  O313  1  0.85118492  0.74166944  0.13837368  1
  O  O314  1  0.89055049  0.75447704  0.35240406  1
  O  O315  1  0.90055246  0.74841549  0.65646597  1
  O  O316  1  0.90351835  0.74163954  0.84539994  1
