# generated using pymatgen
data_Mg32Ti42(Bi17O64)3
_symmetry_space_group_name_H-M   'P 1'
_cell_length_a   15.97444574
_cell_length_b   15.90015389
_cell_length_c   15.93049931
_cell_angle_alpha   89.89319377
_cell_angle_beta   90.05074458
_cell_angle_gamma   89.95513059
_symmetry_Int_Tables_number   1
_chemical_formula_structural   Mg32Ti42(Bi17O64)3
_chemical_formula_sum   'Mg32 Ti42 Bi51 O192'
_cell_volume   4046.27555947
_cell_formula_units_Z   1
loop_
 _symmetry_equiv_pos_site_id
 _symmetry_equiv_pos_as_xyz
  1  'x, y, z'
loop_
 _atom_site_type_symbol
 _atom_site_label
 _atom_site_symmetry_multiplicity
 _atom_site_fract_x
 _atom_site_fract_y
 _atom_site_fract_z
 _atom_site_occupancy
  Mg  Mg0  1  0.11073829  0.87921419  0.12678851  1
  Mg  Mg1  1  0.10937338  0.63582430  0.63146328  1
  Mg  Mg2  1  0.86728130  0.35944583  0.87000168  1
  Mg  Mg3  1  0.13051381  0.37644422  0.12537692  1
  Mg  Mg4  1  0.62442729  0.12343154  0.87415194  1
  Mg  Mg5  1  0.11959333  0.63079559  0.37644535  1
  Mg  Mg6  1  0.11565717  0.37839280  0.62198688  1
  Mg  Mg7  1  0.12769569  0.36584778  0.87849644  1
  Mg  Mg8  1  0.62669205  0.62956154  0.37702476  1
  Mg  Mg9  1  0.86845573  0.38419521  0.62166364  1
  Mg  Mg10  1  0.37904016  0.12434677  0.12712278  1
  Mg  Mg11  1  0.86511647  0.61888700  0.88823306  1
  Mg  Mg12  1  0.87877303  0.11197127  0.61588975  1
  Mg  Mg13  1  0.37645334  0.12831930  0.62038432  1
  Mg  Mg14  1  0.11842173  0.12083044  0.89105719  1
  Mg  Mg15  1  0.36486209  0.37463128  0.37217516  1
  Mg  Mg16  1  0.36909942  0.62898330  0.37433413  1
  Mg  Mg17  1  0.37256729  0.36580741  0.87135032  1
  Mg  Mg18  1  0.62979274  0.61964737  0.12151848  1
  Mg  Mg19  1  -0.04774802  -0.07297372  0.48026781  1
  Mg  Mg20  1  -0.04163234  0.44392805  0.01834691  1
  Mg  Mg21  1  0.77530927  0.78652939  -0.05693750  1
  Mg  Mg22  1  0.79040936  0.45354682  -0.00024536  1
  Mg  Mg23  1  0.75117993  0.23245432  0.51088041  1
  Mg  Mg24  1  0.78508121  0.77895364  0.43832153  1
  Mg  Mg25  1  0.21656929  0.02300648  0.26654505  1
  Mg  Mg26  1  -0.04319454  0.73034237  0.49452446  1
  Mg  Mg27  1  0.81593229  -0.02091188  0.31535550  1
  Mg  Mg28  1  0.22149928  0.24657933  0.01060450  1
  Mg  Mg29  1  0.51260425  0.02548977  0.04440661  1
  Mg  Mg30  1  -0.04832009  0.27454380  0.50851784  1
  Mg  Mg31  1  -0.05659192  -0.05938157  -0.02030797  1
  Ti  Ti32  1  0.62873590  0.39488302  0.37125646  1
  Ti  Ti33  1  0.36193486  0.12728443  0.37065440  1
  Ti  Ti34  1  0.87392481  0.37945741  0.39059065  1
  Ti  Ti35  1  0.88055584  0.13185099  0.38689132  1
  Ti  Ti36  1  0.63062642  0.87516312  0.38096463  1
  Ti  Ti37  1  0.62709878  0.61583698  0.88099329  1
  Ti  Ti38  1  0.61849954  0.62711345  0.61949602  1
  Ti  Ti39  1  0.38332354  0.11932704  0.89114318  1
  Ti  Ti40  1  0.11080205  0.63327705  0.87705524  1
  Ti  Ti41  1  0.36822816  0.62945890  0.11650804  1
  Ti  Ti42  1  0.11298925  0.87194934  0.62849010  1
  Ti  Ti43  1  0.62127399  0.38830869  0.12460018  1
  Ti  Ti44  1  0.11240865  0.12689772  0.13033290  1
  Ti  Ti45  1  0.36195409  0.88404960  0.36543522  1
  Ti  Ti46  1  0.11967135  0.62349018  0.11327966  1
  Ti  Ti47  1  0.62608792  0.87274367  0.12842590  1
  Ti  Ti48  1  0.87212121  0.62066626  0.36126708  1
  Ti  Ti49  1  0.63178500  0.37541280  0.60026652  1
  Ti  Ti50  1  0.12168246  0.14412825  0.37682667  1
  Ti  Ti51  1  0.62870085  0.36335163  0.88064181  1
  Ti  Ti52  1  0.37356220  0.37927975  0.12015683  1
  Ti  Ti53  1  0.62721010  0.11690508  0.62165817  1
  Ti  Ti54  1  0.64010609  0.11750984  0.38275718  1
  Ti  Ti55  1  0.87465698  0.62846504  0.64572184  1
  Ti  Ti56  1  0.12448042  0.87592372  0.88653426  1
  Ti  Ti57  1  0.37852486  0.61999543  0.87754839  1
  Ti  Ti58  1  0.36755445  0.37389480  0.62511449  1
  Ti  Ti59  1  0.13257739  0.37649181  0.37578260  1
  Ti  Ti60  1  0.87026884  0.62936632  0.11482117  1
  Ti  Ti61  1  0.37388266  0.62208464  0.62761053  1
  Ti  Ti62  1  0.37167161  0.87004568  0.63099395  1
  Ti  Ti63  1  0.87380346  0.10759864  0.12911560  1
  Ti  Ti64  1  0.11890263  0.87624332  0.38028593  1
  Ti  Ti65  1  0.12134210  0.12242568  0.62929057  1
  Ti  Ti66  1  0.86903271  0.87075585  0.62035114  1
  Ti  Ti67  1  0.63320275  0.12027318  0.13536965  1
  Ti  Ti68  1  0.61271512  0.88708574  0.88011566  1
  Ti  Ti69  1  0.86032819  0.87956868  0.12335188  1
  Ti  Ti70  1  0.38764598  0.88211891  0.13223724  1
  Ti  Ti71  1  0.62098475  0.86482938  0.62600107  1
  Ti  Ti72  1  0.38172781  0.87508874  0.88455954  1
  Ti  Ti73  1  0.87427349  0.13218031  0.87742976  1
  Bi  Bi74  1  0.73997539  0.25857298  0.27251520  1
  Bi  Bi75  1  0.22747690  0.74406181  0.50692414  1
  Bi  Bi76  1  -0.02143734  0.75294860  0.01298710  1
  Bi  Bi77  1  0.49627910  0.47969749  -0.02710121  1
  Bi  Bi78  1  0.74216480  -0.01459794  0.51105310  1
  Bi  Bi79  1  0.76098771  -0.01087972  0.77459327  1
  Bi  Bi80  1  -0.00021518  0.52604971  0.50677224  1
  Bi  Bi81  1  0.21807405  0.76202589  0.24868635  1
  Bi  Bi82  1  -0.00747138  0.25743707  0.71450463  1
  Bi  Bi83  1  0.23093571  0.24736160  0.52744634  1
  Bi  Bi84  1  0.02092154  0.49895065  0.24889622  1
  Bi  Bi85  1  0.48539431  0.01004918  0.74506615  1
  Bi  Bi86  1  0.23905122  0.47897919  -0.01906634  1
  Bi  Bi87  1  0.26234027  0.25964398  0.21913126  1
  Bi  Bi88  1  0.50058549  0.23616878  0.75869641  1
  Bi  Bi89  1  0.23661680  0.00876731  0.04580075  1
  Bi  Bi90  1  0.50395911  0.02764041  0.25936695  1
  Bi  Bi91  1  0.22299192  0.51422849  0.51553992  1
  Bi  Bi92  1  0.47489834  -0.00212676  0.50481915  1
  Bi  Bi93  1  -0.01672347  0.01344968  0.77685358  1
  Bi  Bi94  1  0.50920202  0.46634113  0.73366517  1
  Bi  Bi95  1  0.25878871  0.74527098  0.77883693  1
  Bi  Bi96  1  0.52860830  0.24148960  0.01313311  1
  Bi  Bi97  1  0.24831213  0.77509666  0.02391036  1
  Bi  Bi98  1  0.20739355  0.49739692  0.75872802  1
  Bi  Bi99  1  0.47145266  0.49797551  0.49061592  1
  Bi  Bi100  1  0.48129781  0.23622827  0.48924717  1
  Bi  Bi101  1  0.77032284  0.25593946  0.03742797  1
  Bi  Bi102  1  0.00595754  0.01959247  0.27786241  1
  Bi  Bi103  1  0.73221575  0.72588549  0.25091448  1
  Bi  Bi104  1  0.47132456  0.74606250  0.48271853  1
  Bi  Bi105  1  -0.04117707  0.77876005  0.78246659  1
  Bi  Bi106  1  0.49817710  0.73722937  0.75516957  1
  Bi  Bi107  1  0.50241847  0.26572209  0.25582470  1
  Bi  Bi108  1  0.22388820  -0.00695719  0.76822801  1
  Bi  Bi109  1  -0.00839173  0.26014628  -0.00532004  1
  Bi  Bi110  1  0.72407582  0.74422079  0.75955273  1
  Bi  Bi111  1  0.50632638  0.75434296  0.25789037  1
  Bi  Bi112  1  -0.01315700  0.48880913  0.80573704  1
  Bi  Bi113  1  0.24629706  0.22004370  0.78568656  1
  Bi  Bi114  1  0.72722849  0.00431742  -0.00220309  1
  Bi  Bi115  1  0.25061126  0.53077240  0.25616213  1
  Bi  Bi116  1  -0.02888456  0.28409174  0.22365689  1
  Bi  Bi117  1  0.48922598  0.53056709  0.24872681  1
  Bi  Bi118  1  0.75560144  0.48866143  0.75759892  1
  Bi  Bi119  1  0.78845513  0.48746365  0.21721880  1
  Bi  Bi120  1  0.52511026  0.73533377  0.01732887  1
  Bi  Bi121  1  0.75032554  0.24542318  0.72085473  1
  Bi  Bi122  1  -0.03663248  0.78435412  0.25932097  1
  Bi  Bi123  1  0.76294021  0.54303739  0.50768390  1
  Bi  Bi124  1  0.23703972  -0.00376628  0.52342591  1
  O  O125  1  0.15666589  0.12972623  0.01412382  1
  O  O126  1  0.12419155  0.11403314  0.24982030  1
  O  O127  1  0.13099896  0.14150004  0.49318782  1
  O  O128  1  0.13784110  0.11688976  0.74616229  1
  O  O129  1  0.16754436  0.36595906  0.00409927  1
  O  O130  1  0.08481658  0.37453809  0.25280707  1
  O  O131  1  0.14735866  0.37003080  0.49267814  1
  O  O132  1  0.10602673  0.39831221  0.75246396  1
  O  O133  1  0.13382720  0.64020781  -0.00121876  1
  O  O134  1  0.14094192  0.63402088  0.24614519  1
  O  O135  1  0.14110497  0.63118926  0.50230383  1
  O  O136  1  0.11157850  0.61200556  0.75604851  1
  O  O137  1  0.14650066  0.87655299  -0.00055526  1
  O  O138  1  0.11333602  0.85927085  0.25455717  1
  O  O139  1  0.15791843  0.87591617  0.49641942  1
  O  O140  1  0.11080350  0.88538261  0.74525819  1
  O  O141  1  0.39618835  0.09159268  -0.00082925  1
  O  O142  1  0.40028189  0.13876616  0.25878493  1
  O  O143  1  0.38941204  0.10851817  0.49023624  1
  O  O144  1  0.40586527  0.13139677  0.74445043  1
  O  O145  1  0.36231081  0.39960677  0.00397463  1
  O  O146  1  0.38931631  0.34252835  0.24833721  1
  O  O147  1  0.37431015  0.40296863  0.50034522  1
  O  O148  1  0.39864101  0.36224387  0.74179938  1
  O  O149  1  0.37735596  0.61280741  -0.00441828  1
  O  O150  1  0.37028803  0.62149454  0.24495555  1
  O  O151  1  0.39036945  0.61563521  0.50159517  1
  O  O152  1  0.38264119  0.65249681  0.74449636  1
  O  O153  1  0.37148008  0.88247223  -0.00270589  1
  O  O154  1  0.39301525  0.86581372  0.24984800  1
  O  O155  1  0.36986924  0.90510927  0.49178413  1
  O  O156  1  0.38083276  0.85594697  0.74389916  1
  O  O157  1  0.61640765  0.09534853  0.00196658  1
  O  O158  1  0.63665791  0.13671234  0.25143503  1
  O  O159  1  0.64290636  0.09827991  0.49679150  1
  O  O160  1  0.61478675  0.15062638  0.73986053  1
  O  O161  1  0.61406791  0.39227570  0.00425545  1
  O  O162  1  0.61945586  0.35291213  0.24657804  1
  O  O163  1  0.64610621  0.40445816  0.48975190  1
  O  O164  1  0.60972291  0.35937583  0.76286533  1
  O  O165  1  0.60816087  0.61522315  -0.00394817  1
  O  O166  1  0.61185421  0.65737426  0.24611646  1
  O  O167  1  0.63322974  0.61387233  0.50485026  1
  O  O168  1  0.61804140  0.64915481  0.75348426  1
  O  O169  1  0.60755780  0.91330692  -0.00139940  1
  O  O170  1  0.62170819  0.84980992  0.24594766  1
  O  O171  1  0.62919146  0.89396873  0.50126437  1
  O  O172  1  0.63137946  0.85703711  0.74969666  1
  O  O173  1  0.87518909  0.15804787  -0.00754987  1
  O  O174  1  0.87245067  0.08097256  0.23931594  1
  O  O175  1  0.88066231  0.16671440  0.49501203  1
  O  O176  1  0.86811275  0.08327634  0.74368244  1
  O  O177  1  0.87119436  0.34405910  -0.00419282  1
  O  O178  1  0.90443532  0.40157211  0.25990236  1
  O  O179  1  0.83735133  0.33661121  0.49540786  1
  O  O180  1  0.87944134  0.41100528  0.75450940  1
  O  O181  1  0.85753349  0.66835405  0.00719636  1
  O  O182  1  0.89244032  0.59402039  0.24712850  1
  O  O183  1  0.83539356  0.65818985  0.48263974  1
  O  O184  1  0.88291335  0.59009228  0.75233570  1
  O  O185  1  0.86456155  0.84499802  0.00608929  1
  O  O186  1  0.88763436  0.90051115  0.24152690  1
  O  O187  1  0.87540685  0.82687595  0.50899015  1
  O  O188  1  0.89519011  0.89892230  0.74071403  1
  O  O189  1  -0.00234500  0.14271894  0.12280009  1
  O  O190  1  0.00340709  0.14175136  0.35600375  1
  O  O191  1  0.00441413  0.14277652  0.63390019  1
  O  O192  1  -0.00612640  0.14035790  0.85873985  1
  O  O193  1  0.00539011  0.35262778  0.09903151  1
  O  O194  1  -0.01717352  0.34961634  0.40968890  1
  O  O195  1  -0.00750378  0.34384033  0.60606598  1
  O  O196  1  0.00215128  0.36634607  0.90066242  1
  O  O197  1  0.00048294  0.64656597  0.11722546  1
  O  O198  1  -0.01204136  0.64294163  0.40237648  1
  O  O199  1  -0.01570496  0.64447682  0.58835055  1
  O  O200  1  -0.00198997  0.64881271  0.88263309  1
  O  O201  1  -0.00997995  0.86193296  0.10397651  1
  O  O202  1  0.01018059  0.84668375  0.39966970  1
  O  O203  1  0.00577737  0.86305055  0.59753140  1
  O  O204  1  0.00719759  0.86075338  0.89915800  1
  O  O205  1  0.26468531  0.07885451  0.15831707  1
  O  O206  1  0.25080965  0.10536099  0.36160636  1
  O  O207  1  0.25014657  0.11916547  0.60991045  1
  O  O208  1  0.26456762  0.09844278  0.85649731  1
  O  O209  1  0.25795273  0.38603799  0.15786815  1
  O  O210  1  0.24058637  0.39988681  0.34929799  1
  O  O211  1  0.25594963  0.39226006  0.63159768  1
  O  O212  1  0.25365876  0.40814392  0.86143363  1
  O  O213  1  0.25257780  0.60183520  0.11980807  1
  O  O214  1  0.24878272  0.59447101  0.37800367  1
  O  O215  1  0.25918734  0.60612821  0.62314732  1
  O  O216  1  0.25882910  0.61815874  0.85236096  1
  O  O217  1  0.26304002  0.88467531  0.12499070  1
  O  O218  1  0.25550459  0.91049689  0.33954955  1
  O  O219  1  0.25781160  0.90401131  0.62877935  1
  O  O220  1  0.25392049  0.88422462  0.85623894  1
  O  O221  1  0.50974855  0.13926700  0.12104112  1
  O  O222  1  0.52400165  0.14699036  0.38224111  1
  O  O223  1  0.51213623  0.13402950  0.59990263  1
  O  O224  1  0.49890525  0.15814941  0.87621213  1
  O  O225  1  0.49672742  0.34112409  0.11873115  1
  O  O226  1  0.52148419  0.33869081  0.38089048  1
  O  O227  1  0.51369375  0.37707843  0.61384808  1
  O  O228  1  0.49861017  0.35969704  0.89815970  1
  O  O229  1  0.49297675  0.64866609  0.12331248  1
  O  O230  1  0.49956774  0.66132167  0.37413704  1
  O  O231  1  0.50462534  0.64904404  0.62476320  1
  O  O232  1  0.49800248  0.65692244  0.86953114  1
  O  O233  1  0.50149205  0.84072813  0.11849308  1
  O  O234  1  0.51298286  0.84546064  0.38006535  1
  O  O235  1  0.50487591  0.86555926  0.61875420  1
  O  O236  1  0.49902211  0.84758790  0.87236008  1
  O  O237  1  0.75138869  0.10807394  0.10915295  1
  O  O238  1  0.77054417  0.08514813  0.37727508  1
  O  O239  1  0.75053741  0.13979776  0.61664601  1
  O  O240  1  0.75100227  0.08868333  0.87421873  1
  O  O241  1  0.74164767  0.39127082  0.10932267  1
  O  O242  1  0.75072799  0.38483128  0.33924968  1
  O  O243  1  0.74372526  0.38253841  0.65393830  1
  O  O244  1  0.74340979  0.40503293  0.88262302  1
  O  O245  1  0.75570345  0.61593242  0.14633799  1
  O  O246  1  0.75242470  0.60705020  0.33871451  1
  O  O247  1  0.75485310  0.61196366  0.63501648  1
  O  O248  1  0.74004056  0.59972413  0.86430178  1
  O  O249  1  0.74457741  0.89583886  0.12142016  1
  O  O250  1  0.75472244  0.90091547  0.39237457  1
  O  O251  1  0.75442076  0.88481419  0.62472322  1
  O  O252  1  0.73787506  0.90094808  0.88672420  1
  O  O253  1  0.12079331  0.00403683  0.12350669  1
  O  O254  1  0.11290963  -0.00279559  0.36855895  1
  O  O255  1  0.12381770  0.00284025  0.60956927  1
  O  O256  1  0.12245809  -0.00488146  0.87055781  1
  O  O257  1  0.15389279  0.24332054  0.13070509  1
  O  O258  1  0.14557024  0.25361587  0.36237443  1
  O  O259  1  0.14316703  0.24865281  0.63308562  1
  O  O260  1  0.15717934  0.24246337  0.88342009  1
  O  O261  1  0.10574153  0.50608587  0.12883235  1
  O  O262  1  0.09225248  0.49579025  0.37260205  1
  O  O263  1  0.11001141  0.50531814  0.60091749  1
  O  O264  1  0.12607636  0.51054420  0.88688863  1
  O  O265  1  0.15130729  0.75087035  0.12406972  1
  O  O266  1  0.16018899  0.75654516  0.37762622  1
  O  O267  1  0.15019566  0.75851023  0.62687807  1
  O  O268  1  0.14543989  0.75331010  0.86568622  1
  O  O269  1  0.42189340  -0.00879637  0.13357893  1
  O  O270  1  0.40921521  0.00209824  0.36399794  1
  O  O271  1  0.40033601  -0.00272256  0.62810500  1
  O  O272  1  0.40058493  -0.00531065  0.85184936  1
  O  O273  1  0.33319720  0.24588643  0.10171230  1
  O  O274  1  0.36667866  0.24308632  0.40090714  1
  O  O275  1  0.37001286  0.25760900  0.59841091  1
  O  O276  1  0.34278193  0.23696109  0.88802122  1
  O  O277  1  0.40081397  0.49276976  0.14118472  1
  O  O278  1  0.41058486  0.49755324  0.36277912  1
  O  O279  1  0.40332329  0.50600765  0.63275803  1
  O  O280  1  0.40536541  0.50742077  0.86244865  1
  O  O281  1  0.35267096  0.74569594  0.11677166  1
  O  O282  1  0.35934486  0.76411640  0.39591619  1
  O  O283  1  0.36260578  0.75471958  0.59988870  1
  O  O284  1  0.35217819  0.75335370  0.88086677  1
  O  O285  1  0.60203498  -0.00022987  0.14193456  1
  O  O286  1  0.61310316  -0.00412668  0.35540566  1
  O  O287  1  0.63146665  0.00222561  0.63932582  1
  O  O288  1  0.60252295  -0.00293583  0.84478601  1
  O  O289  1  0.63874185  0.24353859  0.10766999  1
  O  O290  1  0.68326697  0.23209253  0.39629340  1
  O  O291  1  0.64680401  0.26061578  0.58776231  1
  O  O292  1  0.64335514  0.25203978  0.90371846  1
  O  O293  1  0.60548049  0.49689505  0.14654139  1
  O  O294  1  0.60026500  0.50127172  0.35555840  1
  O  O295  1  0.62010623  0.50658926  0.64700014  1
  O  O296  1  0.59255063  0.50211714  0.86542873  1
  O  O297  1  0.64117041  0.76009654  0.09219315  1
  O  O298  1  0.67189340  0.75853168  0.38381445  1
  O  O299  1  0.64303934  0.75165579  0.61898547  1
  O  O300  1  0.66116691  0.75423919  0.88901553  1
  O  O301  1  0.88551596  -0.00319218  0.08084497  1
  O  O302  1  0.91732909  0.00819579  0.38887879  1
  O  O303  1  0.88450350  -0.01608148  0.57595143  1
  O  O304  1  0.89912223  0.00706485  0.88529235  1
  O  O305  1  0.85311117  0.23337733  0.14662747  1
  O  O306  1  0.86274830  0.24353418  0.33853049  1
  O  O307  1  0.86909278  0.25129652  0.65432395  1
  O  O308  1  0.84779392  0.23922129  0.83559833  1
  O  O309  1  0.87323571  0.50868265  0.09404660  1
  O  O310  1  0.87683286  0.49891123  0.40490451  1
  O  O311  1  0.88116466  0.51041996  0.59015148  1
  O  O312  1  0.89285083  0.49684861  0.91919277  1
  O  O313  1  0.86826620  0.75480716  0.15572962  1
  O  O314  1  0.85888660  0.74130069  0.34009912  1
  O  O315  1  0.87290587  0.74768568  0.66624780  1
  O  O316  1  0.84903413  0.74471134  0.85066299  1
