# generated using pymatgen
data_Mg32Ti42(Bi17O64)3
_symmetry_space_group_name_H-M   'P 1'
_cell_length_a   15.96971434
_cell_length_b   15.95405903
_cell_length_c   15.92592568
_cell_angle_alpha   90.12281945
_cell_angle_beta   89.86280734
_cell_angle_gamma   89.72667999
_symmetry_Int_Tables_number   1
_chemical_formula_structural   Mg32Ti42(Bi17O64)3
_chemical_formula_sum   'Mg32 Ti42 Bi51 O192'
_cell_volume   4057.56823736
_cell_formula_units_Z   1
loop_
 _symmetry_equiv_pos_site_id
 _symmetry_equiv_pos_as_xyz
  1  'x, y, z'
loop_
 _atom_site_type_symbol
 _atom_site_label
 _atom_site_symmetry_multiplicity
 _atom_site_fract_x
 _atom_site_fract_y
 _atom_site_fract_z
 _atom_site_occupancy
  Mg  Mg0  1  0.36807779  0.37828860  0.11761951  1
  Mg  Mg1  1  0.13778248  0.86560784  0.13527214  1
  Mg  Mg2  1  0.37865648  0.12471014  0.37415979  1
  Mg  Mg3  1  0.87615016  0.12895772  0.88272115  1
  Mg  Mg4  1  0.37428837  0.37291816  0.37055450  1
  Mg  Mg5  1  0.37186790  0.62109775  0.37464801  1
  Mg  Mg6  1  0.63493373  0.38209823  0.86510225  1
  Mg  Mg7  1  0.13448475  0.88083425  0.87510907  1
  Mg  Mg8  1  0.12101025  0.37433627  0.13622505  1
  Mg  Mg9  1  0.37847188  0.87035771  0.88480699  1
  Mg  Mg10  1  0.12957219  0.62840313  0.87849999  1
  Mg  Mg11  1  0.11407025  0.62464369  0.12683716  1
  Mg  Mg12  1  0.12055500  0.12871693  0.62964910  1
  Mg  Mg13  1  0.37594852  0.62615926  0.61974577  1
  Mg  Mg14  1  0.62742161  0.13072479  0.86896024  1
  Mg  Mg15  1  0.38013546  0.12373149  0.62780808  1
  Mg  Mg16  1  0.63687014  0.12608245  0.36302215  1
  Mg  Mg17  1  0.63548820  0.11793538  0.13310289  1
  Mg  Mg18  1  0.61856815  0.87678561  0.63309205  1
  Mg  Mg19  1  0.50970825  0.71527341  -0.01713448  1
  Mg  Mg20  1  0.30166676  0.29754624  0.74994495  1
  Mg  Mg21  1  0.01654211  0.74001390  0.00368859  1
  Mg  Mg22  1  0.31239967  0.25873899  0.25940507  1
  Mg  Mg23  1  0.67528080  0.47913231  0.20761569  1
  Mg  Mg24  1  0.23412176  0.47887888  0.04378736  1
  Mg  Mg25  1  0.72331832  0.74044195  -0.02987109  1
  Mg  Mg26  1  -0.03108573  0.24787569  0.46164975  1
  Mg  Mg27  1  0.70825411  0.30700154  0.24884631  1
  Mg  Mg28  1  -0.07051801  0.23875864  0.23217276  1
  Mg  Mg29  1  0.01338627  -0.02801694  0.30032638  1
  Mg  Mg30  1  0.69526262  -0.04364725  0.28396889  1
  Mg  Mg31  1  0.44473888  0.43645967  0.53593917  1
  Ti  Ti32  1  0.13504264  0.37334470  0.86875304  1
  Ti  Ti33  1  0.11735855  0.13031158  0.13842328  1
  Ti  Ti34  1  0.64073076  0.38615420  0.62639391  1
  Ti  Ti35  1  0.87359488  0.10359911  0.12160693  1
  Ti  Ti36  1  0.12941512  0.87951119  0.62244148  1
  Ti  Ti37  1  0.38344544  0.88233172  0.61477568  1
  Ti  Ti38  1  0.36622032  0.88151397  0.38041643  1
  Ti  Ti39  1  0.12933362  0.63174817  0.62750525  1
  Ti  Ti40  1  0.10963351  0.13491476  0.37683595  1
  Ti  Ti41  1  0.62630452  0.12417806  0.62188693  1
  Ti  Ti42  1  0.11333392  0.36395808  0.62055971  1
  Ti  Ti43  1  0.88041578  0.63924958  0.37427191  1
  Ti  Ti44  1  0.13322869  0.86761795  0.37441860  1
  Ti  Ti45  1  0.87445932  0.87190672  0.89728686  1
  Ti  Ti46  1  0.88061445  0.63608592  0.62651693  1
  Ti  Ti47  1  0.12546584  0.63090709  0.36898073  1
  Ti  Ti48  1  0.62441703  0.61680441  0.86259772  1
  Ti  Ti49  1  0.86922448  0.88353806  0.37431521  1
  Ti  Ti50  1  0.12196934  0.36432668  0.38183067  1
  Ti  Ti51  1  0.87730114  0.87743443  0.63492326  1
  Ti  Ti52  1  0.88606375  0.63201734  0.88537147  1
  Ti  Ti53  1  0.87812469  0.63527299  0.13315493  1
  Ti  Ti54  1  0.86599385  0.37064126  0.37368971  1
  Ti  Ti55  1  0.85026664  0.88334002  0.13387836  1
  Ti  Ti56  1  0.36419109  0.14234713  0.87811154  1
  Ti  Ti57  1  0.37490638  0.12547508  0.12857945  1
  Ti  Ti58  1  0.61959477  0.87397801  0.11220663  1
  Ti  Ti59  1  0.86966916  0.36614122  0.88729797  1
  Ti  Ti60  1  0.37793308  0.86966979  0.11882975  1
  Ti  Ti61  1  0.87963432  0.39193266  0.13602052  1
  Ti  Ti62  1  0.36869603  0.62098041  0.87991449  1
  Ti  Ti63  1  0.38562635  0.62153292  0.11171734  1
  Ti  Ti64  1  0.61403623  0.61618806  0.37129180  1
  Ti  Ti65  1  0.87894724  0.13741284  0.62760904  1
  Ti  Ti66  1  0.12289416  0.12740626  0.88178841  1
  Ti  Ti67  1  0.37043536  0.39474065  0.88924183  1
  Ti  Ti68  1  0.86960008  0.12276263  0.35997892  1
  Ti  Ti69  1  0.61692609  0.86573237  0.86846465  1
  Ti  Ti70  1  0.61698009  0.38760175  0.38831843  1
  Ti  Ti71  1  0.87584475  0.37181514  0.62406406  1
  Ti  Ti72  1  0.61935289  0.62342047  0.62278005  1
  Ti  Ti73  1  0.62406316  0.64098036  0.11925406  1
  Bi  Bi74  1  0.24943458  -0.01925499  0.02494933  1
  Bi  Bi75  1  -0.02238102  0.50753483  0.50549623  1
  Bi  Bi76  1  0.52534415  0.26121470  -0.01408951  1
  Bi  Bi77  1  0.77012971  0.01272461  0.76750804  1
  Bi  Bi78  1  0.50026153  0.76069783  0.49453082  1
  Bi  Bi79  1  0.01093375  0.26185017  0.76654690  1
  Bi  Bi80  1  0.74390604  0.24417910  0.49666365  1
  Bi  Bi81  1  0.49885818  0.26899070  0.71493542  1
  Bi  Bi82  1  0.00177209  0.49599671  0.27581180  1
  Bi  Bi83  1  0.01060910  0.01486539  0.76832197  1
  Bi  Bi84  1  0.73830668  0.27899338  0.05482118  1
  Bi  Bi85  1  0.02041199  -0.04173903  0.01675534  1
  Bi  Bi86  1  0.02748696  0.75682765  0.76724747  1
  Bi  Bi87  1  0.74427583  -0.01472719  0.50346864  1
  Bi  Bi88  1  0.76402141  0.52538981  0.01021640  1
  Bi  Bi89  1  0.75078787  0.53480990  0.49974632  1
  Bi  Bi90  1  0.24193468  0.24084963  0.03363245  1
  Bi  Bi91  1  0.51622514  0.27991075  0.22075101  1
  Bi  Bi92  1  0.25123947  0.04249227  0.50220008  1
  Bi  Bi93  1  0.73743992  0.76563237  0.52655577  1
  Bi  Bi94  1  0.26463908  0.48346940  0.71682042  1
  Bi  Bi95  1  0.48119024  0.02323378  0.76083377  1
  Bi  Bi96  1  0.24365228  0.02619552  0.27349024  1
  Bi  Bi97  1  0.02257734  0.47534428  -0.00006161  1
  Bi  Bi98  1  0.28031088  0.27073788  0.54609875  1
  Bi  Bi99  1  0.25153863  0.02275309  0.74641742  1
  Bi  Bi100  1  0.01282425  0.50713760  0.75847701  1
  Bi  Bi101  1  0.51520307  0.78246193  0.25283780  1
  Bi  Bi102  1  0.26119262  0.77842069  0.76130263  1
  Bi  Bi103  1  0.23525058  0.50671463  0.50077858  1
  Bi  Bi104  1  0.27500418  0.74393508  0.24555614  1
  Bi  Bi105  1  -0.00819456  0.77646997  0.22285805  1
  Bi  Bi106  1  0.53233831  0.46893440  0.01292725  1
  Bi  Bi107  1  0.53403508  -0.01070019  0.46921125  1
  Bi  Bi108  1  0.49810560  0.03104944  -0.01608735  1
  Bi  Bi109  1  0.73434152  0.24040436  0.75226404  1
  Bi  Bi110  1  0.77917384  0.50099002  0.76823677  1
  Bi  Bi111  1  0.23458511  0.47329858  0.26255822  1
  Bi  Bi112  1  0.27469712  0.73427496  0.49808602  1
  Bi  Bi113  1  0.71928238  0.01501505  -0.00529403  1
  Bi  Bi114  1  0.46332196  0.50762185  0.25582764  1
  Bi  Bi115  1  0.00286905  0.02488478  0.51389931  1
  Bi  Bi116  1  -0.01464057  0.23845347  0.02526193  1
  Bi  Bi117  1  0.76626892  0.76406390  0.76592926  1
  Bi  Bi118  1  0.50523862  0.24780025  0.45785818  1
  Bi  Bi119  1  0.73707062  0.73636350  0.27108739  1
  Bi  Bi120  1  0.00657336  0.77823971  0.49726405  1
  Bi  Bi121  1  0.51047886  0.01734399  0.24006960  1
  Bi  Bi122  1  0.48460933  0.74811699  0.77168008  1
  Bi  Bi123  1  0.24045858  0.71980464  0.01617833  1
  Bi  Bi124  1  0.47874333  0.50056088  0.72414893  1
  O  O125  1  0.10885384  0.15230642  -0.00589669  1
  O  O126  1  0.13216448  0.11941501  0.25150423  1
  O  O127  1  0.11129617  0.11689326  0.49590588  1
  O  O128  1  0.12992418  0.09401582  0.75369982  1
  O  O129  1  0.13430096  0.37872130  -0.01402165  1
  O  O130  1  0.10763922  0.40193425  0.25928218  1
  O  O131  1  0.15332344  0.36184805  0.50256276  1
  O  O132  1  0.09292267  0.38840826  0.74704312  1
  O  O133  1  0.11887305  0.66523935  0.00090031  1
  O  O134  1  0.10913422  0.59350604  0.25484420  1
  O  O135  1  0.14487186  0.62267757  0.49943811  1
  O  O136  1  0.10176528  0.61818794  0.74717481  1
  O  O137  1  0.14566918  0.88438942  0.00259521  1
  O  O138  1  0.09317028  0.87880904  0.25656414  1
  O  O139  1  0.13027312  0.84800401  0.49736882  1
  O  O140  1  0.09210256  0.88742491  0.74095301  1
  O  O141  1  0.38571905  0.13999204  -0.00240506  1
  O  O142  1  0.34286060  0.12797405  0.24566679  1
  O  O143  1  0.36287610  0.13326205  0.50118884  1
  O  O144  1  0.36821124  0.10656032  0.75971426  1
  O  O145  1  0.32471913  0.39199132  -0.00419058  1
  O  O146  1  0.40765937  0.37420221  0.24227494  1
  O  O147  1  0.35302373  0.36756083  0.49462502  1
  O  O148  1  0.38302265  0.39725073  0.76206920  1
  O  O149  1  0.39889181  0.65364080  -0.00632390  1
  O  O150  1  0.38239780  0.62963404  0.23580392  1
  O  O151  1  0.33933525  0.61254831  0.49657346  1
  O  O152  1  0.39218322  0.61349898  0.75317281  1
  O  O153  1  0.35140647  0.87442825  0.00633144  1
  O  O154  1  0.38802659  0.86197722  0.25595504  1
  O  O155  1  0.33960595  0.88998670  0.49932285  1
  O  O156  1  0.39274346  0.85005192  0.73144543  1
  O  O157  1  0.62090533  0.12236752  -0.00104040  1
  O  O158  1  0.63588129  0.06851792  0.24840846  1
  O  O159  1  0.62064020  0.15468722  0.50431765  1
  O  O160  1  0.66357034  0.11554268  0.74392757  1
  O  O161  1  0.62636180  0.35721038  -0.00625390  1
  O  O162  1  0.60782886  0.38917318  0.26162434  1
  O  O163  1  0.63815708  0.34474620  0.49801099  1
  O  O164  1  0.63893602  0.40559017  0.74020399  1
  O  O165  1  0.62727983  0.66232042  -0.00057868  1
  O  O166  1  0.64029762  0.59647498  0.24407486  1
  O  O167  1  0.63652243  0.63139863  0.49106789  1
  O  O168  1  0.62980114  0.60659325  0.74481150  1
  O  O169  1  0.65709809  0.84479715  0.00656898  1
  O  O170  1  0.59077864  0.89684556  0.24684049  1
  O  O171  1  0.65597534  0.87436007  0.50719236  1
  O  O172  1  0.59170759  0.87601462  0.75721412  1
  O  O173  1  0.90644623  0.12620357  0.00701170  1
  O  O174  1  0.86821220  0.12494159  0.24274491  1
  O  O175  1  0.90872873  0.13848327  0.49912244  1
  O  O176  1  0.85320140  0.12405427  0.74738423  1
  O  O177  1  0.85371631  0.38551423  0.00353319  1
  O  O178  1  0.90204925  0.36814582  0.24990111  1
  O  O179  1  0.87915128  0.33807459  0.48861162  1
  O  O180  1  0.87802964  0.38754709  0.74131942  1
  O  O181  1  0.87819593  0.61050921  -0.00114990  1
  O  O182  1  0.88508557  0.62611292  0.25013073  1
  O  O183  1  0.88100267  0.61783323  0.49495216  1
  O  O184  1  0.87730975  0.63451356  0.74576095  1
  O  O185  1  0.84961885  0.88347869  0.01044973  1
  O  O186  1  0.91299062  0.89227617  0.25116420  1
  O  O187  1  0.84066102  0.87123273  0.49512552  1
  O  O188  1  0.88797844  0.85058450  0.74989778  1
  O  O189  1  0.00058066  0.16355237  0.14372560  1
  O  O190  1  0.00166652  0.08445399  0.36043588  1
  O  O191  1  -0.00602543  0.09660702  0.63821339  1
  O  O192  1  0.00172730  0.14080621  0.84834575  1
  O  O193  1  -0.00423124  0.37417916  0.10332342  1
  O  O194  1  0.00967541  0.39652257  0.38942703  1
  O  O195  1  0.00029800  0.39103301  0.60392524  1
  O  O196  1  -0.00888757  0.35467338  0.88312619  1
  O  O197  1  -0.01005804  0.66153268  0.11296665  1
  O  O198  1  0.00263608  0.59366792  0.38370839  1
  O  O199  1  -0.00087944  0.60009384  0.61342463  1
  O  O200  1  -0.00541307  0.66482091  0.88630992  1
  O  O201  1  0.01616653  0.83555455  0.09733283  1
  O  O202  1  -0.00628556  0.88875183  0.40175458  1
  O  O203  1  -0.00965169  0.88283713  0.59412483  1
  O  O204  1  -0.01140263  0.84177784  0.90818348  1
  O  O205  1  0.24333927  0.11551219  0.10096474  1
  O  O206  1  0.23359181  0.12297253  0.37882389  1
  O  O207  1  0.24800388  0.11096906  0.62647687  1
  O  O208  1  0.24772236  0.10406190  0.87877377  1
  O  O209  1  0.24614154  0.40342654  0.14370641  1
  O  O210  1  0.24569367  0.34778190  0.33031748  1
  O  O211  1  0.23822171  0.35838092  0.65717100  1
  O  O212  1  0.24532460  0.38770960  0.83962683  1
  O  O213  1  0.26893424  0.59934140  0.08671206  1
  O  O214  1  0.24119247  0.64747257  0.35632026  1
  O  O215  1  0.24315219  0.64296577  0.64023057  1
  O  O216  1  0.25695124  0.61592765  0.89232687  1
  O  O217  1  0.25849835  0.90435858  0.14118338  1
  O  O218  1  0.24579726  0.84907921  0.35653396  1
  O  O219  1  0.24362332  0.86962260  0.64284823  1
  O  O220  1  0.25606704  0.88957418  0.83983575  1
  O  O221  1  0.49169316  0.14017753  0.14629717  1
  O  O222  1  0.50365444  0.08426483  0.36784676  1
  O  O223  1  0.50966210  0.13603685  0.65466638  1
  O  O224  1  0.49678434  0.12777504  0.86482672  1
  O  O225  1  0.49097381  0.34335584  0.09170829  1
  O  O226  1  0.50247255  0.39393431  0.42051149  1
  O  O227  1  0.51486201  0.38213165  0.62461062  1
  O  O228  1  0.48542070  0.36160547  0.90117622  1
  O  O229  1  0.50918767  0.65284941  0.11497194  1
  O  O230  1  0.50269593  0.60858107  0.37288745  1
  O  O231  1  0.50728750  0.60207870  0.61797024  1
  O  O232  1  0.51187634  0.64727503  0.87246811  1
  O  O233  1  0.49932444  0.85015104  0.11385812  1
  O  O234  1  0.48811964  0.87826406  0.39974251  1
  O  O235  1  0.49744918  0.87311920  0.58261295  1
  O  O236  1  0.50906569  0.82163162  0.89894250  1
  O  O237  1  0.76080835  0.10473738  0.09831269  1
  O  O238  1  0.76090000  0.14870772  0.38562282  1
  O  O239  1  0.75795108  0.14305052  0.60217196  1
  O  O240  1  0.75201293  0.09228222  0.88524884  1
  O  O241  1  0.75401397  0.38397819  0.15410314  1
  O  O242  1  0.75239825  0.34722393  0.35838145  1
  O  O243  1  0.75912593  0.35145595  0.61710926  1
  O  O244  1  0.75877647  0.40937367  0.86549696  1
  O  O245  1  0.75546236  0.63557506  0.10178463  1
  O  O246  1  0.76316586  0.63936064  0.37699603  1
  O  O247  1  0.75830290  0.63027415  0.61332913  1
  O  O248  1  0.75113783  0.59795818  0.88034147  1
  O  O249  1  0.74250590  0.90478203  0.15994952  1
  O  O250  1  0.76048579  0.85917469  0.33592833  1
  O  O251  1  0.75281738  0.84913786  0.64273643  1
  O  O252  1  0.74747976  0.88008072  0.84893435  1
  O  O253  1  0.11002219  0.01262694  0.10953975  1
  O  O254  1  0.13776533  -0.01508846  0.37384894  1
  O  O255  1  0.12536557  -0.00938782  0.59939865  1
  O  O256  1  0.09318531  0.00592400  0.88912586  1
  O  O257  1  0.14371931  0.25051827  0.12691089  1
  O  O258  1  0.08493823  0.24703817  0.38825946  1
  O  O259  1  0.10223803  0.25247202  0.64159712  1
  O  O260  1  0.12869796  0.25246946  0.84686908  1
  O  O261  1  0.11599987  0.50429862  0.09089316  1
  O  O262  1  0.15177283  0.49129291  0.39148004  1
  O  O263  1  0.14993292  0.49874678  0.61971081  1
  O  O264  1  0.09612730  0.49836919  0.87459799  1
  O  O265  1  0.17316802  0.74055058  0.14717283  1
  O  O266  1  0.09552733  0.74326915  0.36918542  1
  O  O267  1  0.09820047  0.74805448  0.63178366  1
  O  O268  1  0.14110755  0.75674894  0.84418975  1
  O  O269  1  0.38700137  0.00645493  0.11362669  1
  O  O270  1  0.34798272  -0.00340757  0.36715290  1
  O  O271  1  0.38785565  -0.00506370  0.64111045  1
  O  O272  1  0.40868290  -0.00908298  0.87625582  1
  O  O273  1  0.33998982  0.24956977  0.13284968  1
  O  O274  1  0.40553229  0.24741082  0.35492394  1
  O  O275  1  0.37250019  0.24949402  0.65279715  1
  O  O276  1  0.35203893  0.25277391  0.85868664  1
  O  O277  1  0.41145615  0.50649905  0.11996556  1
  O  O278  1  0.36245713  0.49732802  0.34830087  1
  O  O279  1  0.37478565  0.49744000  0.62599024  1
  O  O280  1  0.39856450  0.50575548  0.89193454  1
  O  O281  1  0.35491015  0.75261264  0.12636182  1
  O  O282  1  0.38255577  0.75124930  0.40240979  1
  O  O283  1  0.38795599  0.74979350  0.58560507  1
  O  O284  1  0.36729128  0.74507844  0.85355714  1
  O  O285  1  0.60282702  -0.01126917  0.09622708  1
  O  O286  1  0.65317426  0.00230591  0.39999115  1
  O  O287  1  0.63146493  0.00885256  0.60866318  1
  O  O288  1  0.60600818  -0.01718140  0.89787874  1
  O  O289  1  0.65443623  0.23966433  0.16001831  1
  O  O290  1  0.59822186  0.25238473  0.35518858  1
  O  O291  1  0.62684239  0.25485798  0.65320917  1
  O  O292  1  0.63628011  0.25517032  0.84852209  1
  O  O293  1  0.63192025  0.51643403  0.09692628  1
  O  O294  1  0.64973628  0.49618355  0.38749422  1
  O  O295  1  0.65102018  0.49895329  0.59733315  1
  O  O296  1  0.60991346  0.50599298  0.90003577  1
  O  O297  1  0.63577806  0.75602055  0.16386919  1
  O  O298  1  0.61983110  0.73543396  0.34805670  1
  O  O299  1  0.61833130  0.74086939  0.61812397  1
  O  O300  1  0.65682334  0.74364550  0.85824017  1
  O  O301  1  0.90329710  -0.00590650  0.12175388  1
  O  O302  1  0.85234055  -0.00035023  0.38217409  1
  O  O303  1  0.85755553  -0.00813483  0.63385598  1
  O  O304  1  0.88692301  -0.01479928  0.86318370  1
  O  O305  1  0.86863169  0.25913294  0.12110160  1
  O  O306  1  0.90708776  0.23941372  0.35490506  1
  O  O307  1  0.89882017  0.24855905  0.63736230  1
  O  O308  1  0.84786407  0.25655576  0.87664831  1
  O  O309  1  0.87637747  0.50834939  0.12854699  1
  O  O310  1  0.86672799  0.48464115  0.38544391  1
  O  O311  1  0.86366833  0.49055411  0.60024207  1
  O  O312  1  0.89645027  0.51058511  0.85793746  1
  O  O313  1  0.86113662  0.76528991  0.14815145  1
  O  O314  1  0.89731442  0.75155553  0.37402736  1
  O  O315  1  0.88919866  0.74757459  0.60815817  1
  O  O316  1  0.83408093  0.74665578  0.89425656  1
