# generated using pymatgen
data_Mg32Ti42(Bi17O64)3
_symmetry_space_group_name_H-M   'P 1'
_cell_length_a   15.92746420
_cell_length_b   15.91086667
_cell_length_c   15.94324497
_cell_angle_alpha   89.88165944
_cell_angle_beta   89.99447438
_cell_angle_gamma   89.92318529
_symmetry_Int_Tables_number   1
_chemical_formula_structural   Mg32Ti42(Bi17O64)3
_chemical_formula_sum   'Mg32 Ti42 Bi51 O192'
_cell_volume   4040.32103611
_cell_formula_units_Z   1
loop_
 _symmetry_equiv_pos_site_id
 _symmetry_equiv_pos_as_xyz
  1  'x, y, z'
loop_
 _atom_site_type_symbol
 _atom_site_label
 _atom_site_symmetry_multiplicity
 _atom_site_fract_x
 _atom_site_fract_y
 _atom_site_fract_z
 _atom_site_occupancy
  Mg  Mg0  1  0.62077999  0.37429595  0.11851203  1
  Mg  Mg1  1  0.13343388  0.62516844  0.37857038  1
  Mg  Mg2  1  0.12711291  0.12834908  0.87511313  1
  Mg  Mg3  1  0.11471195  0.88858427  0.12609512  1
  Mg  Mg4  1  0.62365868  0.62421314  0.62325005  1
  Mg  Mg5  1  0.12085139  0.37674814  0.62792305  1
  Mg  Mg6  1  0.11813473  0.12692941  0.37621148  1
  Mg  Mg7  1  0.62178388  0.11700789  0.61098975  1
  Mg  Mg8  1  0.87327359  0.12218066  0.13493012  1
  Mg  Mg9  1  0.63272176  0.88052303  0.36354010  1
  Mg  Mg10  1  0.86763494  0.88044433  0.61478959  1
  Mg  Mg11  1  0.10692501  0.87613336  0.87781810  1
  Mg  Mg12  1  0.36388255  0.87337304  0.37532815  1
  Mg  Mg13  1  0.88501342  0.11489914  0.63264798  1
  Mg  Mg14  1  0.11703658  0.37810480  0.13129975  1
  Mg  Mg15  1  0.12682853  0.12841034  0.63293669  1
  Mg  Mg16  1  0.88018757  0.61049196  0.63331779  1
  Mg  Mg17  1  0.36560298  0.62521077  0.12680044  1
  Mg  Mg18  1  0.12831556  0.37742357  0.88167342  1
  Mg  Mg19  1  -0.00225692  0.03120120  0.25354957  1
  Mg  Mg20  1  0.03191546  -0.06648341  0.68336684  1
  Mg  Mg21  1  0.44600417  0.74924250  0.02560965  1
  Mg  Mg22  1  0.79276669  -0.00598348  0.25244446  1
  Mg  Mg23  1  0.74955075  0.21634075  0.69024571  1
  Mg  Mg24  1  -0.00448322  0.01497336  -0.06767862  1
  Mg  Mg25  1  0.78102815  0.02420507  0.51219779  1
  Mg  Mg26  1  0.17573427  0.77655333  0.71585936  1
  Mg  Mg27  1  0.20237517  -0.04615534  0.74787953  1
  Mg  Mg28  1  0.49650523  -0.04365427  0.45660941  1
  Mg  Mg29  1  -0.04590733  0.75318249  0.69859534  1
  Mg  Mg30  1  0.80042913  0.02200437  0.00018213  1
  Mg  Mg31  1  0.77192660  0.26386280  0.29110501  1
  Ti  Ti32  1  0.36663816  0.11859148  0.38007685  1
  Ti  Ti33  1  0.62353031  0.36945838  0.87808625  1
  Ti  Ti34  1  0.36672274  0.12556825  0.12518592  1
  Ti  Ti35  1  0.87042257  0.35962002  0.11862004  1
  Ti  Ti36  1  0.87275579  0.63108527  0.87035405  1
  Ti  Ti37  1  0.64088623  0.87901501  0.13215993  1
  Ti  Ti38  1  0.38657239  0.36553540  0.63345107  1
  Ti  Ti39  1  0.62285237  0.37371489  0.61696941  1
  Ti  Ti40  1  0.63631673  0.10561573  0.37884349  1
  Ti  Ti41  1  0.87579717  0.87848139  0.85933370  1
  Ti  Ti42  1  0.36823597  0.63643807  0.87900680  1
  Ti  Ti43  1  0.35609291  0.87575115  0.12679793  1
  Ti  Ti44  1  0.87547529  0.63325963  0.10828129  1
  Ti  Ti45  1  0.88049540  0.88862872  0.12973757  1
  Ti  Ti46  1  0.87221630  0.36950219  0.63293507  1
  Ti  Ti47  1  0.11800385  0.61242148  0.63154928  1
  Ti  Ti48  1  0.62525228  0.63528756  0.88077661  1
  Ti  Ti49  1  0.37931786  0.36427559  0.88292966  1
  Ti  Ti50  1  0.62629778  0.64429774  0.12642357  1
  Ti  Ti51  1  0.37341316  0.12181243  0.62970940  1
  Ti  Ti52  1  0.86921301  0.11804362  0.36489488  1
  Ti  Ti53  1  0.86721423  0.12213161  0.86116585  1
  Ti  Ti54  1  0.11665812  0.61829897  0.11544807  1
  Ti  Ti55  1  0.37213772  0.12424812  0.87287460  1
  Ti  Ti56  1  0.62770847  0.11184937  0.87701423  1
  Ti  Ti57  1  0.12553073  0.88276315  0.37485481  1
  Ti  Ti58  1  0.62776282  0.87674605  0.88270420  1
  Ti  Ti59  1  0.38412756  0.36736246  0.13200342  1
  Ti  Ti60  1  0.38247403  0.62963280  0.63804993  1
  Ti  Ti61  1  0.38459633  0.87321740  0.62203320  1
  Ti  Ti62  1  0.36772258  0.63143993  0.37021282  1
  Ti  Ti63  1  0.62913355  0.10709000  0.13067878  1
  Ti  Ti64  1  0.61891389  0.63282287  0.37182881  1
  Ti  Ti65  1  0.63061611  0.87485277  0.62114007  1
  Ti  Ti66  1  0.62331948  0.38657920  0.36429826  1
  Ti  Ti67  1  0.86023861  0.88149902  0.37515023  1
  Ti  Ti68  1  0.86682442  0.36029670  0.87913179  1
  Ti  Ti69  1  0.11904302  0.62686330  0.86368181  1
  Ti  Ti70  1  0.37746320  0.87771493  0.86956476  1
  Ti  Ti71  1  0.37066498  0.36589966  0.37657408  1
  Ti  Ti72  1  0.10751500  0.12588581  0.13791303  1
  Ti  Ti73  1  0.12751305  0.37726308  0.38493288  1
  Bi  Bi74  1  0.22576861  0.26351774  0.25110735  1
  Bi  Bi75  1  0.74867885  0.72794561  0.73351878  1
  Bi  Bi76  1  -0.00238766  0.52781393  0.46818695  1
  Bi  Bi77  1  0.25583430  0.48438831  0.01909395  1
  Bi  Bi78  1  0.49120932  0.77223803  0.25957308  1
  Bi  Bi79  1  0.00048428  0.47390847  0.00846245  1
  Bi  Bi80  1  0.22355059  -0.02446364  0.54868236  1
  Bi  Bi81  1  0.23370810  0.25862133  0.74198097  1
  Bi  Bi82  1  0.78509239  0.49761252  0.44455068  1
  Bi  Bi83  1  0.54421811  0.24418082  0.26059146  1
  Bi  Bi84  1  -0.02943118  0.53496497  0.26024462  1
  Bi  Bi85  1  0.49149522  0.52357367  0.50901554  1
  Bi  Bi86  1  0.49113679  -0.03121113  0.01516767  1
  Bi  Bi87  1  0.47858529  0.00671909  0.25365506  1
  Bi  Bi88  1  0.03889425  0.75907518  0.51725917  1
  Bi  Bi89  1  0.77003302  0.72068778  0.26504349  1
  Bi  Bi90  1  -0.02005703  0.48305007  0.77149278  1
  Bi  Bi91  1  -0.00640654  0.76128084  0.28235650  1
  Bi  Bi92  1  0.22921284  0.23369373  0.50192575  1
  Bi  Bi93  1  0.76238411  0.28005167  0.48355753  1
  Bi  Bi94  1  0.74127156  0.49487142  0.21287358  1
  Bi  Bi95  1  -0.01899088  0.27493917  0.28786421  1
  Bi  Bi96  1  0.22302954  0.01211466  0.25929417  1
  Bi  Bi97  1  0.50665107  0.49275761  0.77898566  1
  Bi  Bi98  1  0.49866096  0.53516101  0.01546724  1
  Bi  Bi99  1  0.50668294  0.22717481  0.01944273  1
  Bi  Bi100  1  0.73063132  0.00859701  0.72903179  1
  Bi  Bi101  1  0.22537136  0.22850905  0.00809450  1
  Bi  Bi102  1  0.75618981  0.78112513  -0.00737884  1
  Bi  Bi103  1  0.51633624  0.76266602  0.76094249  1
  Bi  Bi104  1  0.01423715  0.24404866  0.75186625  1
  Bi  Bi105  1  0.26546436  0.47754164  0.52483430  1
  Bi  Bi106  1  0.25823827  0.71570697  0.51633459  1
  Bi  Bi107  1  -0.00827211  0.21059297  -0.00397077  1
  Bi  Bi108  1  0.23087775  0.51528604  0.24403039  1
  Bi  Bi109  1  -0.01842706  -0.00599301  0.49605334  1
  Bi  Bi110  1  0.23576894  -0.01419461  -0.03158567  1
  Bi  Bi111  1  0.50065318  0.22689807  0.48185101  1
  Bi  Bi112  1  0.26274408  0.49235096  0.77075622  1
  Bi  Bi113  1  0.53872648  0.23302448  0.74692946  1
  Bi  Bi114  1  0.21484844  0.75862529  0.24520637  1
  Bi  Bi115  1  -0.01118335  0.23400308  0.52033391  1
  Bi  Bi116  1  0.22010956  0.74844877  -0.00613707  1
  Bi  Bi117  1  0.53202368  0.76372104  0.49762199  1
  Bi  Bi118  1  -0.00664962  0.76938422  -0.00328799  1
  Bi  Bi119  1  0.48837110  0.01024705  0.74249369  1
  Bi  Bi120  1  0.47913392  0.50713029  0.26059881  1
  Bi  Bi121  1  0.74173732  0.48673239  -0.01494441  1
  Bi  Bi122  1  0.73748141  0.22185562  0.01295669  1
  Bi  Bi123  1  0.77556513  0.71013401  0.50214630  1
  Bi  Bi124  1  0.73357502  0.49312526  0.73317633  1
  O  O125  1  0.10914009  0.12413077  0.01695585  1
  O  O126  1  0.15425493  0.14290034  0.25157424  1
  O  O127  1  0.10896359  0.14784167  0.50161885  1
  O  O128  1  0.13260174  0.16319472  0.75688457  1
  O  O129  1  0.13228736  0.41532359  0.00543085  1
  O  O130  1  0.11500687  0.35333928  0.25860773  1
  O  O131  1  0.16151714  0.37462736  0.50120470  1
  O  O132  1  0.11855149  0.34311021  0.75594476  1
  O  O133  1  0.13828166  0.61536724  -0.00199381  1
  O  O134  1  0.13868300  0.63843675  0.24693948  1
  O  O135  1  0.11805772  0.61091174  0.50815464  1
  O  O136  1  0.13677538  0.65900030  0.74793159  1
  O  O137  1  0.15506244  0.87811789  0.00363529  1
  O  O138  1  0.10493830  0.84692694  0.24914053  1
  O  O139  1  0.11882340  0.89405461  0.49187974  1
  O  O140  1  0.11046687  0.86948426  0.75585532  1
  O  O141  1  0.39532706  0.13870173  0.00296624  1
  O  O142  1  0.37067507  0.10729150  0.25163618  1
  O  O143  1  0.39812324  0.13203270  0.50159429  1
  O  O144  1  0.36429563  0.11721714  0.75253923  1
  O  O145  1  0.35420256  0.36814093  -0.00288219  1
  O  O146  1  0.39723144  0.38448415  0.24930760  1
  O  O147  1  0.35984279  0.37172020  0.49867989  1
  O  O148  1  0.39851621  0.39032335  0.74733919  1
  O  O149  1  0.38587098  0.62717397  -0.00166803  1
  O  O150  1  0.36520940  0.59204228  0.25034494  1
  O  O151  1  0.39188240  0.62407136  0.48835767  1
  O  O152  1  0.38542088  0.63217735  0.75128965  1
  O  O153  1  0.35429306  0.88981715  0.00326754  1
  O  O154  1  0.40108956  0.88302795  0.24361234  1
  O  O155  1  0.38942820  0.88339756  0.50698077  1
  O  O156  1  0.40089991  0.87354588  0.75716435  1
  O  O157  1  0.60721480  0.12238602  -0.00648704  1
  O  O158  1  0.63262147  0.10669515  0.24398117  1
  O  O159  1  0.60697088  0.13374528  0.49056781  1
  O  O160  1  0.65953051  0.14607042  0.76072344  1
  O  O161  1  0.62881022  0.40271043  -0.00700627  1
  O  O162  1  0.62431988  0.37245907  0.24761392  1
  O  O163  1  0.64234145  0.37522713  0.50192934  1
  O  O164  1  0.60199206  0.37642338  0.75734122  1
  O  O165  1  0.64253543  0.61400657  -0.00372117  1
  O  O166  1  0.62040668  0.66197802  0.24175891  1
  O  O167  1  0.61577765  0.61386069  0.48921256  1
  O  O168  1  0.61885764  0.65934773  0.75026742  1
  O  O169  1  0.65181752  0.88906128  -0.00386110  1
  O  O170  1  0.59586057  0.86282673  0.23998912  1
  O  O171  1  0.59570793  0.89220590  0.50793342  1
  O  O172  1  0.62107391  0.85168101  0.74948111  1
  O  O173  1  0.91115993  0.08995615  0.00662008  1
  O  O174  1  0.82465995  0.13485182  0.25789100  1
  O  O175  1  0.89158235  0.10082314  0.49493607  1
  O  O176  1  0.84486582  0.14382466  0.75322769  1
  O  O177  1  0.86635899  0.40585153  -0.00624175  1
  O  O178  1  0.85876785  0.33699479  0.23190954  1
  O  O179  1  0.84751001  0.38764134  0.51570427  1
  O  O180  1  0.89479884  0.35918828  0.76229536  1
  O  O181  1  0.86698433  0.60455730  -0.00515632  1
  O  O182  1  0.88856294  0.64938753  0.23737974  1
  O  O183  1  0.86578873  0.59899934  0.50733612  1
  O  O184  1  0.88387587  0.66484133  0.75538099  1
  O  O185  1  0.83455352  0.90143454  0.01817066  1
  O  O186  1  0.88361322  0.84057450  0.24753330  1
  O  O187  1  0.85830014  0.92166166  0.48939192  1
  O  O188  1  0.90024510  0.85745378  0.75203816  1
  O  O189  1  -0.00215100  0.14791279  0.16200912  1
  O  O190  1  -0.01059482  0.13859939  0.34354750  1
  O  O191  1  0.00265602  0.16144188  0.63864002  1
  O  O192  1  -0.00718695  0.13519758  0.87145215  1
  O  O193  1  -0.01103376  0.36534418  0.10074285  1
  O  O194  1  0.01620062  0.34286080  0.40315514  1
  O  O195  1  -0.00700400  0.34008612  0.61946492  1
  O  O196  1  -0.00575432  0.39558834  0.89062313  1
  O  O197  1  -0.00191515  0.63716308  0.10812151  1
  O  O198  1  0.00375005  0.62769198  0.37804232  1
  O  O199  1  0.00519700  0.65659243  0.62815935  1
  O  O200  1  0.00423068  0.61033819  0.87018169  1
  O  O201  1  -0.00943719  0.86599207  0.10283552  1
  O  O202  1  -0.00684218  0.85639219  0.38572561  1
  O  O203  1  -0.00802259  0.83924479  0.61325624  1
  O  O204  1  -0.01329479  0.88691925  0.91750519  1
  O  O205  1  0.25477435  0.10717149  0.10792608  1
  O  O206  1  0.25600907  0.09599134  0.39013176  1
  O  O207  1  0.26058796  0.10857895  0.60585796  1
  O  O208  1  0.25733529  0.13223712  0.89499091  1
  O  O209  1  0.25614812  0.40679633  0.13717767  1
  O  O210  1  0.26040011  0.39294756  0.35508841  1
  O  O211  1  0.26198551  0.40099930  0.64270005  1
  O  O212  1  0.26013972  0.37597985  0.84903243  1
  O  O213  1  0.24459663  0.58843577  0.12263757  1
  O  O214  1  0.25729161  0.59604393  0.38252014  1
  O  O215  1  0.25495359  0.60931915  0.61177038  1
  O  O216  1  0.25599202  0.64758835  0.87643679  1
  O  O217  1  0.24767041  0.89479696  0.15698285  1
  O  O218  1  0.24096114  0.90076744  0.35637184  1
  O  O219  1  0.26377980  0.89068541  0.65144305  1
  O  O220  1  0.25893607  0.90180162  0.85519973  1
  O  O221  1  0.50518959  0.14487320  0.13188070  1
  O  O222  1  0.50467306  0.15332002  0.36266720  1
  O  O223  1  0.50201660  0.13118684  0.65548811  1
  O  O224  1  0.51212982  0.12441621  0.84649128  1
  O  O225  1  0.49678877  0.34554858  0.11105186  1
  O  O226  1  0.51329737  0.33491897  0.37671802  1
  O  O227  1  0.50311205  0.36349341  0.60719532  1
  O  O228  1  0.49867911  0.40224194  0.88669942  1
  O  O229  1  0.50854996  0.65246963  0.10043742  1
  O  O230  1  0.49814858  0.63663885  0.34990185  1
  O  O231  1  0.49703973  0.63264863  0.61486440  1
  O  O232  1  0.50641876  0.61304404  0.87857297  1
  O  O233  1  0.49650858  0.85144914  0.08601995  1
  O  O234  1  0.49645507  0.84417927  0.38000858  1
  O  O235  1  0.50183282  0.83631329  0.63361185  1
  O  O236  1  0.50786245  0.88935666  0.88762565  1
  O  O237  1  0.74743935  0.10132755  0.09007761  1
  O  O238  1  0.74945658  0.08379176  0.40547664  1
  O  O239  1  0.75145061  0.09195844  0.61598885  1
  O  O240  1  0.75740356  0.11000537  0.91095748  1
  O  O241  1  0.74955700  0.40245442  0.10983235  1
  O  O242  1  0.74365462  0.37208716  0.37006122  1
  O  O243  1  0.74781540  0.37312122  0.65715308  1
  O  O244  1  0.74882554  0.38081292  0.87446373  1
  O  O245  1  0.75436211  0.61854335  0.14280700  1
  O  O246  1  0.73862776  0.61140385  0.35057315  1
  O  O247  1  0.75039547  0.61372598  0.65091659  1
  O  O248  1  0.75375901  0.64730933  0.86061194  1
  O  O249  1  0.74518727  0.91074682  0.16272104  1
  O  O250  1  0.75396566  0.90818551  0.34374691  1
  O  O251  1  0.74404827  0.91121716  0.62352955  1
  O  O252  1  0.75649744  0.86468442  0.86090809  1
  O  O253  1  0.10150811  0.01045847  0.16607879  1
  O  O254  1  0.10159728  -0.00042998  0.34122154  1
  O  O255  1  0.13173789  0.00375508  0.64630367  1
  O  O256  1  0.11953550  0.00402694  0.88370395  1
  O  O257  1  0.14767264  0.25173279  0.12330279  1
  O  O258  1  0.16058574  0.25209616  0.37833682  1
  O  O259  1  0.16423535  0.25470186  0.62200031  1
  O  O260  1  0.12210110  0.25439998  0.91910241  1
  O  O261  1  0.09978318  0.50603469  0.15143131  1
  O  O262  1  0.10515556  0.49214093  0.37194005  1
  O  O263  1  0.10415401  0.50219309  0.64748183  1
  O  O264  1  0.14479172  0.51022379  0.84786385  1
  O  O265  1  0.14705654  0.74287975  0.11509783  1
  O  O266  1  0.14544126  0.75669541  0.38031285  1
  O  O267  1  0.15325527  0.74801238  0.59835984  1
  O  O268  1  0.11533009  0.74904105  0.90194632  1
  O  O269  1  0.39905080  0.00135943  0.12394339  1
  O  O270  1  0.40803555  0.00236971  0.37796950  1
  O  O271  1  0.40098673  -0.00191186  0.63119764  1
  O  O272  1  0.38643349  0.00806835  0.88520017  1
  O  O273  1  0.35605508  0.24866554  0.13531222  1
  O  O274  1  0.36107177  0.24638969  0.37380326  1
  O  O275  1  0.36558386  0.25000422  0.63580940  1
  O  O276  1  0.39417584  0.25263321  0.86797552  1
  O  O277  1  0.40442870  0.49429979  0.11152748  1
  O  O278  1  0.41566194  0.48667094  0.38326021  1
  O  O279  1  0.38914147  0.50313162  0.60833752  1
  O  O280  1  0.36431711  0.51042553  0.86956654  1
  O  O281  1  0.35537448  0.75583655  0.12146395  1
  O  O282  1  0.35261710  0.74405381  0.35722869  1
  O  O283  1  0.35377146  0.74665466  0.61504512  1
  O  O284  1  0.39303231  0.76016199  0.89738953  1
  O  O285  1  0.59552649  -0.00595417  0.11837473  1
  O  O286  1  0.58786551  -0.00019661  0.37446414  1
  O  O287  1  0.60876912  -0.00358289  0.66010424  1
  O  O288  1  0.63347802  -0.00106443  0.85234845  1
  O  O289  1  0.64085383  0.23986223  0.11228877  1
  O  O290  1  0.65843551  0.23125663  0.34617397  1
  O  O291  1  0.63641923  0.25004189  0.63480839  1
  O  O292  1  0.61917057  0.25576503  0.88673595  1
  O  O293  1  0.61822896  0.51801884  0.13969630  1
  O  O294  1  0.60470845  0.49959318  0.36158768  1
  O  O295  1  0.62120655  0.49385181  0.64249516  1
  O  O296  1  0.63751921  0.51170884  0.85114251  1
  O  O297  1  0.66246979  0.76074383  0.10809793  1
  O  O298  1  0.63785498  0.74999786  0.39437070  1
  O  O299  1  0.64990568  0.75757756  0.59912068  1
  O  O300  1  0.61473485  0.75548694  0.88938337  1
  O  O301  1  0.89326859  -0.00277273  0.16887259  1
  O  O302  1  0.89864728  -0.00064309  0.33933305  1
  O  O303  1  0.93268639  -0.00490426  0.62713664  1
  O  O304  1  0.87952514  0.00162262  0.86310076  1
  O  O305  1  0.85410905  0.24680016  0.08911904  1
  O  O306  1  0.85977965  0.23940847  0.38479396  1
  O  O307  1  0.84626726  0.24665124  0.60889693  1
  O  O308  1  0.87129369  0.24727962  0.90117630  1
  O  O309  1  0.87844097  0.50271787  0.15254186  1
  O  O310  1  0.89646479  0.48777929  0.36837243  1
  O  O311  1  0.88707323  0.48706688  0.65903187  1
  O  O312  1  0.86603661  0.51221978  0.84551349  1
  O  O313  1  0.85955086  0.75055774  0.09489523  1
  O  O314  1  0.84543574  0.76283732  0.39140801  1
  O  O315  1  0.84581419  0.75323326  0.61046423  1
  O  O316  1  0.88506173  0.75674889  0.90597319  1
