# generated using pymatgen
data_Mg32Ti42(Bi17O64)3
_symmetry_space_group_name_H-M   'P 1'
_cell_length_a   15.98729100
_cell_length_b   15.93856946
_cell_length_c   15.94227535
_cell_angle_alpha   89.92930184
_cell_angle_beta   89.98087208
_cell_angle_gamma   89.91298183
_symmetry_Int_Tables_number   1
_chemical_formula_structural   Mg32Ti42(Bi17O64)3
_chemical_formula_sum   'Mg32 Ti42 Bi51 O192'
_cell_volume   4062.31568823
_cell_formula_units_Z   1
loop_
 _symmetry_equiv_pos_site_id
 _symmetry_equiv_pos_as_xyz
  1  'x, y, z'
loop_
 _atom_site_type_symbol
 _atom_site_label
 _atom_site_symmetry_multiplicity
 _atom_site_fract_x
 _atom_site_fract_y
 _atom_site_fract_z
 _atom_site_occupancy
  Mg  Mg0  1  0.87312427  0.12051320  0.12685303  1
  Mg  Mg1  1  0.36831443  0.62800476  0.87094309  1
  Mg  Mg2  1  0.12122619  0.37935379  0.37611879  1
  Mg  Mg3  1  0.36240680  0.88742362  0.61811941  1
  Mg  Mg4  1  0.12406474  0.62198483  0.12487154  1
  Mg  Mg5  1  0.38665663  0.37828630  0.12310404  1
  Mg  Mg6  1  0.12973591  0.13696841  0.11685940  1
  Mg  Mg7  1  0.62287557  0.63026466  0.13761025  1
  Mg  Mg8  1  0.87347126  0.86870838  0.62795185  1
  Mg  Mg9  1  0.61969576  0.62554426  0.62419775  1
  Mg  Mg10  1  0.37182631  0.86762970  0.87985618  1
  Mg  Mg11  1  0.38201845  0.37198950  0.63339475  1
  Mg  Mg12  1  0.62775921  0.11662620  0.87920113  1
  Mg  Mg13  1  0.63586504  0.11711297  0.61783296  1
  Mg  Mg14  1  0.64056490  0.62156130  0.87508696  1
  Mg  Mg15  1  0.12823500  0.87881144  0.38578768  1
  Mg  Mg16  1  0.37853788  0.36397005  0.37050615  1
  Mg  Mg17  1  0.62225094  0.88256409  0.37764392  1
  Mg  Mg18  1  0.12045010  0.12648830  0.63433988  1
  Mg  Mg19  1  0.03817235  0.80620055  0.00541176  1
  Mg  Mg20  1  0.76559956  0.72490087  0.21621536  1
  Mg  Mg21  1  0.16363756  0.00591985  0.24887847  1
  Mg  Mg22  1  0.25998864  -0.01540182  0.81035307  1
  Mg  Mg23  1  0.19798851  0.24486067  0.53705958  1
  Mg  Mg24  1  0.80181355  0.70878118  0.74958508  1
  Mg  Mg25  1  0.74751800  0.01435784  0.44195800  1
  Mg  Mg26  1  0.71700120  0.52395782  0.04278111  1
  Mg  Mg27  1  0.03789796  0.19408810  0.43644557  1
  Mg  Mg28  1  0.58163094  0.74103318  -0.00286467  1
  Mg  Mg29  1  0.54779424  0.29739730  0.31984599  1
  Mg  Mg30  1  0.80172230  0.73490726  0.02471506  1
  Mg  Mg31  1  0.04753846  0.02520621  0.50462366  1
  Ti  Ti32  1  0.37819925  0.63204437  0.37325378  1
  Ti  Ti33  1  0.63590396  0.63181339  0.37711392  1
  Ti  Ti34  1  0.62348834  0.87818642  0.63674727  1
  Ti  Ti35  1  0.12765982  0.88109801  0.87035711  1
  Ti  Ti36  1  0.86356596  0.63444147  0.35657343  1
  Ti  Ti37  1  0.13321466  0.37994751  0.12457374  1
  Ti  Ti38  1  0.11686984  0.63244793  0.89163371  1
  Ti  Ti39  1  0.13674100  0.63426710  0.36885627  1
  Ti  Ti40  1  0.61618484  0.37544533  0.11502889  1
  Ti  Ti41  1  0.37695426  0.87670006  0.37689542  1
  Ti  Ti42  1  0.63394456  0.36813539  0.63779259  1
  Ti  Ti43  1  0.87537110  0.13230390  0.37730270  1
  Ti  Ti44  1  0.87825526  0.11247393  0.88583593  1
  Ti  Ti45  1  0.62100915  0.86437670  0.12470475  1
  Ti  Ti46  1  0.38811720  0.86867847  0.12199443  1
  Ti  Ti47  1  0.12234313  0.37627870  0.87989122  1
  Ti  Ti48  1  0.61746142  0.12063204  0.12943382  1
  Ti  Ti49  1  0.37681061  0.61712944  0.62694805  1
  Ti  Ti50  1  0.88459566  0.38272273  0.37151685  1
  Ti  Ti51  1  0.86785933  0.60755779  0.12269110  1
  Ti  Ti52  1  0.86722862  0.86319129  0.38281922  1
  Ti  Ti53  1  0.87492779  0.86771443  0.12550929  1
  Ti  Ti54  1  0.87954555  0.62282894  0.61282132  1
  Ti  Ti55  1  0.37780604  0.63400971  0.13208391  1
  Ti  Ti56  1  0.62425140  0.11783046  0.37767798  1
  Ti  Ti57  1  0.36835957  0.13711374  0.62008914  1
  Ti  Ti58  1  0.10187813  0.36881735  0.62089443  1
  Ti  Ti59  1  0.62947331  0.87610889  0.87040669  1
  Ti  Ti60  1  0.87334689  0.12251326  0.60428099  1
  Ti  Ti61  1  0.37649847  0.12094570  0.12976411  1
  Ti  Ti62  1  0.39476871  0.14337829  0.36257498  1
  Ti  Ti63  1  0.12540183  0.88728149  0.62256683  1
  Ti  Ti64  1  0.12846243  0.61382860  0.61225043  1
  Ti  Ti65  1  0.86830596  0.37368802  0.61615410  1
  Ti  Ti66  1  0.87409390  0.37481492  0.86747759  1
  Ti  Ti67  1  0.86855862  0.37007647  0.11314448  1
  Ti  Ti68  1  0.37946805  0.37926855  0.87745806  1
  Ti  Ti69  1  0.87880086  0.86328204  0.87220884  1
  Ti  Ti70  1  0.36630162  0.12326661  0.86921069  1
  Ti  Ti71  1  0.12418563  0.12882699  0.86998179  1
  Ti  Ti72  1  0.87720403  0.61524745  0.88211962  1
  Ti  Ti73  1  0.64094284  0.37977585  0.88474245  1
  Bi  Bi74  1  -0.00331739  0.52268461  0.46239879  1
  Bi  Bi75  1  0.50846574  0.74894234  0.78714199  1
  Bi  Bi76  1  0.01944448  0.76044109  0.49357714  1
  Bi  Bi77  1  0.47128759  -0.00240299  0.72512554  1
  Bi  Bi78  1  0.50343698  0.49069992  0.27665748  1
  Bi  Bi79  1  0.47815735  0.48217912  0.50372757  1
  Bi  Bi80  1  0.22573898  0.76956228  0.02814884  1
  Bi  Bi81  1  0.49680008  0.26538202  0.51560448  1
  Bi  Bi82  1  0.47534616  0.01028107  0.48954041  1
  Bi  Bi83  1  0.73841980  0.78214296  0.51045926  1
  Bi  Bi84  1  0.50291910  -0.02214749  0.24942888  1
  Bi  Bi85  1  0.02812900  0.00791595  0.01831535  1
  Bi  Bi86  1  0.26875803  0.26774708  0.01609633  1
  Bi  Bi87  1  0.00585640  0.48824411  -0.00665110  1
  Bi  Bi88  1  0.24513255  0.28486209  0.74733734  1
  Bi  Bi89  1  0.72874111  0.46053390  0.25539766  1
  Bi  Bi90  1  -0.01101466  0.00498946  0.72330181  1
  Bi  Bi91  1  0.24561584  0.78044194  0.25449111  1
  Bi  Bi92  1  0.03353408  0.77560810  0.21678162  1
  Bi  Bi93  1  0.23830836  0.52238440  0.77266650  1
  Bi  Bi94  1  0.22145064  0.23012716  0.28665220  1
  Bi  Bi95  1  0.52072397  0.74264231  0.26436537  1
  Bi  Bi96  1  0.27778336  0.74860606  0.51245671  1
  Bi  Bi97  1  0.01656828  0.24578420  0.23932649  1
  Bi  Bi98  1  -0.01881305  0.23377846  0.00968753  1
  Bi  Bi99  1  0.74448512  0.22775345  0.76144092  1
  Bi  Bi100  1  0.73440183  0.27435062  0.47633589  1
  Bi  Bi101  1  0.52153651  0.51542791  0.76665710  1
  Bi  Bi102  1  0.27355700  0.77419288  0.74499507  1
  Bi  Bi103  1  0.75908053  0.00087469  0.73294183  1
  Bi  Bi104  1  0.73511050  0.23818480  0.24659423  1
  Bi  Bi105  1  -0.02467607  -0.00420490  0.29469874  1
  Bi  Bi106  1  0.72746597  0.50289240  0.50422248  1
  Bi  Bi107  1  0.23600334  0.04673411  0.46491050  1
  Bi  Bi108  1  0.75608347  -0.01429602  0.22982298  1
  Bi  Bi109  1  0.51241732  0.76923199  0.51322055  1
  Bi  Bi110  1  0.72979294  0.23272865  0.01256929  1
  Bi  Bi111  1  0.75037443  0.52240693  0.73470195  1
  Bi  Bi112  1  0.48621665  0.22662365  -0.01257282  1
  Bi  Bi113  1  0.24914286  0.45062394  0.51641437  1
  Bi  Bi114  1  0.01420203  0.75806878  0.72968874  1
  Bi  Bi115  1  0.24103140  0.00215212  0.04170142  1
  Bi  Bi116  1  -0.01779969  0.23943660  0.74693733  1
  Bi  Bi117  1  0.27660683  0.47329384  0.25804762  1
  Bi  Bi118  1  0.50387584  0.52770703  0.00425236  1
  Bi  Bi119  1  0.27352660  0.51875239  0.00808811  1
  Bi  Bi120  1  -0.00205262  0.51486154  0.74942854  1
  Bi  Bi121  1  0.48230092  -0.01734104  -0.02372856  1
  Bi  Bi122  1  0.75569638  -0.02833282  -0.01063211  1
  Bi  Bi123  1  0.51136217  0.21837227  0.74280222  1
  Bi  Bi124  1  0.00988827  0.48833425  0.23228228  1
  O  O125  1  0.13832156  0.09101769  -0.01020538  1
  O  O126  1  0.12820060  0.13494814  0.24260877  1
  O  O127  1  0.12704850  0.13493863  0.50312317  1
  O  O128  1  0.08864414  0.13287712  0.75672332  1
  O  O129  1  0.12994303  0.39664849  0.00269622  1
  O  O130  1  0.09092262  0.36809338  0.24217291  1
  O  O131  1  0.14096061  0.35642984  0.50271197  1
  O  O132  1  0.12430142  0.36794777  0.74684695  1
  O  O133  1  0.10841842  0.59708765  -0.00116809  1
  O  O134  1  0.12513278  0.66888690  0.25189142  1
  O  O135  1  0.09552536  0.62637193  0.49262725  1
  O  O136  1  0.12963286  0.61285225  0.73482180  1
  O  O137  1  0.13266804  0.89311443  -0.00835105  1
  O  O138  1  0.13074088  0.86550159  0.25471202  1
  O  O139  1  0.08933264  0.89489980  0.50792469  1
  O  O140  1  0.12785742  0.84447347  0.74883880  1
  O  O141  1  0.39487967  0.10923558  -0.00641338  1
  O  O142  1  0.37403254  0.13434265  0.24847967  1
  O  O143  1  0.40984690  0.14131130  0.50178822  1
  O  O144  1  0.38046131  0.13686017  0.74863337  1
  O  O145  1  0.34267067  0.39033708  -0.00012052  1
  O  O146  1  0.38832319  0.39378873  0.24670862  1
  O  O147  1  0.38647555  0.37560880  0.49640483  1
  O  O148  1  0.36770261  0.35597889  0.75878227  1
  O  O149  1  0.38236422  0.60805003  -0.00186475  1
  O  O150  1  0.36187730  0.64036243  0.24582393  1
  O  O151  1  0.38314819  0.64051726  0.49269585  1
  O  O152  1  0.34002388  0.61453014  0.73749022  1
  O  O153  1  0.37367037  0.89013894  0.00521871  1
  O  O154  1  0.39621589  0.88413075  0.24895655  1
  O  O155  1  0.38204008  0.86474585  0.49599901  1
  O  O156  1  0.33850185  0.89705283  0.74240455  1
  O  O157  1  0.64702698  0.11966358  0.00827461  1
  O  O158  1  0.61708306  0.16290010  0.24822074  1
  O  O159  1  0.64538924  0.08755662  0.48917984  1
  O  O160  1  0.63116314  0.14965248  0.75506733  1
  O  O161  1  0.65972558  0.40830601  0.00436843  1
  O  O162  1  0.62199791  0.36171012  0.24073570  1
  O  O163  1  0.65691189  0.38205629  0.50689536  1
  O  O164  1  0.61449049  0.36847477  0.75414990  1
  O  O165  1  0.61616382  0.61440744  0.00283573  1
  O  O166  1  0.64749116  0.67400114  0.25743484  1
  O  O167  1  0.61837803  0.60125722  0.49505315  1
  O  O168  1  0.62568206  0.60101983  0.74807134  1
  O  O169  1  0.63653681  0.86302799  0.00613945  1
  O  O170  1  0.59097181  0.86774133  0.25063812  1
  O  O171  1  0.61331637  0.87026915  0.51054305  1
  O  O172  1  0.61777388  0.86293032  0.75457493  1
  O  O173  1  0.86092948  0.15163399  -0.00286110  1
  O  O174  1  0.89428464  0.11035989  0.25842710  1
  O  O175  1  0.83548835  0.11480627  0.49754755  1
  O  O176  1  0.90870181  0.11685752  0.76177341  1
  O  O177  1  0.86927575  0.35335577  -0.00106039  1
  O  O178  1  0.89722011  0.38423121  0.25263452  1
  O  O179  1  0.85480262  0.36201969  0.50286851  1
  O  O180  1  0.89564918  0.39026466  0.75257331  1
  O  O181  1  0.87943509  0.64201967  -0.00456047  1
  O  O182  1  0.83871763  0.61200954  0.24311689  1
  O  O183  1  0.88506820  0.63717428  0.49985822  1
  O  O184  1  0.88226697  0.59385545  0.74868937  1
  O  O185  1  0.83568249  0.85330079  0.00430722  1
  O  O186  1  0.87802881  0.89682273  0.24258859  1
  O  O187  1  0.87207678  0.83990365  0.49938814  1
  O  O188  1  0.88048991  0.90054309  0.76372364  1
  O  O189  1  -0.00091054  0.11896715  0.09621137  1
  O  O190  1  -0.01423216  0.08330609  0.40978154  1
  O  O191  1  -0.00886088  0.08790290  0.60403625  1
  O  O192  1  0.00181933  0.11368132  0.90863482  1
  O  O193  1  -0.01111582  0.41410039  0.11290125  1
  O  O194  1  -0.00268197  0.39634542  0.39385170  1
  O  O195  1  -0.00763307  0.39373336  0.61345378  1
  O  O196  1  0.00227144  0.37562120  0.89365203  1
  O  O197  1  -0.01704552  0.59600998  0.13440245  1
  O  O198  1  -0.01866351  0.61848208  0.35953183  1
  O  O199  1  -0.00386549  0.59059194  0.62783624  1
  O  O200  1  0.00175586  0.61934285  0.85472642  1
  O  O201  1  -0.01324304  0.87185892  0.10404878  1
  O  O202  1  -0.01410088  0.87426906  0.37244065  1
  O  O203  1  0.00010250  0.87359210  0.64894672  1
  O  O204  1  -0.00580217  0.86818080  0.89972121  1
  O  O205  1  0.25948511  0.13923344  0.10254872  1
  O  O206  1  0.27584988  0.16263471  0.39604972  1
  O  O207  1  0.25735169  0.15858383  0.61189853  1
  O  O208  1  0.24845762  0.11046364  0.85521211  1
  O  O209  1  0.24285837  0.35430049  0.14122112  1
  O  O210  1  0.25019811  0.36935545  0.35444805  1
  O  O211  1  0.25539664  0.34876034  0.61731545  1
  O  O212  1  0.24118500  0.36009561  0.86622070  1
  O  O213  1  0.25223302  0.65318927  0.10127675  1
  O  O214  1  0.24975265  0.64272854  0.37780114  1
  O  O215  1  0.24003407  0.63802909  0.59396715  1
  O  O216  1  0.23660281  0.61884944  0.87503415  1
  O  O217  1  0.26338293  0.85560975  0.13428286  1
  O  O218  1  0.26002318  0.86361407  0.36727850  1
  O  O219  1  0.23613189  0.85086996  0.60552553  1
  O  O220  1  0.24419651  0.86838976  0.87098427  1
  O  O221  1  0.50299196  0.11664046  0.11885281  1
  O  O222  1  0.50738500  0.09370304  0.37148424  1
  O  O223  1  0.50983646  0.10844331  0.64832435  1
  O  O224  1  0.49793319  0.14025883  0.86763790  1
  O  O225  1  0.50797486  0.40297032  0.10018888  1
  O  O226  1  0.50643000  0.40348207  0.38151828  1
  O  O227  1  0.51322672  0.39268200  0.60564057  1
  O  O228  1  0.49163708  0.37057902  0.89811294  1
  O  O229  1  0.49346841  0.59915359  0.12814926  1
  O  O230  1  0.49850623  0.61535844  0.35223276  1
  O  O231  1  0.48913813  0.60347616  0.64088759  1
  O  O232  1  0.49421009  0.62054029  0.85374590  1
  O  O233  1  0.50299217  0.91060179  0.11346011  1
  O  O234  1  0.49730317  0.91446793  0.38069626  1
  O  O235  1  0.49823054  0.89675697  0.63262382  1
  O  O236  1  0.49968493  0.86378685  0.88305306  1
  O  O237  1  0.74763686  0.14793898  0.13965515  1
  O  O238  1  0.75542485  0.14232617  0.35679525  1
  O  O239  1  0.76247390  0.13022375  0.65941506  1
  O  O240  1  0.76097644  0.11948606  0.85387048  1
  O  O241  1  0.75615955  0.35377451  0.14207938  1
  O  O242  1  0.76757719  0.34130034  0.36128088  1
  O  O243  1  0.75498693  0.34501172  0.64654024  1
  O  O244  1  0.75481225  0.38348350  0.85893888  1
  O  O245  1  0.74766479  0.65105481  0.10220285  1
  O  O246  1  0.74857839  0.63593861  0.39730492  1
  O  O247  1  0.75810137  0.63711367  0.64933293  1
  O  O248  1  0.76334810  0.62571519  0.85078933  1
  O  O249  1  0.73498444  0.85429614  0.16314426  1
  O  O250  1  0.74455245  0.87430201  0.40570412  1
  O  O251  1  0.74548606  0.85386263  0.62725477  1
  O  O252  1  0.74726250  0.88702148  0.87069576  1
  O  O253  1  0.13774887  0.00577179  0.12864099  1
  O  O254  1  0.14904547  0.00270609  0.37229938  1
  O  O255  1  0.13221386  -0.00111990  0.63332353  1
  O  O256  1  0.13107447  -0.00867179  0.84177826  1
  O  O257  1  0.09289299  0.26109804  0.11380095  1
  O  O258  1  0.10997348  0.25340376  0.35927871  1
  O  O259  1  0.10476210  0.25317801  0.62778813  1
  O  O260  1  0.12268604  0.24243343  0.88952192  1
  O  O261  1  0.13359171  0.49825507  0.15305542  1
  O  O262  1  0.11877241  0.51477536  0.37154284  1
  O  O263  1  0.14667232  0.49178797  0.60883094  1
  O  O264  1  0.12255091  0.49364480  0.86325196  1
  O  O265  1  0.10374385  0.74764855  0.09800787  1
  O  O266  1  0.11823246  0.75361162  0.39967325  1
  O  O267  1  0.09208496  0.73861631  0.61510466  1
  O  O268  1  0.11273106  0.74650167  0.90897736  1
  O  O269  1  0.36013703  0.00619633  0.13207957  1
  O  O270  1  0.36423312  0.01009212  0.39799557  1
  O  O271  1  0.37492091  0.01526589  0.61673832  1
  O  O272  1  0.37786272  0.00266063  0.86790760  1
  O  O273  1  0.38513743  0.25038864  0.09122231  1
  O  O274  1  0.43444052  0.25040158  0.36000960  1
  O  O275  1  0.41431718  0.24938610  0.62587536  1
  O  O276  1  0.36535448  0.24614527  0.90634252  1
  O  O277  1  0.34351742  0.50978103  0.12828712  1
  O  O278  1  0.36929627  0.51203652  0.36322482  1
  O  O279  1  0.35923174  0.49939438  0.60324008  1
  O  O280  1  0.35528964  0.49486864  0.86803504  1
  O  O281  1  0.40125651  0.75446797  0.12099497  1
  O  O282  1  0.39725674  0.75789906  0.36642809  1
  O  O283  1  0.36633188  0.74629575  0.62575864  1
  O  O284  1  0.37561023  0.74992646  0.84084214  1
  O  O285  1  0.64038306  0.00445562  0.14614753  1
  O  O286  1  0.65575699  0.00549577  0.34581616  1
  O  O287  1  0.64943517  -0.00741250  0.64700037  1
  O  O288  1  0.61009293  -0.00840194  0.88287693  1
  O  O289  1  0.61483068  0.25829493  0.09540609  1
  O  O290  1  0.61681583  0.23739606  0.40261384  1
  O  O291  1  0.60836501  0.25044314  0.61203690  1
  O  O292  1  0.63844567  0.25971690  0.89972629  1
  O  O293  1  0.65065076  0.50120712  0.14820014  1
  O  O294  1  0.63510925  0.51710639  0.34002912  1
  O  O295  1  0.65767670  0.49224088  0.62534418  1
  O  O296  1  0.60998522  0.49437494  0.87283672  1
  O  O297  1  0.58786335  0.75444525  0.11931888  1
  O  O298  1  0.59153266  0.75115151  0.39264974  1
  O  O299  1  0.60037022  0.74968797  0.61815629  1
  O  O300  1  0.61548956  0.74653373  0.87954427  1
  O  O301  1  0.84054831  -0.00846149  0.10789837  1
  O  O302  1  0.85495685  -0.01143506  0.37425476  1
  O  O303  1  0.86139033  0.00057604  0.63755151  1
  O  O304  1  0.87076670  -0.00148281  0.91053969  1
  O  O305  1  0.90505881  0.25677031  0.13105677  1
  O  O306  1  0.92085399  0.23696864  0.38460221  1
  O  O307  1  0.89614498  0.24027816  0.63466642  1
  O  O308  1  0.88319513  0.25276057  0.85505394  1
  O  O309  1  0.83378531  0.49981686  0.09761822  1
  O  O310  1  0.86075556  0.49754755  0.38440541  1
  O  O311  1  0.84148126  0.49449625  0.61080451  1
  O  O312  1  0.88647256  0.49855059  0.89412824  1
  O  O313  1  0.86937912  0.75003733  0.13736425  1
  O  O314  1  0.85479203  0.75076276  0.33715137  1
  O  O315  1  0.88977724  0.73788266  0.65562880  1
  O  O316  1  0.87100868  0.74992728  0.84917534  1
