# generated using pymatgen
data_Mg32Ti42(Bi17O64)3
_symmetry_space_group_name_H-M   'P 1'
_cell_length_a   15.96801341
_cell_length_b   15.95510062
_cell_length_c   15.91666621
_cell_angle_alpha   90.02521409
_cell_angle_beta   89.87589662
_cell_angle_gamma   90.03980502
_symmetry_Int_Tables_number   1
_chemical_formula_structural   Mg32Ti42(Bi17O64)3
_chemical_formula_sum   'Mg32 Ti42 Bi51 O192'
_cell_volume   4055.09823527
_cell_formula_units_Z   1
loop_
 _symmetry_equiv_pos_site_id
 _symmetry_equiv_pos_as_xyz
  1  'x, y, z'
loop_
 _atom_site_type_symbol
 _atom_site_label
 _atom_site_symmetry_multiplicity
 _atom_site_fract_x
 _atom_site_fract_y
 _atom_site_fract_z
 _atom_site_occupancy
  Mg  Mg0  1  0.87544590  0.11366614  0.12110012  1
  Mg  Mg1  1  0.61681639  0.38171099  0.36359055  1
  Mg  Mg2  1  0.11147642  0.62401236  0.62492066  1
  Mg  Mg3  1  0.36855286  0.36790843  0.12251919  1
  Mg  Mg4  1  0.63134061  0.87913148  0.63992143  1
  Mg  Mg5  1  0.12224734  0.62627673  0.12459000  1
  Mg  Mg6  1  0.36870935  0.87465955  0.63349604  1
  Mg  Mg7  1  0.13006780  0.12054059  0.87632731  1
  Mg  Mg8  1  0.12664946  0.37207389  0.63265639  1
  Mg  Mg9  1  0.38826124  0.62716058  0.62793406  1
  Mg  Mg10  1  0.11604442  0.61970064  0.37945187  1
  Mg  Mg11  1  0.62640127  0.62833107  0.11565034  1
  Mg  Mg12  1  0.87064071  0.36564318  0.87788994  1
  Mg  Mg13  1  0.61695403  0.86501055  0.37123351  1
  Mg  Mg14  1  0.87364328  0.37784204  0.62442962  1
  Mg  Mg15  1  0.61683119  0.62976225  0.87490694  1
  Mg  Mg16  1  0.37820595  0.12664795  0.63773708  1
  Mg  Mg17  1  0.88499826  0.88106285  0.88393927  1
  Mg  Mg18  1  0.36681465  0.62774241  0.11703339  1
  Mg  Mg19  1  0.22859739  0.02885959  0.72790364  1
  Mg  Mg20  1  0.29768435  0.00189881  0.54618187  1
  Mg  Mg21  1  0.75568845  -0.04973111  0.79511083  1
  Mg  Mg22  1  0.42058848  0.75389694  0.74820284  1
  Mg  Mg23  1  0.21556323  0.73444907  0.73334994  1
  Mg  Mg24  1  0.31223146  0.27245023  -0.03463137  1
  Mg  Mg25  1  0.54423939  0.76106379  0.53572788  1
  Mg  Mg26  1  0.78541163  0.21830609  0.00280778  1
  Mg  Mg27  1  0.01512177  -0.00743269  -0.03341737  1
  Mg  Mg28  1  0.23426441  -0.00058134  0.05121115  1
  Mg  Mg29  1  0.69104006  0.28912524  0.68795283  1
  Mg  Mg30  1  -0.01630507  0.77660368  0.56028762  1
  Mg  Mg31  1  0.50197125  0.75537389  -0.02578482  1
  Ti  Ti32  1  0.11159784  0.36005821  0.87777101  1
  Ti  Ti33  1  0.37312603  0.12097011  0.38524286  1
  Ti  Ti34  1  0.86972108  0.35714122  0.11859544  1
  Ti  Ti35  1  0.61469041  0.11183013  0.37912850  1
  Ti  Ti36  1  0.86692856  0.61957213  0.11973646  1
  Ti  Ti37  1  0.35905045  0.13044140  0.11183965  1
  Ti  Ti38  1  0.87790199  0.62020030  0.86568168  1
  Ti  Ti39  1  0.12951480  0.86421027  0.40017159  1
  Ti  Ti40  1  0.37419409  0.62427281  0.37953104  1
  Ti  Ti41  1  0.14511726  0.89447048  0.87239752  1
  Ti  Ti42  1  0.12382381  0.13135510  0.63597002  1
  Ti  Ti43  1  0.12916355  0.61667335  0.86665079  1
  Ti  Ti44  1  0.63031547  0.11537144  0.13052654  1
  Ti  Ti45  1  0.88479409  0.62654193  0.62612366  1
  Ti  Ti46  1  0.62720989  0.63467141  0.64093340  1
  Ti  Ti47  1  0.37258240  0.87265427  0.88161220  1
  Ti  Ti48  1  0.12952908  0.12027777  0.38344866  1
  Ti  Ti49  1  0.12877868  0.37602798  0.37598378  1
  Ti  Ti50  1  0.36730748  0.37342195  0.61542735  1
  Ti  Ti51  1  0.89145304  0.86128158  0.38438099  1
  Ti  Ti52  1  0.36997819  0.86976862  0.11531384  1
  Ti  Ti53  1  0.89396145  0.87784250  0.11679956  1
  Ti  Ti54  1  0.38946084  0.63104643  0.88022859  1
  Ti  Ti55  1  0.64318391  0.12306648  0.87385348  1
  Ti  Ti56  1  0.37139948  0.86581328  0.38739769  1
  Ti  Ti57  1  0.86881344  0.61769476  0.38693209  1
  Ti  Ti58  1  0.62432024  0.62866447  0.37600991  1
  Ti  Ti59  1  0.11648461  0.12262714  0.12236563  1
  Ti  Ti60  1  0.61822725  0.12250960  0.62964560  1
  Ti  Ti61  1  0.12274712  0.36171582  0.12354992  1
  Ti  Ti62  1  0.87658028  0.37444870  0.36852952  1
  Ti  Ti63  1  0.61901662  0.37009251  0.12366746  1
  Ti  Ti64  1  0.63553126  0.36267093  0.87950220  1
  Ti  Ti65  1  0.35151559  0.11503212  0.87925918  1
  Ti  Ti66  1  0.12869035  0.86923559  0.11135971  1
  Ti  Ti67  1  0.85382595  0.11975219  0.62692080  1
  Ti  Ti68  1  0.62403209  0.87182894  0.87777945  1
  Ti  Ti69  1  0.62215126  0.86891490  0.12615331  1
  Ti  Ti70  1  0.13447099  0.88826942  0.63173263  1
  Ti  Ti71  1  0.37376054  0.38213673  0.37166260  1
  Ti  Ti72  1  0.86521159  0.88266853  0.62954476  1
  Ti  Ti73  1  0.86947113  0.11858627  0.87233904  1
  Bi  Bi74  1  -0.00590553  0.72641616  -0.01072038  1
  Bi  Bi75  1  0.24962844  0.21645034  0.52206615  1
  Bi  Bi76  1  0.28809130  0.50701023  0.74173911  1
  Bi  Bi77  1  0.47264074  0.24774579  0.27058809  1
  Bi  Bi78  1  0.01254346  0.48321015  0.52353989  1
  Bi  Bi79  1  0.47929800  -0.01765187  0.26092658  1
  Bi  Bi80  1  0.79011474  -0.00691743  0.26196304  1
  Bi  Bi81  1  -0.01444085  0.00438002  0.75185782  1
  Bi  Bi82  1  0.51587413  0.52869096  0.51458961  1
  Bi  Bi83  1  -0.00143428  0.21969650  -0.00916671  1
  Bi  Bi84  1  0.00919290  0.48672235  0.00905301  1
  Bi  Bi85  1  0.74524375  0.24299511  0.46808733  1
  Bi  Bi86  1  0.24967652  -0.02287129  0.26680158  1
  Bi  Bi87  1  0.49673000  0.73201278  0.21564010  1
  Bi  Bi88  1  0.74544264  0.73258550  -0.01004168  1
  Bi  Bi89  1  0.74409343  0.47415222  0.22953586  1
  Bi  Bi90  1  0.75161978  0.73775274  0.24913593  1
  Bi  Bi91  1  0.74598218  0.74927114  0.49586916  1
  Bi  Bi92  1  0.72984748  0.47135882  0.74497505  1
  Bi  Bi93  1  0.50335934  -0.02668723  0.53318127  1
  Bi  Bi94  1  0.73139054  0.47703731  0.48365300  1
  Bi  Bi95  1  0.00992692  0.48793836  0.25807925  1
  Bi  Bi96  1  0.50732414  0.45822139  0.74007137  1
  Bi  Bi97  1  0.75575654  0.21696162  0.24840380  1
  Bi  Bi98  1  0.74779155  -0.02998241  0.01199163  1
  Bi  Bi99  1  -0.03569582  0.02540519  0.48154297  1
  Bi  Bi100  1  0.46818753  -0.00246352  0.76274370  1
  Bi  Bi101  1  0.01990410  0.76980406  0.77224076  1
  Bi  Bi102  1  0.53225625  0.28904096  0.51051284  1
  Bi  Bi103  1  0.22732809  0.24634634  0.27013001  1
  Bi  Bi104  1  0.03544525  -0.02636166  0.25224494  1
  Bi  Bi105  1  0.25821099  0.72620182  0.53256281  1
  Bi  Bi106  1  0.24155075  0.49610206  0.22198066  1
  Bi  Bi107  1  -0.02730715  0.24934054  0.74211263  1
  Bi  Bi108  1  -0.00310164  0.48173506  0.75422717  1
  Bi  Bi109  1  0.51043253  0.23215764  0.76992054  1
  Bi  Bi110  1  0.23130920  0.72598109  0.26381879  1
  Bi  Bi111  1  0.47480545  0.46747428  -0.02299427  1
  Bi  Bi112  1  -0.01720979  0.71686266  0.25088236  1
  Bi  Bi113  1  -0.03068336  0.25096379  0.51654685  1
  Bi  Bi114  1  0.74852798  0.73697258  0.74290085  1
  Bi  Bi115  1  0.72580779  0.49993393  -0.00852968  1
  Bi  Bi116  1  0.23515636  0.72649466  -0.01883638  1
  Bi  Bi117  1  0.72699566  -0.01763278  0.48283591  1
  Bi  Bi118  1  -0.02435582  0.20426421  0.26489796  1
  Bi  Bi119  1  0.27104284  0.27099157  0.77089174  1
  Bi  Bi120  1  0.51220433  0.21854163  0.01169608  1
  Bi  Bi121  1  0.24020241  0.50623350  0.51131711  1
  Bi  Bi122  1  0.48561474  -0.00552726  0.01101817  1
  Bi  Bi123  1  0.47794000  0.50759585  0.22248163  1
  Bi  Bi124  1  0.25477074  0.47200041  -0.02725766  1
  O  O125  1  0.08621472  0.10341030  0.00460189  1
  O  O126  1  0.13504550  0.14615882  0.24487149  1
  O  O127  1  0.13294252  0.12082086  0.49646633  1
  O  O128  1  0.14447649  0.13851191  0.74801159  1
  O  O129  1  0.12126139  0.40524606  0.00058503  1
  O  O130  1  0.11810975  0.34917769  0.24216663  1
  O  O131  1  0.13060576  0.40233562  0.49079129  1
  O  O132  1  0.09651962  0.36908482  0.76147040  1
  O  O133  1  0.14714010  0.61605139  -0.00680602  1
  O  O134  1  0.11331531  0.66062060  0.25364786  1
  O  O135  1  0.12268645  0.58186671  0.49892137  1
  O  O136  1  0.11223071  0.65391751  0.75235833  1
  O  O137  1  0.12337988  0.92141941  -0.00455115  1
  O  O138  1  0.14302257  0.87397471  0.23558061  1
  O  O139  1  0.11849202  0.89021336  0.51069486  1
  O  O140  1  0.14716926  0.84168508  0.75778503  1
  O  O141  1  0.40775906  0.12178784  -0.01390012  1
  O  O142  1  0.37239137  0.14554973  0.22702230  1
  O  O143  1  0.36669118  0.10797452  0.49758882  1
  O  O144  1  0.34323322  0.09068325  0.75992772  1
  O  O145  1  0.36449730  0.38734092  -0.00448462  1
  O  O146  1  0.37767003  0.34961842  0.24827552  1
  O  O147  1  0.37089140  0.37973894  0.49783852  1
  O  O148  1  0.34797030  0.37927403  0.74805947  1
  O  O149  1  0.33900956  0.63234731  -0.00640426  1
  O  O150  1  0.40542050  0.63261799  0.26093722  1
  O  O151  1  0.36695192  0.61405815  0.49775926  1
  O  O152  1  0.39680467  0.63127073  0.75837486  1
  O  O153  1  0.41778435  0.86123281  0.00034412  1
  O  O154  1  0.36778617  0.89106331  0.23637367  1
  O  O155  1  0.35992393  0.89575794  0.49693660  1
  O  O156  1  0.38456584  0.87393914  0.76152594  1
  O  O157  1  0.61508258  0.11718549  -0.01037160  1
  O  O158  1  0.63232000  0.14047189  0.24574860  1
  O  O159  1  0.61386364  0.09432236  0.49718818  1
  O  O160  1  0.64246365  0.17578311  0.73764966  1
  O  O161  1  0.64144756  0.38420165  -0.00168755  1
  O  O162  1  0.62179841  0.39095956  0.24039909  1
  O  O163  1  0.60341840  0.40834411  0.49272902  1
  O  O164  1  0.61874431  0.37210194  0.75199957  1
  O  O165  1  0.65969990  0.62088175  -0.00564023  1
  O  O166  1  0.62786936  0.65827457  0.25911255  1
  O  O167  1  0.64164021  0.59231096  0.50874524  1
  O  O168  1  0.62436929  0.66572707  0.75293760  1
  O  O169  1  0.61858588  0.91293782  -0.00123085  1
  O  O170  1  0.63640003  0.84645813  0.24036061  1
  O  O171  1  0.62167275  0.89812608  0.50013453  1
  O  O172  1  0.66347567  0.86577337  0.76211517  1
  O  O173  1  0.88279005  0.13154553  -0.00400396  1
  O  O174  1  0.85566601  0.11997901  0.24885367  1
  O  O175  1  0.87818866  0.13020219  0.50559744  1
  O  O176  1  0.88477292  0.12593385  0.74581288  1
  O  O177  1  0.84840577  0.33194270  0.00555784  1
  O  O178  1  0.87464705  0.39673250  0.24884731  1
  O  O179  1  0.87699930  0.36215208  0.49294063  1
  O  O180  1  0.90873961  0.37361748  0.74994633  1
  O  O181  1  0.86598014  0.63783659  -0.00200777  1
  O  O182  1  0.86101241  0.63664551  0.24548774  1
  O  O183  1  0.85985059  0.62676275  0.50230277  1
  O  O184  1  0.89650328  0.64023485  0.75011138  1
  O  O185  1  0.91194698  0.91159761  0.00474625  1
  O  O186  1  0.87040029  0.87752242  0.25400599  1
  O  O187  1  0.91788117  0.86932448  0.50094893  1
  O  O188  1  0.85740656  0.88812215  0.74593009  1
  O  O189  1  0.00098743  0.11326990  0.15243298  1
  O  O190  1  0.01124177  0.11265519  0.36779482  1
  O  O191  1  0.01029003  0.14526902  0.61799455  1
  O  O192  1  -0.00127039  0.08408014  0.87011830  1
  O  O193  1  -0.00931357  0.38907276  0.10776111  1
  O  O194  1  -0.00129300  0.39086759  0.36934072  1
  O  O195  1  0.00385781  0.35542659  0.60135094  1
  O  O196  1  -0.00374895  0.40354290  0.90059958  1
  O  O197  1  -0.01089820  0.62393005  0.13278832  1
  O  O198  1  -0.01219690  0.60747007  0.35091601  1
  O  O199  1  -0.00625346  0.66145923  0.60286481  1
  O  O200  1  0.00537065  0.61163460  0.89521743  1
  O  O201  1  0.00961389  0.88905756  0.13936476  1
  O  O202  1  0.01582060  0.87660935  0.35688769  1
  O  O203  1  0.01096485  0.85942017  0.65169880  1
  O  O204  1  0.01846842  0.90798057  0.85482955  1
  O  O205  1  0.24587693  0.12090898  0.09719331  1
  O  O206  1  0.25351105  0.13521455  0.36566072  1
  O  O207  1  0.24794820  0.10181320  0.61036336  1
  O  O208  1  0.25086848  0.14981197  0.91139243  1
  O  O209  1  0.23870666  0.38565355  0.12167657  1
  O  O210  1  0.24804470  0.36847001  0.36422687  1
  O  O211  1  0.24588975  0.41801908  0.62430402  1
  O  O212  1  0.23400596  0.34879985  0.89282470  1
  O  O213  1  0.24739018  0.62833478  0.16315604  1
  O  O214  1  0.25642439  0.62663766  0.35907140  1
  O  O215  1  0.24413949  0.60908897  0.61580985  1
  O  O216  1  0.24331607  0.66778380  0.85087059  1
  O  O217  1  0.25403589  0.87680770  0.09559474  1
  O  O218  1  0.24985696  0.87717648  0.36511891  1
  O  O219  1  0.24678546  0.92271350  0.63490164  1
  O  O220  1  0.25993953  0.85634178  0.89658464  1
  O  O221  1  0.50787808  0.11473084  0.11369325  1
  O  O222  1  0.49538539  0.11728352  0.35587832  1
  O  O223  1  0.50257060  0.15435123  0.64579628  1
  O  O224  1  0.51399877  0.11660926  0.84145201  1
  O  O225  1  0.50420879  0.40392695  0.10940058  1
  O  O226  1  0.49143790  0.36471695  0.36661649  1
  O  O227  1  0.48242162  0.36052388  0.64008920  1
  O  O228  1  0.51007991  0.38513410  0.87724635  1
  O  O229  1  0.50244606  0.61493212  0.13412829  1
  O  O230  1  0.50903358  0.60374987  0.39389194  1
  O  O231  1  0.51152852  0.65364950  0.59939937  1
  O  O232  1  0.49670719  0.62494720  0.91768735  1
  O  O233  1  0.50295455  0.90794038  0.13774303  1
  O  O234  1  0.48959058  0.88438552  0.35850027  1
  O  O235  1  0.49872180  0.85447048  0.60837326  1
  O  O236  1  0.51464636  0.90089469  0.86405588  1
  O  O237  1  0.74451394  0.15722671  0.10977287  1
  O  O238  1  0.73493099  0.14118679  0.37399690  1
  O  O239  1  0.74404334  0.10482426  0.61940859  1
  O  O240  1  0.75695025  0.15884217  0.89183224  1
  O  O241  1  0.74993352  0.36322248  0.14299191  1
  O  O242  1  0.74596651  0.36442822  0.38608054  1
  O  O243  1  0.75210876  0.38606503  0.63979558  1
  O  O244  1  0.74854815  0.36414365  0.84357471  1
  O  O245  1  0.75032575  0.66599779  0.12789594  1
  O  O246  1  0.75091777  0.65990732  0.37505812  1
  O  O247  1  0.75450928  0.62434926  0.64986461  1
  O  O248  1  0.76304108  0.66158851  0.86231236  1
  O  O249  1  0.74423972  0.85983032  0.09713330  1
  O  O250  1  0.76295999  0.86165227  0.40283823  1
  O  O251  1  0.75641787  0.89908229  0.59915549  1
  O  O252  1  0.75514126  0.87217016  0.90432822  1
  O  O253  1  0.14052383  0.00585175  0.14221686  1
  O  O254  1  0.13820376  -0.00007293  0.35711663  1
  O  O255  1  0.10850071  0.00229355  0.66186353  1
  O  O256  1  0.17372331  -0.00233176  0.84095892  1
  O  O257  1  0.11389846  0.24868185  0.09977474  1
  O  O258  1  0.12910154  0.25119489  0.37785949  1
  O  O259  1  0.15510686  0.24821996  0.61532775  1
  O  O260  1  0.09287847  0.24826517  0.88892763  1
  O  O261  1  0.11724988  0.49914155  0.15155722  1
  O  O262  1  0.12616975  0.49289544  0.33660124  1
  O  O263  1  0.08274305  0.49810620  0.64114188  1
  O  O264  1  0.15184453  0.50536591  0.85643849  1
  O  O265  1  0.12249532  0.75789996  0.09671191  1
  O  O266  1  0.13728783  0.75163342  0.40037796  1
  O  O267  1  0.15551829  0.75780249  0.61602533  1
  O  O268  1  0.10058259  0.75937165  0.89866285  1
  O  O269  1  0.36207083  0.00202849  0.09372079  1
  O  O270  1  0.36619706  0.00355656  0.35289159  1
  O  O271  1  0.40057814  0.00026779  0.62668517  1
  O  O272  1  0.38026362  -0.00686114  0.88889485  1
  O  O273  1  0.37281335  0.24592188  0.07998009  1
  O  O274  1  0.38339433  0.24132234  0.37677893  1
  O  O275  1  0.33882493  0.25467840  0.63056237  1
  O  O276  1  0.37709203  0.23563616  0.85690291  1
  O  O277  1  0.36694303  0.50060062  0.14407188  1
  O  O278  1  0.37203003  0.49675183  0.35602911  1
  O  O279  1  0.39122900  0.49980466  0.64352281  1
  O  O280  1  0.35877942  0.51259529  0.87382762  1
  O  O281  1  0.38625227  0.75479134  0.12978253  1
  O  O282  1  0.37391214  0.75037889  0.38702646  1
  O  O283  1  0.33650137  0.75037002  0.64763347  1
  O  O284  1  0.40866443  0.75536809  0.87565041  1
  O  O285  1  0.65326030  0.00373437  0.13644063  1
  O  O286  1  0.63669837  -0.00179811  0.35904827  1
  O  O287  1  0.59293708  0.00627005  0.64236590  1
  O  O288  1  0.66176349  0.01455567  0.84930635  1
  O  O289  1  0.60030377  0.25660591  0.11887050  1
  O  O290  1  0.61649480  0.24851522  0.40451266  1
  O  O291  1  0.64141950  0.24230327  0.58193393  1
  O  O292  1  0.60609627  0.25021346  0.88439049  1
  O  O293  1  0.65836284  0.50401142  0.11972084  1
  O  O294  1  0.65897940  0.51279382  0.36699862  1
  O  O295  1  0.60591391  0.51736652  0.65922181  1
  O  O296  1  0.64340833  0.50030934  0.87067274  1
  O  O297  1  0.58122359  0.76146010  0.09237252  1
  O  O298  1  0.61490782  0.74372143  0.42697310  1
  O  O299  1  0.64979421  0.75305725  0.60688554  1
  O  O300  1  0.61145593  0.76181234  0.90917983  1
  O  O301  1  0.84627474  -0.00778036  0.13540584  1
  O  O302  1  0.87480635  -0.01322384  0.38458373  1
  O  O303  1  0.89684133  0.00402486  0.61452756  1
  O  O304  1  0.84929944  0.00640216  0.86134859  1
  O  O305  1  0.88949193  0.24910608  0.14832546  1
  O  O306  1  0.87546128  0.25831071  0.35554675  1
  O  O307  1  0.87550328  0.24378170  0.62598524  1
  O  O308  1  0.91238003  0.24019163  0.86851235  1
  O  O309  1  0.85066236  0.50627336  0.11438503  1
  O  O310  1  0.84729845  0.50349357  0.38222013  1
  O  O311  1  0.90490183  0.50983734  0.63198901  1
  O  O312  1  0.85794333  0.50942045  0.86763090  1
  O  O313  1  0.89195665  0.76310647  0.11588403  1
  O  O314  1  0.89499262  0.74578287  0.37350413  1
  O  O315  1  0.86324078  0.76310359  0.61814481  1
  O  O316  1  0.91204850  0.75790682  0.88421115  1
