# generated using pymatgen
data_Mg32Ti42(Bi17O64)3
_symmetry_space_group_name_H-M   'P 1'
_cell_length_a   15.93929441
_cell_length_b   15.92486094
_cell_length_c   15.94606928
_cell_angle_alpha   90.07428005
_cell_angle_beta   89.92564979
_cell_angle_gamma   90.08855916
_symmetry_Int_Tables_number   1
_chemical_formula_structural   Mg32Ti42(Bi17O64)3
_chemical_formula_sum   'Mg32 Ti42 Bi51 O192'
_cell_volume   4047.59582546
_cell_formula_units_Z   1
loop_
 _symmetry_equiv_pos_site_id
 _symmetry_equiv_pos_as_xyz
  1  'x, y, z'
loop_
 _atom_site_type_symbol
 _atom_site_label
 _atom_site_symmetry_multiplicity
 _atom_site_fract_x
 _atom_site_fract_y
 _atom_site_fract_z
 _atom_site_occupancy
  Mg  Mg0  1  0.12011988  0.87862211  0.87981711  1
  Mg  Mg1  1  0.11932364  0.62466156  0.38455654  1
  Mg  Mg2  1  0.61939444  0.87949593  0.37541123  1
  Mg  Mg3  1  0.38602943  0.87990853  0.88038746  1
  Mg  Mg4  1  0.37346685  0.62206227  0.36139490  1
  Mg  Mg5  1  0.11641137  0.62099375  0.12097997  1
  Mg  Mg6  1  0.37628993  0.36774707  0.37459510  1
  Mg  Mg7  1  0.62459511  0.88081944  0.12636767  1
  Mg  Mg8  1  0.37554806  0.12606304  0.12810535  1
  Mg  Mg9  1  0.62931378  0.12716249  0.11333552  1
  Mg  Mg10  1  0.38278391  0.62137157  0.61872708  1
  Mg  Mg11  1  0.87753527  0.13909352  0.13750854  1
  Mg  Mg12  1  0.63013330  0.62604688  0.36213630  1
  Mg  Mg13  1  0.37499732  0.36843660  0.86712300  1
  Mg  Mg14  1  0.63398786  0.86300404  0.87101332  1
  Mg  Mg15  1  0.12004158  0.62563500  0.87895076  1
  Mg  Mg16  1  0.86956216  0.62333780  0.87592428  1
  Mg  Mg17  1  0.62344182  0.12579510  0.38281572  1
  Mg  Mg18  1  0.13220368  0.11681623  0.10701825  1
  Mg  Mg19  1  0.71137041  0.23966426  0.26487102  1
  Mg  Mg20  1  0.53794751  0.47765691  0.05354007  1
  Mg  Mg21  1  0.27088982  0.20338392  0.76854055  1
  Mg  Mg22  1  0.54016295  0.25109278  0.19508734  1
  Mg  Mg23  1  0.35014376  0.50241665  -0.00965323  1
  Mg  Mg24  1  0.48917422  0.73524543  0.43421980  1
  Mg  Mg25  1  0.73943856  0.05795375  0.23982587  1
  Mg  Mg26  1  0.73971857  0.75600009  0.71858704  1
  Mg  Mg27  1  0.76383709  -0.03765738  0.06879244  1
  Mg  Mg28  1  0.24106927  -0.05605207  0.48061469  1
  Mg  Mg29  1  0.03742680  0.19230055  0.23406279  1
  Mg  Mg30  1  0.75006396  0.82719957  0.25063561  1
  Mg  Mg31  1  -0.00514207  0.54555385  0.54745198  1
  Ti  Ti32  1  0.13459856  0.37408691  0.87673320  1
  Ti  Ti33  1  0.13282025  0.38533971  0.12634634  1
  Ti  Ti34  1  0.13208771  0.62876812  0.62635244  1
  Ti  Ti35  1  0.38303112  0.37485218  0.62981263  1
  Ti  Ti36  1  0.38948653  0.12544193  0.88335582  1
  Ti  Ti37  1  0.12097339  0.86519571  0.36860584  1
  Ti  Ti38  1  0.63386883  0.12323686  0.62915998  1
  Ti  Ti39  1  0.87374666  0.61304341  0.12617378  1
  Ti  Ti40  1  0.88823515  0.37181978  0.12992135  1
  Ti  Ti41  1  0.86888334  0.62904535  0.35861822  1
  Ti  Ti42  1  0.13081919  0.86869196  0.62256066  1
  Ti  Ti43  1  0.86806891  0.63544587  0.63500586  1
  Ti  Ti44  1  0.62852569  0.38412911  0.62826441  1
  Ti  Ti45  1  0.12666934  0.12321558  0.87592655  1
  Ti  Ti46  1  0.64039685  0.12962795  0.87624329  1
  Ti  Ti47  1  0.11965428  0.38345640  0.62796503  1
  Ti  Ti48  1  0.38270062  0.87475467  0.12379764  1
  Ti  Ti49  1  0.37730704  0.86861690  0.62592558  1
  Ti  Ti50  1  0.13474123  0.12148737  0.62676487  1
  Ti  Ti51  1  0.39155758  0.62077072  0.13374507  1
  Ti  Ti52  1  0.87649046  0.12626500  0.62859674  1
  Ti  Ti53  1  0.88057812  0.36546204  0.38012593  1
  Ti  Ti54  1  0.36942693  0.12304286  0.62650190  1
  Ti  Ti55  1  0.11458008  0.36410929  0.37257753  1
  Ti  Ti56  1  0.62419531  0.36660052  0.38691847  1
  Ti  Ti57  1  0.12047213  0.87363879  0.11301195  1
  Ti  Ti58  1  0.36961309  0.37610726  0.12968693  1
  Ti  Ti59  1  0.87657371  0.87332470  0.38330053  1
  Ti  Ti60  1  0.63499102  0.62123422  0.12832586  1
  Ti  Ti61  1  0.87107549  0.14051902  0.87393342  1
  Ti  Ti62  1  0.62304415  0.62438790  0.63442078  1
  Ti  Ti63  1  0.62175417  0.36961758  0.86793298  1
  Ti  Ti64  1  0.86410761  0.86561731  0.87123419  1
  Ti  Ti65  1  0.61454172  0.86675652  0.62152600  1
  Ti  Ti66  1  0.13254721  0.11939052  0.37736923  1
  Ti  Ti67  1  0.87801867  0.38805933  0.61640720  1
  Ti  Ti68  1  0.36761036  0.87593536  0.36022021  1
  Ti  Ti69  1  0.88354867  0.37788430  0.87416880  1
  Ti  Ti70  1  0.87917114  0.13558916  0.36697386  1
  Ti  Ti71  1  0.37443243  0.12259851  0.36123619  1
  Ti  Ti72  1  0.63141075  0.62096930  0.89121237  1
  Ti  Ti73  1  0.88166428  0.87141376  0.62376884  1
  Bi  Bi74  1  0.51207707  0.74115345  -0.01246029  1
  Bi  Bi75  1  0.01153931  0.50340180  -0.00031238  1
  Bi  Bi76  1  0.76138842  -0.02153120  0.73791374  1
  Bi  Bi77  1  0.76443682  0.76625578  0.03188833  1
  Bi  Bi78  1  0.24957490  0.27233239  0.50165744  1
  Bi  Bi79  1  -0.02409668  0.75818757  0.21727419  1
  Bi  Bi80  1  0.54201140  0.02197202  0.24575754  1
  Bi  Bi81  1  0.01528215  0.24373878  0.01863180  1
  Bi  Bi82  1  0.74298970  0.46452070  0.00540950  1
  Bi  Bi83  1  0.49239777  0.50214730  0.77977477  1
  Bi  Bi84  1  0.01970541  0.00245707  0.49321118  1
  Bi  Bi85  1  0.47176120  -0.01494407  0.48837836  1
  Bi  Bi86  1  0.27781388  0.72280643  -0.00287923  1
  Bi  Bi87  1  0.75344560  0.24669894  0.03835516  1
  Bi  Bi88  1  0.23840757  0.50585657  0.28383066  1
  Bi  Bi89  1  0.23020930  0.73643909  0.22311118  1
  Bi  Bi90  1  0.02372695  0.24950792  0.76309317  1
  Bi  Bi91  1  0.51941233  -0.00958974  0.74901440  1
  Bi  Bi92  1  0.76492438  0.27057442  0.73194741  1
  Bi  Bi93  1  -0.04317490  0.00383899  -0.00839714  1
  Bi  Bi94  1  0.54443991  -0.01316157  -0.01459534  1
  Bi  Bi95  1  -0.01392089  0.73422756  -0.01034372  1
  Bi  Bi96  1  0.01720830  0.24300535  0.52035306  1
  Bi  Bi97  1  0.25842928  0.73724513  0.78560844  1
  Bi  Bi98  1  0.75613374  0.45958453  0.25971333  1
  Bi  Bi99  1  0.74576454  0.51997829  0.76923312  1
  Bi  Bi100  1  0.01776525  0.50998124  0.26487198  1
  Bi  Bi101  1  0.51880119  0.26073681  0.00932469  1
  Bi  Bi102  1  0.72221632  0.76225471  0.48377202  1
  Bi  Bi103  1  0.22929833  -0.00039836  0.22693687  1
  Bi  Bi104  1  0.25926164  0.50223202  0.50270723  1
  Bi  Bi105  1  0.73619701  0.52327635  0.49014502  1
  Bi  Bi106  1  0.29111495  0.73555466  0.49375103  1
  Bi  Bi107  1  0.23809521  0.24191469  0.23687219  1
  Bi  Bi108  1  0.74126085  0.23954311  0.50546024  1
  Bi  Bi109  1  0.25387683  -0.02765695  0.75269558  1
  Bi  Bi110  1  0.47791844  0.23305866  0.48664029  1
  Bi  Bi111  1  -0.04594914  -0.01908649  0.22822632  1
  Bi  Bi112  1  0.46786702  0.72408911  0.76105939  1
  Bi  Bi113  1  0.49313347  0.23527655  0.73409107  1
  Bi  Bi114  1  0.01053509  0.51920543  0.76237355  1
  Bi  Bi115  1  0.76683343  0.00465104  0.49201432  1
  Bi  Bi116  1  0.53139310  0.74825504  0.22825345  1
  Bi  Bi117  1  -0.00484954  0.73780153  0.48798296  1
  Bi  Bi118  1  0.00385692  -0.00388535  0.76559226  1
  Bi  Bi119  1  0.27238411  0.25905942  -0.00405959  1
  Bi  Bi120  1  0.27855722  -0.00651707  -0.00588707  1
  Bi  Bi121  1  0.27831985  0.51716603  0.78870296  1
  Bi  Bi122  1  0.51761986  0.44875456  0.24387386  1
  Bi  Bi123  1  0.48821006  0.51988161  0.47281132  1
  Bi  Bi124  1  0.01669407  0.75304033  0.76091684  1
  O  O125  1  0.13991479  0.15335428  -0.01300523  1
  O  O126  1  0.11020241  0.08955297  0.26517930  1
  O  O127  1  0.13577788  0.15553040  0.50396157  1
  O  O128  1  0.09336787  0.11620004  0.74289157  1
  O  O129  1  0.13011423  0.34890342  -0.00827180  1
  O  O130  1  0.12947650  0.39667930  0.24459604  1
  O  O131  1  0.11597569  0.34336116  0.48989189  1
  O  O132  1  0.11101815  0.39023199  0.74225450  1
  O  O133  1  0.08090242  0.63026931  -0.00076853  1
  O  O134  1  0.13741053  0.59505961  0.25086535  1
  O  O135  1  0.08602883  0.63314901  0.50814097  1
  O  O136  1  0.13721475  0.60169715  0.74048284  1
  O  O137  1  0.11897005  0.85442404  0.00396070  1
  O  O138  1  0.11611758  0.89836704  0.25968226  1
  O  O139  1  0.13877920  0.86234677  0.50644840  1
  O  O140  1  0.11832507  0.90696186  0.74398009  1
  O  O141  1  0.34047043  0.13353347  -0.00144125  1
  O  O142  1  0.39842837  0.10390983  0.25511591  1
  O  O143  1  0.36001097  0.15578469  0.51506180  1
  O  O144  1  0.39192372  0.12486949  0.75911648  1
  O  O145  1  0.36874085  0.36963477  -0.00102716  1
  O  O146  1  0.38278505  0.39532302  0.24756618  1
  O  O147  1  0.37676244  0.33970885  0.50784987  1
  O  O148  1  0.36249960  0.41161299  0.73931386  1
  O  O149  1  0.37220838  0.62737795  0.01247445  1
  O  O150  1  0.34410158  0.60852497  0.24021326  1
  O  O151  1  0.40704490  0.65704562  0.49900574  1
  O  O152  1  0.36288928  0.62885994  0.74250516  1
  O  O153  1  0.35085897  0.87003228  0.00734189  1
  O  O154  1  0.37650106  0.88933580  0.24953070  1
  O  O155  1  0.34855965  0.87281630  0.50490626  1
  O  O156  1  0.38254764  0.89657608  0.74518750  1
  O  O157  1  0.64352222  0.10125319  -0.01055642  1
  O  O158  1  0.60072983  0.15228843  0.25233744  1
  O  O159  1  0.66001347  0.11380750  0.50800240  1
  O  O160  1  0.59838074  0.13516467  0.75114390  1
  O  O161  1  0.61109548  0.40328086  -0.01610425  1
  O  O162  1  0.60519665  0.33850775  0.26320907  1
  O  O163  1  0.63452180  0.39703918  0.50571362  1
  O  O164  1  0.64163452  0.34841662  0.74757478  1
  O  O165  1  0.59253626  0.59629004  0.00122140  1
  O  O166  1  0.64085380  0.66180382  0.23921533  1
  O  O167  1  0.61860302  0.59357616  0.51299588  1
  O  O168  1  0.66777796  0.64468975  0.74845485  1
  O  O169  1  0.65646371  0.91253267  0.00319283  1
  O  O170  1  0.62283700  0.84839550  0.25084085  1
  O  O171  1  0.64151802  0.88641510  0.50798464  1
  O  O172  1  0.58589496  0.86800060  0.74607265  1
  O  O173  1  0.86733408  0.11226358  -0.00806813  1
  O  O174  1  0.92243265  0.14431086  0.26054923  1
  O  O175  1  0.83817674  0.12290385  0.49944749  1
  O  O176  1  0.89377678  0.12968956  0.74560122  1
  O  O177  1  0.87533618  0.39881433  -0.01013926  1
  O  O178  1  0.87705710  0.37009164  0.24420536  1
  O  O179  1  0.85919610  0.38580188  0.49266238  1
  O  O180  1  0.87041769  0.36356737  0.74105474  1
  O  O181  1  0.90666272  0.61398367  0.00395603  1
  O  O182  1  0.84993104  0.64973587  0.24728619  1
  O  O183  1  0.90701799  0.63112297  0.50694684  1
  O  O184  1  0.84150244  0.63050575  0.74825246  1
  O  O185  1  0.84805923  0.90626602  -0.01573688  1
  O  O186  1  0.87669311  0.86787184  0.26231829  1
  O  O187  1  0.85791356  0.87198776  0.50578982  1
  O  O188  1  0.88178606  0.89921911  0.74403606  1
  O  O189  1  0.00701956  0.13062760  0.11055430  1
  O  O190  1  0.00212843  0.11000786  0.40831703  1
  O  O191  1  -0.00951878  0.11939055  0.59968786  1
  O  O192  1  -0.00201404  0.16382305  0.88232485  1
  O  O193  1  0.00478206  0.37409928  0.10930157  1
  O  O194  1  -0.00514201  0.38549347  0.36989429  1
  O  O195  1  -0.00798929  0.36122840  0.60835166  1
  O  O196  1  -0.00138492  0.34932109  0.87323865  1
  O  O197  1  -0.01121994  0.61717014  0.16197510  1
  O  O198  1  -0.01093859  0.60705451  0.35579944  1
  O  O199  1  -0.00633806  0.63245008  0.65247784  1
  O  O200  1  -0.00486794  0.64058119  0.84232299  1
  O  O201  1  -0.00060165  0.88819824  0.13300554  1
  O  O202  1  -0.00017961  0.89255950  0.39461820  1
  O  O203  1  -0.00300389  0.86861379  0.61768077  1
  O  O204  1  -0.01175343  0.86031238  0.86160982  1
  O  O205  1  0.24590812  0.12637430  0.16378563  1
  O  O206  1  0.25039714  0.13861689  0.35740177  1
  O  O207  1  0.24730658  0.13287538  0.65864334  1
  O  O208  1  0.23677294  0.10172876  0.84748177  1
  O  O209  1  0.25029601  0.39760919  0.12572426  1
  O  O210  1  0.24373360  0.35286430  0.38277127  1
  O  O211  1  0.23749751  0.37703229  0.60388377  1
  O  O212  1  0.24458601  0.40238045  0.87402866  1
  O  O213  1  0.24048162  0.65287511  0.11365794  1
  O  O214  1  0.24731767  0.61525895  0.39665919  1
  O  O215  1  0.24401914  0.61863922  0.59092028  1
  O  O216  1  0.24460010  0.63563276  0.88452560  1
  O  O217  1  0.24156396  0.84901629  0.14470828  1
  O  O218  1  0.24435397  0.87011303  0.37219407  1
  O  O219  1  0.24700387  0.88683279  0.63707795  1
  O  O220  1  0.24866151  0.88953559  0.86016421  1
  O  O221  1  0.49664192  0.15943444  0.10684397  1
  O  O222  1  0.49374023  0.10604150  0.41067926  1
  O  O223  1  0.49408849  0.15022001  0.61959094  1
  O  O224  1  0.49841451  0.14727303  0.89936549  1
  O  O225  1  0.49424542  0.35843288  0.12774011  1
  O  O226  1  0.50751111  0.40003107  0.38299979  1
  O  O227  1  0.50216772  0.36412167  0.63599439  1
  O  O228  1  0.50331312  0.37091755  0.84691309  1
  O  O229  1  0.50407142  0.62340190  0.15272229  1
  O  O230  1  0.50215696  0.61286577  0.36752754  1
  O  O231  1  0.50988641  0.62965006  0.65301576  1
  O  O232  1  0.51505383  0.63097134  0.84730713  1
  O  O233  1  0.49549145  0.89841344  0.11623154  1
  O  O234  1  0.48805198  0.88003766  0.39404112  1
  O  O235  1  0.49381439  0.87123091  0.60277153  1
  O  O236  1  0.51122518  0.86455227  0.91567047  1
  O  O237  1  0.75121236  0.17048364  0.15864954  1
  O  O238  1  0.76204250  0.14168818  0.33587462  1
  O  O239  1  0.74530030  0.11706236  0.65574409  1
  O  O240  1  0.75123147  0.12065140  0.85070440  1
  O  O241  1  0.76096350  0.36594665  0.10695763  1
  O  O242  1  0.74889034  0.34848839  0.34692727  1
  O  O243  1  0.75192140  0.37387485  0.62792822  1
  O  O244  1  0.74831174  0.39899102  0.87863723  1
  O  O245  1  0.74930134  0.63858153  0.09791666  1
  O  O246  1  0.75488059  0.63757391  0.40426852  1
  O  O247  1  0.75601226  0.61363912  0.60001391  1
  O  O248  1  0.74673616  0.59142607  0.89442279  1
  O  O249  1  0.74984702  0.85381764  0.13237258  1
  O  O250  1  0.75415656  0.85004035  0.37371081  1
  O  O251  1  0.73717164  0.87528517  0.65301227  1
  O  O252  1  0.75204643  0.85657078  0.82729285  1
  O  O253  1  0.15275773  -0.00856567  0.11129899  1
  O  O254  1  0.14106157  0.00427144  0.41700539  1
  O  O255  1  0.12703111  0.00753952  0.60141779  1
  O  O256  1  0.08213659  0.01089108  0.88722846  1
  O  O257  1  0.12500749  0.25146183  0.14919980  1
  O  O258  1  0.10479732  0.24283926  0.33681917  1
  O  O259  1  0.10629328  0.24896488  0.63343211  1
  O  O260  1  0.14703695  0.25212524  0.83363679  1
  O  O261  1  0.11351949  0.49648253  0.09768758  1
  O  O262  1  0.12859985  0.48729992  0.37821032  1
  O  O263  1  0.10101480  0.49807086  0.60155393  1
  O  O264  1  0.09459573  0.49405109  0.88073278  1
  O  O265  1  0.10433477  0.75171251  0.15429935  1
  O  O266  1  0.10230335  0.75205301  0.36539719  1
  O  O267  1  0.13057734  0.74992438  0.64681493  1
  O  O268  1  0.12539495  0.75287831  0.84605003  1
  O  O269  1  0.34269470  -0.00537398  0.11624306  1
  O  O270  1  0.35834232  -0.00006415  0.40412011  1
  O  O271  1  0.37785466  0.01022129  0.61272237  1
  O  O272  1  0.38808786  0.00660005  0.90059396  1
  O  O273  1  0.34243071  0.25887572  0.12996320  1
  O  O274  1  0.39900965  0.23936160  0.36889320  1
  O  O275  1  0.36333175  0.25907246  0.66645909  1
  O  O276  1  0.34233722  0.24414883  0.86788456  1
  O  O277  1  0.41025059  0.49847722  0.09982532  1
  O  O278  1  0.36471412  0.49628967  0.40479030  1
  O  O279  1  0.37325522  0.49507523  0.58698962  1
  O  O280  1  0.38593723  0.50138295  0.87391480  1
  O  O281  1  0.39149383  0.74983336  0.12948566  1
  O  O282  1  0.37586438  0.75526311  0.37181864  1
  O  O283  1  0.36008494  0.75566986  0.63111111  1
  O  O284  1  0.37267107  0.75572420  0.86465460  1
  O  O285  1  0.65235204  0.00988823  0.15612931  1
  O  O286  1  0.63842070  0.00550570  0.34098279  1
  O  O287  1  0.61103063  0.00162261  0.64176543  1
  O  O288  1  0.60749744  0.00442740  0.85691780  1
  O  O289  1  0.62532605  0.25252013  0.09126039  1
  O  O290  1  0.62306354  0.25155442  0.41104163  1
  O  O291  1  0.64300460  0.24664564  0.61097851  1
  O  O292  1  0.63250611  0.25209401  0.89488314  1
  O  O293  1  0.62750500  0.50652804  0.14003026  1
  O  O294  1  0.65558051  0.49235872  0.35794006  1
  O  O295  1  0.62857222  0.49731655  0.65689160  1
  O  O296  1  0.61729654  0.50028523  0.84337377  1
  O  O297  1  0.60000539  0.75030430  0.09888410  1
  O  O298  1  0.61010827  0.74697476  0.40784864  1
  O  O299  1  0.64033718  0.74818123  0.62077569  1
  O  O300  1  0.63217168  0.73823617  0.91218769  1
  O  O301  1  0.84106679  0.01760715  0.15910537  1
  O  O302  1  0.86129782  -0.00057987  0.37886385  1
  O  O303  1  0.85286096  -0.00176342  0.61591644  1
  O  O304  1  0.89989189  0.01005119  0.86703798  1
  O  O305  1  0.88777391  0.25763569  0.09625360  1
  O  O306  1  0.88729842  0.25011226  0.39404263  1
  O  O307  1  0.85706136  0.24326051  0.61445294  1
  O  O308  1  0.84971833  0.25508083  0.87546642  1
  O  O309  1  0.86392573  0.49926012  0.13125072  1
  O  O310  1  0.84864043  0.50240445  0.35348483  1
  O  O311  1  0.89356209  0.50204553  0.62177603  1
  O  O312  1  0.89612358  0.49544824  0.84976744  1
  O  O313  1  0.89256990  0.74285967  0.10101267  1
  O  O314  1  0.89890307  0.74947272  0.38230025  1
  O  O315  1  0.85307909  0.75583942  0.64109900  1
  O  O316  1  0.86584800  0.75232614  0.90214774  1
