# generated using pymatgen
data_Mg32Ti42(Bi17O64)3
_symmetry_space_group_name_H-M   'P 1'
_cell_length_a   15.91982032
_cell_length_b   15.95181599
_cell_length_c   15.96956368
_cell_angle_alpha   90.22275248
_cell_angle_beta   89.96075928
_cell_angle_gamma   90.10819790
_symmetry_Int_Tables_number   1
_chemical_formula_structural   Mg32Ti42(Bi17O64)3
_chemical_formula_sum   'Mg32 Ti42 Bi51 O192'
_cell_volume   4055.43259417
_cell_formula_units_Z   1
loop_
 _symmetry_equiv_pos_site_id
 _symmetry_equiv_pos_as_xyz
  1  'x, y, z'
loop_
 _atom_site_type_symbol
 _atom_site_label
 _atom_site_symmetry_multiplicity
 _atom_site_fract_x
 _atom_site_fract_y
 _atom_site_fract_z
 _atom_site_occupancy
  Mg  Mg0  1  0.61918737  0.11841871  0.37960560  1
  Mg  Mg1  1  0.37106975  0.63618901  0.87144694  1
  Mg  Mg2  1  0.37684771  0.12724057  0.11900149  1
  Mg  Mg3  1  0.12557850  0.12506229  0.62166873  1
  Mg  Mg4  1  0.86915516  0.62026081  0.87068762  1
  Mg  Mg5  1  0.62853056  0.12168021  0.86506294  1
  Mg  Mg6  1  0.12983772  0.11481231  0.88036683  1
  Mg  Mg7  1  0.11819151  0.63125743  0.88051723  1
  Mg  Mg8  1  0.11803353  0.62055852  0.61795786  1
  Mg  Mg9  1  0.87629546  0.38130485  0.36598407  1
  Mg  Mg10  1  0.61399737  0.62745821  0.10882047  1
  Mg  Mg11  1  0.13240370  0.37489498  0.87129122  1
  Mg  Mg12  1  0.88289991  0.86836670  0.62519417  1
  Mg  Mg13  1  0.37041374  0.37254367  0.63164414  1
  Mg  Mg14  1  0.88173872  0.87607786  0.36859476  1
  Mg  Mg15  1  0.63415459  0.37338048  0.13983862  1
  Mg  Mg16  1  0.88483490  0.61660689  0.13352946  1
  Mg  Mg17  1  0.36337192  0.37677837  0.86495388  1
  Mg  Mg18  1  0.87068671  0.36843089  0.63558866  1
  Mg  Mg19  1  0.23569301  0.23849243  0.30412592  1
  Mg  Mg20  1  0.22292765  0.02231402  0.72867092  1
  Mg  Mg21  1  0.27002527  0.22467999  0.76813330  1
  Mg  Mg22  1  0.44267466  0.52423952  0.75130381  1
  Mg  Mg23  1  0.72850424  0.52489497  0.19698034  1
  Mg  Mg24  1  0.71542494  0.29688589  0.79822267  1
  Mg  Mg25  1  0.05901878  -0.04022721  0.02113880  1
  Mg  Mg26  1  0.00566049  0.23902470  0.55767097  1
  Mg  Mg27  1  0.27601891  -0.01544707  0.52502406  1
  Mg  Mg28  1  0.80167453  0.28716971  0.49699076  1
  Mg  Mg29  1  0.78435625  0.76458877  0.47148024  1
  Mg  Mg30  1  0.79107290  0.69489780  0.01332356  1
  Mg  Mg31  1  0.24248839  0.54260619  0.79618670  1
  Ti  Ti32  1  0.64362775  0.86284033  0.36626869  1
  Ti  Ti33  1  0.36975930  0.87113919  0.62386963  1
  Ti  Ti34  1  0.37363421  0.63279955  0.13393088  1
  Ti  Ti35  1  0.37571405  0.88114892  0.86016760  1
  Ti  Ti36  1  0.37814395  0.87888676  0.11994788  1
  Ti  Ti37  1  0.87981130  0.12138261  0.12960104  1
  Ti  Ti38  1  0.13592343  0.88509131  0.62031114  1
  Ti  Ti39  1  0.37473268  0.86832503  0.37397984  1
  Ti  Ti40  1  0.63529448  0.63214732  0.87488370  1
  Ti  Ti41  1  0.86675880  0.37746819  0.13537519  1
  Ti  Ti42  1  0.37634812  0.62387327  0.36951490  1
  Ti  Ti43  1  0.37769764  0.61887277  0.61272244  1
  Ti  Ti44  1  0.64534348  0.12360675  0.62160888  1
  Ti  Ti45  1  0.11590173  0.12397657  0.39068767  1
  Ti  Ti46  1  0.87721801  0.13104637  0.63197458  1
  Ti  Ti47  1  0.60754563  0.61252723  0.62558287  1
  Ti  Ti48  1  0.87290293  0.61386533  0.61676925  1
  Ti  Ti49  1  0.64394971  0.62942829  0.37527462  1
  Ti  Ti50  1  0.13504132  0.37819367  0.11494444  1
  Ti  Ti51  1  0.89487647  0.87907295  0.88983902  1
  Ti  Ti52  1  0.14295301  0.87634277  0.85999156  1
  Ti  Ti53  1  0.13488912  0.88921437  0.38734924  1
  Ti  Ti54  1  0.12925950  0.37327190  0.63070478  1
  Ti  Ti55  1  0.87785098  0.12968153  0.86238223  1
  Ti  Ti56  1  0.87176737  0.87701446  0.11998767  1
  Ti  Ti57  1  0.12598610  0.37402457  0.37912459  1
  Ti  Ti58  1  0.12757648  0.62275908  0.12793125  1
  Ti  Ti59  1  0.88351898  0.11967989  0.38151481  1
  Ti  Ti60  1  0.38189409  0.12172337  0.87434406  1
  Ti  Ti61  1  0.87408840  0.61693229  0.37925443  1
  Ti  Ti62  1  0.36415155  0.12129673  0.63679360  1
  Ti  Ti63  1  0.37538079  0.36590177  0.11671535  1
  Ti  Ti64  1  0.87238686  0.37845548  0.86278361  1
  Ti  Ti65  1  0.63060384  0.13748000  0.12714742  1
  Ti  Ti66  1  0.36784304  0.11182345  0.38099601  1
  Ti  Ti67  1  0.12836172  0.61186374  0.37953467  1
  Ti  Ti68  1  0.37181854  0.36916721  0.37557610  1
  Ti  Ti69  1  0.62364679  0.36195299  0.61475186  1
  Ti  Ti70  1  0.12285586  0.13155958  0.11675420  1
  Ti  Ti71  1  0.63265698  0.87079881  0.11418340  1
  Ti  Ti72  1  0.61678313  0.36193966  0.37357520  1
  Ti  Ti73  1  0.63637895  0.87762806  0.88085652  1
  Bi  Bi74  1  0.54269529  0.28350064  -0.02504337  1
  Bi  Bi75  1  0.72821643  0.46769011  -0.02625366  1
  Bi  Bi76  1  0.50910146  0.48821635  0.21989244  1
  Bi  Bi77  1  -0.00364484  0.72868990  0.26384773  1
  Bi  Bi78  1  0.51246540  0.76928289  0.74566077  1
  Bi  Bi79  1  0.03035949  0.49668068  0.75863641  1
  Bi  Bi80  1  0.51001946  0.50584916  0.46755526  1
  Bi  Bi81  1  0.01914508  0.23766743  0.25349547  1
  Bi  Bi82  1  0.50713484  0.22661363  0.52178572  1
  Bi  Bi83  1  0.51078978  0.00773667  0.22632657  1
  Bi  Bi84  1  -0.02356140  -0.01495192  0.51368885  1
  Bi  Bi85  1  0.49143926  0.77162907  -0.02110118  1
  Bi  Bi86  1  -0.02308922  0.48456230  0.00951848  1
  Bi  Bi87  1  -0.02040524  0.72759158  0.75685128  1
  Bi  Bi88  1  -0.00443886  0.72836522  0.01473568  1
  Bi  Bi89  1  0.23383719  0.01693098  0.23126570  1
  Bi  Bi90  1  0.00661484  0.75647631  0.49235764  1
  Bi  Bi91  1  0.00683645  0.47522285  0.25672428  1
  Bi  Bi92  1  0.24568308  0.72295350  0.71984752  1
  Bi  Bi93  1  0.75971502  0.23928989  0.28608358  1
  Bi  Bi94  1  0.50879522  0.76425363  0.23455905  1
  Bi  Bi95  1  0.74586496  0.47194982  0.48904892  1
  Bi  Bi96  1  0.24207543  0.26554679  -0.02494436  1
  Bi  Bi97  1  0.49832467  -0.00924797  0.50939321  1
  Bi  Bi98  1  0.73114730  -0.03916981  0.53018627  1
  Bi  Bi99  1  0.53574082  0.76942462  0.50660429  1
  Bi  Bi100  1  0.48961235  0.51669621  -0.03360003  1
  Bi  Bi101  1  0.00765390  -0.03891973  0.22887352  1
  Bi  Bi102  1  0.77012281  0.24065193  -0.00500223  1
  Bi  Bi103  1  0.27099633  0.48092805  0.24250819  1
  Bi  Bi104  1  0.52759271  0.00366141  0.73109897  1
  Bi  Bi105  1  0.26639112  0.52759933  -0.00444531  1
  Bi  Bi106  1  0.26259689  0.48110005  0.51251411  1
  Bi  Bi107  1  0.25327797  0.73659225  0.49059434  1
  Bi  Bi108  1  0.76848180  0.02147664  -0.01071392  1
  Bi  Bi109  1  0.74644578  0.00981281  0.27316425  1
  Bi  Bi110  1  0.46823860  0.22447403  0.25520299  1
  Bi  Bi111  1  0.51189140  0.02361710  -0.01331637  1
  Bi  Bi112  1  0.25660989  0.23217246  0.52291877  1
  Bi  Bi113  1  0.03792358  0.22955097  0.76463746  1
  Bi  Bi114  1  0.21957287  0.78235091  0.22677715  1
  Bi  Bi115  1  0.22423516  0.76856615  -0.00519489  1
  Bi  Bi116  1  -0.00906989  0.46907770  0.51386119  1
  Bi  Bi117  1  0.75361514  0.73207872  0.21845239  1
  Bi  Bi118  1  0.72010852  0.50051642  0.73868401  1
  Bi  Bi119  1  0.01678845  -0.01470810  0.75825265  1
  Bi  Bi120  1  0.77634403  -0.02539928  0.75422239  1
  Bi  Bi121  1  0.25543590  0.01886663  -0.00445892  1
  Bi  Bi122  1  0.74488742  0.74125230  0.69536827  1
  Bi  Bi123  1  0.00223106  0.25890275  -0.00512772  1
  Bi  Bi124  1  0.50449616  0.30083018  0.76361243  1
  O  O125  1  0.11777930  0.07549785  0.00412209  1
  O  O126  1  0.14474125  0.16252721  0.23734395  1
  O  O127  1  0.08627856  0.13021761  0.49778020  1
  O  O128  1  0.15570950  0.15917106  0.75076420  1
  O  O129  1  0.16228276  0.38842922  -0.00057594  1
  O  O130  1  0.09517236  0.36490912  0.23776097  1
  O  O131  1  0.13795125  0.39403177  0.49194509  1
  O  O132  1  0.10218192  0.36372472  0.74511145  1
  O  O133  1  0.09369441  0.62275957  0.01014399  1
  O  O134  1  0.13015188  0.65685956  0.25325994  1
  O  O135  1  0.10390343  0.61076374  0.49159270  1
  O  O136  1  0.15154464  0.62821550  0.74591049  1
  O  O137  1  0.16292058  0.90051306  -0.01793305  1
  O  O138  1  0.10521256  0.86088439  0.26847169  1
  O  O139  1  0.16118089  0.91916210  0.50775948  1
  O  O140  1  0.09746804  0.86259658  0.74845295  1
  O  O141  1  0.39956274  0.12543164  -0.00866086  1
  O  O142  1  0.36404387  0.11575950  0.25855387  1
  O  O143  1  0.37989903  0.15718445  0.49782299  1
  O  O144  1  0.32849428  0.09781172  0.74506135  1
  O  O145  1  0.35532294  0.35887635  0.00337796  1
  O  O146  1  0.38289055  0.39991842  0.25685735  1
  O  O147  1  0.33862812  0.36281589  0.49423007  1
  O  O148  1  0.41028148  0.40258390  0.74696200  1
  O  O149  1  0.38737311  0.61456333  0.00699705  1
  O  O150  1  0.35226637  0.61143428  0.25507878  1
  O  O151  1  0.39326247  0.64653647  0.50202298  1
  O  O152  1  0.33971880  0.60832379  0.74374581  1
  O  O153  1  0.36077506  0.85590493  0.00717061  1
  O  O154  1  0.40532109  0.88019482  0.26319741  1
  O  O155  1  0.33753623  0.86746757  0.51054706  1
  O  O156  1  0.40954500  0.88703797  0.74869175  1
  O  O157  1  0.60570947  0.13108928  0.00846901  1
  O  O158  1  0.63178657  0.09288460  0.24776448  1
  O  O159  1  0.60302654  0.12126488  0.50452988  1
  O  O160  1  0.63423818  0.09679444  0.73908405  1
  O  O161  1  0.64122433  0.36856786  0.01505604  1
  O  O162  1  0.60242885  0.38715351  0.26246465  1
  O  O163  1  0.61344267  0.39745756  0.49724642  1
  O  O164  1  0.63899347  0.36902811  0.73437202  1
  O  O165  1  0.58921863  0.61676027  -0.01315794  1
  O  O166  1  0.67469279  0.61922389  0.26457321  1
  O  O167  1  0.59845993  0.62151419  0.50933881  1
  O  O168  1  0.64755806  0.62426544  0.75308108  1
  O  O169  1  0.63372058  0.84738576  0.00025748  1
  O  O170  1  0.60072729  0.87604735  0.25262138  1
  O  O171  1  0.66293128  0.83630339  0.49038705  1
  O  O172  1  0.59590928  0.88399806  0.76426054  1
  O  O173  1  0.87494346  0.11713694  0.00515166  1
  O  O174  1  0.86626707  0.15782176  0.24306127  1
  O  O175  1  0.89274099  0.10616857  0.49356407  1
  O  O176  1  0.85460113  0.14098792  0.74868268  1
  O  O177  1  0.86292678  0.40594785  0.00859409  1
  O  O178  1  0.91040347  0.36293261  0.24425719  1
  O  O179  1  0.86984889  0.39924848  0.49242353  1
  O  O180  1  0.83816385  0.34710686  0.75673088  1
  O  O181  1  0.89928716  0.62423593  0.00057096  1
  O  O182  1  0.86784471  0.65495769  0.25742908  1
  O  O183  1  0.89054867  0.59834287  0.50059576  1
  O  O184  1  0.85764075  0.66141830  0.74489091  1
  O  O185  1  0.85569681  0.90375585  -0.00016189  1
  O  O186  1  0.89919039  0.85838370  0.23871558  1
  O  O187  1  0.85981465  0.90448124  0.49887165  1
  O  O188  1  0.89005436  0.88514622  0.76029916  1
  O  O189  1  0.00132070  0.14108283  0.13298374  1
  O  O190  1  -0.00033448  0.13098410  0.34890901  1
  O  O191  1  -0.00144944  0.15110840  0.64824263  1
  O  O192  1  -0.00316667  0.11820127  0.84990292  1
  O  O193  1  0.01065908  0.36945388  0.08516910  1
  O  O194  1  0.00448415  0.39839942  0.38291612  1
  O  O195  1  -0.00082422  0.36012884  0.59917514  1
  O  O196  1  -0.00782034  0.37746975  0.89710089  1
  O  O197  1  0.00358543  0.65811424  0.14341962  1
  O  O198  1  -0.00130535  0.62015985  0.35622056  1
  O  O199  1  -0.00990397  0.65256901  0.63948527  1
  O  O200  1  -0.00255669  0.62105116  0.83910973  1
  O  O201  1  -0.00749972  0.89287554  0.10471337  1
  O  O202  1  0.01045818  0.87982063  0.41295530  1
  O  O203  1  0.01079315  0.86835589  0.59439420  1
  O  O204  1  0.00684285  0.91202388  0.90229048  1
  O  O205  1  0.24956612  0.10302103  0.11574178  1
  O  O206  1  0.23981952  0.14093771  0.38764066  1
  O  O207  1  0.24836750  0.09861390  0.58707460  1
  O  O208  1  0.25603385  0.12986761  0.90402732  1
  O  O209  1  0.24751229  0.37260203  0.14943915  1
  O  O210  1  0.24125266  0.36523558  0.34306964  1
  O  O211  1  0.24203461  0.39999175  0.63012385  1
  O  O212  1  0.24905289  0.32380404  0.85087513  1
  O  O213  1  0.24402418  0.62103771  0.11002163  1
  O  O214  1  0.24603190  0.62927932  0.39652229  1
  O  O215  1  0.25334771  0.63600658  0.60308995  1
  O  O216  1  0.24460586  0.63453335  0.90400908  1
  O  O217  1  0.26272957  0.89809727  0.15621347  1
  O  O218  1  0.25052419  0.87740382  0.35539618  1
  O  O219  1  0.25405333  0.91342949  0.65523204  1
  O  O220  1  0.25714434  0.85200144  0.84888550  1
  O  O221  1  0.50369226  0.12955963  0.15360708  1
  O  O222  1  0.48779872  0.11823194  0.36400178  1
  O  O223  1  0.48171639  0.14740671  0.63528706  1
  O  O224  1  0.49811617  0.09099525  0.85745451  1
  O  O225  1  0.49237698  0.38800830  0.12113576  1
  O  O226  1  0.48903620  0.37659049  0.39291714  1
  O  O227  1  0.50153689  0.34297396  0.61401171  1
  O  O228  1  0.49447864  0.37451391  0.88681887  1
  O  O229  1  0.49013939  0.63245637  0.15055546  1
  O  O230  1  0.49109654  0.60589303  0.36210535  1
  O  O231  1  0.49165436  0.60973429  0.66032766  1
  O  O232  1  0.49169981  0.58534737  0.85159700  1
  O  O233  1  0.49736026  0.84386401  0.11723313  1
  O  O234  1  0.49465459  0.87765082  0.41446171  1
  O  O235  1  0.48976763  0.87473303  0.59290333  1
  O  O236  1  0.49580134  0.88845254  0.90725313  1
  O  O237  1  0.74824897  0.11311935  0.11313759  1
  O  O238  1  0.75247237  0.12202411  0.36058382  1
  O  O239  1  0.75572002  0.10042396  0.60872564  1
  O  O240  1  0.75276834  0.13549405  0.89504139  1
  O  O241  1  0.76001898  0.40753059  0.16257355  1
  O  O242  1  0.73966431  0.36973979  0.39090133  1
  O  O243  1  0.74534046  0.36952305  0.58783029  1
  O  O244  1  0.75695780  0.35508834  0.89878114  1
  O  O245  1  0.75534073  0.62494063  0.11650410  1
  O  O246  1  0.75205810  0.65238984  0.41248962  1
  O  O247  1  0.74499257  0.61417280  0.62466837  1
  O  O248  1  0.74387532  0.65306372  0.90780576  1
  O  O249  1  0.74547831  0.88668607  0.13895491  1
  O  O250  1  0.75463902  0.84460837  0.35273518  1
  O  O251  1  0.75689693  0.89158424  0.64485575  1
  O  O252  1  0.74799047  0.87234849  0.85108946  1
  O  O253  1  0.11670760  0.00921386  0.15388726  1
  O  O254  1  0.12525091  0.00902816  0.35860033  1
  O  O255  1  0.11261885  0.00381760  0.65639884  1
  O  O256  1  0.14803650  -0.00349512  0.83172053  1
  O  O257  1  0.12807753  0.24774462  0.08834239  1
  O  O258  1  0.11551470  0.25509504  0.37102484  1
  O  O259  1  0.13016990  0.25673334  0.60239530  1
  O  O260  1  0.10776848  0.24398664  0.90278914  1
  O  O261  1  0.11746980  0.50156345  0.13997728  1
  O  O262  1  0.13329631  0.50083529  0.34876757  1
  O  O263  1  0.09735170  0.49656802  0.63604803  1
  O  O264  1  0.13513005  0.49922264  0.84778676  1
  O  O265  1  0.14448692  0.75402645  0.11059251  1
  O  O266  1  0.12867670  0.76383612  0.41349894  1
  O  O267  1  0.15573514  0.76799849  0.61037227  1
  O  O268  1  0.11510143  0.76250121  0.90059669  1
  O  O269  1  0.40357477  -0.00736411  0.11874165  1
  O  O270  1  0.35635430  0.00163262  0.41119178  1
  O  O271  1  0.38797418  0.00408003  0.60098218  1
  O  O272  1  0.35847171  -0.00755665  0.88485472  1
  O  O273  1  0.37940207  0.25318088  0.14769016  1
  O  O274  1  0.36225137  0.25378045  0.35065013  1
  O  O275  1  0.32740332  0.24147789  0.64731395  1
  O  O276  1  0.38753959  0.23115871  0.83681563  1
  O  O277  1  0.35884629  0.49930461  0.12652141  1
  O  O278  1  0.35783147  0.50112955  0.39518730  1
  O  O279  1  0.37675890  0.50324202  0.59684772  1
  O  O280  1  0.33897689  0.49959124  0.87856475  1
  O  O281  1  0.35700459  0.74817688  0.14485940  1
  O  O282  1  0.37037500  0.75080261  0.37344238  1
  O  O283  1  0.37215457  0.75502695  0.64168808  1
  O  O284  1  0.40463701  0.75655273  0.86629949  1
  O  O285  1  0.59758406  -0.01442177  0.11477379  1
  O  O286  1  0.65102050  -0.01855918  0.38106459  1
  O  O287  1  0.60266863  0.00225400  0.61014351  1
  O  O288  1  0.63572825  -0.00690127  0.90050122  1
  O  O289  1  0.64155047  0.24689513  0.14400103  1
  O  O290  1  0.62143964  0.24846272  0.36737038  1
  O  O291  1  0.63269066  0.24170339  0.61422622  1
  O  O292  1  0.61589851  0.24628433  0.86413889  1
  O  O293  1  0.61936505  0.50601943  0.13828907  1
  O  O294  1  0.62511290  0.51086249  0.38630942  1
  O  O295  1  0.62237752  0.49430211  0.63574975  1
  O  O296  1  0.65350959  0.50712675  0.86374833  1
  O  O297  1  0.62670188  0.74781806  0.14640093  1
  O  O298  1  0.59982632  0.74293073  0.36543622  1
  O  O299  1  0.60862808  0.73675818  0.63512809  1
  O  O300  1  0.59303791  0.74912001  0.86388963  1
  O  O301  1  0.87870889  0.00838303  0.14962383  1
  O  O302  1  0.87242788  0.00579465  0.34866248  1
  O  O303  1  0.90265330  0.00871532  0.63722714  1
  O  O304  1  0.85811182  0.00920978  0.87118823  1
  O  O305  1  0.86426728  0.26085580  0.10404669  1
  O  O306  1  0.85573532  0.24853854  0.38755131  1
  O  O307  1  0.87395409  0.24152723  0.58806684  1
  O  O308  1  0.88060659  0.24809158  0.90127559  1
  O  O309  1  0.91208359  0.49657551  0.13761682  1
  O  O310  1  0.85589402  0.50963080  0.35058115  1
  O  O311  1  0.88526203  0.50272683  0.64354835  1
  O  O312  1  0.85208405  0.49311077  0.86088383  1
  O  O313  1  0.85799679  0.76155652  0.09754924  1
  O  O314  1  0.89475162  0.75030268  0.40501281  1
  O  O315  1  0.83842115  0.74923141  0.59067165  1
  O  O316  1  0.90105747  0.76432401  0.89546386  1
