# generated using pymatgen
data_Mg32Ti42(Bi17O64)3
_symmetry_space_group_name_H-M   'P 1'
_cell_length_a   15.95183853
_cell_length_b   15.95157385
_cell_length_c   15.94466230
_cell_angle_alpha   89.89653317
_cell_angle_beta   89.99332067
_cell_angle_gamma   89.78847810
_symmetry_Int_Tables_number   1
_chemical_formula_structural   Mg32Ti42(Bi17O64)3
_chemical_formula_sum   'Mg32 Ti42 Bi51 O192'
_cell_volume   4057.19553450
_cell_formula_units_Z   1
loop_
 _symmetry_equiv_pos_site_id
 _symmetry_equiv_pos_as_xyz
  1  'x, y, z'
loop_
 _atom_site_type_symbol
 _atom_site_label
 _atom_site_symmetry_multiplicity
 _atom_site_fract_x
 _atom_site_fract_y
 _atom_site_fract_z
 _atom_site_occupancy
  Mg  Mg0  1  0.13755109  0.36637399  0.12727375  1
  Mg  Mg1  1  0.61370517  0.86844487  0.63657582  1
  Mg  Mg2  1  0.13173366  0.37425117  0.62687594  1
  Mg  Mg3  1  0.12470475  0.11926648  0.37960393  1
  Mg  Mg4  1  0.13352124  0.12757709  0.87163945  1
  Mg  Mg5  1  0.39327111  0.86590799  0.86138729  1
  Mg  Mg6  1  0.37286077  0.86504312  0.62360269  1
  Mg  Mg7  1  0.87129663  0.63070396  0.62545824  1
  Mg  Mg8  1  0.87353890  0.36440775  0.12735429  1
  Mg  Mg9  1  0.63708034  0.37364600  0.37369306  1
  Mg  Mg10  1  0.88280399  0.88311913  0.63400740  1
  Mg  Mg11  1  0.87363089  0.11623130  0.87771854  1
  Mg  Mg12  1  0.63183905  0.13285740  0.61498090  1
  Mg  Mg13  1  0.12594812  0.87948581  0.12885425  1
  Mg  Mg14  1  0.37973483  0.10463620  0.88160787  1
  Mg  Mg15  1  0.12928997  0.38074919  0.37044011  1
  Mg  Mg16  1  0.12922197  0.62907056  0.61516647  1
  Mg  Mg17  1  0.36822500  0.37960936  0.36463943  1
  Mg  Mg18  1  0.37341235  0.13585909  0.36657731  1
  Mg  Mg19  1  0.68963833  0.00539176  0.71740007  1
  Mg  Mg20  1  0.01588977  0.80340339  0.01999225  1
  Mg  Mg21  1  0.24882413  0.73656905  0.48537583  1
  Mg  Mg22  1  0.70338737  0.21087860  0.24574376  1
  Mg  Mg23  1  0.04999205  0.02089073  -0.01073533  1
  Mg  Mg24  1  0.55783319  0.73509475  0.00799314  1
  Mg  Mg25  1  0.44703554  0.02921173  0.68513105  1
  Mg  Mg26  1  0.79539603  0.54899001  0.25925328  1
  Mg  Mg27  1  0.53996749  0.29381578  0.24921373  1
  Mg  Mg28  1  0.23771628  0.22993957  0.27199935  1
  Mg  Mg29  1  0.75699987  0.74474682  0.32410293  1
  Mg  Mg30  1  0.50192913  0.71848421  0.73317187  1
  Mg  Mg31  1  0.22911162  0.74381366  0.01812497  1
  Ti  Ti32  1  0.63286022  0.86707134  0.12919587  1
  Ti  Ti33  1  0.11368616  0.13615186  0.62933200  1
  Ti  Ti34  1  0.62858657  0.88029836  0.37407150  1
  Ti  Ti35  1  0.62689041  0.86650671  0.86780651  1
  Ti  Ti36  1  0.88259799  0.12067398  0.12019462  1
  Ti  Ti37  1  0.62410650  0.13657385  0.38203365  1
  Ti  Ti38  1  0.62645171  0.11369698  0.12304371  1
  Ti  Ti39  1  0.88014139  0.87156304  0.13580922  1
  Ti  Ti40  1  0.88127410  0.87814196  0.87194685  1
  Ti  Ti41  1  0.63408046  0.62115737  0.12722674  1
  Ti  Ti42  1  0.37485156  0.62724799  0.62009403  1
  Ti  Ti43  1  0.12830071  0.36549428  0.87239740  1
  Ti  Ti44  1  0.13998916  0.86780525  0.37002196  1
  Ti  Ti45  1  0.37793292  0.64998021  0.09489236  1
  Ti  Ti46  1  0.86718808  0.12979805  0.37557757  1
  Ti  Ti47  1  0.87967657  0.88131571  0.37410365  1
  Ti  Ti48  1  0.62847061  0.11594131  0.87377823  1
  Ti  Ti49  1  0.10497428  0.63824390  0.88386832  1
  Ti  Ti50  1  0.86769874  0.36269517  0.36133251  1
  Ti  Ti51  1  0.13152086  0.87209439  0.60369163  1
  Ti  Ti52  1  0.87791288  0.61329495  0.87264354  1
  Ti  Ti53  1  0.12529733  0.64155688  0.12329961  1
  Ti  Ti54  1  0.88537185  0.37291283  0.88289441  1
  Ti  Ti55  1  0.38499853  0.88018811  0.12635185  1
  Ti  Ti56  1  0.37025485  0.62634763  0.36767996  1
  Ti  Ti57  1  0.37210221  0.35413599  0.12257473  1
  Ti  Ti58  1  0.38136375  0.38275490  0.86682400  1
  Ti  Ti59  1  0.38447522  0.64918532  0.87411154  1
  Ti  Ti60  1  0.88783572  0.62873355  0.12001040  1
  Ti  Ti61  1  0.63074901  0.62558748  0.87902910  1
  Ti  Ti62  1  0.62492548  0.63323623  0.61511727  1
  Ti  Ti63  1  0.12445578  0.86803304  0.88885738  1
  Ti  Ti64  1  0.37396389  0.38307446  0.62310378  1
  Ti  Ti65  1  0.61507616  0.37414814  0.61329670  1
  Ti  Ti66  1  0.62173399  0.38392618  0.88586322  1
  Ti  Ti67  1  0.13750960  0.12024261  0.12735063  1
  Ti  Ti68  1  0.87514842  0.11013240  0.64119753  1
  Ti  Ti69  1  0.63530514  0.37095845  0.12377184  1
  Ti  Ti70  1  0.13500368  0.62471753  0.37559537  1
  Ti  Ti71  1  0.37200429  0.87716227  0.37834226  1
  Ti  Ti72  1  0.38306318  0.12513774  0.12493444  1
  Ti  Ti73  1  0.61556108  0.62235860  0.36051303  1
  Bi  Bi74  1  0.25984972  0.01702503  0.26140281  1
  Bi  Bi75  1  0.26598257  0.52776303  0.77362192  1
  Bi  Bi76  1  0.00969358  0.48325146  0.03459845  1
  Bi  Bi77  1  0.27266038  -0.04108901  -0.00493050  1
  Bi  Bi78  1  0.76735413  0.77505263  0.52453577  1
  Bi  Bi79  1  0.51588010  0.23368852  -0.01594294  1
  Bi  Bi80  1  -0.00981998  0.72475295  0.27075348  1
  Bi  Bi81  1  0.73022554  0.28216628  0.75822548  1
  Bi  Bi82  1  0.50552649  0.21211646  0.73989048  1
  Bi  Bi83  1  0.01710504  0.01299179  0.77918447  1
  Bi  Bi84  1  0.51251374  0.50952748  0.73199478  1
  Bi  Bi85  1  0.77088260  0.01106525  0.24903263  1
  Bi  Bi86  1  0.26095697  0.76830562  0.22986655  1
  Bi  Bi87  1  0.03862237  0.49709776  0.74739087  1
  Bi  Bi88  1  0.47161875  0.22279300  0.52541801  1
  Bi  Bi89  1  0.50158764  0.50837843  0.00319437  1
  Bi  Bi90  1  0.77926725  0.74450684  0.75603651  1
  Bi  Bi91  1  0.78511690  0.27579174  0.52276726  1
  Bi  Bi92  1  0.24361996  0.76144416  0.72648817  1
  Bi  Bi93  1  0.26252519  0.26542718  0.47479579  1
  Bi  Bi94  1  0.27464025  0.51008862  0.20877772  1
  Bi  Bi95  1  0.50901232  0.76870850  0.25313350  1
  Bi  Bi96  1  0.29263694  0.21583225  0.73892302  1
  Bi  Bi97  1  0.76294464  0.49200183  0.70118277  1
  Bi  Bi98  1  0.77830670  0.49251603  0.01087423  1
  Bi  Bi99  1  0.78320036  0.75759818  -0.00065287  1
  Bi  Bi100  1  0.02589494  0.26232478  0.23737385  1
  Bi  Bi101  1  0.51519160  -0.02475452  -0.01445736  1
  Bi  Bi102  1  0.51489387  -0.02572714  0.51547416  1
  Bi  Bi103  1  0.50524417  0.47886424  0.23818045  1
  Bi  Bi104  1  -0.01874778  0.48493334  0.26652538  1
  Bi  Bi105  1  0.25270640  0.49468620  0.50089910  1
  Bi  Bi106  1  0.01403972  0.21668946  -0.00171238  1
  Bi  Bi107  1  0.50557121  0.01890359  0.27142923  1
  Bi  Bi108  1  0.27427339  0.24188575  -0.03425610  1
  Bi  Bi109  1  0.77319394  0.54195911  0.46376710  1
  Bi  Bi110  1  0.76245880  -0.01265024  -0.00234646  1
  Bi  Bi111  1  0.00777904  0.74619645  0.71612001  1
  Bi  Bi112  1  0.01875289  0.00925647  0.26243528  1
  Bi  Bi113  1  0.75090055  0.00422600  0.52421739  1
  Bi  Bi114  1  -0.01756143  0.46835599  0.53396987  1
  Bi  Bi115  1  0.00774196  0.00731730  0.50204254  1
  Bi  Bi116  1  0.48337212  0.74194083  0.49714397  1
  Bi  Bi117  1  -0.02117936  0.71767960  0.48084748  1
  Bi  Bi118  1  0.50500325  0.48309309  0.46824596  1
  Bi  Bi119  1  0.22738013  0.49605516  -0.00634795  1
  Bi  Bi120  1  -0.03474426  0.28097285  0.72218651  1
  Bi  Bi121  1  0.01937313  0.25877189  0.48501015  1
  Bi  Bi122  1  0.76351588  0.23559817  -0.01361139  1
  Bi  Bi123  1  0.26616915  0.04242235  0.53203325  1
  Bi  Bi124  1  0.25142510  -0.01765677  0.75487481  1
  O  O125  1  0.13476011  0.11877580  0.00604310  1
  O  O126  1  0.08862132  0.13682810  0.24677285  1
  O  O127  1  0.12079369  0.09666905  0.50717811  1
  O  O128  1  0.10848828  0.11931236  0.74479729  1
  O  O129  1  0.11690234  0.39430000  -0.00479932  1
  O  O130  1  0.14953444  0.32488511  0.25106312  1
  O  O131  1  0.08467438  0.37729609  0.50405981  1
  O  O132  1  0.12677796  0.38522899  0.75425592  1
  O  O133  1  0.16269182  0.62900042  -0.01160815  1
  O  O134  1  0.11719938  0.64462873  0.24010146  1
  O  O135  1  0.14948360  0.64878768  0.49150419  1
  O  O136  1  0.10274801  0.63973864  0.76317024  1
  O  O137  1  0.09045347  0.90390695  0.00285555  1
  O  O138  1  0.15571668  0.86158400  0.25237184  1
  O  O139  1  0.11072441  0.88720140  0.49294717  1
  O  O140  1  0.15832607  0.86662631  0.76904124  1
  O  O141  1  0.35514952  0.13274683  0.00769020  1
  O  O142  1  0.39067628  0.09756028  0.24626473  1
  O  O143  1  0.36445221  0.14601737  0.49346706  1
  O  O144  1  0.38963532  0.11844470  0.75550303  1
  O  O145  1  0.38163111  0.35453653  0.00507984  1
  O  O146  1  0.36499866  0.41453367  0.24130199  1
  O  O147  1  0.39145393  0.34247830  0.50336106  1
  O  O148  1  0.36571829  0.39455636  0.74819389  1
  O  O149  1  0.34800332  0.68260840  -0.01152744  1
  O  O150  1  0.37735681  0.60473772  0.25542963  1
  O  O151  1  0.35788853  0.66382514  0.50601783  1
  O  O152  1  0.39823084  0.59699622  0.74994563  1
  O  O153  1  0.39341958  0.88029308  0.00628201  1
  O  O154  1  0.35044894  0.87849734  0.25461534  1
  O  O155  1  0.40886045  0.86217376  0.49563053  1
  O  O156  1  0.33306492  0.87109693  0.74817795  1
  O  O157  1  0.63499477  0.15661040  0.00781507  1
  O  O158  1  0.60883501  0.10828518  0.24285116  1
  O  O159  1  0.64451785  0.15546778  0.49083451  1
  O  O160  1  0.61579471  0.10115706  0.75967117  1
  O  O161  1  0.59887901  0.35661774  0.00677899  1
  O  O162  1  0.62328609  0.39821416  0.24363329  1
  O  O163  1  0.60908162  0.36282246  0.50256859  1
  O  O164  1  0.63815593  0.38850743  0.76630908  1
  O  O165  1  0.64435163  0.64147614  0.00708204  1
  O  O166  1  0.58923363  0.61459333  0.24714503  1
  O  O167  1  0.64263632  0.64228143  0.50313474  1
  O  O168  1  0.58762299  0.62354206  0.76574012  1
  O  O169  1  0.59162863  0.85969174  0.01107555  1
  O  O170  1  0.64016183  0.88061932  0.24873129  1
  O  O171  1  0.59248747  0.86148154  0.49229778  1
  O  O172  1  0.65249199  0.89266254  0.75883407  1
  O  O173  1  0.83974228  0.11795535  0.00646052  1
  O  O174  1  0.88647743  0.09355840  0.24268529  1
  O  O175  1  0.84919171  0.14130205  0.48851526  1
  O  O176  1  0.89750831  0.10847797  0.75203216  1
  O  O177  1  0.88478254  0.39356094  0.00166459  1
  O  O178  1  0.87107060  0.39068266  0.24788321  1
  O  O179  1  0.89797880  0.35513868  0.48956956  1
  O  O180  1  0.85350370  0.35558337  0.76459794  1
  O  O181  1  0.85120107  0.62004335  -0.00180374  1
  O  O182  1  0.89858792  0.61598157  0.23784488  1
  O  O183  1  0.85520522  0.65187535  0.49724603  1
  O  O184  1  0.88192088  0.63108208  0.75588768  1
  O  O185  1  0.89459779  0.84680409  0.00286969  1
  O  O186  1  0.84734551  0.88384744  0.25018603  1
  O  O187  1  0.88184963  0.84871552  0.49380858  1
  O  O188  1  0.85418944  0.87185259  0.75979294  1
  O  O189  1  -0.00775823  0.09506650  0.08622722  1
  O  O190  1  -0.01131318  0.09102004  0.38577347  1
  O  O191  1  -0.00257602  0.10097789  0.61054697  1
  O  O192  1  0.00144041  0.09418563  0.89435561  1
  O  O193  1  0.00866774  0.39993704  0.14555490  1
  O  O194  1  0.00178484  0.37770129  0.35217614  1
  O  O195  1  -0.01246908  0.39549213  0.65282455  1
  O  O196  1  -0.00327767  0.38893511  0.85982966  1
  O  O197  1  0.00202968  0.62179618  0.09946952  1
  O  O198  1  0.00877265  0.62709569  0.37550315  1
  O  O199  1  -0.00321509  0.65043843  0.61025564  1
  O  O200  1  -0.00566147  0.60213858  0.89539408  1
  O  O201  1  -0.00776190  0.86757313  0.14672498  1
  O  O202  1  -0.00852440  0.90189345  0.36206984  1
  O  O203  1  0.01340507  0.87470371  0.64241335  1
  O  O204  1  -0.00450079  0.89014970  0.85812762  1
  O  O205  1  0.24340015  0.13999276  0.16547256  1
  O  O206  1  0.24483993  0.12309397  0.34533112  1
  O  O207  1  0.23555669  0.14452080  0.62485169  1
  O  O208  1  0.25515369  0.14866470  0.85988894  1
  O  O209  1  0.25756721  0.39366523  0.11678704  1
  O  O210  1  0.24697148  0.38827902  0.41470200  1
  O  O211  1  0.25544876  0.37530517  0.59990033  1
  O  O212  1  0.24608506  0.36222830  0.88385515  1
  O  O213  1  0.24970138  0.65799727  0.12777582  1
  O  O214  1  0.25541733  0.65563683  0.36872608  1
  O  O215  1  0.26019558  0.62435434  0.64739609  1
  O  O216  1  0.26464643  0.64372305  0.84432438  1
  O  O217  1  0.25802862  0.84406285  0.10822782  1
  O  O218  1  0.25353185  0.83807774  0.39938143  1
  O  O219  1  0.25058105  0.82259868  0.59371224  1
  O  O220  1  0.23275865  0.83864866  0.92782267  1
  O  O221  1  0.49732514  0.12591267  0.10720798  1
  O  O222  1  0.50531987  0.10975198  0.38187822  1
  O  O223  1  0.50463520  0.12515734  0.62642694  1
  O  O224  1  0.50676376  0.11330919  0.90303967  1
  O  O225  1  0.49119451  0.36757510  0.15153617  1
  O  O226  1  0.49722584  0.39260137  0.35417793  1
  O  O227  1  0.50025225  0.39798090  0.63187032  1
  O  O228  1  0.49470666  0.39604185  0.87225569  1
  O  O229  1  0.49326356  0.63531396  0.07959375  1
  O  O230  1  0.49851686  0.61036766  0.40067838  1
  O  O231  1  0.50379024  0.59403898  0.61601519  1
  O  O232  1  0.49347053  0.61151768  0.90995451  1
  O  O233  1  0.49795717  0.88528806  0.15506356  1
  O  O234  1  0.49900211  0.88169452  0.34772169  1
  O  O235  1  0.49222744  0.91926442  0.63929653  1
  O  O236  1  0.51281810  0.90484463  0.86788846  1
  O  O237  1  0.74299915  0.13114408  0.15053050  1
  O  O238  1  0.74767280  0.13520676  0.33869473  1
  O  O239  1  0.75409292  0.09379170  0.64429820  1
  O  O240  1  0.74304148  0.15435512  0.87280664  1
  O  O241  1  0.74632388  0.37648394  0.10341866  1
  O  O242  1  0.75864728  0.34973091  0.39453084  1
  O  O243  1  0.74047852  0.36245782  0.63220862  1
  O  O244  1  0.73983597  0.35320897  0.89375288  1
  O  O245  1  0.74155427  0.60877454  0.15589511  1
  O  O246  1  0.73946492  0.62259558  0.34663355  1
  O  O247  1  0.73814827  0.63071560  0.65547738  1
  O  O248  1  0.74098413  0.62885255  0.85705945  1
  O  O249  1  0.74423517  0.86419338  0.09921831  1
  O  O250  1  0.74254309  0.84980270  0.39272346  1
  O  O251  1  0.74482738  0.88732353  0.60368065  1
  O  O252  1  0.74384826  0.86513195  0.91108571  1
  O  O253  1  0.13340018  0.00571015  0.14884630  1
  O  O254  1  0.13278981  -0.00799095  0.34847440  1
  O  O255  1  0.16155069  -0.01813796  0.63177854  1
  O  O256  1  0.13262587  -0.00591087  0.86899019  1
  O  O257  1  0.09501687  0.24319427  0.11233271  1
  O  O258  1  0.12914850  0.24603465  0.40113395  1
  O  O259  1  0.08757302  0.24911900  0.61867063  1
  O  O260  1  0.10789259  0.25345188  0.88865861  1
  O  O261  1  0.13466104  0.51674658  0.10886238  1
  O  O262  1  0.14118658  0.51299501  0.36671397  1
  O  O263  1  0.10824321  0.50519815  0.62572294  1
  O  O264  1  0.14595459  0.51076971  0.86911918  1
  O  O265  1  0.11219987  0.75343728  0.08950430  1
  O  O266  1  0.09431887  0.76062248  0.37134926  1
  O  O267  1  0.12254675  0.75332916  0.64378277  1
  O  O268  1  0.08182677  0.75451506  0.90478971  1
  O  O269  1  0.35649824  -0.00182631  0.11897004  1
  O  O270  1  0.35528293  -0.01078358  0.38336490  1
  O  O271  1  0.34066312  -0.00722783  0.63244143  1
  O  O272  1  0.34331581  -0.01594827  0.87977942  1
  O  O273  1  0.36752332  0.24437698  0.14553834  1
  O  O274  1  0.33334934  0.25903079  0.35261284  1
  O  O275  1  0.40197582  0.26077517  0.64577083  1
  O  O276  1  0.37939706  0.25685729  0.86889875  1
  O  O277  1  0.36023365  0.52995728  0.09878586  1
  O  O278  1  0.36356234  0.51114329  0.41099477  1
  O  O279  1  0.36728415  0.50015462  0.59182522  1
  O  O280  1  0.34999004  0.49877662  0.88933708  1
  O  O281  1  0.39204753  0.75378832  0.15378813  1
  O  O282  1  0.40982290  0.74504286  0.36596390  1
  O  O283  1  0.41437083  0.73813768  0.64060798  1
  O  O284  1  0.42156160  0.74582174  0.83221149  1
  O  O285  1  0.62892291  -0.00060397  0.10485065  1
  O  O286  1  0.63193638  -0.00328380  0.38461331  1
  O  O287  1  0.62781470  0.00347398  0.59966130  1
  O  O288  1  0.64188613  0.00366092  0.90795492  1
  O  O289  1  0.62470632  0.25730853  0.15704164  1
  O  O290  1  0.61613413  0.24648721  0.33726828  1
  O  O291  1  0.61445812  0.25579419  0.65287896  1
  O  O292  1  0.59744847  0.25184639  0.86911229  1
  O  O293  1  0.60286252  0.50312607  0.10859389  1
  O  O294  1  0.62800334  0.50447505  0.39652546  1
  O  O295  1  0.63971336  0.49853169  0.63196215  1
  O  O296  1  0.62472910  0.50108202  0.90755631  1
  O  O297  1  0.61131107  0.74791424  0.13355248  1
  O  O298  1  0.62031783  0.74421958  0.35361052  1
  O  O299  1  0.59529051  0.74365600  0.64315627  1
  O  O300  1  0.60847660  0.74996464  0.88121842  1
  O  O301  1  0.85356993  -0.01143215  0.11784554  1
  O  O302  1  0.84187840  -0.00341191  0.37824362  1
  O  O303  1  0.87728696  -0.00044544  0.58970853  1
  O  O304  1  0.85554673  -0.01004695  0.89348237  1
  O  O305  1  0.89722842  0.23701099  0.11890837  1
  O  O306  1  0.89341769  0.24149508  0.35391891  1
  O  O307  1  0.87734357  0.23201204  0.62884368  1
  O  O308  1  0.88587320  0.25276175  0.90180768  1
  O  O309  1  0.86773935  0.50626581  0.11835366  1
  O  O310  1  0.85983214  0.49201437  0.36725635  1
  O  O311  1  0.85126573  0.50856668  0.59875192  1
  O  O312  1  0.85128040  0.49741913  0.87583619  1
  O  O313  1  0.86493150  0.74437083  0.12756233  1
  O  O314  1  0.88219723  0.75844190  0.35311023  1
  O  O315  1  0.85778128  0.75736805  0.63841253  1
  O  O316  1  0.86467168  0.74415575  0.87421616  1
