# generated using pymatgen
data_Mg32Ti42(Bi17O64)3
_symmetry_space_group_name_H-M   'P 1'
_cell_length_a   15.94605591
_cell_length_b   15.97660181
_cell_length_c   15.93942765
_cell_angle_alpha   89.83937585
_cell_angle_beta   89.98508322
_cell_angle_gamma   89.86084311
_symmetry_Int_Tables_number   1
_chemical_formula_structural   Mg32Ti42(Bi17O64)3
_chemical_formula_sum   'Mg32 Ti42 Bi51 O192'
_cell_volume   4060.76086591
_cell_formula_units_Z   1
loop_
 _symmetry_equiv_pos_site_id
 _symmetry_equiv_pos_as_xyz
  1  'x, y, z'
loop_
 _atom_site_type_symbol
 _atom_site_label
 _atom_site_symmetry_multiplicity
 _atom_site_fract_x
 _atom_site_fract_y
 _atom_site_fract_z
 _atom_site_occupancy
  Mg  Mg0  1  0.63061647  0.10723441  0.62427571  1
  Mg  Mg1  1  0.62272823  0.12864024  0.87034129  1
  Mg  Mg2  1  0.61973717  0.38056670  0.61469706  1
  Mg  Mg3  1  0.12357017  0.10650644  0.62212788  1
  Mg  Mg4  1  0.88145804  0.86670769  0.62015203  1
  Mg  Mg5  1  0.62618160  0.62962348  0.62855708  1
  Mg  Mg6  1  0.12753274  0.37727938  0.86583231  1
  Mg  Mg7  1  0.13544524  0.85978410  0.63195728  1
  Mg  Mg8  1  0.38548431  0.37375143  0.37615966  1
  Mg  Mg9  1  0.37456975  0.13144080  0.85424186  1
  Mg  Mg10  1  0.88047100  0.10055704  0.37927867  1
  Mg  Mg11  1  0.87146561  0.86694990  0.13120254  1
  Mg  Mg12  1  0.60826849  0.62701101  0.36446975  1
  Mg  Mg13  1  0.12077116  0.62318671  0.61429632  1
  Mg  Mg14  1  0.12425103  0.62714232  0.88180532  1
  Mg  Mg15  1  0.11727829  0.12340245  0.37250654  1
  Mg  Mg16  1  0.88460424  0.37575268  0.12814598  1
  Mg  Mg17  1  0.62519090  0.36640276  0.13023494  1
  Mg  Mg18  1  0.87251650  0.37851548  0.86976668  1
  Mg  Mg19  1  -0.06667113  0.25433368  0.74640069  1
  Mg  Mg20  1  0.79424855  0.28171846  0.00240781  1
  Mg  Mg21  1  0.24030208  0.73402436  0.21690066  1
  Mg  Mg22  1  0.00491794  0.74978747  0.69266807  1
  Mg  Mg23  1  0.49262040  0.49327371  0.51988453  1
  Mg  Mg24  1  -0.06059409  0.49245623  0.50907717  1
  Mg  Mg25  1  -0.05624122  0.20847378  0.26585809  1
  Mg  Mg26  1  0.76560299  0.77379752  -0.06881695  1
  Mg  Mg27  1  0.22236388  0.71724021  0.72871731  1
  Mg  Mg28  1  0.50074181  0.20712336  0.70019036  1
  Mg  Mg29  1  0.24935017  -0.01924680  0.50113155  1
  Mg  Mg30  1  0.77714284  0.30177266  0.23562387  1
  Mg  Mg31  1  0.01771472  0.74627084  0.46735282  1
  Ti  Ti32  1  0.87740087  0.62392322  0.61616399  1
  Ti  Ti33  1  0.36702885  0.62049559  0.86563922  1
  Ti  Ti34  1  0.86271652  0.13134101  0.86065115  1
  Ti  Ti35  1  0.63254501  0.87808113  0.11540405  1
  Ti  Ti36  1  0.37283115  0.11434658  0.38330010  1
  Ti  Ti37  1  0.37353351  0.61763393  0.62512451  1
  Ti  Ti38  1  0.87145533  0.10931690  0.62018259  1
  Ti  Ti39  1  0.12140133  0.12392383  0.86381246  1
  Ti  Ti40  1  0.11892208  0.37101750  0.37031183  1
  Ti  Ti41  1  0.86299082  0.37382136  0.38279678  1
  Ti  Ti42  1  0.63940211  0.62460374  0.88101805  1
  Ti  Ti43  1  0.85869913  0.62899043  0.11314234  1
  Ti  Ti44  1  0.36988263  0.11318559  0.13282631  1
  Ti  Ti45  1  0.36767172  0.11745271  0.62023710  1
  Ti  Ti46  1  0.36389229  0.86853193  0.38227754  1
  Ti  Ti47  1  0.63038267  0.36535269  0.88157175  1
  Ti  Ti48  1  0.36874383  0.35995945  0.12690082  1
  Ti  Ti49  1  0.13120120  0.13525672  0.12048497  1
  Ti  Ti50  1  0.89659701  0.86663951  0.37257248  1
  Ti  Ti51  1  0.37385269  0.86318458  0.62052406  1
  Ti  Ti52  1  0.37570928  0.63258341  0.11578721  1
  Ti  Ti53  1  0.63059208  0.12939032  0.12202427  1
  Ti  Ti54  1  0.13059475  0.86495201  0.12212357  1
  Ti  Ti55  1  0.36740241  0.63261584  0.35951474  1
  Ti  Ti56  1  0.37922351  0.86993722  0.87086317  1
  Ti  Ti57  1  0.87240344  0.36722276  0.61860844  1
  Ti  Ti58  1  0.87645849  0.61678433  0.87541762  1
  Ti  Ti59  1  0.36521850  0.87817550  0.11848389  1
  Ti  Ti60  1  0.62124082  0.86914030  0.63246212  1
  Ti  Ti61  1  0.10432747  0.39051135  0.61317958  1
  Ti  Ti62  1  0.37871625  0.37656491  0.86217887  1
  Ti  Ti63  1  0.13828236  0.86650254  0.87563802  1
  Ti  Ti64  1  0.38482832  0.37186564  0.61851309  1
  Ti  Ti65  1  0.12560714  0.61806387  0.37249927  1
  Ti  Ti66  1  0.62251065  0.63452199  0.12266948  1
  Ti  Ti67  1  0.87562315  0.13602517  0.12061097  1
  Ti  Ti68  1  0.62043579  0.38333322  0.37003105  1
  Ti  Ti69  1  0.61711584  0.87676528  0.87994567  1
  Ti  Ti70  1  0.12182616  0.36057265  0.13645919  1
  Ti  Ti71  1  0.12070336  0.62771051  0.12074226  1
  Ti  Ti72  1  0.88217664  0.62598119  0.37927365  1
  Ti  Ti73  1  0.12686035  0.86581727  0.36448976  1
  Bi  Bi74  1  0.49252390  0.76797429  0.22447591  1
  Bi  Bi75  1  0.53341601  0.21157020  0.27075873  1
  Bi  Bi76  1  -0.00125146  0.46694071  -0.01353078  1
  Bi  Bi77  1  0.23117462  0.47837965  -0.00280046  1
  Bi  Bi78  1  0.01507112  0.52386700  0.75681929  1
  Bi  Bi79  1  -0.01668885  0.72728763  0.24024051  1
  Bi  Bi80  1  0.24445865  0.73400748  -0.01385409  1
  Bi  Bi81  1  0.77327021  0.73098536  0.73678368  1
  Bi  Bi82  1  0.52843858  0.49341548  0.74592807  1
  Bi  Bi83  1  0.49568715  0.47404654  0.00428452  1
  Bi  Bi84  1  -0.04063824  0.76383415  -0.01587503  1
  Bi  Bi85  1  0.73319340  0.21106911  0.45918560  1
  Bi  Bi86  1  0.53725115  -0.02252440  0.46981449  1
  Bi  Bi87  1  -0.00378666  0.20940046  0.50367916  1
  Bi  Bi88  1  0.23991198  0.49603721  0.73520824  1
  Bi  Bi89  1  0.25138604  0.46608457  0.48973598  1
  Bi  Bi90  1  0.23825115  -0.00224129  0.27933264  1
  Bi  Bi91  1  0.49205295  0.22922190  -0.02011041  1
  Bi  Bi92  1  0.01069156  -0.01027683  0.00216255  1
  Bi  Bi93  1  0.72103726  0.75166478  0.48720704  1
  Bi  Bi94  1  0.46851902  0.48885407  0.24016588  1
  Bi  Bi95  1  0.23026849  0.23096337  0.48553167  1
  Bi  Bi96  1  0.24246981  0.24685172  -0.03239409  1
  Bi  Bi97  1  0.74484409  0.03401079  0.25285512  1
  Bi  Bi98  1  0.51637728  0.21458817  0.50938668  1
  Bi  Bi99  1  0.71095575  0.51230586  0.48652018  1
  Bi  Bi100  1  0.50497491  0.73210299  -0.01746449  1
  Bi  Bi101  1  0.01526078  0.00579118  0.22417446  1
  Bi  Bi102  1  0.02050997  -0.04561701  0.51008336  1
  Bi  Bi103  1  0.52070841  -0.00855877  0.23752934  1
  Bi  Bi104  1  0.26169678  0.00348057  -0.02824610  1
  Bi  Bi105  1  -0.02389397  0.48770661  0.25813373  1
  Bi  Bi106  1  0.71317086  0.77646277  0.27453244  1
  Bi  Bi107  1  0.71013269  0.23614702  0.72900408  1
  Bi  Bi108  1  0.51014197  0.73097255  0.74450910  1
  Bi  Bi109  1  0.78318656  -0.02737074  -0.00731885  1
  Bi  Bi110  1  0.74432059  -0.01818604  0.46317688  1
  Bi  Bi111  1  0.75691730  0.47586742  0.72862784  1
  Bi  Bi112  1  0.28003950  0.24268782  0.26846240  1
  Bi  Bi113  1  -0.00803222  -0.04025186  0.76644793  1
  Bi  Bi114  1  0.23604171  0.73496290  0.49678929  1
  Bi  Bi115  1  0.74282506  0.47460859  0.01715729  1
  Bi  Bi116  1  0.50989990  -0.01311267  0.73604049  1
  Bi  Bi117  1  0.76796752  -0.03534890  0.74802014  1
  Bi  Bi118  1  0.24316600  -0.02131262  0.72583646  1
  Bi  Bi119  1  0.21277437  0.25903951  0.71447585  1
  Bi  Bi120  1  0.23901942  0.50163984  0.24517403  1
  Bi  Bi121  1  0.73824904  0.50584045  0.24503541  1
  Bi  Bi122  1  0.48986818  0.72740930  0.48475853  1
  Bi  Bi123  1  -0.00704120  0.25122394  -0.03693041  1
  Bi  Bi124  1  0.49817717  0.01512905  -0.02773259  1
  O  O125  1  0.11988423  0.15552802  0.00757383  1
  O  O126  1  0.12656928  0.08709410  0.24992206  1
  O  O127  1  0.12277250  0.14251382  0.50022068  1
  O  O128  1  0.13784779  0.11626660  0.74985312  1
  O  O129  1  0.11757521  0.37127775  0.01439741  1
  O  O130  1  0.14890323  0.39263585  0.25230811  1
  O  O131  1  0.12482520  0.38566404  0.49613264  1
  O  O132  1  0.13778930  0.39348439  0.73936422  1
  O  O133  1  0.11631923  0.66221919  0.00848775  1
  O  O134  1  0.16501800  0.62846361  0.25304031  1
  O  O135  1  0.10830741  0.65488968  0.48990270  1
  O  O136  1  0.14281508  0.59498481  0.75592230  1
  O  O137  1  0.15491176  0.86455541  0.00429886  1
  O  O138  1  0.11908053  0.90546681  0.24393652  1
  O  O139  1  0.10952212  0.84878904  0.49498930  1
  O  O140  1  0.12603814  0.90599120  0.76237738  1
  O  O141  1  0.39597450  0.12536550  0.01865172  1
  O  O142  1  0.34427412  0.11586434  0.25756468  1
  O  O143  1  0.36442150  0.14332195  0.49742017  1
  O  O144  1  0.39641491  0.13669599  0.73281681  1
  O  O145  1  0.38649507  0.38836512  0.00765653  1
  O  O146  1  0.36665460  0.38674366  0.24433571  1
  O  O147  1  0.39620756  0.40682642  0.50184261  1
  O  O148  1  0.37324232  0.36830456  0.74986147  1
  O  O149  1  0.39582144  0.62518478  0.00290816  1
  O  O150  1  0.34723437  0.66824863  0.25314622  1
  O  O151  1  0.41735194  0.60331152  0.51623888  1
  O  O152  1  0.33263321  0.64489018  0.75520139  1
  O  O153  1  0.35194022  0.88188641  0.00692689  1
  O  O154  1  0.39306801  0.86703864  0.27087171  1
  O  O155  1  0.32476645  0.87804117  0.51563659  1
  O  O156  1  0.40361401  0.88301166  0.75732053  1
  O  O157  1  0.60143772  0.12534901  0.00999014  1
  O  O158  1  0.62665721  0.11319788  0.25246525  1
  O  O159  1  0.63196612  0.12876965  0.50116473  1
  O  O160  1  0.60502179  0.15098098  0.74475055  1
  O  O161  1  0.61386575  0.40118247  0.00298920  1
  O  O162  1  0.67390167  0.37843698  0.25375941  1
  O  O163  1  0.60280944  0.42043834  0.49015986  1
  O  O164  1  0.63629737  0.37489585  0.76176636  1
  O  O165  1  0.60017279  0.61954893  0.00028065  1
  O  O166  1  0.64617238  0.65356049  0.24242575  1
  O  O167  1  0.60821815  0.60598152  0.50149069  1
  O  O168  1  0.63425563  0.66056524  0.76269046  1
  O  O169  1  0.63711429  0.89959600  0.00119218  1
  O  O170  1  0.60775520  0.85677789  0.24404323  1
  O  O171  1  0.63721265  0.88213485  0.51803225  1
  O  O172  1  0.58674314  0.86607220  0.76048116  1
  O  O173  1  0.86550949  0.17204625  0.00501687  1
  O  O174  1  0.86928559  0.09964349  0.24749050  1
  O  O175  1  0.86765013  0.13927118  0.50194582  1
  O  O176  1  0.89035238  0.12995244  0.74571602  1
  O  O177  1  0.90097131  0.35366567  0.00547325  1
  O  O178  1  0.85388181  0.40632573  0.25587309  1
  O  O179  1  0.89723179  0.37080522  0.49704157  1
  O  O180  1  0.87979496  0.37760421  0.74069348  1
  O  O181  1  0.89811352  0.63500519  0.00180672  1
  O  O182  1  0.87163154  0.62762605  0.25649261  1
  O  O183  1  0.91898156  0.62368356  0.50743916  1
  O  O184  1  0.84710685  0.60364519  0.75775136  1
  O  O185  1  0.84337883  0.84876444  0.00310458  1
  O  O186  1  0.89756810  0.85856865  0.25628159  1
  O  O187  1  0.92846243  0.85283186  0.50076680  1
  O  O188  1  0.87921230  0.88669308  0.75130270  1
  O  O189  1  -0.00709597  0.13165160  0.14484322  1
  O  O190  1  -0.00700422  0.14699535  0.36892328  1
  O  O191  1  -0.00525904  0.10776916  0.60387009  1
  O  O192  1  0.00533889  0.12845477  0.87778816  1
  O  O193  1  0.00957052  0.39634536  0.14678296  1
  O  O194  1  0.00294898  0.38495611  0.35260861  1
  O  O195  1  -0.00318110  0.42606184  0.61430789  1
  O  O196  1  0.00375017  0.37944256  0.87931720  1
  O  O197  1  0.01134559  0.61169756  0.14920962  1
  O  O198  1  0.01279793  0.60509760  0.34830897  1
  O  O199  1  -0.00492563  0.61698358  0.65938590  1
  O  O200  1  -0.00346790  0.62118207  0.85239000  1
  O  O201  1  0.00805654  0.88122807  0.09455966  1
  O  O202  1  0.01187493  0.91503214  0.37180790  1
  O  O203  1  0.00859298  0.88289082  0.64866186  1
  O  O204  1  0.01875484  0.88183639  0.88942297  1
  O  O205  1  0.24644681  0.13325015  0.11675501  1
  O  O206  1  0.24603375  0.14623283  0.37557974  1
  O  O207  1  0.25264295  0.15982258  0.62204590  1
  O  O208  1  0.25325224  0.12665069  0.89375788  1
  O  O209  1  0.25173751  0.36909091  0.11110631  1
  O  O210  1  0.25718379  0.36626649  0.39357033  1
  O  O211  1  0.26420830  0.35445780  0.61020134  1
  O  O212  1  0.25561284  0.38099080  0.89129147  1
  O  O213  1  0.25717182  0.65875468  0.10998546  1
  O  O214  1  0.25236710  0.63223138  0.40717327  1
  O  O215  1  0.25946460  0.65429348  0.60737641  1
  O  O216  1  0.25504638  0.61599008  0.91147806  1
  O  O217  1  0.25249384  0.84991206  0.15242276  1
  O  O218  1  0.24402648  0.84819363  0.35152729  1
  O  O219  1  0.26378762  0.84882888  0.67443422  1
  O  O220  1  0.25753395  0.90425727  0.86830221  1
  O  O221  1  0.48967731  0.11084980  0.16377486  1
  O  O222  1  0.48754328  0.10242528  0.37060779  1
  O  O223  1  0.49649650  0.11357267  0.60244914  1
  O  O224  1  0.49508868  0.13116503  0.88738054  1
  O  O225  1  0.49634936  0.40089761  0.13233400  1
  O  O226  1  0.51054594  0.38811331  0.34037595  1
  O  O227  1  0.49790033  0.42392957  0.63123202  1
  O  O228  1  0.50002277  0.39281654  0.88202091  1
  O  O229  1  0.50279128  0.61986251  0.14671767  1
  O  O230  1  0.48653555  0.64820074  0.36203206  1
  O  O231  1  0.49259951  0.61118001  0.67083689  1
  O  O232  1  0.49507965  0.64377063  0.86262999  1
  O  O233  1  0.49063061  0.89220754  0.13652087  1
  O  O234  1  0.47871165  0.86911160  0.41819623  1
  O  O235  1  0.49258632  0.90548751  0.61500097  1
  O  O236  1  0.49367958  0.86910819  0.91016548  1
  O  O237  1  0.74684549  0.11763392  0.12846278  1
  O  O238  1  0.75443081  0.10541055  0.37879258  1
  O  O239  1  0.75410741  0.14445192  0.63539204  1
  O  O240  1  0.74960678  0.14201059  0.84844071  1
  O  O241  1  0.75391502  0.35838431  0.09701860  1
  O  O242  1  0.75155678  0.38609728  0.40758343  1
  O  O243  1  0.75391641  0.36945100  0.62489668  1
  O  O244  1  0.74885210  0.36123334  0.90955976  1
  O  O245  1  0.74873850  0.65030839  0.10460197  1
  O  O246  1  0.76964572  0.64075171  0.40849413  1
  O  O247  1  0.75614844  0.65216088  0.62015328  1
  O  O248  1  0.75082730  0.64391880  0.90038413  1
  O  O249  1  0.74363055  0.87782781  0.14388722  1
  O  O250  1  0.77509192  0.84625893  0.40173396  1
  O  O251  1  0.74099772  0.85683582  0.65793262  1
  O  O252  1  0.73553644  0.88121442  0.86163578  1
  O  O253  1  0.10698412  0.00780453  0.10623601  1
  O  O254  1  0.16360915  -0.01086598  0.39979561  1
  O  O255  1  0.16855441  -0.01417558  0.60450054  1
  O  O256  1  0.13214323  0.00989472  0.90553349  1
  O  O257  1  0.12018350  0.24971869  0.15712753  1
  O  O258  1  0.12742491  0.25960792  0.37407627  1
  O  O259  1  0.10430708  0.26935909  0.63256161  1
  O  O260  1  0.14160306  0.24950223  0.86769516  1
  O  O261  1  0.15466770  0.51327423  0.12061811  1
  O  O262  1  0.15206031  0.50367114  0.37662903  1
  O  O263  1  0.16085083  0.50038794  0.61518242  1
  O  O264  1  0.12053791  0.50127362  0.91167732  1
  O  O265  1  0.11754638  0.75504735  0.15393710  1
  O  O266  1  0.09834383  0.75445853  0.35784542  1
  O  O267  1  0.12055635  0.74099476  0.65930275  1
  O  O268  1  0.16075936  0.75545838  0.85427503  1
  O  O269  1  0.35288279  -0.00262690  0.13388189  1
  O  O270  1  0.34171338  -0.00532031  0.39490896  1
  O  O271  1  0.34504872  0.00627252  0.61900059  1
  O  O272  1  0.38367759  0.00288128  0.88870927  1
  O  O273  1  0.37588615  0.24727604  0.14529686  1
  O  O274  1  0.38518777  0.24384276  0.35751832  1
  O  O275  1  0.41977042  0.26316631  0.61574103  1
  O  O276  1  0.37392248  0.25774562  0.89292084  1
  O  O277  1  0.36207462  0.51858344  0.14372513  1
  O  O278  1  0.36700002  0.51624221  0.34953404  1
  O  O279  1  0.34723776  0.50659110  0.63694519  1
  O  O280  1  0.37795463  0.50606309  0.85855882  1
  O  O281  1  0.39962565  0.75761060  0.11806239  1
  O  O282  1  0.36709307  0.74877352  0.41918777  1
  O  O283  1  0.40466852  0.75229784  0.61416081  1
  O  O284  1  0.36510134  0.75535544  0.88678497  1
  O  O285  1  0.61925528  -0.00115296  0.14059659  1
  O  O286  1  0.64031825  -0.02348491  0.37813774  1
  O  O287  1  0.63347391  -0.01083618  0.66044107  1
  O  O288  1  0.59636201  -0.00057545  0.86484353  1
  O  O289  1  0.60750914  0.24193967  0.14630656  1
  O  O290  1  0.62414529  0.26452177  0.37971711  1
  O  O291  1  0.59768439  0.25789891  0.61834206  1
  O  O292  1  0.60893351  0.25657447  0.89291161  1
  O  O293  1  0.65204792  0.51179839  0.13257527  1
  O  O294  1  0.64887840  0.51003232  0.35721453  1
  O  O295  1  0.64164674  0.50750158  0.65524134  1
  O  O296  1  0.64256086  0.51165769  0.86052111  1
  O  O297  1  0.59811882  0.75741950  0.10793418  1
  O  O298  1  0.63318948  0.74838078  0.38604308  1
  O  O299  1  0.59573396  0.75381092  0.62474507  1
  O  O300  1  0.62887222  0.75917025  0.90529807  1
  O  O301  1  0.88189641  0.00680081  0.08796851  1
  O  O302  1  0.86072155  -0.02083486  0.38586756  1
  O  O303  1  0.84989255  -0.00285170  0.61760880  1
  O  O304  1  0.86889095  0.01659255  0.89280898  1
  O  O305  1  0.87066851  0.24859343  0.16574834  1
  O  O306  1  0.85154145  0.26394612  0.34229425  1
  O  O307  1  0.90150023  0.25687349  0.62828754  1
  O  O308  1  0.89186261  0.25142005  0.86273842  1
  O  O309  1  0.85301556  0.50763202  0.11465776  1
  O  O310  1  0.88521537  0.50479887  0.39191370  1
  O  O311  1  0.85035804  0.50643744  0.60925547  1
  O  O312  1  0.87552266  0.50048434  0.90109830  1
  O  O313  1  0.90174325  0.74284016  0.12584215  1
  O  O314  1  0.92036891  0.74132205  0.38097334  1
  O  O315  1  0.88855065  0.74252227  0.65155065  1
  O  O316  1  0.87570969  0.74035016  0.87445025  1
