# generated using pymatgen
data_Mg32Ti42(Bi17O64)3
_symmetry_space_group_name_H-M   'P 1'
_cell_length_a   15.97436319
_cell_length_b   15.92270607
_cell_length_c   15.96601531
_cell_angle_alpha   90.00951740
_cell_angle_beta   90.01480556
_cell_angle_gamma   90.03035496
_symmetry_Int_Tables_number   1
_chemical_formula_structural   Mg32Ti42(Bi17O64)3
_chemical_formula_sum   'Mg32 Ti42 Bi51 O192'
_cell_volume   4061.03649548
_cell_formula_units_Z   1
loop_
 _symmetry_equiv_pos_site_id
 _symmetry_equiv_pos_as_xyz
  1  'x, y, z'
loop_
 _atom_site_type_symbol
 _atom_site_label
 _atom_site_symmetry_multiplicity
 _atom_site_fract_x
 _atom_site_fract_y
 _atom_site_fract_z
 _atom_site_occupancy
  Mg  Mg0  1  0.87148773  0.62828518  0.14199192  1
  Mg  Mg1  1  0.62201457  0.13245565  0.87170385  1
  Mg  Mg2  1  0.60711830  0.11040118  0.12755948  1
  Mg  Mg3  1  0.12209719  0.12735947  0.86976121  1
  Mg  Mg4  1  0.37130732  0.86428846  0.62093267  1
  Mg  Mg5  1  0.87187236  0.37092868  0.87990529  1
  Mg  Mg6  1  0.61860809  0.86629342  0.87114548  1
  Mg  Mg7  1  0.36949725  0.11949991  0.36798213  1
  Mg  Mg8  1  0.62487244  0.36552555  0.39402651  1
  Mg  Mg9  1  0.12802174  0.37693703  0.37056091  1
  Mg  Mg10  1  0.12870051  0.38250160  0.62673775  1
  Mg  Mg11  1  0.62585823  0.12858423  0.62616228  1
  Mg  Mg12  1  0.14096023  0.63352921  0.87291105  1
  Mg  Mg13  1  0.37635092  0.88453917  0.11371442  1
  Mg  Mg14  1  0.62531755  0.62046216  0.87487754  1
  Mg  Mg15  1  0.37835006  0.62970890  0.37781704  1
  Mg  Mg16  1  0.37390994  0.37546467  0.88317205  1
  Mg  Mg17  1  0.37409117  0.61854351  0.11319222  1
  Mg  Mg18  1  0.87318193  0.37867314  0.38627045  1
  Mg  Mg19  1  0.02536435  0.03346290  -0.00922913  1
  Mg  Mg20  1  -0.03737944  0.79816602  0.49799543  1
  Mg  Mg21  1  0.75143782  0.45461562  0.52673044  1
  Mg  Mg22  1  -0.03783886  0.75041625  0.30489936  1
  Mg  Mg23  1  0.22144912  0.19942696  0.24020187  1
  Mg  Mg24  1  0.51086756  0.74582709  0.56212417  1
  Mg  Mg25  1  0.76295071  0.27317365  0.54737226  1
  Mg  Mg26  1  0.78376759  0.77479100  0.23367057  1
  Mg  Mg27  1  0.28506112  0.73549109  0.76927292  1
  Mg  Mg28  1  0.21832738  0.48007231  0.02124427  1
  Mg  Mg29  1  0.45505884  0.04395340  0.74698953  1
  Mg  Mg30  1  0.52778378  0.69616015  0.75975889  1
  Mg  Mg31  1  0.52474211  -0.00415629  0.29618204  1
  Ti  Ti32  1  0.62028677  0.85289190  0.37343527  1
  Ti  Ti33  1  0.37661570  0.87485490  0.86706105  1
  Ti  Ti34  1  0.12535778  0.86532612  0.86649488  1
  Ti  Ti35  1  0.36241742  0.13405431  0.62257927  1
  Ti  Ti36  1  0.11892367  0.86027639  0.62498525  1
  Ti  Ti37  1  0.62858837  0.62184523  0.13778730  1
  Ti  Ti38  1  0.36691803  0.63601264  0.62773366  1
  Ti  Ti39  1  0.62735068  0.11379840  0.38930326  1
  Ti  Ti40  1  0.87978237  0.11548803  0.13122528  1
  Ti  Ti41  1  0.61849982  0.62360700  0.38185880  1
  Ti  Ti42  1  0.36648315  0.13138655  0.87758619  1
  Ti  Ti43  1  0.12854691  0.62478612  0.11664262  1
  Ti  Ti44  1  0.87916770  0.13118403  0.87979945  1
  Ti  Ti45  1  0.12558719  0.62558980  0.36053601  1
  Ti  Ti46  1  0.38625986  0.88166727  0.37829793  1
  Ti  Ti47  1  0.12499599  0.12122338  0.37668614  1
  Ti  Ti48  1  0.62162250  0.37641665  0.62626209  1
  Ti  Ti49  1  0.61373712  0.87149843  0.12302414  1
  Ti  Ti50  1  0.87953150  0.63439391  0.60667654  1
  Ti  Ti51  1  0.86875514  0.87775139  0.63241940  1
  Ti  Ti52  1  0.36824004  0.12145251  0.13582869  1
  Ti  Ti53  1  0.87828890  0.37294562  0.12977347  1
  Ti  Ti54  1  0.37864087  0.62261966  0.87144049  1
  Ti  Ti55  1  0.87243445  0.13633700  0.63695461  1
  Ti  Ti56  1  0.12526911  0.62710105  0.62877527  1
  Ti  Ti57  1  0.12404957  0.12554090  0.63048103  1
  Ti  Ti58  1  0.89098815  0.87966607  0.12642183  1
  Ti  Ti59  1  0.62834831  0.60905173  0.62144538  1
  Ti  Ti60  1  0.36607379  0.38418209  0.62629880  1
  Ti  Ti61  1  0.62339881  0.87910532  0.63181127  1
  Ti  Ti62  1  0.86277032  0.87697733  0.37956869  1
  Ti  Ti63  1  0.62972423  0.37639847  0.86646825  1
  Ti  Ti64  1  0.87377974  0.88208830  0.88671106  1
  Ti  Ti65  1  0.87347449  0.11650920  0.37354450  1
  Ti  Ti66  1  0.12202421  0.86780128  0.12198813  1
  Ti  Ti67  1  0.87558943  0.38293591  0.63246649  1
  Ti  Ti68  1  0.11392872  0.11065529  0.12743572  1
  Ti  Ti69  1  0.12507577  0.36422743  0.13649140  1
  Ti  Ti70  1  0.37790401  0.36844607  0.37245050  1
  Ti  Ti71  1  0.35766876  0.38133817  0.10459139  1
  Ti  Ti72  1  0.12938016  0.37963674  0.88972028  1
  Ti  Ti73  1  0.85698301  0.62576381  0.37327423  1
  Bi  Bi74  1  0.00924277  0.01004217  0.77262653  1
  Bi  Bi75  1  0.24263647  0.50137557  0.77243621  1
  Bi  Bi76  1  -0.01938886  0.74167466  0.78333574  1
  Bi  Bi77  1  0.25203966  0.21821491  0.00469342  1
  Bi  Bi78  1  0.46841802  0.74747855  0.21896075  1
  Bi  Bi79  1  -0.03316677  0.72608567  0.00837553  1
  Bi  Bi80  1  -0.00753413  0.52438125  0.78650730  1
  Bi  Bi81  1  0.24121764  0.25768248  0.75894728  1
  Bi  Bi82  1  0.52763307  0.22850096  0.25990626  1
  Bi  Bi83  1  0.49565213  0.72396995  -0.00803637  1
  Bi  Bi84  1  0.75668518  0.02292258  0.51979857  1
  Bi  Bi85  1  0.75352774  0.25584497  0.27429428  1
  Bi  Bi86  1  0.01279566  0.26865505  0.51617933  1
  Bi  Bi87  1  0.26452242  0.51645034  0.23327406  1
  Bi  Bi88  1  0.53742167  0.47446131  0.00548023  1
  Bi  Bi89  1  0.02264316  -0.04199482  0.29242581  1
  Bi  Bi90  1  0.24330308  -0.01916586  -0.00536447  1
  Bi  Bi91  1  0.70452044  0.47841890  0.26613286  1
  Bi  Bi92  1  0.78032091  0.52858262  -0.02591658  1
  Bi  Bi93  1  0.73256969  0.74928721  0.52540144  1
  Bi  Bi94  1  0.27035620  -0.02323388  0.24812223  1
  Bi  Bi95  1  -0.01146052  0.49475102  0.02322811  1
  Bi  Bi96  1  0.24674974  0.74921406  0.00895907  1
  Bi  Bi97  1  0.22138662  -0.03003540  0.48513073  1
  Bi  Bi98  1  -0.00330245  0.00811245  0.52100703  1
  Bi  Bi99  1  0.01354798  0.28274318  0.76223060  1
  Bi  Bi100  1  0.23405643  0.25151031  0.46788072  1
  Bi  Bi101  1  0.72950027  -0.02002093  0.23934995  1
  Bi  Bi102  1  0.72510304  -0.00018118  0.76844318  1
  Bi  Bi103  1  0.72851423  0.27431537  0.04455420  1
  Bi  Bi104  1  0.50946528  0.00634226  -0.04209248  1
  Bi  Bi105  1  0.75081368  0.74903134  0.78324880  1
  Bi  Bi106  1  0.26621420  0.75148892  0.26128960  1
  Bi  Bi107  1  -0.00964531  0.49643975  0.25973748  1
  Bi  Bi108  1  0.49110577  0.47060937  0.24649146  1
  Bi  Bi109  1  0.24194851  0.50793856  0.47912865  1
  Bi  Bi110  1  0.77475945  0.53161853  0.75410970  1
  Bi  Bi111  1  -0.01016267  0.23902692  0.00946438  1
  Bi  Bi112  1  0.49175984  0.24052352  0.73539808  1
  Bi  Bi113  1  0.01173224  0.50698538  0.50933462  1
  Bi  Bi114  1  0.25886996  -0.03054090  0.73923372  1
  Bi  Bi115  1  0.72935883  0.24885809  0.75880887  1
  Bi  Bi116  1  0.48111782  0.00083695  0.53428922  1
  Bi  Bi117  1  0.73328367  0.74730437  0.03037501  1
  Bi  Bi118  1  0.73004464  0.02703038  -0.00149729  1
  Bi  Bi119  1  -0.00753721  0.25764326  0.28210933  1
  Bi  Bi120  1  0.48450895  0.47513726  0.75541557  1
  Bi  Bi121  1  0.23318471  0.75274518  0.48467363  1
  Bi  Bi122  1  0.48425954  0.23604157  0.48575948  1
  Bi  Bi123  1  0.51049588  0.25482635  0.03073492  1
  Bi  Bi124  1  0.47843081  0.51133969  0.49060061  1
  O  O125  1  0.10565006  0.14007696  0.00051609  1
  O  O126  1  0.13461641  0.10136737  0.24667692  1
  O  O127  1  0.11370521  0.15754290  0.49264438  1
  O  O128  1  0.12974669  0.09709283  0.74009570  1
  O  O129  1  0.15445404  0.36169730  0.00158187  1
  O  O130  1  0.09623728  0.39101424  0.24653780  1
  O  O131  1  0.13180349  0.34289475  0.50071647  1
  O  O132  1  0.10094134  0.39203618  0.75211345  1
  O  O133  1  0.14861000  0.65097278  -0.00165063  1
  O  O134  1  0.13920436  0.60614334  0.24263368  1
  O  O135  1  0.15539619  0.63929283  0.50317237  1
  O  O136  1  0.11502027  0.59254017  0.74134692  1
  O  O137  1  0.15215729  0.85974111  -0.00919094  1
  O  O138  1  0.12951913  0.88950786  0.23622031  1
  O  O139  1  0.13478411  0.85432564  0.50274724  1
  O  O140  1  0.11927705  0.90135275  0.74275230  1
  O  O141  1  0.35971892  0.10802565  -0.00346751  1
  O  O142  1  0.33861918  0.15223055  0.24452633  1
  O  O143  1  0.39154560  0.11281763  0.50887337  1
  O  O144  1  0.36884860  0.14955684  0.74901205  1
  O  O145  1  0.33276755  0.41604090  0.00067833  1
  O  O146  1  0.39983324  0.36138725  0.25826165  1
  O  O147  1  0.36901805  0.40233369  0.51155917  1
  O  O148  1  0.40504231  0.36130897  0.74722548  1
  O  O149  1  0.38301351  0.62677062  -0.01245364  1
  O  O150  1  0.36929260  0.64526438  0.24793130  1
  O  O151  1  0.36369427  0.59065984  0.50829025  1
  O  O152  1  0.40422007  0.66278004  0.74023236  1
  O  O153  1  0.35776231  0.90298895  -0.01306163  1
  O  O154  1  0.35872780  0.86337783  0.24701679  1
  O  O155  1  0.37904332  0.91129143  0.49413758  1
  O  O156  1  0.34200608  0.85374999  0.74701370  1
  O  O157  1  0.61054865  0.10912963  -0.00157958  1
  O  O158  1  0.59497780  0.10107930  0.25379871  1
  O  O159  1  0.60965377  0.13971853  0.49915540  1
  O  O160  1  0.65484407  0.11433785  0.75022056  1
  O  O161  1  0.61679287  0.35534647  -0.00643410  1
  O  O162  1  0.60404366  0.38486064  0.25966760  1
  O  O163  1  0.66395749  0.35206897  0.51494180  1
  O  O164  1  0.61800290  0.40451922  0.74987211  1
  O  O165  1  0.62138552  0.65955348  0.00198364  1
  O  O166  1  0.61361364  0.60588928  0.25153655  1
  O  O167  1  0.64250286  0.64561523  0.49842470  1
  O  O168  1  0.61263525  0.60412260  0.73647193  1
  O  O169  1  0.63028653  0.85162902  0.00720834  1
  O  O170  1  0.61174397  0.90704983  0.25296348  1
  O  O171  1  0.64178626  0.85302358  0.48948043  1
  O  O172  1  0.62440789  0.90383616  0.74277769  1
  O  O173  1  0.92072679  0.10806025  -0.00755094  1
  O  O174  1  0.85865212  0.12813086  0.24036255  1
  O  O175  1  0.88015130  0.11234261  0.48870266  1
  O  O176  1  0.85131122  0.13597437  0.74834864  1
  O  O177  1  0.86172729  0.40934529  0.01076418  1
  O  O178  1  0.91286110  0.37488858  0.24720704  1
  O  O179  1  0.84083632  0.36789732  0.50713537  1
  O  O180  1  0.90199930  0.37956005  0.74732377  1
  O  O181  1  0.88667611  0.61049521  0.00940125  1
  O  O182  1  0.86911315  0.67346282  0.25918657  1
  O  O183  1  0.87008210  0.61175612  0.49542907  1
  O  O184  1  0.89282479  0.61270799  0.73403341  1
  O  O185  1  0.86788696  0.88783311  -0.00113585  1
  O  O186  1  0.90421980  0.85044436  0.24497328  1
  O  O187  1  0.85842854  0.89330678  0.49365387  1
  O  O188  1  0.89323828  0.86717795  0.74121868  1
  O  O189  1  0.00149365  0.14949216  0.13339952  1
  O  O190  1  -0.00234892  0.13583611  0.35948150  1
  O  O191  1  -0.00828949  0.10456975  0.62692069  1
  O  O192  1  -0.00467981  0.13132543  0.83874139  1
  O  O193  1  0.00768221  0.36704170  0.09608252  1
  O  O194  1  0.00154191  0.34275618  0.39078543  1
  O  O195  1  -0.00532745  0.38953293  0.59441668  1
  O  O196  1  0.01103552  0.38177340  0.89631613  1
  O  O197  1  0.01250547  0.64384702  0.11290506  1
  O  O198  1  0.01419824  0.64952870  0.35922228  1
  O  O199  1  0.00397536  0.61339696  0.60451080  1
  O  O200  1  0.01281452  0.63362080  0.87128523  1
  O  O201  1  0.00745461  0.85198973  0.10331617  1
  O  O202  1  -0.00908455  0.85754399  0.38206101  1
  O  O203  1  -0.00397151  0.88397968  0.59364486  1
  O  O204  1  0.00430906  0.84783359  0.87585670  1
  O  O205  1  0.23821050  0.12255325  0.11137003  1
  O  O206  1  0.24164182  0.10315322  0.39060099  1
  O  O207  1  0.24576656  0.13946261  0.61616127  1
  O  O208  1  0.24862643  0.13442881  0.87389203  1
  O  O209  1  0.24145702  0.40280592  0.14332150  1
  O  O210  1  0.25767109  0.38311947  0.38369296  1
  O  O211  1  0.25414294  0.36129311  0.65006645  1
  O  O212  1  0.25186736  0.36593595  0.84094251  1
  O  O213  1  0.25051376  0.58865543  0.11464466  1
  O  O214  1  0.25445379  0.59156173  0.37017478  1
  O  O215  1  0.25368533  0.65007615  0.65252009  1
  O  O216  1  0.26316445  0.62854125  0.83747548  1
  O  O217  1  0.24450530  0.90889291  0.11816915  1
  O  O218  1  0.26079851  0.90249322  0.37100914  1
  O  O219  1  0.23950727  0.88388788  0.61880468  1
  O  O220  1  0.24034547  0.91059773  0.86691859  1
  O  O221  1  0.48242712  0.15163940  0.12927222  1
  O  O222  1  0.49755391  0.14996387  0.37306585  1
  O  O223  1  0.50141786  0.11723669  0.65391489  1
  O  O224  1  0.49511726  0.10238163  0.85872940  1
  O  O225  1  0.48075359  0.37134620  0.09719015  1
  O  O226  1  0.49852514  0.35127794  0.40560831  1
  O  O227  1  0.50939656  0.39734518  0.61669899  1
  O  O228  1  0.50168746  0.39897498  0.88134750  1
  O  O229  1  0.50511559  0.65498690  0.11983612  1
  O  O230  1  0.50421042  0.62727793  0.40033982  1
  O  O231  1  0.51012146  0.61928920  0.59992578  1
  O  O232  1  0.49973558  0.63845406  0.87340712  1
  O  O233  1  0.50116118  0.85819527  0.12294953  1
  O  O234  1  0.50142800  0.85542639  0.36780892  1
  O  O235  1  0.50713497  0.87398943  0.60727092  1
  O  O236  1  0.49168871  0.88382147  0.87880760  1
  O  O237  1  0.76494455  0.12730958  0.09191475  1
  O  O238  1  0.74737664  0.10796669  0.37430823  1
  O  O239  1  0.75556522  0.14845935  0.59375368  1
  O  O240  1  0.75892228  0.12003348  0.89510330  1
  O  O241  1  0.76299594  0.36389645  0.15020810  1
  O  O242  1  0.75239660  0.37463470  0.34629285  1
  O  O243  1  0.75646077  0.35018328  0.65326296  1
  O  O244  1  0.74503319  0.35412336  0.86408066  1
  O  O245  1  0.74579495  0.62626951  0.11564134  1
  O  O246  1  0.74909460  0.61010231  0.36490603  1
  O  O247  1  0.75670736  0.64422720  0.63441824  1
  O  O248  1  0.74922451  0.62698574  0.85528247  1
  O  O249  1  0.76804068  0.87889455  0.15399167  1
  O  O250  1  0.75247122  0.86848524  0.33327563  1
  O  O251  1  0.75291688  0.85416603  0.63152445  1
  O  O252  1  0.75639765  0.87041936  0.86065990  1
  O  O253  1  0.09676302  0.00103646  0.09336494  1
  O  O254  1  0.10046389  0.00497391  0.40211741  1
  O  O255  1  0.11836795  0.00861326  0.58930282  1
  O  O256  1  0.08784749  -0.00210616  0.88815860  1
  O  O257  1  0.14396467  0.25267527  0.15032835  1
  O  O258  1  0.15668566  0.24222740  0.34627380  1
  O  O259  1  0.09766840  0.24472699  0.64590116  1
  O  O260  1  0.12703881  0.25634820  0.84935095  1
  O  O261  1  0.11190532  0.50496024  0.09586221  1
  O  O262  1  0.11134614  0.50389195  0.40104312  1
  O  O263  1  0.12888673  0.50602686  0.59040185  1
  O  O264  1  0.16325078  0.49658751  0.89638130  1
  O  O265  1  0.16142978  0.75327115  0.12704023  1
  O  O266  1  0.16628761  0.73761126  0.36556325  1
  O  O267  1  0.10701383  0.74861470  0.64271874  1
  O  O268  1  0.15550459  0.75926077  0.83918034  1
  O  O269  1  0.37911992  0.01004516  0.14924215  1
  O  O270  1  0.40508623  -0.00341028  0.33963542  1
  O  O271  1  0.38397836  0.00648659  0.64319900  1
  O  O272  1  0.37282600  0.00056660  0.83325374  1
  O  O273  1  0.35195990  0.26080639  0.09419644  1
  O  O274  1  0.36622117  0.25047952  0.40361894  1
  O  O275  1  0.39470201  0.25216941  0.61721206  1
  O  O276  1  0.38029213  0.24538936  0.89862756  1
  O  O277  1  0.38508545  0.49545850  0.15123369  1
  O  O278  1  0.40625649  0.49113896  0.36445833  1
  O  O279  1  0.36861714  0.50097136  0.65803271  1
  O  O280  1  0.37074207  0.50718821  0.84416462  1
  O  O281  1  0.36768441  0.75305815  0.11643782  1
  O  O282  1  0.34871951  0.75791474  0.37892941  1
  O  O283  1  0.38856894  0.74332447  0.58656105  1
  O  O284  1  0.35795711  0.75871988  0.88086701  1
  O  O285  1  0.64487756  -0.00979153  0.11675395  1
  O  O286  1  0.60474188  -0.00048828  0.39483727  1
  O  O287  1  0.64885258  -0.00372783  0.60703624  1
  O  O288  1  0.63386865  -0.00604519  0.88643993  1
  O  O289  1  0.62162574  0.23853705  0.12139682  1
  O  O290  1  0.63781485  0.23979045  0.35053535  1
  O  O291  1  0.61648252  0.25807018  0.65779659  1
  O  O292  1  0.61126637  0.25611116  0.84461068  1
  O  O293  1  0.61782552  0.50972389  0.11360335  1
  O  O294  1  0.62831848  0.49971804  0.38618679  1
  O  O295  1  0.65785959  0.49776687  0.59951782  1
  O  O296  1  0.63984181  0.49654423  0.90540348  1
  O  O297  1  0.65754870  0.75998103  0.15034758  1
  O  O298  1  0.63460001  0.74368349  0.35392920  1
  O  O299  1  0.61885560  0.75113648  0.62822349  1
  O  O300  1  0.62210645  0.74761456  0.83270560  1
  O  O301  1  0.89312920  -0.00141056  0.13265676  1
  O  O302  1  0.88410761  -0.00485309  0.35658654  1
  O  O303  1  0.85089872  0.00077548  0.62468710  1
  O  O304  1  0.88719365  -0.00287002  0.85837989  1
  O  O305  1  0.87904983  0.25517467  0.10188784  1
  O  O306  1  0.86600176  0.24224430  0.35745607  1
  O  O307  1  0.88982178  0.24950289  0.61998583  1
  O  O308  1  0.88777788  0.24613236  0.89768275  1
  O  O309  1  0.90898099  0.50132750  0.14424217  1
  O  O310  1  0.89627826  0.50903522  0.36133770  1
  O  O311  1  0.84787111  0.49556847  0.61715975  1
  O  O312  1  0.85808628  0.49693679  0.86309187  1
  O  O313  1  0.86708165  0.75531041  0.10345848  1
  O  O314  1  0.87378045  0.75356327  0.40346389  1
  O  O315  1  0.89288402  0.75257019  0.59831567  1
  O  O316  1  0.87345805  0.75421955  0.86793446  1
