# generated using pymatgen
data_Mg32Ti42(Bi17O64)3
_symmetry_space_group_name_H-M   'P 1'
_cell_length_a   15.93970400
_cell_length_b   15.94165407
_cell_length_c   15.96770509
_cell_angle_alpha   89.93041971
_cell_angle_beta   89.86472246
_cell_angle_gamma   89.96564540
_symmetry_Int_Tables_number   1
_chemical_formula_structural   Mg32Ti42(Bi17O64)3
_chemical_formula_sum   'Mg32 Ti42 Bi51 O192'
_cell_volume   4057.46262713
_cell_formula_units_Z   1
loop_
 _symmetry_equiv_pos_site_id
 _symmetry_equiv_pos_as_xyz
  1  'x, y, z'
loop_
 _atom_site_type_symbol
 _atom_site_label
 _atom_site_symmetry_multiplicity
 _atom_site_fract_x
 _atom_site_fract_y
 _atom_site_fract_z
 _atom_site_occupancy
  Mg  Mg0  1  0.11590798  0.36690738  0.12242967  1
  Mg  Mg1  1  0.88717090  0.37511098  0.38368064  1
  Mg  Mg2  1  0.37597926  0.87530046  0.62955401  1
  Mg  Mg3  1  0.12629076  0.88751835  0.85485598  1
  Mg  Mg4  1  0.12649689  0.38580104  0.63274619  1
  Mg  Mg5  1  0.36377157  0.61423746  0.37015844  1
  Mg  Mg6  1  0.88338157  0.37930473  0.87847895  1
  Mg  Mg7  1  0.61975593  0.37074251  0.37460298  1
  Mg  Mg8  1  0.87599368  0.11437145  0.86282579  1
  Mg  Mg9  1  0.37184801  0.12647235  0.89403095  1
  Mg  Mg10  1  0.12544497  0.12903757  0.87258396  1
  Mg  Mg11  1  0.63016834  0.88378563  0.12524650  1
  Mg  Mg12  1  0.37534203  0.37607738  0.88972568  1
  Mg  Mg13  1  0.87391075  0.63673474  0.86212663  1
  Mg  Mg14  1  0.12291899  0.86678046  0.13638640  1
  Mg  Mg15  1  0.12449777  0.10271513  0.60460150  1
  Mg  Mg16  1  0.87900651  0.63000128  0.12610214  1
  Mg  Mg17  1  0.63100050  0.37587117  0.63062517  1
  Mg  Mg18  1  0.62074903  0.61982811  0.38283031  1
  Mg  Mg19  1  0.70761622  -0.01003357  0.74705914  1
  Mg  Mg20  1  0.29837928  0.77504979  0.29447961  1
  Mg  Mg21  1  0.74258583  0.02397893  0.45484273  1
  Mg  Mg22  1  0.02652197  0.20803416  0.72095947  1
  Mg  Mg23  1  -0.00881252  0.74575426  0.71399077  1
  Mg  Mg24  1  0.24652816  0.47316975  0.49551056  1
  Mg  Mg25  1  0.74398358  0.05510886  0.26416012  1
  Mg  Mg26  1  -0.03579245  -0.02077649  0.49572328  1
  Mg  Mg27  1  0.20254156  0.48772728  0.22098976  1
  Mg  Mg28  1  0.25132323  0.27977970  0.22827094  1
  Mg  Mg29  1  0.24998765  0.25990970  -0.01315865  1
  Mg  Mg30  1  0.44417924  0.24655744  0.03893785  1
  Mg  Mg31  1  0.18516761  0.70941595  0.76197513  1
  Ti  Ti32  1  0.88308148  0.12779911  0.38202343  1
  Ti  Ti33  1  0.87627320  0.10967428  0.61768723  1
  Ti  Ti34  1  0.13699707  0.62188679  0.36435099  1
  Ti  Ti35  1  0.13467986  0.61351405  0.61628792  1
  Ti  Ti36  1  0.64068968  0.87779580  0.36142401  1
  Ti  Ti37  1  0.87949908  0.87422659  0.13267163  1
  Ti  Ti38  1  0.36072364  0.37894493  0.37538589  1
  Ti  Ti39  1  0.35398435  0.14247644  0.37194562  1
  Ti  Ti40  1  0.12604865  0.63173153  0.12960986  1
  Ti  Ti41  1  0.62649056  0.87733081  0.62082637  1
  Ti  Ti42  1  0.61123858  0.61572050  0.62145454  1
  Ti  Ti43  1  0.63341991  0.11977730  0.88201641  1
  Ti  Ti44  1  0.11921523  0.87145600  0.38121250  1
  Ti  Ti45  1  0.37680771  0.62322860  0.63044178  1
  Ti  Ti46  1  0.37922381  0.12238838  0.61205596  1
  Ti  Ti47  1  0.13054129  0.36667478  0.36983785  1
  Ti  Ti48  1  0.62449750  0.35829421  0.12554481  1
  Ti  Ti49  1  0.88176140  0.12694512  0.13325918  1
  Ti  Ti50  1  0.62571279  0.63425761  0.86612029  1
  Ti  Ti51  1  0.89098103  0.39061893  0.62155396  1
  Ti  Ti52  1  0.62361213  0.12509976  0.13211404  1
  Ti  Ti53  1  0.62296197  0.13070158  0.37463688  1
  Ti  Ti54  1  0.86723709  0.88613751  0.84832401  1
  Ti  Ti55  1  0.87002737  0.61583498  0.37698267  1
  Ti  Ti56  1  0.37594141  0.38519835  0.12697274  1
  Ti  Ti57  1  0.13119245  0.13242118  0.11070337  1
  Ti  Ti58  1  0.87216797  0.86257658  0.62338598  1
  Ti  Ti59  1  0.63130916  0.37358883  0.88931453  1
  Ti  Ti60  1  0.62774566  0.87747835  0.87615034  1
  Ti  Ti61  1  0.36748367  0.39114273  0.62654467  1
  Ti  Ti62  1  0.36467844  0.87131945  0.87679640  1
  Ti  Ti63  1  0.86205052  0.62496111  0.62024133  1
  Ti  Ti64  1  0.36199347  0.63250672  0.13018770  1
  Ti  Ti65  1  0.35585130  0.12742090  0.13320224  1
  Ti  Ti66  1  0.86922483  0.37385729  0.11562530  1
  Ti  Ti67  1  0.13447741  0.87294270  0.62474620  1
  Ti  Ti68  1  0.86970869  0.87855307  0.37468151  1
  Ti  Ti69  1  0.12272981  0.36778265  0.86431361  1
  Ti  Ti70  1  0.63516550  0.12821257  0.63092121  1
  Ti  Ti71  1  0.36556567  0.86918058  0.11946492  1
  Ti  Ti72  1  0.12848018  0.12171556  0.37794416  1
  Ti  Ti73  1  0.37911578  0.63332541  0.88853577  1
  Bi  Bi74  1  0.77113242  0.54317283  -0.00474787  1
  Bi  Bi75  1  0.77682199  0.27987879  0.26294397  1
  Bi  Bi76  1  0.49337226  0.01072544  0.02896562  1
  Bi  Bi77  1  0.46716655  0.76057157  0.47556570  1
  Bi  Bi78  1  0.02159114  0.23395699  0.24030896  1
  Bi  Bi79  1  0.76387308  0.77497181  0.01020964  1
  Bi  Bi80  1  0.24448895  0.03573930  0.74905869  1
  Bi  Bi81  1  0.24306749  -0.02288316  0.26513500  1
  Bi  Bi82  1  0.00959909  0.24313618  0.52926661  1
  Bi  Bi83  1  0.01125314  -0.00503750  0.71637930  1
  Bi  Bi84  1  0.00014311  -0.00343837  0.26217763  1
  Bi  Bi85  1  0.76605657  0.01486776  0.02180799  1
  Bi  Bi86  1  0.51721579  0.49314449  0.77840527  1
  Bi  Bi87  1  0.28572469  0.25693558  0.76286691  1
  Bi  Bi88  1  0.47203382  0.00118500  0.28467878  1
  Bi  Bi89  1  0.72918136  0.75293535  0.73098962  1
  Bi  Bi90  1  0.80172772  0.24992191  0.73203650  1
  Bi  Bi91  1  0.76685484  0.24293978  -0.03357162  1
  Bi  Bi92  1  0.24997729  0.73429311  0.50507680  1
  Bi  Bi93  1  0.53017018  0.74566744  0.03104192  1
  Bi  Bi94  1  0.48704093  0.77558976  0.74339054  1
  Bi  Bi95  1  0.25812323  0.51883976  0.78685161  1
  Bi  Bi96  1  0.75475750  0.27144812  0.50293686  1
  Bi  Bi97  1  0.21267559  0.73837516  -0.03968452  1
  Bi  Bi98  1  -0.01471491  0.48029257  0.23119917  1
  Bi  Bi99  1  0.01431776  0.50454791  0.48055469  1
  Bi  Bi100  1  0.73280756  0.51663613  0.21139591  1
  Bi  Bi101  1  0.71103462  0.72516875  0.22987214  1
  Bi  Bi102  1  0.48919404  0.27217054  0.24696360  1
  Bi  Bi103  1  0.77295747  0.49475679  0.77191812  1
  Bi  Bi104  1  0.48908327  0.78748272  0.25453549  1
  Bi  Bi105  1  -0.00532865  0.74274803  0.23206592  1
  Bi  Bi106  1  0.47900244  0.00571478  0.78231208  1
  Bi  Bi107  1  0.72066951  0.74657519  0.48824701  1
  Bi  Bi108  1  0.24421017  0.25974365  0.53159714  1
  Bi  Bi109  1  0.51319191  0.26883162  0.77905686  1
  Bi  Bi110  1  -0.00146186  0.24625225  -0.03906606  1
  Bi  Bi111  1  -0.00061255  -0.00382937  -0.02190035  1
  Bi  Bi112  1  -0.00396585  0.73898915  0.47346162  1
  Bi  Bi113  1  0.02854913  0.52638089  -0.02769791  1
  Bi  Bi114  1  0.52218587  0.00848084  0.51114111  1
  Bi  Bi115  1  0.52937566  0.52809844  0.02262775  1
  Bi  Bi116  1  -0.00231158  0.76303166  -0.05874769  1
  Bi  Bi117  1  0.00964909  0.52988913  0.74847906  1
  Bi  Bi118  1  0.49504433  0.50063606  0.47929904  1
  Bi  Bi119  1  0.28888816  -0.03668428  0.48495498  1
  Bi  Bi120  1  0.51251410  0.27511887  0.51384068  1
  Bi  Bi121  1  0.49734905  0.52695502  0.24213609  1
  Bi  Bi122  1  0.22169143  -0.03159763  0.00548271  1
  Bi  Bi123  1  0.73749275  0.49008445  0.48905243  1
  Bi  Bi124  1  0.23459645  0.47183193  0.01666205  1
  O  O125  1  0.15008595  0.17168689  0.00511800  1
  O  O126  1  0.09214661  0.11242164  0.25333170  1
  O  O127  1  0.12232922  0.15515466  0.48973147  1
  O  O128  1  0.11138238  0.10371192  0.73854469  1
  O  O129  1  0.16059912  0.35289190  0.00623852  1
  O  O130  1  0.10716576  0.40982973  0.25496772  1
  O  O131  1  0.16396957  0.36587448  0.48433669  1
  O  O132  1  0.12015831  0.40627704  0.75900794  1
  O  O133  1  0.11421085  0.64727666  0.01105629  1
  O  O134  1  0.14040010  0.59300338  0.25332072  1
  O  O135  1  0.12674982  0.65775833  0.50192744  1
  O  O136  1  0.13674925  0.59585744  0.73762920  1
  O  O137  1  0.13681142  0.85686289  0.00757761  1
  O  O138  1  0.11835087  0.91495505  0.25779404  1
  O  O139  1  0.12961295  0.85288574  0.49778701  1
  O  O140  1  0.12842087  0.92483238  0.73636117  1
  O  O141  1  0.34966330  0.16423926  0.01444179  1
  O  O142  1  0.39481144  0.11213347  0.24995513  1
  O  O143  1  0.35499801  0.14206656  0.48803826  1
  O  O144  1  0.38118263  0.09380212  0.73076211  1
  O  O145  1  0.35607752  0.34181737  0.01402649  1
  O  O146  1  0.41282903  0.39289211  0.25419138  1
  O  O147  1  0.33881357  0.35457063  0.49266170  1
  O  O148  1  0.37189341  0.38956709  0.74293254  1
  O  O149  1  0.36970156  0.64877323  -0.00000121  1
  O  O150  1  0.37560806  0.59491877  0.24121885  1
  O  O151  1  0.37236990  0.65589520  0.49983987  1
  O  O152  1  0.37036404  0.59513548  0.74210780  1
  O  O153  1  0.35918555  0.86122449  0.00334664  1
  O  O154  1  0.38559749  0.88323352  0.24749301  1
  O  O155  1  0.36746791  0.84875045  0.50065976  1
  O  O156  1  0.38815345  0.88701704  0.75621383  1
  O  O157  1  0.65054519  0.12215643  -0.00283509  1
  O  O158  1  0.61763653  0.11231469  0.25212373  1
  O  O159  1  0.64421671  0.10068020  0.49746700  1
  O  O160  1  0.63138272  0.10073287  0.74327698  1
  O  O161  1  0.63489377  0.36049372  0.00299968  1
  O  O162  1  0.60046402  0.37192815  0.24666094  1
  O  O163  1  0.63151891  0.34779393  0.50559652  1
  O  O164  1  0.60697085  0.38377518  0.75234312  1
  O  O165  1  0.61686088  0.63420537  -0.01093318  1
  O  O166  1  0.63678972  0.60814340  0.25841465  1
  O  O167  1  0.61112376  0.65221582  0.50822366  1
  O  O168  1  0.61827354  0.59362980  0.74874395  1
  O  O169  1  0.63228989  0.84678489  -0.00763419  1
  O  O170  1  0.64665821  0.86635932  0.24912618  1
  O  O171  1  0.62199192  0.85398258  0.50486781  1
  O  O172  1  0.65064500  0.87649703  0.75205354  1
  O  O173  1  0.84793812  0.13461677  0.01423054  1
  O  O174  1  0.87253681  0.09665414  0.25323325  1
  O  O175  1  0.87163174  0.15223652  0.50080303  1
  O  O176  1  0.89154072  0.12710295  0.73761222  1
  O  O177  1  0.86499848  0.34871034  0.00599185  1
  O  O178  1  0.87392247  0.38560361  0.25509776  1
  O  O179  1  0.87084903  0.35169894  0.50797563  1
  O  O180  1  0.87485163  0.40432625  0.74703221  1
  O  O181  1  0.86759409  0.64093069  -0.00527917  1
  O  O182  1  0.86081629  0.60488672  0.26333646  1
  O  O183  1  0.89489810  0.64601736  0.50623667  1
  O  O184  1  0.87105489  0.59394309  0.74131025  1
  O  O185  1  0.89061090  0.84351279  0.01236777  1
  O  O186  1  0.86540359  0.89993969  0.26255990  1
  O  O187  1  0.90513798  0.86087395  0.51344613  1
  O  O188  1  0.82984617  0.92122948  0.74739852  1
  O  O189  1  -0.00123312  0.14445100  0.11650477  1
  O  O190  1  -0.00277224  0.09807156  0.38495424  1
  O  O191  1  -0.00377621  0.13093996  0.60972517  1
  O  O192  1  -0.00165671  0.11506873  0.90614215  1
  O  O193  1  -0.01087690  0.37776358  0.13169480  1
  O  O194  1  0.01547022  0.39586726  0.39752784  1
  O  O195  1  0.00328570  0.41498494  0.60339727  1
  O  O196  1  0.00944846  0.39316568  0.90617462  1
  O  O197  1  0.00407005  0.61971299  0.14895310  1
  O  O198  1  0.01003903  0.62141555  0.37975500  1
  O  O199  1  0.00834839  0.62468864  0.64293202  1
  O  O200  1  0.00011235  0.60624343  0.86412165  1
  O  O201  1  -0.00342128  0.86846988  0.15559972  1
  O  O202  1  0.00130419  0.91364580  0.38469352  1
  O  O203  1  -0.02170616  0.86537233  0.67467012  1
  O  O204  1  -0.00357121  0.89190611  0.87771011  1
  O  O205  1  0.24411069  0.11268275  0.14789001  1
  O  O206  1  0.24312212  0.15596399  0.34592099  1
  O  O207  1  0.25224604  0.10285054  0.62707016  1
  O  O208  1  0.25074206  0.13975211  0.84459646  1
  O  O209  1  0.26004827  0.39409611  0.15689865  1
  O  O210  1  0.25067586  0.35777053  0.32998539  1
  O  O211  1  0.25092589  0.35281302  0.63436678  1
  O  O212  1  0.24439446  0.33331419  0.86985000  1
  O  O213  1  0.24897341  0.60641473  0.12188297  1
  O  O214  1  0.24634183  0.67519264  0.36835554  1
  O  O215  1  0.24898430  0.65530616  0.62681083  1
  O  O216  1  0.25794200  0.64784667  0.85055572  1
  O  O217  1  0.24991465  0.89387790  0.14253915  1
  O  O218  1  0.24161697  0.86844603  0.35647839  1
  O  O219  1  0.24659979  0.88421784  0.61883929  1
  O  O220  1  0.25216937  0.86900694  0.87372934  1
  O  O221  1  0.49865605  0.13841936  0.09395576  1
  O  O222  1  0.50740875  0.08921141  0.39391154  1
  O  O223  1  0.50652246  0.10910017  0.60088991  1
  O  O224  1  0.51121171  0.10395928  0.87993179  1
  O  O225  1  0.49599542  0.33799752  0.11215122  1
  O  O226  1  0.48771077  0.38150246  0.40997046  1
  O  O227  1  0.48629395  0.38089118  0.60051911  1
  O  O228  1  0.50072061  0.37537423  0.87257587  1
  O  O229  1  0.49125711  0.62875630  0.11567148  1
  O  O230  1  0.49255176  0.58771000  0.36798298  1
  O  O231  1  0.49510448  0.59716433  0.62399725  1
  O  O232  1  0.49548510  0.60929707  0.87245518  1
  O  O233  1  0.49082715  0.86472231  0.11426486  1
  O  O234  1  0.51894330  0.87743137  0.36634762  1
  O  O235  1  0.51061052  0.87975655  0.64027080  1
  O  O236  1  0.51376102  0.89033975  0.87393760  1
  O  O237  1  0.74286599  0.09193454  0.14283024  1
  O  O238  1  0.75072165  0.13000523  0.36775254  1
  O  O239  1  0.75866267  0.15007391  0.63124912  1
  O  O240  1  0.75188102  0.14525795  0.86249589  1
  O  O241  1  0.74557987  0.36920276  0.14582474  1
  O  O242  1  0.75166552  0.35908742  0.38433774  1
  O  O243  1  0.75933995  0.34382722  0.62855048  1
  O  O244  1  0.74554130  0.36109727  0.86394015  1
  O  O245  1  0.75093907  0.62218484  0.12699757  1
  O  O246  1  0.75607584  0.61542571  0.40876896  1
  O  O247  1  0.74739842  0.64435680  0.62318118  1
  O  O248  1  0.74350592  0.62776363  0.86803913  1
  O  O249  1  0.75833864  0.88302416  0.10422471  1
  O  O250  1  0.75844077  0.86588230  0.40619419  1
  O  O251  1  0.75016283  0.83793770  0.61783703  1
  O  O252  1  0.76501962  0.84239531  0.88754614  1
  O  O253  1  0.11828885  0.01500859  0.09056176  1
  O  O254  1  0.15676752  0.01152842  0.38873257  1
  O  O255  1  0.07219008  -0.01845897  0.59038512  1
  O  O256  1  0.13014569  0.00434980  0.90829496  1
  O  O257  1  0.13991991  0.25011904  0.16704668  1
  O  O258  1  0.10286823  0.25585765  0.35274222  1
  O  O259  1  0.10253892  0.25933831  0.62867000  1
  O  O260  1  0.08049054  0.25218410  0.84468298  1
  O  O261  1  0.12667467  0.49774833  0.10530543  1
  O  O262  1  0.15321159  0.51381454  0.40328483  1
  O  O263  1  0.15386626  0.50676802  0.58605382  1
  O  O264  1  0.14818489  0.49138343  0.90689552  1
  O  O265  1  0.12166833  0.74237587  0.16113770  1
  O  O266  1  0.09403339  0.76254959  0.35529331  1
  O  O267  1  0.11563855  0.76306310  0.66870484  1
  O  O268  1  0.12061093  0.76003179  0.85929485  1
  O  O269  1  0.38239360  0.00429093  0.11195373  1
  O  O270  1  0.35969397  0.01159094  0.37171002  1
  O  O271  1  0.38833286  -0.00174608  0.57469125  1
  O  O272  1  0.37885980  -0.00315211  0.88320386  1
  O  O273  1  0.35960701  0.24845859  0.16469411  1
  O  O274  1  0.39220680  0.25230515  0.35630353  1
  O  O275  1  0.37959688  0.23856825  0.62668152  1
  O  O276  1  0.39168270  0.24632290  0.85177473  1
  O  O277  1  0.39642912  0.49444423  0.10262229  1
  O  O278  1  0.34449185  0.49128644  0.40456267  1
  O  O279  1  0.34550364  0.50021294  0.59314218  1
  O  O280  1  0.35063440  0.50660607  0.89164234  1
  O  O281  1  0.35886160  0.74924582  0.16132264  1
  O  O282  1  0.40382065  0.74077572  0.35277742  1
  O  O283  1  0.39905740  0.74228586  0.64288488  1
  O  O284  1  0.39381596  0.75356460  0.86187781  1
  O  O285  1  0.59941737  0.00360508  0.11246084  1
  O  O286  1  0.66236691  -0.00665327  0.36327207  1
  O  O287  1  0.65443562  -0.01046446  0.62367933  1
  O  O288  1  0.66033160  -0.00736922  0.87194568  1
  O  O289  1  0.63779813  0.23991390  0.13516016  1
  O  O290  1  0.59904632  0.23994099  0.37678775  1
  O  O291  1  0.60585647  0.23870684  0.62916254  1
  O  O292  1  0.61177309  0.24340452  0.86897010  1
  O  O293  1  0.62035095  0.48503665  0.11869166  1
  O  O294  1  0.62304870  0.49450035  0.41188400  1
  O  O295  1  0.64525991  0.50343361  0.59891005  1
  O  O296  1  0.62021124  0.49395054  0.88516702  1
  O  O297  1  0.62172346  0.75503179  0.13080564  1
  O  O298  1  0.64263574  0.74727538  0.36671996  1
  O  O299  1  0.61289712  0.74052928  0.65716651  1
  O  O300  1  0.61852714  0.74684290  0.84889870  1
  O  O301  1  0.88555559  -0.00091521  0.10490509  1
  O  O302  1  0.85958617  0.00061849  0.41498346  1
  O  O303  1  0.88137257  -0.00127541  0.60003053  1
  O  O304  1  0.86712741  -0.00789723  0.90377353  1
  O  O305  1  0.86283172  0.24346600  0.15134920  1
  O  O306  1  0.88895959  0.24219185  0.35256722  1
  O  O307  1  0.92002445  0.27219708  0.65656706  1
  O  O308  1  0.88625864  0.24922209  0.87834141  1
  O  O309  1  0.86146154  0.49400544  0.10776868  1
  O  O310  1  0.88732555  0.50381572  0.40517463  1
  O  O311  1  0.85469560  0.50486699  0.60086563  1
  O  O312  1  0.85192907  0.50120845  0.88805203  1
  O  O313  1  0.87048382  0.75563655  0.15759998  1
  O  O314  1  0.89612825  0.75653703  0.37172544  1
  O  O315  1  0.88136474  0.74482173  0.65004916  1
  O  O316  1  0.91341477  0.76017345  0.83087138  1
