# generated using pymatgen
data_Mg32Ti42(Bi17O64)3
_symmetry_space_group_name_H-M   'P 1'
_cell_length_a   15.94788546
_cell_length_b   15.97464521
_cell_length_c   15.96444302
_cell_angle_alpha   89.98291964
_cell_angle_beta   89.99010159
_cell_angle_gamma   90.06862634
_symmetry_Int_Tables_number   1
_chemical_formula_structural   Mg32Ti42(Bi17O64)3
_chemical_formula_sum   'Mg32 Ti42 Bi51 O192'
_cell_volume   4067.12727307
_cell_formula_units_Z   1
loop_
 _symmetry_equiv_pos_site_id
 _symmetry_equiv_pos_as_xyz
  1  'x, y, z'
loop_
 _atom_site_type_symbol
 _atom_site_label
 _atom_site_symmetry_multiplicity
 _atom_site_fract_x
 _atom_site_fract_y
 _atom_site_fract_z
 _atom_site_occupancy
  Mg  Mg0  1  0.39848855  0.60897483  0.87114413  1
  Mg  Mg1  1  0.86662475  0.87206076  0.62041085  1
  Mg  Mg2  1  0.87634708  0.62698830  0.87199670  1
  Mg  Mg3  1  0.37861493  0.63343076  0.37746870  1
  Mg  Mg4  1  0.37951645  0.61475537  0.63172652  1
  Mg  Mg5  1  0.88870766  0.63410960  0.12353054  1
  Mg  Mg6  1  0.13336627  0.87080921  0.86603721  1
  Mg  Mg7  1  0.37642547  0.37064206  0.62671123  1
  Mg  Mg8  1  0.61696627  0.11533817  0.36116263  1
  Mg  Mg9  1  0.38406874  0.12499457  0.88620067  1
  Mg  Mg10  1  0.37720440  0.62160737  0.12022654  1
  Mg  Mg11  1  0.12141630  0.13133118  0.36807584  1
  Mg  Mg12  1  0.38208414  0.12878582  0.61683154  1
  Mg  Mg13  1  0.12036201  0.13088930  0.88056120  1
  Mg  Mg14  1  0.13072006  0.87413690  0.12705624  1
  Mg  Mg15  1  0.62556038  0.63111119  0.87004127  1
  Mg  Mg16  1  0.87455760  0.62671005  0.36977596  1
  Mg  Mg17  1  0.37342144  0.36660219  0.36993270  1
  Mg  Mg18  1  0.62484520  0.37610807  0.36118935  1
  Mg  Mg19  1  0.69847650  0.74283205  0.55034859  1
  Mg  Mg20  1  0.70620170  0.30445784  0.76302569  1
  Mg  Mg21  1  0.50613272  -0.04090710  0.26934244  1
  Mg  Mg22  1  0.01686928  0.28872884  0.00033715  1
  Mg  Mg23  1  0.50253283  0.71958334  0.22523182  1
  Mg  Mg24  1  0.76767195  0.03244652  0.74872825  1
  Mg  Mg25  1  0.55773380  0.48822227  -0.04291972  1
  Mg  Mg26  1  0.76700355  0.50808018  0.79386000  1
  Mg  Mg27  1  0.51426463  0.78603963  0.74524280  1
  Mg  Mg28  1  0.48441371  0.29859308  0.22711735  1
  Mg  Mg29  1  -0.00381324  0.49553667  0.18820674  1
  Mg  Mg30  1  0.57034819  0.48893992  0.79327468  1
  Mg  Mg31  1  0.55934310  0.00983921  0.00780702  1
  Ti  Ti32  1  0.61264938  0.88292730  0.87553278  1
  Ti  Ti33  1  0.62695348  0.38367261  0.62060786  1
  Ti  Ti34  1  0.38656565  0.87489340  0.38270704  1
  Ti  Ti35  1  0.12849485  0.36851678  0.36683003  1
  Ti  Ti36  1  0.12641353  0.86945040  0.62670479  1
  Ti  Ti37  1  0.88182667  0.36922951  0.87840654  1
  Ti  Ti38  1  0.37621882  0.88426642  0.86033053  1
  Ti  Ti39  1  0.87045049  0.36938594  0.11884560  1
  Ti  Ti40  1  0.12256431  0.12011861  0.12314955  1
  Ti  Ti41  1  0.11928567  0.62978951  0.86129869  1
  Ti  Ti42  1  0.87997036  0.14031037  0.87175549  1
  Ti  Ti43  1  0.61782151  0.61372701  0.64219904  1
  Ti  Ti44  1  0.61735889  0.63218642  0.12015871  1
  Ti  Ti45  1  0.86243855  0.37559962  0.63017366  1
  Ti  Ti46  1  0.63263459  0.87138732  0.39116010  1
  Ti  Ti47  1  0.11349678  0.61975980  0.61902912  1
  Ti  Ti48  1  0.38456155  0.12769531  0.36661904  1
  Ti  Ti49  1  0.62554904  0.13063574  0.63196641  1
  Ti  Ti50  1  0.11870348  0.63988476  0.12117351  1
  Ti  Ti51  1  0.13057664  0.87273103  0.38241086  1
  Ti  Ti52  1  0.63178378  0.38086699  0.13092719  1
  Ti  Ti53  1  0.12584918  0.37530217  0.12078981  1
  Ti  Ti54  1  0.39593152  0.11909461  0.12224759  1
  Ti  Ti55  1  0.12310005  0.60720821  0.38087240  1
  Ti  Ti56  1  0.62346465  0.64896019  0.36370246  1
  Ti  Ti57  1  0.88233956  0.12159162  0.37666644  1
  Ti  Ti58  1  0.38996319  0.88191573  0.12564585  1
  Ti  Ti59  1  0.86212208  0.62009520  0.63028001  1
  Ti  Ti60  1  0.88122562  0.88730170  0.12692838  1
  Ti  Ti61  1  0.86978648  0.37410115  0.35760448  1
  Ti  Ti62  1  0.86783331  0.14412096  0.63591446  1
  Ti  Ti63  1  0.62646238  0.13273517  0.11531633  1
  Ti  Ti64  1  0.63192394  0.88723062  0.63344885  1
  Ti  Ti65  1  0.62504685  0.11878683  0.86301510  1
  Ti  Ti66  1  0.37435359  0.37813024  0.87997961  1
  Ti  Ti67  1  0.11257422  0.38642354  0.61929509  1
  Ti  Ti68  1  0.88021452  0.87941997  0.38327095  1
  Ti  Ti69  1  0.36545546  0.38408012  0.12497301  1
  Ti  Ti70  1  0.12646787  0.36665676  0.86862726  1
  Ti  Ti71  1  0.88009544  0.12544111  0.11890177  1
  Ti  Ti72  1  0.62620187  0.88399783  0.13077628  1
  Ti  Ti73  1  0.36921638  0.87966579  0.62552138  1
  Bi  Bi74  1  0.27758560  0.75787080  0.24654524  1
  Bi  Bi75  1  0.76665786  0.02084792  0.52179098  1
  Bi  Bi76  1  0.78073323  0.00333167  -0.01344874  1
  Bi  Bi77  1  0.26173814  0.23811624  -0.00132482  1
  Bi  Bi78  1  0.74731212  0.21647560  0.24167189  1
  Bi  Bi79  1  0.51352677  0.25825709  0.47662543  1
  Bi  Bi80  1  0.26282774  0.23264690  0.23223208  1
  Bi  Bi81  1  -0.01354751  0.76457602  -0.02365368  1
  Bi  Bi82  1  -0.04289358  -0.02344828  0.78112038  1
  Bi  Bi83  1  0.22380104  0.03135028  0.72673384  1
  Bi  Bi84  1  0.26804680  0.49259946  0.74346117  1
  Bi  Bi85  1  -0.01827648  0.49178780  0.74386146  1
  Bi  Bi86  1  -0.00348897  0.76750667  0.72621143  1
  Bi  Bi87  1  0.02204197  0.02260250  0.54154972  1
  Bi  Bi88  1  0.26677867  0.46971332  0.50069450  1
  Bi  Bi89  1  0.71624843  0.25725587  -0.03400661  1
  Bi  Bi90  1  0.74632519  0.52712506  -0.01159668  1
  Bi  Bi91  1  0.51657856  0.27447531  0.74289720  1
  Bi  Bi92  1  0.49055668  0.74088488  0.54748907  1
  Bi  Bi93  1  0.04194950  0.22357337  0.72239699  1
  Bi  Bi94  1  0.02869904  -0.01525139  0.26166189  1
  Bi  Bi95  1  -0.00496438  0.27486469  0.48066219  1
  Bi  Bi96  1  0.23473859  0.23565627  0.53844359  1
  Bi  Bi97  1  0.02086594  0.73335027  0.27176580  1
  Bi  Bi98  1  0.28026026  0.24075989  0.76992725  1
  Bi  Bi99  1  0.01223334  0.25091201  0.22327773  1
  Bi  Bi100  1  0.78703919  0.76009911  0.24441404  1
  Bi  Bi101  1  0.26602268  -0.01130801  0.23582009  1
  Bi  Bi102  1  0.26518273  0.72804719  0.73595834  1
  Bi  Bi103  1  0.28728592  0.74889538  -0.01793882  1
  Bi  Bi104  1  -0.03799536  0.49688228  0.48781144  1
  Bi  Bi105  1  0.49288711  0.01860147  0.48567501  1
  Bi  Bi106  1  0.50368122  0.75204349  -0.02315831  1
  Bi  Bi107  1  -0.00207225  0.51728447  -0.02305078  1
  Bi  Bi108  1  0.47085953  0.02426106  0.74633332  1
  Bi  Bi109  1  0.75591684  0.53532722  0.22589546  1
  Bi  Bi110  1  0.75908285  0.78701055  0.76250510  1
  Bi  Bi111  1  0.24486433  0.53065713  -0.01986099  1
  Bi  Bi112  1  0.77850834  0.76352780  -0.01144100  1
  Bi  Bi113  1  0.49152261  0.48026954  0.48143988  1
  Bi  Bi114  1  0.50390057  0.28944958  0.00387647  1
  Bi  Bi115  1  0.01727078  -0.01112996  -0.00364427  1
  Bi  Bi116  1  -0.01823137  0.74311148  0.50526973  1
  Bi  Bi117  1  0.73626306  0.25217428  0.46490182  1
  Bi  Bi118  1  0.74549555  -0.01385820  0.27621213  1
  Bi  Bi119  1  0.23993770  -0.00292258  -0.03202917  1
  Bi  Bi120  1  0.26494858  0.73350611  0.49339314  1
  Bi  Bi121  1  0.47785086  0.51892721  0.26096383  1
  Bi  Bi122  1  0.23581709  0.02260743  0.48560257  1
  Bi  Bi123  1  0.72180548  0.53672258  0.47962887  1
  Bi  Bi124  1  0.24172029  0.52844107  0.23068463  1
  O  O125  1  0.12071050  0.09458517  0.00504013  1
  O  O126  1  0.13192432  0.16038882  0.24289780  1
  O  O127  1  0.11594411  0.10260343  0.49256634  1
  O  O128  1  0.14962514  0.14591121  0.75395110  1
  O  O129  1  0.10715942  0.38610470  0.00778423  1
  O  O130  1  0.12797393  0.34443757  0.25424787  1
  O  O131  1  0.08849178  0.39319294  0.50624117  1
  O  O132  1  0.13215553  0.35456647  0.75300920  1
  O  O133  1  0.10709779  0.60561870  0.00717478  1
  O  O134  1  0.14934759  0.63688923  0.26016819  1
  O  O135  1  0.10097375  0.60993668  0.50385599  1
  O  O136  1  0.14514906  0.64361193  0.75013269  1
  O  O137  1  0.12954672  0.90878547  0.00195101  1
  O  O138  1  0.10794292  0.86454326  0.25535961  1
  O  O139  1  0.11277037  0.89067640  0.50007828  1
  O  O140  1  0.13282394  0.84336012  0.74146650  1
  O  O141  1  0.37836875  0.15213845  0.01123692  1
  O  O142  1  0.35066877  0.10660493  0.25017799  1
  O  O143  1  0.41612043  0.13279170  0.49062828  1
  O  O144  1  0.35582639  0.10872094  0.75134424  1
  O  O145  1  0.36458666  0.34777358  0.00324922  1
  O  O146  1  0.38576593  0.38510201  0.24470720  1
  O  O147  1  0.37688691  0.38764546  0.49944338  1
  O  O148  1  0.35894635  0.38228659  0.75613519  1
  O  O149  1  0.37111419  0.63459611  -0.00322419  1
  O  O150  1  0.36012298  0.60303931  0.24985678  1
  O  O151  1  0.38296477  0.65768183  0.50697075  1
  O  O152  1  0.34285985  0.61368911  0.75440556  1
  O  O153  1  0.39604753  0.85128132  0.01338572  1
  O  O154  1  0.38323206  0.90837633  0.26685752  1
  O  O155  1  0.38876742  0.84127535  0.51087463  1
  O  O156  1  0.35168085  0.89579312  0.74908013  1
  O  O157  1  0.61324168  0.12923038  -0.00896033  1
  O  O158  1  0.64515097  0.11961305  0.23528479  1
  O  O159  1  0.59603051  0.13337840  0.51664322  1
  O  O160  1  0.65616443  0.08888359  0.75159260  1
  O  O161  1  0.61322676  0.37643095  0.00755534  1
  O  O162  1  0.59705474  0.35933904  0.24123380  1
  O  O163  1  0.63147294  0.34422396  0.51068325  1
  O  O164  1  0.60964527  0.38387730  0.74554500  1
  O  O165  1  0.60813661  0.60370657  0.00732982  1
  O  O166  1  0.64768741  0.62020463  0.24692126  1
  O  O167  1  0.62683440  0.64849059  0.49102131  1
  O  O168  1  0.64719908  0.58147918  0.74619976  1
  O  O169  1  0.58009638  0.87111930  -0.00705898  1
  O  O170  1  0.62490940  0.90583081  0.24670810  1
  O  O171  1  0.63107172  0.84415117  0.50429145  1
  O  O172  1  0.65708259  0.88724614  0.75276257  1
  O  O173  1  0.88085185  0.10990371  -0.00493004  1
  O  O174  1  0.85328158  0.12894650  0.24467563  1
  O  O175  1  0.88191253  0.11126914  0.50119073  1
  O  O176  1  0.84738311  0.13535950  0.74909810  1
  O  O177  1  0.90488304  0.36205366  -0.00044707  1
  O  O178  1  0.86703895  0.36593940  0.24588739  1
  O  O179  1  0.88446235  0.37402778  0.51023102  1
  O  O180  1  0.86337675  0.41182633  0.75568554  1
  O  O181  1  0.92026225  0.63411882  0.00135603  1
  O  O182  1  0.85351378  0.62977034  0.24514417  1
  O  O183  1  0.89585410  0.62778812  0.49928492  1
  O  O184  1  0.84850571  0.60008674  0.74677409  1
  O  O185  1  0.86156767  0.88490451  0.00559650  1
  O  O186  1  0.85824200  0.89061647  0.24560604  1
  O  O187  1  0.88261426  0.86006036  0.49577253  1
  O  O188  1  0.87321462  0.85691748  0.74868465  1
  O  O189  1  -0.00493763  0.10760626  0.13798918  1
  O  O190  1  -0.00754305  0.11314030  0.35199150  1
  O  O191  1  -0.01538432  0.11478342  0.64369017  1
  O  O192  1  -0.00872858  0.09566647  0.85847125  1
  O  O193  1  0.00209789  0.37821499  0.14885279  1
  O  O194  1  -0.00697941  0.37124897  0.37579356  1
  O  O195  1  -0.00520792  0.38259423  0.65106984  1
  O  O196  1  0.00034760  0.40714788  0.86237088  1
  O  O197  1  0.00947294  0.61481187  0.16150665  1
  O  O198  1  0.00515776  0.62232241  0.35816168  1
  O  O199  1  0.00080906  0.61254132  0.64993050  1
  O  O200  1  0.00280862  0.59418707  0.85921611  1
  O  O201  1  -0.00512540  0.90340721  0.11749869  1
  O  O202  1  -0.00608234  0.89824800  0.36982934  1
  O  O203  1  -0.00119667  0.87717940  0.64125228  1
  O  O204  1  0.00772744  0.90122625  0.88266044  1
  O  O205  1  0.24140608  0.15324235  0.11953990  1
  O  O206  1  0.26408600  0.12775319  0.39729303  1
  O  O207  1  0.25851455  0.10601102  0.59405128  1
  O  O208  1  0.25274103  0.14747450  0.89388144  1
  O  O209  1  0.24508165  0.34259542  0.13176718  1
  O  O210  1  0.24433453  0.37043662  0.39141437  1
  O  O211  1  0.23281636  0.37200389  0.59429442  1
  O  O212  1  0.24233741  0.34603299  0.88531704  1
  O  O213  1  0.24148935  0.62335390  0.12480030  1
  O  O214  1  0.24397769  0.62827450  0.40535809  1
  O  O215  1  0.24130009  0.66048409  0.61505707  1
  O  O216  1  0.23563188  0.64696212  0.89749010  1
  O  O217  1  0.26142644  0.86497011  0.15296611  1
  O  O218  1  0.24612723  0.86577812  0.37725863  1
  O  O219  1  0.25232636  0.86414239  0.61364514  1
  O  O220  1  0.25978432  0.86138593  0.89562350  1
  O  O221  1  0.50462265  0.08970617  0.11426955  1
  O  O222  1  0.49542974  0.07128919  0.34896153  1
  O  O223  1  0.50612062  0.13132893  0.66324451  1
  O  O224  1  0.50809944  0.10998468  0.85126952  1
  O  O225  1  0.48684540  0.37485801  0.11291885  1
  O  O226  1  0.50300336  0.37645024  0.39434409  1
  O  O227  1  0.50492767  0.35401478  0.62306222  1
  O  O228  1  0.48746552  0.39631729  0.89566344  1
  O  O229  1  0.50103537  0.61140915  0.15219637  1
  O  O230  1  0.50412933  0.63991169  0.33086110  1
  O  O231  1  0.50451322  0.60750016  0.62539570  1
  O  O232  1  0.51369245  0.56901843  0.86695912  1
  O  O233  1  0.49858166  0.90654739  0.14622292  1
  O  O234  1  0.50482757  0.88836773  0.37914676  1
  O  O235  1  0.51631445  0.87297719  0.64726417  1
  O  O236  1  0.49733934  0.88492574  0.83408034  1
  O  O237  1  0.74715173  0.15481889  0.10988940  1
  O  O238  1  0.74986899  0.14444792  0.37260933  1
  O  O239  1  0.74737941  0.13548262  0.59866106  1
  O  O240  1  0.75388776  0.14336955  0.89517324  1
  O  O241  1  0.75143580  0.35833536  0.11739484  1
  O  O242  1  0.75033839  0.35621233  0.37600728  1
  O  O243  1  0.74721435  0.36413764  0.64667329  1
  O  O244  1  0.76690304  0.33875255  0.86697140  1
  O  O245  1  0.74657427  0.62668957  0.11455353  1
  O  O246  1  0.74490527  0.62728334  0.37795970  1
  O  O247  1  0.74962116  0.63677465  0.60098352  1
  O  O248  1  0.75091688  0.64208078  0.90839679  1
  O  O249  1  0.73638201  0.84976115  0.12239119  1
  O  O250  1  0.74992236  0.86732962  0.36440635  1
  O  O251  1  0.74459099  0.83454989  0.62396314  1
  O  O252  1  0.72677202  0.84391652  0.89216418  1
  O  O253  1  0.13863624  0.00806022  0.15562628  1
  O  O254  1  0.13347549  -0.00108072  0.35080304  1
  O  O255  1  0.11998785  -0.01181943  0.63879410  1
  O  O256  1  0.16230409  0.00163027  0.85595985  1
  O  O257  1  0.08674879  0.24711932  0.10275330  1
  O  O258  1  0.11183628  0.25561773  0.40228595  1
  O  O259  1  0.11206158  0.25834686  0.61071363  1
  O  O260  1  0.09033162  0.25864493  0.89875375  1
  O  O261  1  0.12467133  0.48943842  0.14860785  1
  O  O262  1  0.12934612  0.49522293  0.36328670  1
  O  O263  1  0.13480004  0.50321599  0.64490263  1
  O  O264  1  0.14740443  0.50178697  0.87742961  1
  O  O265  1  0.11148939  0.74984360  0.11147126  1
  O  O266  1  0.10440657  0.75426906  0.38654883  1
  O  O267  1  0.09008783  0.74654933  0.60930859  1
  O  O268  1  0.08931225  0.74254423  0.88568075  1
  O  O269  1  0.34823133  0.00077986  0.11883492  1
  O  O270  1  0.36726963  -0.01112060  0.41888464  1
  O  O271  1  0.39581318  -0.00808411  0.61042623  1
  O  O272  1  0.37177139  -0.00531115  0.89411194  1
  O  O273  1  0.39378149  0.23551432  0.15907515  1
  O  O274  1  0.41202660  0.23852258  0.35185696  1
  O  O275  1  0.34179294  0.24764672  0.63171042  1
  O  O276  1  0.39008282  0.25476324  0.85758091  1
  O  O277  1  0.34404185  0.49279228  0.11478068  1
  O  O278  1  0.39858275  0.50865715  0.38582451  1
  O  O279  1  0.34141640  0.49722911  0.62269183  1
  O  O280  1  0.33654755  0.49370326  0.88117405  1
  O  O281  1  0.39352070  0.75870343  0.16711109  1
  O  O282  1  0.36710787  0.75846084  0.35808420  1
  O  O283  1  0.40370066  0.75606653  0.66286420  1
  O  O284  1  0.38976083  0.75425451  0.87970882  1
  O  O285  1  0.64577223  -0.00616042  0.09547563  1
  O  O286  1  0.64699141  -0.00751591  0.38898106  1
  O  O287  1  0.64332494  -0.00285307  0.60740110  1
  O  O288  1  0.62908367  -0.00465429  0.89755521  1
  O  O289  1  0.59655288  0.24436573  0.11703565  1
  O  O290  1  0.61506462  0.24100476  0.38434963  1
  O  O291  1  0.63332290  0.24210009  0.66864544  1
  O  O292  1  0.62576311  0.23998905  0.85279288  1
  O  O293  1  0.63874908  0.49380199  0.13529636  1
  O  O294  1  0.61429995  0.50610804  0.39459637  1
  O  O295  1  0.63238376  0.49565832  0.59558868  1
  O  O296  1  0.66737550  0.49505393  0.88076538  1
  O  O297  1  0.59216080  0.74712013  0.13220070  1
  O  O298  1  0.61916835  0.76041565  0.34559287  1
  O  O299  1  0.61086083  0.73296342  0.65256598  1
  O  O300  1  0.58121124  0.75019720  0.85617646  1
  O  O301  1  0.84439458  0.00607673  0.11923648  1
  O  O302  1  0.85182374  0.00163749  0.37631514  1
  O  O303  1  0.83577586  -0.00068908  0.63937668  1
  O  O304  1  0.84103336  0.00858370  0.85140699  1
  O  O305  1  0.89705841  0.24640836  0.12286247  1
  O  O306  1  0.88303757  0.24677686  0.38832565  1
  O  O307  1  0.88425129  0.25640376  0.63014545  1
  O  O308  1  0.90886063  0.25177759  0.87056489  1
  O  O309  1  0.87966370  0.49094847  0.12728332  1
  O  O310  1  0.86702879  0.49186847  0.38171687  1
  O  O311  1  0.87505642  0.50073801  0.60788751  1
  O  O312  1  0.85123466  0.49617529  0.89724294  1
  O  O313  1  0.88312204  0.76391150  0.13652230  1
  O  O314  1  0.89048145  0.75928951  0.34886593  1
  O  O315  1  0.89913034  0.73810794  0.62519118  1
  O  O316  1  0.88329737  0.75130427  0.88917313  1
