# generated using pymatgen
data_Mg32Ti42(Bi17O64)3
_symmetry_space_group_name_H-M   'P 1'
_cell_length_a   15.96042440
_cell_length_b   15.96142122
_cell_length_c   15.99915621
_cell_angle_alpha   90.13749589
_cell_angle_beta   90.15423371
_cell_angle_gamma   90.08802635
_symmetry_Int_Tables_number   1
_chemical_formula_structural   Mg32Ti42(Bi17O64)3
_chemical_formula_sum   'Mg32 Ti42 Bi51 O192'
_cell_volume   4075.77059468
_cell_formula_units_Z   1
loop_
 _symmetry_equiv_pos_site_id
 _symmetry_equiv_pos_as_xyz
  1  'x, y, z'
loop_
 _atom_site_type_symbol
 _atom_site_label
 _atom_site_symmetry_multiplicity
 _atom_site_fract_x
 _atom_site_fract_y
 _atom_site_fract_z
 _atom_site_occupancy
  Mg  Mg0  1  0.62533253  0.38619651  0.62482602  1
  Mg  Mg1  1  0.12445033  0.13118986  0.36840208  1
  Mg  Mg2  1  0.86439944  0.37186054  0.88712999  1
  Mg  Mg3  1  0.37991492  0.38258066  0.62385857  1
  Mg  Mg4  1  0.88292810  0.12817537  0.61844217  1
  Mg  Mg5  1  0.37515726  0.36987904  0.12684382  1
  Mg  Mg6  1  0.37631768  0.12243549  0.61672183  1
  Mg  Mg7  1  0.12448578  0.87400866  0.37538162  1
  Mg  Mg8  1  0.12134026  0.38243446  0.15431160  1
  Mg  Mg9  1  0.62836814  0.36785023  0.13548551  1
  Mg  Mg10  1  0.12003636  0.88360073  0.88021545  1
  Mg  Mg11  1  0.13007070  0.13344383  0.62456708  1
  Mg  Mg12  1  0.38114980  0.12160458  0.11745442  1
  Mg  Mg13  1  0.37690287  0.86700719  0.38049020  1
  Mg  Mg14  1  0.11512366  0.12595275  0.12538974  1
  Mg  Mg15  1  0.62745373  0.11725177  0.62658531  1
  Mg  Mg16  1  0.63000924  0.10950825  0.37217917  1
  Mg  Mg17  1  0.87453073  0.11512621  0.37547627  1
  Mg  Mg18  1  0.12477584  0.86215492  0.61991862  1
  Mg  Mg19  1  0.53202772  0.75836999  0.54939357  1
  Mg  Mg20  1  0.71532615  0.46508430  0.01565731  1
  Mg  Mg21  1  0.26135601  0.46407410  0.80133453  1
  Mg  Mg22  1  -0.07581796  0.52836354  -0.01503848  1
  Mg  Mg23  1  0.21487612  0.05604708  0.48843986  1
  Mg  Mg24  1  0.19600824  0.25254282  0.04208867  1
  Mg  Mg25  1  0.78609015  0.55813957  0.47208557  1
  Mg  Mg26  1  0.01086083  0.02427794  -0.04388911  1
  Mg  Mg27  1  0.74690673  0.24870130  0.03215460  1
  Mg  Mg28  1  0.75588927  -0.05058194  0.46766335  1
  Mg  Mg29  1  0.50243237  0.45821752  0.04289799  1
  Mg  Mg30  1  0.14611863  0.55432459  0.32825774  1
  Mg  Mg31  1  0.78188744  0.00896287  0.24745175  1
  Ti  Ti32  1  0.63692309  0.12883371  0.87954298  1
  Ti  Ti33  1  0.62267572  0.35734012  0.37206052  1
  Ti  Ti34  1  0.37270509  0.12345994  0.38361831  1
  Ti  Ti35  1  0.62744598  0.86398561  0.36211741  1
  Ti  Ti36  1  0.38430217  0.63069043  0.63656836  1
  Ti  Ti37  1  0.13159535  0.37789895  0.63263185  1
  Ti  Ti38  1  0.36999205  0.12685272  0.87349918  1
  Ti  Ti39  1  0.36273821  0.61244897  0.12221246  1
  Ti  Ti40  1  0.37649377  0.62383153  0.88102487  1
  Ti  Ti41  1  0.63612401  0.38098669  0.88370751  1
  Ti  Ti42  1  0.62183591  0.61662666  0.62793825  1
  Ti  Ti43  1  0.86100486  0.39344002  0.11945251  1
  Ti  Ti44  1  0.12857782  0.36131854  0.86733664  1
  Ti  Ti45  1  0.63132390  0.11241500  0.12979799  1
  Ti  Ti46  1  0.87667109  0.87022852  0.12677802  1
  Ti  Ti47  1  0.88850930  0.61736171  0.61150084  1
  Ti  Ti48  1  0.87396088  0.12233210  0.11405123  1
  Ti  Ti49  1  0.61573914  0.62519561  0.88115796  1
  Ti  Ti50  1  0.12117100  0.60155533  0.10769566  1
  Ti  Ti51  1  0.36980484  0.87907560  0.87771870  1
  Ti  Ti52  1  0.88057789  0.88563604  0.36198248  1
  Ti  Ti53  1  0.13890937  0.36876389  0.37182843  1
  Ti  Ti54  1  0.61596885  0.62006685  0.13183918  1
  Ti  Ti55  1  0.62776462  0.88483755  0.87637880  1
  Ti  Ti56  1  0.38196575  0.87097872  0.62133577  1
  Ti  Ti57  1  0.86898928  0.36984310  0.39122328  1
  Ti  Ti58  1  0.86782614  0.13745988  0.88951380  1
  Ti  Ti59  1  0.13521874  0.62582785  0.63353819  1
  Ti  Ti60  1  0.85671444  0.38391222  0.62061892  1
  Ti  Ti61  1  0.36235993  0.88438188  0.12322739  1
  Ti  Ti62  1  0.14038670  0.61135126  0.87349615  1
  Ti  Ti63  1  0.87370268  0.87336753  0.62681649  1
  Ti  Ti64  1  0.38470303  0.36135277  0.88554108  1
  Ti  Ti65  1  0.11258500  0.88226058  0.11613001  1
  Ti  Ti66  1  0.88538403  0.88463722  0.88528595  1
  Ti  Ti67  1  0.61963296  0.87510272  0.13880263  1
  Ti  Ti68  1  0.37224854  0.37120726  0.37188439  1
  Ti  Ti69  1  0.85116106  0.62829367  0.11362912  1
  Ti  Ti70  1  0.36852765  0.61253286  0.37614750  1
  Ti  Ti71  1  0.12086771  0.12945356  0.86402221  1
  Ti  Ti72  1  0.60712705  0.63811003  0.38317838  1
  Ti  Ti73  1  0.63803654  0.87918008  0.63255407  1
  Bi  Bi74  1  0.24719324  0.74454075  0.28071853  1
  Bi  Bi75  1  0.46743618  -0.00723034  0.26289368  1
  Bi  Bi76  1  0.22565035  0.04061995  0.00293286  1
  Bi  Bi77  1  0.02823122  0.47959155  0.49360626  1
  Bi  Bi78  1  0.74763794  0.75994475  0.77685727  1
  Bi  Bi79  1  -0.02849589  0.48774725  0.77076468  1
  Bi  Bi80  1  0.73010777  0.49689597  0.29045339  1
  Bi  Bi81  1  0.02698930  0.70641680  0.46025637  1
  Bi  Bi82  1  -0.04534289  0.51061709  0.28361045  1
  Bi  Bi83  1  0.75445927  0.21918817  0.50160534  1
  Bi  Bi84  1  0.51927958  0.48524901  0.48239989  1
  Bi  Bi85  1  0.51858001  0.23831750  0.52700098  1
  Bi  Bi86  1  0.01321218  0.01509275  0.24952478  1
  Bi  Bi87  1  0.01172614  0.22885866  0.49433781  1
  Bi  Bi88  1  0.78513860  0.00873436  0.74478722  1
  Bi  Bi89  1  0.23561159  -0.00522329  0.27505502  1
  Bi  Bi90  1  0.24359139  -0.00184786  0.70025413  1
  Bi  Bi91  1  0.27282095  0.26900997  0.51696709  1
  Bi  Bi92  1  0.02695193  -0.01296542  0.73021264  1
  Bi  Bi93  1  0.23235962  0.76221341  0.00933422  1
  Bi  Bi94  1  0.26352188  0.26157534  0.74218815  1
  Bi  Bi95  1  0.49153652  0.76622366  0.76701514  1
  Bi  Bi96  1  0.75687229  -0.00885047  0.02089658  1
  Bi  Bi97  1  -0.01283086  0.71537145  -0.01350806  1
  Bi  Bi98  1  -0.02059873  0.25197058  0.73522920  1
  Bi  Bi99  1  0.00857837  -0.03878473  0.50297941  1
  Bi  Bi100  1  0.00373447  0.24875528  0.24147694  1
  Bi  Bi101  1  0.75626722  0.22368674  0.26705648  1
  Bi  Bi102  1  0.02371289  0.72488590  0.23321972  1
  Bi  Bi103  1  0.23947352  0.45090609  0.01043276  1
  Bi  Bi104  1  0.27030744  0.75813586  0.51166144  1
  Bi  Bi105  1  0.52590498  0.24878889  0.01074755  1
  Bi  Bi106  1  0.47809718  0.75059796  0.01527787  1
  Bi  Bi107  1  0.46952503  0.48881371  0.75658193  1
  Bi  Bi108  1  0.48809199  0.22119723  0.25143576  1
  Bi  Bi109  1  0.23040109  0.76644010  0.76521794  1
  Bi  Bi110  1  0.49737747  0.01764959  -0.02361253  1
  Bi  Bi111  1  0.46701683  0.73886721  0.23853322  1
  Bi  Bi112  1  0.27134305  0.23252373  0.22113489  1
  Bi  Bi113  1  0.75167568  0.73708541  0.52533554  1
  Bi  Bi114  1  0.00008037  0.71298850  0.77025972  1
  Bi  Bi115  1  0.26231060  0.51529687  0.52426500  1
  Bi  Bi116  1  0.74724503  0.23950144  0.72289239  1
  Bi  Bi117  1  0.48554513  0.47685544  0.24246904  1
  Bi  Bi118  1  0.76638078  0.53424128  0.78816077  1
  Bi  Bi119  1  0.48701525  0.02489102  0.73281982  1
  Bi  Bi120  1  0.72100111  0.75630200  0.01482988  1
  Bi  Bi121  1  0.52864654  -0.02500671  0.48985483  1
  Bi  Bi122  1  -0.01421590  0.28029387  0.01715145  1
  Bi  Bi123  1  0.78604396  0.72641032  0.28886093  1
  Bi  Bi124  1  0.52903449  0.27068464  0.74850833  1
  O  O125  1  0.12910824  0.15162638  -0.00447023  1
  O  O126  1  0.13653033  0.08961575  0.24657701  1
  O  O127  1  0.11351709  0.13775428  0.49571847  1
  O  O128  1  0.14105861  0.09997142  0.75234521  1
  O  O129  1  0.13198848  0.35204125  -0.01351625  1
  O  O130  1  0.13512064  0.42235282  0.27242484  1
  O  O131  1  0.09780284  0.34811797  0.51165340  1
  O  O132  1  0.17293614  0.38843102  0.74956496  1
  O  O133  1  0.13769829  0.64960399  -0.00838485  1
  O  O134  1  0.09796756  0.60654662  0.22506379  1
  O  O135  1  0.14088438  0.65073138  0.51395633  1
  O  O136  1  0.11109578  0.60466713  0.75478883  1
  O  O137  1  0.12000153  0.84266617  0.00212118  1
  O  O138  1  0.13192258  0.90826306  0.23950489  1
  O  O139  1  0.09037536  0.85222726  0.49636960  1
  O  O140  1  0.13686790  0.90066147  0.75249419  1
  O  O141  1  0.40705585  0.12057631  -0.00685907  1
  O  O142  1  0.36304472  0.12605109  0.25228522  1
  O  O143  1  0.40709305  0.13703527  0.49332261  1
  O  O144  1  0.37010756  0.10311616  0.75565098  1
  O  O145  1  0.40480335  0.37858129  -0.00429908  1
  O  O146  1  0.37040941  0.39512501  0.25645899  1
  O  O147  1  0.38870145  0.35071163  0.49515822  1
  O  O148  1  0.35529580  0.39192179  0.75238307  1
  O  O149  1  0.37631543  0.64023971  -0.00315999  1
  O  O150  1  0.38618414  0.61722750  0.24133545  1
  O  O151  1  0.35340249  0.64273130  0.49090986  1
  O  O152  1  0.38880383  0.62733953  0.74970327  1
  O  O153  1  0.39366316  0.86586366  0.00123127  1
  O  O154  1  0.36943850  0.87201743  0.24358756  1
  O  O155  1  0.39035575  0.84446544  0.50560818  1
  O  O156  1  0.37065836  0.86511102  0.75706905  1
  O  O157  1  0.59375201  0.11997479  0.00045809  1
  O  O158  1  0.67491955  0.10008065  0.23993823  1
  O  O159  1  0.62068609  0.15124620  0.49850794  1
  O  O160  1  0.65483612  0.13168786  0.76411965  1
  O  O161  1  0.59008775  0.37615482  -0.00199206  1
  O  O162  1  0.63238597  0.40410229  0.25762192  1
  O  O163  1  0.59672370  0.36123485  0.49212375  1
  O  O164  1  0.64272932  0.36122749  0.76714974  1
  O  O165  1  0.61757338  0.65395007  -0.00939177  1
  O  O166  1  0.62299456  0.60227887  0.24595506  1
  O  O167  1  0.60531869  0.66865058  0.49212288  1
  O  O168  1  0.62861583  0.60078538  0.73910286  1
  O  O169  1  0.61387967  0.85198264  -0.01207725  1
  O  O170  1  0.64479764  0.89932180  0.25042683  1
  O  O171  1  0.59631747  0.85591165  0.49901685  1
  O  O172  1  0.65763977  0.88434907  0.74656336  1
  O  O173  1  0.90992940  0.09475511  -0.00130892  1
  O  O174  1  0.84732796  0.12506837  0.23806560  1
  O  O175  1  0.87800883  0.14949581  0.49646187  1
  O  O176  1  0.85380252  0.14267188  0.76763800  1
  O  O177  1  0.91729713  0.39571019  0.00287964  1
  O  O178  1  0.85064436  0.41224345  0.23437707  1
  O  O179  1  0.88330669  0.35184655  0.50216618  1
  O  O180  1  0.86876454  0.39792113  0.74379349  1
  O  O181  1  0.87002883  0.64594385  -0.00247063  1
  O  O182  1  0.87069072  0.61918960  0.23533865  1
  O  O183  1  0.86992236  0.64881279  0.50007773  1
  O  O184  1  0.87204739  0.61206427  0.73289269  1
  O  O185  1  0.87934702  0.88718620  0.00021303  1
  O  O186  1  0.85380221  0.89026405  0.24519777  1
  O  O187  1  0.88460119  0.89266698  0.49652063  1
  O  O188  1  0.84794722  0.88123989  0.74574248  1
  O  O189  1  -0.00998791  0.13167510  0.15008153  1
  O  O190  1  -0.00242774  0.10784358  0.34769421  1
  O  O191  1  0.00729723  0.16720972  0.63063583  1
  O  O192  1  0.00595043  0.11472198  0.86228827  1
  O  O193  1  -0.01298602  0.35797091  0.14575181  1
  O  O194  1  -0.01071691  0.39844939  0.37378545  1
  O  O195  1  0.01620191  0.36710722  0.66290726  1
  O  O196  1  0.01668139  0.38524832  0.85289426  1
  O  O197  1  0.00067321  0.60891663  0.08347209  1
  O  O198  1  0.02572061  0.58485360  0.38587462  1
  O  O199  1  0.00191583  0.62843155  0.61211600  1
  O  O200  1  0.01185643  0.62135708  0.88326686  1
  O  O201  1  -0.00521587  0.87967675  0.13374940  1
  O  O202  1  -0.00649088  0.91778401  0.36290309  1
  O  O203  1  -0.00804336  0.88002710  0.63679631  1
  O  O204  1  -0.00454599  0.92239303  0.87594051  1
  O  O205  1  0.24954730  0.15348071  0.10975151  1
  O  O206  1  0.25832690  0.13588021  0.39698674  1
  O  O207  1  0.25356830  0.09526887  0.59912734  1
  O  O208  1  0.25800995  0.13383400  0.88870774  1
  O  O209  1  0.24924084  0.35157744  0.10759463  1
  O  O210  1  0.25273498  0.34531023  0.38541101  1
  O  O211  1  0.25245858  0.38795689  0.58894411  1
  O  O212  1  0.26340033  0.36582777  0.89118175  1
  O  O213  1  0.24849325  0.61693476  0.12008092  1
  O  O214  1  0.24837337  0.62559259  0.34961554  1
  O  O215  1  0.25037642  0.60878290  0.63623936  1
  O  O216  1  0.25452188  0.65167673  0.85937066  1
  O  O217  1  0.24659177  0.87123188  0.10675465  1
  O  O218  1  0.24872542  0.83640366  0.38159700  1
  O  O219  1  0.25546957  0.88295862  0.61486918  1
  O  O220  1  0.25559941  0.85040520  0.88994248  1
  O  O221  1  0.51515811  0.11544032  0.15426454  1
  O  O222  1  0.50501129  0.10684378  0.34144990  1
  O  O223  1  0.50186115  0.13369764  0.65095966  1
  O  O224  1  0.51092886  0.09683551  0.85952435  1
  O  O225  1  0.50413228  0.38108231  0.14608488  1
  O  O226  1  0.50092923  0.39621908  0.36173897  1
  O  O227  1  0.50097189  0.37492029  0.66158332  1
  O  O228  1  0.49992558  0.38883654  0.84898386  1
  O  O229  1  0.50132091  0.63861098  0.12222816  1
  O  O230  1  0.49306581  0.60258283  0.37708700  1
  O  O231  1  0.50010931  0.65617984  0.61971286  1
  O  O232  1  0.50097254  0.60533734  0.86884432  1
  O  O233  1  0.50427843  0.87568600  0.13588232  1
  O  O234  1  0.50605228  0.89851366  0.36172714  1
  O  O235  1  0.50255323  0.84757086  0.63974140  1
  O  O236  1  0.51109623  0.88433422  0.84908362  1
  O  O237  1  0.75191492  0.12795985  0.08614429  1
  O  O238  1  0.75008780  0.15223016  0.38193489  1
  O  O239  1  0.75266853  0.14162845  0.62115270  1
  O  O240  1  0.75240535  0.15387370  0.91575126  1
  O  O241  1  0.74939269  0.36755375  0.09479393  1
  O  O242  1  0.74280655  0.37060679  0.37850057  1
  O  O243  1  0.74814683  0.37251033  0.61415467  1
  O  O244  1  0.74320894  0.36236337  0.92328933  1
  O  O245  1  0.74035738  0.64294560  0.11730748  1
  O  O246  1  0.73730674  0.64163022  0.38240517  1
  O  O247  1  0.73863715  0.61226709  0.58725789  1
  O  O248  1  0.74167461  0.64396577  0.86169570  1
  O  O249  1  0.74730537  0.87119940  0.10031414  1
  O  O250  1  0.74389758  0.84571333  0.38819599  1
  O  O251  1  0.74695017  0.89848513  0.58874346  1
  O  O252  1  0.75112902  0.84603626  0.88568416  1
  O  O253  1  0.11346986  -0.00031272  0.08281992  1
  O  O254  1  0.16258278  -0.00403904  0.39191805  1
  O  O255  1  0.11416030  -0.00115642  0.61846103  1
  O  O256  1  0.13354196  0.01135379  0.90607419  1
  O  O257  1  0.11928716  0.25342414  0.15825636  1
  O  O258  1  0.09866058  0.25713350  0.35574155  1
  O  O259  1  0.16791984  0.25662278  0.64266068  1
  O  O260  1  0.12660166  0.24938955  0.84170389  1
  O  O261  1  0.13046136  0.49060064  0.09244762  1
  O  O262  1  0.14768049  0.47761412  0.42734993  1
  O  O263  1  0.12444187  0.49580624  0.60518565  1
  O  O264  1  0.16335368  0.49915835  0.88323666  1
  O  O265  1  0.12068938  0.75606608  0.14498799  1
  O  O266  1  0.10082682  0.75105375  0.34245132  1
  O  O267  1  0.13296962  0.74253995  0.65937803  1
  O  O268  1  0.11339737  0.75393437  0.84350596  1
  O  O269  1  0.36540072  -0.00239745  0.12364514  1
  O  O270  1  0.36970230  0.00124328  0.36903767  1
  O  O271  1  0.39516023  -0.01219210  0.62552892  1
  O  O272  1  0.37277568  -0.00566147  0.88870507  1
  O  O273  1  0.38775564  0.24700215  0.14621682  1
  O  O274  1  0.39448263  0.25051056  0.35539997  1
  O  O275  1  0.35237008  0.25071724  0.63492095  1
  O  O276  1  0.39629000  0.24598793  0.86810795  1
  O  O277  1  0.39286048  0.50176115  0.10755122  1
  O  O278  1  0.35907803  0.49521251  0.39844543  1
  O  O279  1  0.38892314  0.51221436  0.60836919  1
  O  O280  1  0.36137931  0.50768276  0.86755407  1
  O  O281  1  0.37895670  0.74838486  0.12515409  1
  O  O282  1  0.37888271  0.73826761  0.34819872  1
  O  O283  1  0.35053550  0.74669744  0.63207287  1
  O  O284  1  0.40702917  0.75118967  0.88031320  1
  O  O285  1  0.63741055  -0.00504150  0.10050752  1
  O  O286  1  0.64434004  -0.01163757  0.41552303  1
  O  O287  1  0.60186406  -0.00770209  0.61535277  1
  O  O288  1  0.64618749  -0.00143234  0.89025354  1
  O  O289  1  0.63214598  0.24049123  0.10835639  1
  O  O290  1  0.61436870  0.24945109  0.34367615  1
  O  O291  1  0.61771459  0.25374696  0.63786428  1
  O  O292  1  0.60421672  0.24603455  0.89106269  1
  O  O293  1  0.62119335  0.50884628  0.09244453  1
  O  O294  1  0.63862349  0.51483002  0.40667196  1
  O  O295  1  0.60078497  0.50742694  0.59700296  1
  O  O296  1  0.65433957  0.50100391  0.89605655  1
  O  O297  1  0.62671736  0.75645734  0.12818473  1
  O  O298  1  0.60159871  0.75154123  0.34084385  1
  O  O299  1  0.64827638  0.75404569  0.63095943  1
  O  O300  1  0.61542809  0.74581692  0.84114702  1
  O  O301  1  0.84864383  0.00209435  0.13026609  1
  O  O302  1  0.82795425  -0.00496258  0.36946082  1
  O  O303  1  0.88553430  0.00701351  0.64796132  1
  O  O304  1  0.84823427  0.00607538  0.86614212  1
  O  O305  1  0.86711501  0.24718034  0.08884707  1
  O  O306  1  0.87587850  0.26378629  0.34288889  1
  O  O307  1  0.87309824  0.26268443  0.64756085  1
  O  O308  1  0.89848842  0.24990414  0.90028495  1
  O  O309  1  0.84044660  0.50756664  0.08465493  1
  O  O310  1  0.85433794  0.49591893  0.38344330  1
  O  O311  1  0.87681961  0.50060720  0.59242601  1
  O  O312  1  0.87518744  0.49883886  0.87290765  1
  O  O313  1  0.87558342  0.75374027  0.12868565  1
  O  O314  1  0.89703157  0.76638912  0.35646375  1
  O  O315  1  0.85503538  0.75709001  0.62700274  1
  O  O316  1  0.91106714  0.77023561  0.86380736  1
