# generated using pymatgen
data_Mg32Ti42(Bi17O64)3
_symmetry_space_group_name_H-M   'P 1'
_cell_length_a   15.95382430
_cell_length_b   15.91608520
_cell_length_c   15.92093052
_cell_angle_alpha   89.98078231
_cell_angle_beta   90.00213589
_cell_angle_gamma   90.04673541
_symmetry_Int_Tables_number   1
_chemical_formula_structural   Mg32Ti42(Bi17O64)3
_chemical_formula_sum   'Mg32 Ti42 Bi51 O192'
_cell_volume   4042.67973965
_cell_formula_units_Z   1
loop_
 _symmetry_equiv_pos_site_id
 _symmetry_equiv_pos_as_xyz
  1  'x, y, z'
loop_
 _atom_site_type_symbol
 _atom_site_label
 _atom_site_symmetry_multiplicity
 _atom_site_fract_x
 _atom_site_fract_y
 _atom_site_fract_z
 _atom_site_occupancy
  Mg  Mg0  1  0.39670077  0.12350021  0.12077132  1
  Mg  Mg1  1  0.63094289  0.62074924  0.37774445  1
  Mg  Mg2  1  0.62917280  0.61613283  0.87440483  1
  Mg  Mg3  1  0.38818168  0.62757642  0.62516079  1
  Mg  Mg4  1  0.12712507  0.13195631  0.86775466  1
  Mg  Mg5  1  0.37378620  0.12607610  0.37111345  1
  Mg  Mg6  1  0.87120808  0.37764979  0.86128244  1
  Mg  Mg7  1  0.37952481  0.87465745  0.37926622  1
  Mg  Mg8  1  0.87171816  0.62689794  0.60337559  1
  Mg  Mg9  1  0.87898400  0.87974273  0.62204583  1
  Mg  Mg10  1  0.38372272  0.11535891  0.87493196  1
  Mg  Mg11  1  0.87913065  0.37703608  0.13182664  1
  Mg  Mg12  1  0.38162959  0.38119327  0.87632247  1
  Mg  Mg13  1  0.86791327  0.13672848  0.86504307  1
  Mg  Mg14  1  0.12709983  0.86918341  0.12355007  1
  Mg  Mg15  1  0.63415840  0.87797209  0.37811388  1
  Mg  Mg16  1  0.12410661  0.37948321  0.86581749  1
  Mg  Mg17  1  0.37731415  0.38465264  0.36808596  1
  Mg  Mg18  1  0.12423668  0.13832261  0.13393875  1
  Mg  Mg19  1  0.24817112  0.28222305  0.26774496  1
  Mg  Mg20  1  0.69768120  0.20192967  0.70883618  1
  Mg  Mg21  1  0.05654536  0.44365245  0.48901903  1
  Mg  Mg22  1  0.00307783  0.49436845  0.30510339  1
  Mg  Mg23  1  0.78033783  0.01259644  0.21135650  1
  Mg  Mg24  1  0.53586465  0.01177552  -0.00941419  1
  Mg  Mg25  1  0.76164116  0.77505282  0.49947676  1
  Mg  Mg26  1  0.77516675  0.46126745  0.50308738  1
  Mg  Mg27  1  0.49768731  0.46488396  0.69121359  1
  Mg  Mg28  1  0.44154946  0.45877786  0.51154646  1
  Mg  Mg29  1  0.55280341  0.01826494  0.68666420  1
  Mg  Mg30  1  0.00688266  0.26531196  0.75527716  1
  Mg  Mg31  1  0.03756454  0.00263508  0.52385539  1
  Ti  Ti32  1  0.88023079  0.11593987  0.62930561  1
  Ti  Ti33  1  0.63217374  0.36022261  0.13162450  1
  Ti  Ti34  1  0.62477436  0.13843719  0.37144872  1
  Ti  Ti35  1  0.62899587  0.62305461  0.13039300  1
  Ti  Ti36  1  0.13610758  0.12165148  0.63303628  1
  Ti  Ti37  1  0.87100104  0.63184970  0.38648837  1
  Ti  Ti38  1  0.87096249  0.14117549  0.11577804  1
  Ti  Ti39  1  0.63798240  0.37224788  0.61647355  1
  Ti  Ti40  1  0.62855153  0.87161251  0.11603196  1
  Ti  Ti41  1  0.87983220  0.62324583  0.13714990  1
  Ti  Ti42  1  0.37766862  0.11593565  0.62167735  1
  Ti  Ti43  1  0.38978830  0.88343630  0.63223235  1
  Ti  Ti44  1  0.38185422  0.62963071  0.37417166  1
  Ti  Ti45  1  0.87514115  0.86583466  0.87879428  1
  Ti  Ti46  1  0.62592417  0.12352693  0.86464697  1
  Ti  Ti47  1  0.12091468  0.86278806  0.88413845  1
  Ti  Ti48  1  0.11839178  0.62515515  0.13884297  1
  Ti  Ti49  1  0.36927034  0.61209068  0.13669370  1
  Ti  Ti50  1  0.12298430  0.61825119  0.62373825  1
  Ti  Ti51  1  0.12700804  0.35641200  0.63573520  1
  Ti  Ti52  1  0.62447953  0.88146456  0.86770202  1
  Ti  Ti53  1  0.11167929  0.62941678  0.38674470  1
  Ti  Ti54  1  0.62235335  0.38226273  0.85311220  1
  Ti  Ti55  1  0.87560914  0.62528517  0.87543636  1
  Ti  Ti56  1  0.12474101  0.62732089  0.88011153  1
  Ti  Ti57  1  0.12414755  0.88067363  0.63377971  1
  Ti  Ti58  1  0.63081424  0.12496297  0.12256233  1
  Ti  Ti59  1  0.86510146  0.87415359  0.12948461  1
  Ti  Ti60  1  0.62746599  0.86201210  0.62786310  1
  Ti  Ti61  1  0.38707809  0.87478874  0.12392320  1
  Ti  Ti62  1  0.87186075  0.88470803  0.38604869  1
  Ti  Ti63  1  0.39346302  0.88420033  0.88536247  1
  Ti  Ti64  1  0.36884960  0.37292073  0.12818808  1
  Ti  Ti65  1  0.37136156  0.61019198  0.87985747  1
  Ti  Ti66  1  0.87739535  0.37116432  0.37572678  1
  Ti  Ti67  1  0.87652431  0.35813667  0.62591560  1
  Ti  Ti68  1  0.11055964  0.37662334  0.12147790  1
  Ti  Ti69  1  0.61910389  0.61502835  0.62500234  1
  Ti  Ti70  1  0.88020928  0.11712115  0.36944140  1
  Ti  Ti71  1  0.12302100  0.88564621  0.38000934  1
  Ti  Ti72  1  0.62222420  0.38182899  0.38379078  1
  Ti  Ti73  1  0.12985661  0.11524678  0.37366746  1
  Bi  Bi74  1  0.52166266  0.76152800  0.27357817  1
  Bi  Bi75  1  0.54181751  -0.00209274  0.24203505  1
  Bi  Bi76  1  0.01174394  0.77051721  0.25531666  1
  Bi  Bi77  1  0.01261489  0.00232963  0.21725697  1
  Bi  Bi78  1  0.77375776  -0.00734243  0.76152385  1
  Bi  Bi79  1  0.26507005  0.74997481  0.02879133  1
  Bi  Bi80  1  -0.00991957  0.49812809  -0.00823981  1
  Bi  Bi81  1  0.77567180  0.74414030  0.73192314  1
  Bi  Bi82  1  0.49144564  0.24712583  -0.02614090  1
  Bi  Bi83  1  0.76463645  0.25226377  0.25303853  1
  Bi  Bi84  1  0.51267511  0.72015729  0.76791831  1
  Bi  Bi85  1  0.47457950  0.25363959  0.25885925  1
  Bi  Bi86  1  0.49408662  0.23541080  0.73968371  1
  Bi  Bi87  1  0.74366331  0.72454164  0.00067274  1
  Bi  Bi88  1  0.75119579  0.00423830  -0.00586698  1
  Bi  Bi89  1  0.73484336  0.02456071  0.52211312  1
  Bi  Bi90  1  0.76246556  0.75742314  0.26842893  1
  Bi  Bi91  1  0.76482212  0.48203693  0.00247922  1
  Bi  Bi92  1  0.73837299  0.26149975  -0.03760370  1
  Bi  Bi93  1  0.00421353  0.21995922  0.51071130  1
  Bi  Bi94  1  0.24401947  0.27979068  0.46389480  1
  Bi  Bi95  1  0.00378702  0.72070893  0.73517625  1
  Bi  Bi96  1  0.26347968  0.53409328  0.49684733  1
  Bi  Bi97  1  -0.00487611  0.25699051  -0.04455752  1
  Bi  Bi98  1  0.26082924  0.77613537  0.26141987  1
  Bi  Bi99  1  -0.01462959  0.75303189  0.01684993  1
  Bi  Bi100  1  0.01076119  0.00330107  0.78455542  1
  Bi  Bi101  1  0.53378201  0.75026347  0.48681683  1
  Bi  Bi102  1  0.76921391  0.49786985  0.27500463  1
  Bi  Bi103  1  0.00465850  0.77915362  0.50978795  1
  Bi  Bi104  1  0.51405467  0.01853857  0.47611309  1
  Bi  Bi105  1  0.20515610  0.48855473  0.28388666  1
  Bi  Bi106  1  0.22703604  0.50621865  0.00123884  1
  Bi  Bi107  1  0.27921365  0.74090141  0.76517158  1
  Bi  Bi108  1  0.03537345  0.28113902  0.27807914  1
  Bi  Bi109  1  0.02937452  0.02602297  0.00029626  1
  Bi  Bi110  1  0.28337640  0.24253648  0.76052553  1
  Bi  Bi111  1  0.25913404  -0.02534174  0.76939959  1
  Bi  Bi112  1  0.76700554  0.50953331  0.71738195  1
  Bi  Bi113  1  0.26991127  0.76022195  0.53265350  1
  Bi  Bi114  1  0.00001883  0.49139600  0.70922608  1
  Bi  Bi115  1  0.25848451  0.03832729  0.01555485  1
  Bi  Bi116  1  0.48026393  0.27316096  0.51710784  1
  Bi  Bi117  1  0.52011845  0.48487126  0.23743163  1
  Bi  Bi118  1  0.53304052  0.48287050  0.00102107  1
  Bi  Bi119  1  0.27781541  0.00427650  0.49009420  1
  Bi  Bi120  1  0.29455799  0.48021924  0.72408074  1
  Bi  Bi121  1  0.28169146  0.01851427  0.23430565  1
  Bi  Bi122  1  0.25155592  0.26167202  -0.02032628  1
  Bi  Bi123  1  0.49543161  0.71558827  0.01053399  1
  Bi  Bi124  1  0.75201930  0.23510708  0.49764581  1
  O  O125  1  0.12879033  0.12499066  0.00206850  1
  O  O126  1  0.10049984  0.09800996  0.25908615  1
  O  O127  1  0.13000815  0.15020847  0.49900806  1
  O  O128  1  0.10292380  0.10231082  0.74341385  1
  O  O129  1  0.16104781  0.37115877  0.00869243  1
  O  O130  1  0.08662460  0.40695788  0.24331528  1
  O  O131  1  0.13956069  0.35444038  0.51623826  1
  O  O132  1  0.07608993  0.38000533  0.74470599  1
  O  O133  1  0.13992883  0.63359521  -0.00039848  1
  O  O134  1  0.10012774  0.59387225  0.24887993  1
  O  O135  1  0.12374735  0.64665992  0.49976901  1
  O  O136  1  0.11142119  0.61740724  0.74689698  1
  O  O137  1  0.12767140  0.84963961  -0.00365035  1
  O  O138  1  0.09621553  0.88855964  0.25678285  1
  O  O139  1  0.13133878  0.84755270  0.49307967  1
  O  O140  1  0.10153427  0.89575252  0.74524394  1
  O  O141  1  0.35437782  0.13625272  0.00012347  1
  O  O142  1  0.39436623  0.09313426  0.24643683  1
  O  O143  1  0.34243726  0.13229291  0.50653916  1
  O  O144  1  0.39849050  0.12752111  0.74584520  1
  O  O145  1  0.35764857  0.34848551  0.00855068  1
  O  O146  1  0.41581298  0.38619551  0.24823545  1
  O  O147  1  0.36725281  0.34792354  0.49194413  1
  O  O148  1  0.40294616  0.40849844  0.75124738  1
  O  O149  1  0.36247112  0.63957233  -0.00246024  1
  O  O150  1  0.38270695  0.60898490  0.25152606  1
  O  O151  1  0.35409517  0.64311309  0.49890046  1
  O  O152  1  0.36965069  0.62094351  0.75444606  1
  O  O153  1  0.36551684  0.85778719  -0.00331660  1
  O  O154  1  0.37092878  0.87145595  0.24457625  1
  O  O155  1  0.35522205  0.87260496  0.51068543  1
  O  O156  1  0.37353493  0.89668738  0.75224760  1
  O  O157  1  0.65826405  0.11447706  0.00312735  1
  O  O158  1  0.60395834  0.13159521  0.24971378  1
  O  O159  1  0.63323265  0.11401007  0.49157432  1
  O  O160  1  0.59691970  0.12263922  0.74915699  1
  O  O161  1  0.64580287  0.38230348  0.01367774  1
  O  O162  1  0.59231452  0.36649959  0.25141695  1
  O  O163  1  0.66792379  0.38910470  0.49746447  1
  O  O164  1  0.59422932  0.39243307  0.74246143  1
  O  O165  1  0.62611185  0.63291772  0.00155019  1
  O  O166  1  0.60966062  0.64638887  0.24093537  1
  O  O167  1  0.63210290  0.64961199  0.51063733  1
  O  O168  1  0.61687473  0.63253556  0.75191064  1
  O  O169  1  0.62590142  0.91753774  0.00341738  1
  O  O170  1  0.61642509  0.86239052  0.24347064  1
  O  O171  1  0.62690437  0.85649944  0.50804778  1
  O  O172  1  0.61226534  0.89808661  0.75253793  1
  O  O173  1  0.84620092  0.14769656  0.00171429  1
  O  O174  1  0.87549539  0.09494517  0.25622023  1
  O  O175  1  0.86895725  0.15841507  0.49721721  1
  O  O176  1  0.87951802  0.09699896  0.74320675  1
  O  O177  1  0.83448459  0.36256733  -0.00048804  1
  O  O178  1  0.89692968  0.41192947  0.26269966  1
  O  O179  1  0.84645781  0.35206420  0.50067459  1
  O  O180  1  0.88737993  0.40569392  0.73783078  1
  O  O181  1  0.87291631  0.66237714  0.00234987  1
  O  O182  1  0.88912855  0.58882256  0.24434299  1
  O  O183  1  0.84234924  0.66961926  0.48984777  1
  O  O184  1  0.87603748  0.60656895  0.75894204  1
  O  O185  1  0.87126938  0.84609291  -0.00082093  1
  O  O186  1  0.84955971  0.89737639  0.24853883  1
  O  O187  1  0.86836542  0.84812197  0.49721909  1
  O  O188  1  0.86961127  0.89429924  0.75317320  1
  O  O189  1  -0.01180578  0.11369506  0.11266195  1
  O  O190  1  -0.00347563  0.14164289  0.38925206  1
  O  O191  1  -0.00448034  0.10322753  0.58984419  1
  O  O192  1  -0.00642625  0.10822349  0.89043330  1
  O  O193  1  0.00221147  0.37826043  0.09008747  1
  O  O194  1  -0.01029461  0.38668897  0.39758540  1
  O  O195  1  -0.01059111  0.40107304  0.59633616  1
  O  O196  1  -0.00285442  0.38998906  0.90746974  1
  O  O197  1  -0.00124929  0.63158936  0.10761103  1
  O  O198  1  -0.01084611  0.60893757  0.38331100  1
  O  O199  1  -0.00243768  0.62345862  0.62343991  1
  O  O200  1  -0.00065705  0.61451566  0.89089495  1
  O  O201  1  -0.01324300  0.85932863  0.12331983  1
  O  O202  1  -0.00719173  0.85986262  0.38405841  1
  O  O203  1  0.00353545  0.89729855  0.58765101  1
  O  O204  1  -0.00880274  0.88971725  0.88377637  1
  O  O205  1  0.24916820  0.11499291  0.13939484  1
  O  O206  1  0.24269344  0.09272764  0.36410905  1
  O  O207  1  0.24563665  0.13997181  0.65148141  1
  O  O208  1  0.25193050  0.15356677  0.85899039  1
  O  O209  1  0.26162775  0.35846015  0.16685757  1
  O  O210  1  0.25078855  0.37586076  0.35869343  1
  O  O211  1  0.23544423  0.36300242  0.66568025  1
  O  O212  1  0.25284676  0.34037581  0.86247378  1
  O  O213  1  0.24958582  0.64051289  0.13429230  1
  O  O214  1  0.23626300  0.60704730  0.36688439  1
  O  O215  1  0.23944969  0.64169218  0.62512271  1
  O  O216  1  0.24690350  0.65061739  0.86825516  1
  O  O217  1  0.25228808  0.85011964  0.13132365  1
  O  O218  1  0.23793221  0.88276243  0.35524241  1
  O  O219  1  0.23865090  0.85937762  0.64172583  1
  O  O220  1  0.23649346  0.86099970  0.85008993  1
  O  O221  1  0.52133365  0.08492120  0.09871264  1
  O  O222  1  0.50154411  0.13275753  0.39766240  1
  O  O223  1  0.48808749  0.08831868  0.60159983  1
  O  O224  1  0.51232025  0.11129601  0.90999940  1
  O  O225  1  0.50662200  0.40015990  0.11098892  1
  O  O226  1  0.50846797  0.38558712  0.41057182  1
  O  O227  1  0.51619588  0.39242506  0.58791721  1
  O  O228  1  0.50573500  0.38182508  0.91102958  1
  O  O229  1  0.49585948  0.61394069  0.10703117  1
  O  O230  1  0.49400717  0.63955349  0.38337286  1
  O  O231  1  0.50653540  0.58120419  0.63136064  1
  O  O232  1  0.49132483  0.62279028  0.88471011  1
  O  O233  1  0.50101049  0.89505137  0.12111545  1
  O  O234  1  0.50235764  0.85782267  0.37920233  1
  O  O235  1  0.49997574  0.90992853  0.62527861  1
  O  O236  1  0.50056740  0.91819337  0.89757782  1
  O  O237  1  0.75315999  0.12721473  0.15098331  1
  O  O238  1  0.75187551  0.14153668  0.37462481  1
  O  O239  1  0.76024126  0.14545108  0.61633806  1
  O  O240  1  0.73754789  0.16765566  0.83426388  1
  O  O241  1  0.74511298  0.36646027  0.16033709  1
  O  O242  1  0.74907072  0.36837198  0.34550880  1
  O  O243  1  0.75298203  0.34754022  0.64635682  1
  O  O244  1  0.73846161  0.35682556  0.85758405  1
  O  O245  1  0.74886917  0.63601468  0.11972648  1
  O  O246  1  0.75496385  0.63218277  0.34062278  1
  O  O247  1  0.74758235  0.63751236  0.64960556  1
  O  O248  1  0.75526979  0.64139170  0.88463032  1
  O  O249  1  0.74601263  0.85535633  0.11378610  1
  O  O250  1  0.75587749  0.84568858  0.38432105  1
  O  O251  1  0.74241414  0.82983624  0.62345469  1
  O  O252  1  0.74241308  0.86253713  0.87100702  1
  O  O253  1  0.11081508  -0.00481594  0.11920552  1
  O  O254  1  0.10094334  -0.00249099  0.41231593  1
  O  O255  1  0.13700390  0.00254570  0.60285074  1
  O  O256  1  0.12254540  -0.00646246  0.88063548  1
  O  O257  1  0.11621779  0.26252932  0.16292422  1
  O  O258  1  0.14949332  0.23713709  0.34347545  1
  O  O259  1  0.09405219  0.24360868  0.64710200  1
  O  O260  1  0.09013389  0.25337335  0.85903101  1
  O  O261  1  0.13597402  0.50091437  0.10886777  1
  O  O262  1  0.11363813  0.50290669  0.39010078  1
  O  O263  1  0.12121491  0.50061049  0.60885452  1
  O  O264  1  0.14000546  0.50615734  0.88962203  1
  O  O265  1  0.11432818  0.74234913  0.15344812  1
  O  O266  1  0.11740885  0.74468155  0.34874363  1
  O  O267  1  0.09498708  0.75900298  0.63517557  1
  O  O268  1  0.10062143  0.74867645  0.85857697  1
  O  O269  1  0.35585837  -0.00943501  0.11008133  1
  O  O270  1  0.38560290  0.00042371  0.40479121  1
  O  O271  1  0.34145498  -0.00091633  0.62142796  1
  O  O272  1  0.34009853  -0.00453573  0.88251936  1
  O  O273  1  0.40813520  0.25270238  0.14036971  1
  O  O274  1  0.35562595  0.24773176  0.33344889  1
  O  O275  1  0.40591113  0.24018882  0.63051459  1
  O  O276  1  0.40723120  0.25047401  0.86154145  1
  O  O277  1  0.36028463  0.49758722  0.11441587  1
  O  O278  1  0.37331042  0.50659819  0.41260433  1
  O  O279  1  0.35759169  0.50170627  0.60204668  1
  O  O280  1  0.34783448  0.50159500  0.89041344  1
  O  O281  1  0.38694887  0.74542133  0.11807163  1
  O  O282  1  0.35308119  0.74610836  0.36584234  1
  O  O283  1  0.37871355  0.76021247  0.63350869  1
  O  O284  1  0.38568044  0.76456846  0.85530756  1
  O  O285  1  0.65662621  -0.00288319  0.15848414  1
  O  O286  1  0.61932796  0.00443004  0.36433954  1
  O  O287  1  0.65512420  -0.01394791  0.62239615  1
  O  O288  1  0.66043452  0.01214025  0.87205734  1
  O  O289  1  0.61872343  0.24500033  0.11713462  1
  O  O290  1  0.62502655  0.25579257  0.38152629  1
  O  O291  1  0.61205886  0.25948704  0.63213007  1
  O  O292  1  0.60256190  0.25331185  0.88560242  1
  O  O293  1  0.63177609  0.50473026  0.13849960  1
  O  O294  1  0.63072335  0.49665674  0.34949334  1
  O  O295  1  0.65603398  0.50062378  0.62659947  1
  O  O296  1  0.63351077  0.49216471  0.88547590  1
  O  O297  1  0.60695096  0.75638743  0.10376152  1
  O  O298  1  0.61742799  0.74742820  0.37339991  1
  O  O299  1  0.58389798  0.75206442  0.64002564  1
  O  O300  1  0.59525360  0.76730375  0.87386644  1
  O  O301  1  0.85812320  -0.00783545  0.11045598  1
  O  O302  1  0.87157267  0.00054946  0.40031095  1
  O  O303  1  0.84774727  0.00364662  0.61086016  1
  O  O304  1  0.84359157  -0.00062513  0.88381275  1
  O  O305  1  0.87595866  0.24950404  0.15586128  1
  O  O306  1  0.87461226  0.25489928  0.34670973  1
  O  O307  1  0.91235362  0.25027252  0.64867496  1
  O  O308  1  0.91137265  0.25655093  0.84759985  1
  O  O309  1  0.87086727  0.50515942  0.09194114  1
  O  O310  1  0.83877574  0.50113281  0.40003422  1
  O  O311  1  0.83973241  0.49937870  0.60276027  1
  O  O312  1  0.86785568  0.50593097  0.90731395  1
  O  O313  1  0.87329418  0.74451652  0.15688564  1
  O  O314  1  0.88081896  0.74412373  0.33970388  1
  O  O315  1  0.88849032  0.75140536  0.65212261  1
  O  O316  1  0.88602999  0.75143016  0.85364423  1
