# generated using pymatgen
data_Mg32Ti42(Bi17O64)3
_symmetry_space_group_name_H-M   'P 1'
_cell_length_a   15.98979474
_cell_length_b   15.92240060
_cell_length_c   15.99152614
_cell_angle_alpha   89.98982016
_cell_angle_beta   89.94779068
_cell_angle_gamma   90.23096869
_symmetry_Int_Tables_number   1
_chemical_formula_structural   Mg32Ti42(Bi17O64)3
_chemical_formula_sum   'Mg32 Ti42 Bi51 O192'
_cell_volume   4071.34242993
_cell_formula_units_Z   1
loop_
 _symmetry_equiv_pos_site_id
 _symmetry_equiv_pos_as_xyz
  1  'x, y, z'
loop_
 _atom_site_type_symbol
 _atom_site_label
 _atom_site_symmetry_multiplicity
 _atom_site_fract_x
 _atom_site_fract_y
 _atom_site_fract_z
 _atom_site_occupancy
  Mg  Mg0  1  0.86280202  0.86950392  0.12730451  1
  Mg  Mg1  1  0.62209064  0.38126780  0.38339857  1
  Mg  Mg2  1  0.13018210  0.12080919  0.12585694  1
  Mg  Mg3  1  0.37617365  0.88214581  0.11957615  1
  Mg  Mg4  1  0.12446748  0.12004533  0.37679573  1
  Mg  Mg5  1  0.62032485  0.12560152  0.88235296  1
  Mg  Mg6  1  0.87341058  0.37579375  0.87882711  1
  Mg  Mg7  1  0.11894326  0.62202073  0.36280339  1
  Mg  Mg8  1  0.13230770  0.37363400  0.12175081  1
  Mg  Mg9  1  0.11874751  0.11680368  0.86960650  1
  Mg  Mg10  1  0.36783554  0.37531515  0.86837492  1
  Mg  Mg11  1  0.62735820  0.86803142  0.36506783  1
  Mg  Mg12  1  0.61677849  0.37311649  0.11852243  1
  Mg  Mg13  1  0.36899003  0.62970133  0.85176986  1
  Mg  Mg14  1  0.12938892  0.38190351  0.62857246  1
  Mg  Mg15  1  0.63501676  0.88056525  0.63178307  1
  Mg  Mg16  1  0.63353557  0.62243088  0.62744720  1
  Mg  Mg17  1  0.37883126  0.62311834  0.12963819  1
  Mg  Mg18  1  0.62797451  0.12833412  0.38083346  1
  Mg  Mg19  1  0.48299418  0.28660056  -0.02743496  1
  Mg  Mg20  1  0.81903938  0.23470058  0.51097368  1
  Mg  Mg21  1  0.04261276  0.55796833  0.56719157  1
  Mg  Mg22  1  0.24298045  -0.01313561  -0.07037986  1
  Mg  Mg23  1  0.49460263  0.70542330  0.25272146  1
  Mg  Mg24  1  0.69833507  0.25324400  -0.04015914  1
  Mg  Mg25  1  0.78208650  0.78433403  -0.03526763  1
  Mg  Mg26  1  0.48668611  -0.02295088  -0.04739809  1
  Mg  Mg27  1  0.73571323  0.80935013  0.49742293  1
  Mg  Mg28  1  0.47800873  0.52678411  -0.05066824  1
  Mg  Mg29  1  0.30153002  0.70708247  -0.00031229  1
  Mg  Mg30  1  0.21670821  0.55649536  0.70123326  1
  Mg  Mg31  1  0.02862579  0.74741345  0.68551417  1
  Ti  Ti32  1  0.13172325  0.85852154  0.87942514  1
  Ti  Ti33  1  0.38212045  0.88707802  0.62179434  1
  Ti  Ti34  1  0.87578103  0.36534777  0.12519654  1
  Ti  Ti35  1  0.13306463  0.87602940  0.10786882  1
  Ti  Ti36  1  0.88064518  0.87948181  0.61343893  1
  Ti  Ti37  1  0.61310593  0.87724289  0.12376535  1
  Ti  Ti38  1  0.38713797  0.85711663  0.37512022  1
  Ti  Ti39  1  0.87558064  0.61040196  0.36658681  1
  Ti  Ti40  1  0.64144088  0.62900511  0.38414294  1
  Ti  Ti41  1  0.38663176  0.11339950  0.11324798  1
  Ti  Ti42  1  0.62116028  0.86777702  0.87458166  1
  Ti  Ti43  1  0.87380487  0.62993790  0.61839309  1
  Ti  Ti44  1  0.38247664  0.62765547  0.38048025  1
  Ti  Ti45  1  0.88811046  0.37262213  0.62799784  1
  Ti  Ti46  1  0.38000491  0.38471761  0.38980249  1
  Ti  Ti47  1  0.12385587  0.12935894  0.62399078  1
  Ti  Ti48  1  0.87543229  0.13286507  0.88854366  1
  Ti  Ti49  1  0.87234797  0.87531241  0.36098848  1
  Ti  Ti50  1  0.62405743  0.37351141  0.62721701  1
  Ti  Ti51  1  0.12868971  0.88129834  0.60490999  1
  Ti  Ti52  1  0.13916198  0.61730626  0.12345319  1
  Ti  Ti53  1  0.85631062  0.62438696  0.88046534  1
  Ti  Ti54  1  0.12771276  0.38028828  0.87812332  1
  Ti  Ti55  1  0.37758486  0.36038504  0.10940418  1
  Ti  Ti56  1  0.37312616  0.63025738  0.61901403  1
  Ti  Ti57  1  0.37449952  0.12615960  0.63195503  1
  Ti  Ti58  1  0.36914634  0.37790240  0.63294718  1
  Ti  Ti59  1  0.13061044  0.37688035  0.37741852  1
  Ti  Ti60  1  0.62491223  0.63270145  0.87320766  1
  Ti  Ti61  1  0.88717446  0.12330840  0.63260982  1
  Ti  Ti62  1  0.61219012  0.61974843  0.10473585  1
  Ti  Ti63  1  0.87518225  0.13356796  0.12211433  1
  Ti  Ti64  1  0.61742821  0.13186569  0.11691971  1
  Ti  Ti65  1  0.87733530  0.12968121  0.36507838  1
  Ti  Ti66  1  0.61919496  0.39093597  0.88095109  1
  Ti  Ti67  1  0.12158223  0.87683198  0.36412306  1
  Ti  Ti68  1  0.88267461  0.37288444  0.37054165  1
  Ti  Ti69  1  0.37300637  0.86939925  0.86245168  1
  Ti  Ti70  1  0.37620520  0.11952428  0.87223665  1
  Ti  Ti71  1  0.13305949  0.63045344  0.88890417  1
  Ti  Ti72  1  0.64763627  0.12596742  0.62374052  1
  Ti  Ti73  1  0.86139630  0.62632440  0.13115442  1
  Bi  Bi74  1  0.03133239  0.24264915  0.24964020  1
  Bi  Bi75  1  0.48232381  0.03927395  0.27303590  1
  Bi  Bi76  1  0.74039501  0.03002693  0.23645139  1
  Bi  Bi77  1  0.47990354  0.77682299  0.00917292  1
  Bi  Bi78  1  0.77284583  -0.01000990  0.77856687  1
  Bi  Bi79  1  0.74790844  0.00282853  0.47132149  1
  Bi  Bi80  1  0.51495608  0.23633510  0.52176935  1
  Bi  Bi81  1  0.49269163  0.50627995  0.74316323  1
  Bi  Bi82  1  0.24108986  0.01763377  0.73036019  1
  Bi  Bi83  1  0.52932505  -0.01752441  0.48730398  1
  Bi  Bi84  1  0.49129962  0.25065548  0.29779741  1
  Bi  Bi85  1  0.02606049  0.53012535  0.75887823  1
  Bi  Bi86  1  0.53273989  0.01467859  0.75447596  1
  Bi  Bi87  1  0.00770571  0.26321122  0.77452772  1
  Bi  Bi88  1  0.76458201  0.47318052  0.49261777  1
  Bi  Bi89  1  0.73326354  -0.01971367  0.00897902  1
  Bi  Bi90  1  0.76670908  0.25001489  0.76826887  1
  Bi  Bi91  1  0.70997530  0.26008147  0.24700357  1
  Bi  Bi92  1  0.51047161  0.49318487  0.51612800  1
  Bi  Bi93  1  0.75963162  0.47587879  0.00931422  1
  Bi  Bi94  1  0.01936718  -0.04120829  0.76306881  1
  Bi  Bi95  1  0.51013618  0.25149868  0.76867841  1
  Bi  Bi96  1  0.24841136  -0.01483124  0.24471457  1
  Bi  Bi97  1  0.28084087  0.50984244  -0.01922106  1
  Bi  Bi98  1  -0.02405096  0.76104416  -0.02628134  1
  Bi  Bi99  1  0.03360087  0.27067378  0.50093344  1
  Bi  Bi100  1  0.49056609  0.48346661  0.22325563  1
  Bi  Bi101  1  0.28352336  0.01856422  0.46441931  1
  Bi  Bi102  1  -0.01884183  0.74891387  0.45835996  1
  Bi  Bi103  1  -0.01573920  0.52753175  0.00422946  1
  Bi  Bi104  1  0.22288139  0.72538836  0.49296362  1
  Bi  Bi105  1  0.53271321  0.75119376  0.73170393  1
  Bi  Bi106  1  0.27457153  0.75777510  0.24262497  1
  Bi  Bi107  1  0.22511738  0.51446055  0.48302510  1
  Bi  Bi108  1  0.03299132  0.24767285  0.00354365  1
  Bi  Bi109  1  -0.01070785  0.02193804  0.48275710  1
  Bi  Bi110  1  -0.04213507  -0.02144518  -0.00315175  1
  Bi  Bi111  1  0.00951664  -0.00989012  0.22401629  1
  Bi  Bi112  1  0.78101263  0.77363677  0.74373559  1
  Bi  Bi113  1  0.72030203  0.74939619  0.21253918  1
  Bi  Bi114  1  0.25430784  0.76317134  0.72199242  1
  Bi  Bi115  1  0.28156089  0.23751007  0.48594978  1
  Bi  Bi116  1  0.52435507  0.73584964  0.49623090  1
  Bi  Bi117  1  0.77279352  0.49832283  0.72813479  1
  Bi  Bi118  1  0.01285948  0.48403022  0.23180349  1
  Bi  Bi119  1  0.26547584  0.21474222  0.26054596  1
  Bi  Bi120  1  0.23740819  0.27069588  0.74371524  1
  Bi  Bi121  1  0.25657553  0.20964989  -0.00372288  1
  Bi  Bi122  1  0.01667216  0.73505479  0.22239586  1
  Bi  Bi123  1  0.26731251  0.46305339  0.24152665  1
  Bi  Bi124  1  0.72210784  0.48116389  0.25172289  1
  O  O125  1  0.12850571  0.14288082  0.00234819  1
  O  O126  1  0.13676978  0.14984898  0.25103988  1
  O  O127  1  0.10354576  0.10680422  0.50703340  1
  O  O128  1  0.15048536  0.13857082  0.74408957  1
  O  O129  1  0.12316664  0.36051717  -0.00435217  1
  O  O130  1  0.10013536  0.36429383  0.25552626  1
  O  O131  1  0.12900161  0.37727554  0.49902965  1
  O  O132  1  0.12166058  0.34616360  0.75156264  1
  O  O133  1  0.10581753  0.59950079  0.00711072  1
  O  O134  1  0.13001913  0.65099586  0.23941636  1
  O  O135  1  0.12245378  0.60832206  0.49136602  1
  O  O136  1  0.12834566  0.63060923  0.76879210  1
  O  O137  1  0.16094337  0.90515974  0.00139917  1
  O  O138  1  0.09671631  0.85753551  0.24985519  1
  O  O139  1  0.14009321  0.89913949  0.49584503  1
  O  O140  1  0.09358973  0.83964870  0.76512989  1
  O  O141  1  0.36482423  0.10396178  -0.00042841  1
  O  O142  1  0.39467546  0.15056571  0.23565440  1
  O  O143  1  0.36783947  0.11808967  0.50801930  1
  O  O144  1  0.36014127  0.13448085  0.75405339  1
  O  O145  1  0.35718966  0.39025452  0.00145559  1
  O  O146  1  0.38757439  0.37634001  0.26013024  1
  O  O147  1  0.34794665  0.37929272  0.50397974  1
  O  O148  1  0.40084798  0.35984991  0.74577713  1
  O  O149  1  0.38547500  0.59726883  0.00386014  1
  O  O150  1  0.37260586  0.64824054  0.26186035  1
  O  O151  1  0.40994545  0.61655153  0.50685095  1
  O  O152  1  0.32000102  0.62743655  0.73549968  1
  O  O153  1  0.40029375  0.89215425  -0.01054837  1
  O  O154  1  0.39858286  0.82100855  0.26226356  1
  O  O155  1  0.36534034  0.89972657  0.50628214  1
  O  O156  1  0.37130165  0.84051266  0.74729469  1
  O  O157  1  0.64662536  0.14025523  0.00698007  1
  O  O158  1  0.62724747  0.11177016  0.24806821  1
  O  O159  1  0.60701790  0.10929462  0.51122200  1
  O  O160  1  0.61332735  0.14626930  0.74564587  1
  O  O161  1  0.64875255  0.36614156  -0.00222364  1
  O  O162  1  0.62508629  0.37954917  0.25253372  1
  O  O163  1  0.63305312  0.40752317  0.50728992  1
  O  O164  1  0.59654070  0.36297672  0.75281631  1
  O  O165  1  0.58521260  0.60038822  -0.00212317  1
  O  O166  1  0.62668430  0.67396819  0.27199037  1
  O  O167  1  0.59723982  0.60895442  0.50192322  1
  O  O168  1  0.63814747  0.65218211  0.75923144  1
  O  O169  1  0.59390503  0.90756879  -0.01221191  1
  O  O170  1  0.64057056  0.86518145  0.23880469  1
  O  O171  1  0.63731688  0.90165187  0.51023037  1
  O  O172  1  0.63811879  0.84959766  0.75372458  1
  O  O173  1  0.87803371  0.14825582  0.00363917  1
  O  O174  1  0.87284558  0.10957920  0.25211104  1
  O  O175  1  0.90005403  0.13471535  0.50378158  1
  O  O176  1  0.84790199  0.10947905  0.74379033  1
  O  O177  1  0.84822960  0.36424212  0.01035200  1
  O  O178  1  0.89773170  0.38567504  0.25750401  1
  O  O179  1  0.84834105  0.36103139  0.50970525  1
  O  O180  1  0.86386646  0.38685292  0.74639691  1
  O  O181  1  0.88892889  0.63368807  0.01019215  1
  O  O182  1  0.85961645  0.60433245  0.25297142  1
  O  O183  1  0.89822485  0.63565260  0.50725396  1
  O  O184  1  0.85487378  0.60934430  0.76633500  1
  O  O185  1  0.88303360  0.85999296  0.00350021  1
  O  O186  1  0.87362413  0.89957009  0.25005175  1
  O  O187  1  0.87089109  0.84573470  0.50227580  1
  O  O188  1  0.86530477  0.88695458  0.74468470  1
  O  O189  1  -0.00873047  0.09514719  0.13109021  1
  O  O190  1  -0.00423231  0.10587017  0.36855497  1
  O  O191  1  0.00030696  0.12657449  0.64890415  1
  O  O192  1  -0.01395695  0.10783804  0.86570113  1
  O  O193  1  -0.00599613  0.40549625  0.12067836  1
  O  O194  1  -0.00578472  0.36605176  0.39947284  1
  O  O195  1  -0.00113611  0.36734075  0.61567715  1
  O  O196  1  0.00184722  0.37727347  0.86201637  1
  O  O197  1  -0.00421348  0.60043947  0.13922234  1
  O  O198  1  -0.00734299  0.63846050  0.36233758  1
  O  O199  1  -0.00662149  0.62717370  0.65483693  1
  O  O200  1  -0.00677035  0.60949303  0.88227983  1
  O  O201  1  0.00603167  0.90547441  0.11168355  1
  O  O202  1  -0.00132456  0.88136487  0.38690857  1
  O  O203  1  0.00252952  0.86720230  0.62706068  1
  O  O204  1  0.01402063  0.88417702  0.90438234  1
  O  O205  1  0.26305697  0.15046847  0.12835179  1
  O  O206  1  0.25203808  0.13271517  0.37880579  1
  O  O207  1  0.24328980  0.09599110  0.61182099  1
  O  O208  1  0.25074129  0.11638208  0.89162046  1
  O  O209  1  0.25903179  0.35812006  0.14955770  1
  O  O210  1  0.24698866  0.36690262  0.36304828  1
  O  O211  1  0.25626746  0.39155289  0.65764077  1
  O  O212  1  0.24299094  0.34324517  0.86448582  1
  O  O213  1  0.24694209  0.64217699  0.10066919  1
  O  O214  1  0.25402726  0.62198606  0.39761240  1
  O  O215  1  0.25965209  0.59960969  0.58878569  1
  O  O216  1  0.24661983  0.63667856  0.90871878  1
  O  O217  1  0.24878547  0.87080946  0.15410898  1
  O  O218  1  0.24937087  0.86686281  0.33673506  1
  O  O219  1  0.24353012  0.88896627  0.64708250  1
  O  O220  1  0.24957889  0.86230535  0.86654353  1
  O  O221  1  0.50559759  0.10259770  0.11543916  1
  O  O222  1  0.49973101  0.13202912  0.36946189  1
  O  O223  1  0.48871603  0.14577796  0.62798374  1
  O  O224  1  0.49298155  0.08320337  0.87970855  1
  O  O225  1  0.49327992  0.39620246  0.11776636  1
  O  O226  1  0.49513410  0.37636334  0.39868961  1
  O  O227  1  0.49591748  0.35578201  0.59715624  1
  O  O228  1  0.50283696  0.40405142  0.90876110  1
  O  O229  1  0.50478220  0.61981857  0.15677009  1
  O  O230  1  0.49733063  0.65936228  0.37017665  1
  O  O231  1  0.48521012  0.62961196  0.66895119  1
  O  O232  1  0.50104351  0.60663861  0.85217615  1
  O  O233  1  0.50224541  0.87574804  0.12453162  1
  O  O234  1  0.50096289  0.86242948  0.39866769  1
  O  O235  1  0.49587086  0.87789772  0.62647608  1
  O  O236  1  0.49678479  0.89760104  0.84791058  1
  O  O237  1  0.75449316  0.13951978  0.14817587  1
  O  O238  1  0.75379279  0.11000499  0.37811212  1
  O  O239  1  0.75584033  0.13879518  0.59424569  1
  O  O240  1  0.74576119  0.16586691  0.87518673  1
  O  O241  1  0.75792310  0.36696579  0.15785534  1
  O  O242  1  0.75309560  0.39646155  0.37251871  1
  O  O243  1  0.73728686  0.39216200  0.63614019  1
  O  O244  1  0.73530007  0.34290361  0.86530498  1
  O  O245  1  0.74202907  0.63615757  0.12158267  1
  O  O246  1  0.75513594  0.61654901  0.39547989  1
  O  O247  1  0.75666337  0.60635255  0.62417994  1
  O  O248  1  0.74203403  0.65186138  0.90858159  1
  O  O249  1  0.73774847  0.85527688  0.07733677  1
  O  O250  1  0.75431975  0.88521203  0.38911376  1
  O  O251  1  0.75898762  0.84781213  0.62102843  1
  O  O252  1  0.73725858  0.87032393  0.88687784  1
  O  O253  1  0.13722811  -0.00412684  0.15535353  1
  O  O254  1  0.13842350  -0.00690037  0.35159380  1
  O  O255  1  0.11325259  -0.00779763  0.66195614  1
  O  O256  1  0.13613709  -0.01208937  0.84873826  1
  O  O257  1  0.09490969  0.25055247  0.12714825  1
  O  O258  1  0.11221510  0.25032103  0.38608527  1
  O  O259  1  0.13924239  0.24367683  0.60621977  1
  O  O260  1  0.09607794  0.24327053  0.87648451  1
  O  O261  1  0.14286877  0.50163808  0.15164363  1
  O  O262  1  0.13028879  0.49360991  0.36137570  1
  O  O263  1  0.11549320  0.50313984  0.65014394  1
  O  O264  1  0.13434519  0.49612393  0.86582694  1
  O  O265  1  0.09964868  0.75863988  0.10913290  1
  O  O266  1  0.12541778  0.75572133  0.39564081  1
  O  O267  1  0.13521820  0.76161828  0.61529150  1
  O  O268  1  0.11644534  0.74537796  0.90754901  1
  O  O269  1  0.36699576  0.00453024  0.15259279  1
  O  O270  1  0.37567190  -0.01679226  0.35775124  1
  O  O271  1  0.37944733  0.00157826  0.65033202  1
  O  O272  1  0.35189787  -0.01027278  0.86355415  1
  O  O273  1  0.40645339  0.25277489  0.08043589  1
  O  O274  1  0.37824932  0.26019872  0.38759512  1
  O  O275  1  0.34933289  0.24613163  0.61499819  1
  O  O276  1  0.39877450  0.23762816  0.88899738  1
  O  O277  1  0.36634439  0.49926372  0.15248195  1
  O  O278  1  0.37714600  0.50703532  0.37320249  1
  O  O279  1  0.40044707  0.49525315  0.63101967  1
  O  O280  1  0.35939707  0.50162266  0.87155799  1
  O  O281  1  0.37397881  0.75178341  0.09461699  1
  O  O282  1  0.35385269  0.74996757  0.41200529  1
  O  O283  1  0.34802597  0.74894114  0.61421805  1
  O  O284  1  0.38104508  0.75127766  0.90371144  1
  O  O285  1  0.65098362  -0.00196867  0.12478717  1
  O  O286  1  0.61270496  -0.00256809  0.37959297  1
  O  O287  1  0.64056680  0.01077695  0.65384117  1
  O  O288  1  0.63521778  0.00051533  0.84622048  1
  O  O289  1  0.61587797  0.24710837  0.14593751  1
  O  O290  1  0.62080402  0.25359897  0.36826852  1
  O  O291  1  0.62509859  0.25395453  0.60578227  1
  O  O292  1  0.57966024  0.25311172  0.89194127  1
  O  O293  1  0.63189932  0.50669580  0.14107982  1
  O  O294  1  0.62038833  0.51661398  0.35138774  1
  O  O295  1  0.59054207  0.49743829  0.64062150  1
  O  O296  1  0.64565712  0.50272442  0.86542944  1
  O  O297  1  0.61672764  0.74682032  0.11773045  1
  O  O298  1  0.64430403  0.75128304  0.42732009  1
  O  O299  1  0.60769708  0.74674235  0.61630508  1
  O  O300  1  0.60100969  0.75124100  0.89319761  1
  O  O301  1  0.84677037  0.00316367  0.09859247  1
  O  O302  1  0.87236728  -0.00069453  0.40085979  1
  O  O303  1  0.87838096  -0.00284545  0.60430967  1
  O  O304  1  0.84203581  0.01581683  0.89365424  1
  O  O305  1  0.89999543  0.25025164  0.14025482  1
  O  O306  1  0.86174946  0.24728574  0.38185208  1
  O  O307  1  0.87303314  0.24812604  0.63086638  1
  O  O308  1  0.88360739  0.24976682  0.84832974  1
  O  O309  1  0.85442099  0.49996779  0.11016901  1
  O  O310  1  0.88127871  0.49776974  0.39417685  1
  O  O311  1  0.87691476  0.49881467  0.62598172  1
  O  O312  1  0.85126560  0.50085088  0.90606230  1
  O  O313  1  0.88684628  0.74205454  0.14289593  1
  O  O314  1  0.88080790  0.75608976  0.36158342  1
  O  O315  1  0.88658311  0.74509281  0.65441772  1
  O  O316  1  0.87561459  0.74346519  0.88016328  1
