# generated using pymatgen
data_Mg32Ti42(Bi17O64)3
_symmetry_space_group_name_H-M   'P 1'
_cell_length_a   15.97335872
_cell_length_b   15.96022154
_cell_length_c   15.99882327
_cell_angle_alpha   90.02132756
_cell_angle_beta   89.94813352
_cell_angle_gamma   89.99259488
_symmetry_Int_Tables_number   1
_chemical_formula_structural   Mg32Ti42(Bi17O64)3
_chemical_formula_sum   'Mg32 Ti42 Bi51 O192'
_cell_volume   4078.71152139
_cell_formula_units_Z   1
loop_
 _symmetry_equiv_pos_site_id
 _symmetry_equiv_pos_as_xyz
  1  'x, y, z'
loop_
 _atom_site_type_symbol
 _atom_site_label
 _atom_site_symmetry_multiplicity
 _atom_site_fract_x
 _atom_site_fract_y
 _atom_site_fract_z
 _atom_site_occupancy
  Mg  Mg0  1  0.12963111  0.37836877  0.87030019  1
  Mg  Mg1  1  0.11860175  0.87287240  0.36651810  1
  Mg  Mg2  1  0.38769117  0.38305070  0.85277389  1
  Mg  Mg3  1  0.60992674  0.13063445  0.39700116  1
  Mg  Mg4  1  0.61029876  0.12005879  0.63428680  1
  Mg  Mg5  1  0.37768290  0.64114514  0.62059690  1
  Mg  Mg6  1  0.87358792  0.38072602  0.12497535  1
  Mg  Mg7  1  0.61801215  0.37279812  0.62968500  1
  Mg  Mg8  1  0.87348891  0.12984316  0.39128255  1
  Mg  Mg9  1  0.12425179  0.87548460  0.63678174  1
  Mg  Mg10  1  0.87458812  0.63506877  0.37960574  1
  Mg  Mg11  1  0.36864989  0.87532986  0.37541702  1
  Mg  Mg12  1  0.87543286  0.87500370  0.11618511  1
  Mg  Mg13  1  0.62601394  0.63184241  0.13083307  1
  Mg  Mg14  1  0.62546942  0.62445601  0.63658085  1
  Mg  Mg15  1  0.37267801  0.61620208  0.13256863  1
  Mg  Mg16  1  0.85889633  0.63114920  0.87754601  1
  Mg  Mg17  1  0.61900705  0.12474848  0.12141371  1
  Mg  Mg18  1  0.11921680  0.38065972  0.38272239  1
  Mg  Mg19  1  0.48540893  0.53612882  0.74581383  1
  Mg  Mg20  1  0.78143538  0.73496276  0.74171974  1
  Mg  Mg21  1  0.00639991  0.72516232  0.55522678  1
  Mg  Mg22  1  0.49840116  -0.02805458  0.76890646  1
  Mg  Mg23  1  0.49066769  0.28508488  0.28656594  1
  Mg  Mg24  1  0.01008128  -0.00001744  0.78055417  1
  Mg  Mg25  1  0.50614074  0.77184610  0.75104703  1
  Mg  Mg26  1  0.04685878  -0.01877178  -0.02534292  1
  Mg  Mg27  1  0.27777836  0.54819039  0.49575704  1
  Mg  Mg28  1  0.53926360  0.32468031  0.45713841  1
  Mg  Mg29  1  0.46300872  0.17188657  0.76721601  1
  Mg  Mg30  1  -0.04699279  0.50457963  0.78946940  1
  Mg  Mg31  1  0.01402507  0.27797834  0.54637319  1
  Ti  Ti32  1  0.61722441  0.62864678  0.37080124  1
  Ti  Ti33  1  0.37216389  0.13279900  0.38368837  1
  Ti  Ti34  1  0.12902811  0.39317106  0.62257960  1
  Ti  Ti35  1  0.61591596  0.64011300  0.86612796  1
  Ti  Ti36  1  0.63514545  0.87278314  0.64880625  1
  Ti  Ti37  1  0.38388007  0.12883455  0.13528138  1
  Ti  Ti38  1  0.11743123  0.12822327  0.38609075  1
  Ti  Ti39  1  0.39038291  0.37087551  0.61193906  1
  Ti  Ti40  1  0.87486306  0.11074108  0.11728641  1
  Ti  Ti41  1  0.37609215  0.11966245  0.61525681  1
  Ti  Ti42  1  0.37782662  0.61668769  0.87946329  1
  Ti  Ti43  1  0.62130563  0.87174448  0.11946951  1
  Ti  Ti44  1  0.12169108  0.36672247  0.12395356  1
  Ti  Ti45  1  0.88222913  0.38656305  0.62800374  1
  Ti  Ti46  1  0.88414078  0.11946151  0.87558030  1
  Ti  Ti47  1  0.38128180  0.88276708  0.63469183  1
  Ti  Ti48  1  0.13081105  0.87052152  0.86231971  1
  Ti  Ti49  1  0.87910450  0.86846220  0.63226882  1
  Ti  Ti50  1  0.87325172  0.35910627  0.86883858  1
  Ti  Ti51  1  0.12245746  0.87827307  0.12918371  1
  Ti  Ti52  1  0.89014353  0.13136746  0.62640912  1
  Ti  Ti53  1  0.37142397  0.88050389  0.12934263  1
  Ti  Ti54  1  0.87399814  0.86728614  0.38342331  1
  Ti  Ti55  1  0.12557539  0.12195307  0.12599278  1
  Ti  Ti56  1  0.12882280  0.61367490  0.12711192  1
  Ti  Ti57  1  0.88382202  0.87964397  0.87444806  1
  Ti  Ti58  1  0.13292460  0.62357314  0.63697174  1
  Ti  Ti59  1  0.62703373  0.87520971  0.87580352  1
  Ti  Ti60  1  0.11229165  0.11698766  0.63905573  1
  Ti  Ti61  1  0.11748347  0.62523206  0.37923496  1
  Ti  Ti62  1  0.38090501  0.63702431  0.37414039  1
  Ti  Ti63  1  0.36878583  0.36031499  0.12777203  1
  Ti  Ti64  1  0.88891131  0.36639708  0.38087445  1
  Ti  Ti65  1  0.13405830  0.62353667  0.87843496  1
  Ti  Ti66  1  0.37899084  0.87028923  0.88221276  1
  Ti  Ti67  1  0.86609678  0.62344166  0.62582308  1
  Ti  Ti68  1  0.86778450  0.62306417  0.12041761  1
  Ti  Ti69  1  0.61848956  0.36940127  0.13230527  1
  Ti  Ti70  1  0.11598463  0.13160982  0.88296234  1
  Ti  Ti71  1  0.62497856  0.36981798  0.86748969  1
  Ti  Ti72  1  0.36092189  0.37419520  0.38825190  1
  Ti  Ti73  1  0.63149947  0.10636669  0.86859826  1
  Bi  Bi74  1  0.75235914  0.48048058  0.28336242  1
  Bi  Bi75  1  0.74413376  0.75568155  0.25924641  1
  Bi  Bi76  1  0.73462263  0.50743752  0.01729048  1
  Bi  Bi77  1  -0.02760215  0.51089390  0.48509850  1
  Bi  Bi78  1  0.24606897  0.46410464  -0.01342452  1
  Bi  Bi79  1  0.51577659  0.74907720  0.52442119  1
  Bi  Bi80  1  0.73161722  -0.00147285  0.02358492  1
  Bi  Bi81  1  0.24706346  0.00623316  0.02171991  1
  Bi  Bi82  1  0.26977037  0.01884050  0.78814673  1
  Bi  Bi83  1  0.01332789  0.75283018  0.00435093  1
  Bi  Bi84  1  0.74678889  0.01404871  0.51491807  1
  Bi  Bi85  1  0.23114216  0.25410620  0.50830336  1
  Bi  Bi86  1  0.47325246  0.48474373  0.25009722  1
  Bi  Bi87  1  0.75269335  0.24934169  0.02828218  1
  Bi  Bi88  1  0.51983528  0.78542505  0.28271609  1
  Bi  Bi89  1  0.73034443  0.46639403  0.49846653  1
  Bi  Bi90  1  0.51048757  0.51191665  0.01745948  1
  Bi  Bi91  1  0.50344261  0.26867050  -0.03130138  1
  Bi  Bi92  1  0.70225273  0.24699846  0.28170289  1
  Bi  Bi93  1  0.26524617  0.24369447  0.72950651  1
  Bi  Bi94  1  0.29359839  0.23401095  -0.04755612  1
  Bi  Bi95  1  0.24597193  -0.02880219  0.50847011  1
  Bi  Bi96  1  0.01997034  0.28674924  0.75039077  1
  Bi  Bi97  1  -0.02814113  -0.00698504  0.27353753  1
  Bi  Bi98  1  0.73091734  0.77079988  0.47941652  1
  Bi  Bi99  1  -0.01641972  0.50126111  0.24854717  1
  Bi  Bi100  1  -0.02456450  0.75603646  0.23205905  1
  Bi  Bi101  1  0.75758698  0.76337154  -0.00216607  1
  Bi  Bi102  1  0.25718792  0.73361660  0.02617340  1
  Bi  Bi103  1  0.72384385  0.23473538  0.74969590  1
  Bi  Bi104  1  0.26176130  0.00083180  0.27563959  1
  Bi  Bi105  1  0.73664931  0.02845308  0.28047177  1
  Bi  Bi106  1  -0.00897609  0.71538550  0.76099125  1
  Bi  Bi107  1  0.21631069  0.75363811  0.51372958  1
  Bi  Bi108  1  0.24314149  0.49645977  0.27949294  1
  Bi  Bi109  1  -0.00677217  0.21733278  0.25840337  1
  Bi  Bi110  1  0.51872376  0.01574462  0.27409005  1
  Bi  Bi111  1  0.78399303  0.00972683  0.74664602  1
  Bi  Bi112  1  0.47242347  0.02987365  -0.02511819  1
  Bi  Bi113  1  0.23438643  0.74596072  0.26816210  1
  Bi  Bi114  1  -0.01800094  0.48402653  -0.01987652  1
  Bi  Bi115  1  0.51306956  0.52456686  0.51823760  1
  Bi  Bi116  1  0.27885013  0.49509047  0.71991362  1
  Bi  Bi117  1  -0.01429755  0.24903621  0.02606650  1
  Bi  Bi118  1  0.51030575  -0.03946722  0.49587934  1
  Bi  Bi119  1  0.73146474  0.24525290  0.52818839  1
  Bi  Bi120  1  0.02575697  -0.02655229  0.50506263  1
  Bi  Bi121  1  0.22689634  0.25771559  0.26611501  1
  Bi  Bi122  1  0.72724104  0.50825259  0.77228663  1
  Bi  Bi123  1  0.48893617  0.74521967  0.03462336  1
  Bi  Bi124  1  0.27431387  0.74066445  0.76345127  1
  O  O125  1  0.12732984  0.14049630  -0.00435382  1
  O  O126  1  0.10924878  0.10922986  0.23893552  1
  O  O127  1  0.10936408  0.16378524  0.49305700  1
  O  O128  1  0.10499206  0.09230802  0.74976982  1
  O  O129  1  0.12571890  0.38113821  0.00234089  1
  O  O130  1  0.14612907  0.38915981  0.24141912  1
  O  O131  1  0.11603460  0.34753580  0.50809073  1
  O  O132  1  0.13460009  0.37419707  0.74161071  1
  O  O133  1  0.12368921  0.65034062  -0.00588103  1
  O  O134  1  0.15035850  0.61299981  0.24606231  1
  O  O135  1  0.10440418  0.66036231  0.48997229  1
  O  O136  1  0.16025649  0.62179909  0.74671658  1
  O  O137  1  0.11180735  0.85633973  -0.00821046  1
  O  O138  1  0.10835833  0.90371761  0.23893276  1
  O  O139  1  0.12685667  0.87191533  0.49629853  1
  O  O140  1  0.10072993  0.90328875  0.75543754  1
  O  O141  1  0.38328652  0.13884867  0.00760081  1
  O  O142  1  0.37058464  0.08838260  0.24973064  1
  O  O143  1  0.36323561  0.15042619  0.49841352  1
  O  O144  1  0.35025201  0.12080517  0.73822815  1
  O  O145  1  0.39231953  0.34581065  0.01138584  1
  O  O146  1  0.36109414  0.39912468  0.25341606  1
  O  O147  1  0.36398414  0.33881960  0.49855555  1
  O  O148  1  0.40177037  0.42899302  0.73249166  1
  O  O149  1  0.38037797  0.65142862  -0.00979498  1
  O  O150  1  0.36770461  0.59105164  0.25844011  1
  O  O151  1  0.39679188  0.62688654  0.49301659  1
  O  O152  1  0.35610930  0.60775264  0.74639346  1
  O  O153  1  0.36884679  0.84474671  -0.00792996  1
  O  O154  1  0.36129559  0.90013142  0.23988549  1
  O  O155  1  0.39921174  0.87749011  0.50227800  1
  O  O156  1  0.38076278  0.91970058  0.74822407  1
  O  O157  1  0.61498515  0.10303422  -0.01325340  1
  O  O158  1  0.63536548  0.12708891  0.24705232  1
  O  O159  1  0.65130694  0.12270790  0.51457476  1
  O  O160  1  0.61481486  0.15075247  0.75771590  1
  O  O161  1  0.58177106  0.37602997  0.01503285  1
  O  O162  1  0.65928361  0.39259977  0.24073788  1
  O  O163  1  0.64867834  0.35433523  0.49938094  1
  O  O164  1  0.64206877  0.38594338  0.75371050  1
  O  O165  1  0.62668624  0.62106621  -0.02024693  1
  O  O166  1  0.63098814  0.65648292  0.25616187  1
  O  O167  1  0.60276247  0.63908993  0.50467402  1
  O  O168  1  0.61165523  0.57727813  0.75430542  1
  O  O169  1  0.61779028  0.89191154  -0.00988542  1
  O  O170  1  0.63644184  0.85151226  0.23555476  1
  O  O171  1  0.61343316  0.86135370  0.52319008  1
  O  O172  1  0.58515631  0.87894658  0.75531920  1
  O  O173  1  0.87805617  0.14536613  -0.01272137  1
  O  O174  1  0.87786527  0.11158685  0.23409054  1
  O  O175  1  0.85005703  0.11899213  0.51451477  1
  O  O176  1  0.90440128  0.08539430  0.74997887  1
  O  O177  1  0.90486861  0.36584659  -0.01290644  1
  O  O178  1  0.87541287  0.40838427  0.25217027  1
  O  O179  1  0.91306445  0.36489938  0.49867735  1
  O  O180  1  0.87808632  0.40053460  0.74702526  1
  O  O181  1  0.86631107  0.65502247  0.00198501  1
  O  O182  1  0.88573640  0.60325080  0.24409988  1
  O  O183  1  0.90687134  0.64713748  0.51300662  1
  O  O184  1  0.88891338  0.60498008  0.74549662  1
  O  O185  1  0.87638080  0.83983628  -0.01277995  1
  O  O186  1  0.88996799  0.88112817  0.24701355  1
  O  O187  1  0.84746601  0.85463851  0.50056517  1
  O  O188  1  0.89261036  0.90013092  0.74561964  1
  O  O189  1  -0.00362470  0.13828698  0.11393672  1
  O  O190  1  -0.00339609  0.11709999  0.36177696  1
  O  O191  1  -0.00064154  0.09094179  0.60850250  1
  O  O192  1  0.00119873  0.08091209  0.88794690  1
  O  O193  1  0.00528783  0.35308354  0.12955390  1
  O  O194  1  -0.00003383  0.41637860  0.36457025  1
  O  O195  1  0.00906111  0.38393373  0.63204136  1
  O  O196  1  0.00275954  0.40618434  0.85522506  1
  O  O197  1  0.01166112  0.65634068  0.12227856  1
  O  O198  1  0.00665477  0.59624114  0.36266433  1
  O  O199  1  0.01689680  0.62425358  0.63818397  1
  O  O200  1  0.01618289  0.60600638  0.85338161  1
  O  O201  1  0.00406299  0.84296658  0.11590385  1
  O  O202  1  -0.00666285  0.89978603  0.38309528  1
  O  O203  1  -0.00910573  0.86488426  0.59682295  1
  O  O204  1  -0.00513000  0.90568859  0.88340189  1
  O  O205  1  0.24444560  0.10488970  0.12548410  1
  O  O206  1  0.23919093  0.14624074  0.36131787  1
  O  O207  1  0.23694291  0.15593451  0.62344453  1
  O  O208  1  0.23573514  0.13801544  0.86109612  1
  O  O209  1  0.25790719  0.37759967  0.11196223  1
  O  O210  1  0.24370790  0.34440682  0.37500734  1
  O  O211  1  0.24344464  0.34101803  0.62263248  1
  O  O212  1  0.26046985  0.36491280  0.88664896  1
  O  O213  1  0.24883369  0.61284586  0.09977801  1
  O  O214  1  0.25981139  0.64604922  0.38993051  1
  O  O215  1  0.25166876  0.63895748  0.58916767  1
  O  O216  1  0.25651503  0.66489762  0.87836066  1
  O  O217  1  0.24603347  0.89419600  0.10973166  1
  O  O218  1  0.24463084  0.86349391  0.35634531  1
  O  O219  1  0.25940338  0.86493098  0.61211376  1
  O  O220  1  0.24897206  0.85238176  0.85087789  1
  O  O221  1  0.49487715  0.11811973  0.13162399  1
  O  O222  1  0.48670276  0.09767054  0.38111053  1
  O  O223  1  0.48550419  0.11787359  0.64390624  1
  O  O224  1  0.50523170  0.08115991  0.84701926  1
  O  O225  1  0.50923795  0.35303228  0.18023505  1
  O  O226  1  0.48047625  0.38678058  0.36930431  1
  O  O227  1  0.50002479  0.37657633  0.57904569  1
  O  O228  1  0.51042685  0.37517963  0.87295584  1
  O  O229  1  0.49948607  0.62909313  0.11047196  1
  O  O230  1  0.50265511  0.59825992  0.36278868  1
  O  O231  1  0.49157110  0.59002584  0.63377955  1
  O  O232  1  0.49281863  0.60203439  0.85758124  1
  O  O233  1  0.49653612  0.86411133  0.12445992  1
  O  O234  1  0.49201217  0.90158419  0.35407185  1
  O  O235  1  0.49729045  0.92075253  0.62919335  1
  O  O236  1  0.48989252  0.90462071  0.88081737  1
  O  O237  1  0.75248938  0.12269759  0.09899273  1
  O  O238  1  0.74976943  0.14157726  0.36493420  1
  O  O239  1  0.77015363  0.13536923  0.66407895  1
  O  O240  1  0.75572844  0.12911096  0.84985518  1
  O  O241  1  0.74719390  0.38419974  0.08662074  1
  O  O242  1  0.76913683  0.37589760  0.37578654  1
  O  O243  1  0.77159404  0.36100969  0.61258150  1
  O  O244  1  0.76178054  0.35569360  0.88170341  1
  O  O245  1  0.75289218  0.60783232  0.12444930  1
  O  O246  1  0.74531770  0.66946176  0.38000791  1
  O  O247  1  0.75469890  0.64211833  0.64281435  1
  O  O248  1  0.73611160  0.64458837  0.83717998  1
  O  O249  1  0.74769776  0.86872937  0.09485928  1
  O  O250  1  0.75178616  0.84856324  0.36809046  1
  O  O251  1  0.74365342  0.83652931  0.66630217  1
  O  O252  1  0.73925859  0.84442897  0.87594115  1
  O  O253  1  0.10879972  -0.00099744  0.08614981  1
  O  O254  1  0.13121009  0.01183272  0.40200441  1
  O  O255  1  0.13946917  0.00360001  0.59634202  1
  O  O256  1  0.14694507  -0.00782174  0.89614665  1
  O  O257  1  0.13435442  0.24756585  0.13565946  1
  O  O258  1  0.10486652  0.25034880  0.33864343  1
  O  O259  1  0.09222340  0.23541401  0.64272954  1
  O  O260  1  0.10009772  0.24446731  0.85915154  1
  O  O261  1  0.10816575  0.50391593  0.11505382  1
  O  O262  1  0.15766666  0.51133057  0.39453091  1
  O  O263  1  0.14956606  0.50413708  0.60775756  1
  O  O264  1  0.15846279  0.51123481  0.88640965  1
  O  O265  1  0.15704837  0.75886869  0.14278578  1
  O  O266  1  0.11965337  0.74460478  0.34169821  1
  O  O267  1  0.12536085  0.74849554  0.62394621  1
  O  O268  1  0.10204108  0.75346147  0.85548099  1
  O  O269  1  0.37681110  -0.00586079  0.09181776  1
  O  O270  1  0.33800020  0.00749369  0.38839193  1
  O  O271  1  0.34933234  0.00935611  0.60225188  1
  O  O272  1  0.34787435  -0.00881482  0.89869726  1
  O  O273  1  0.36880595  0.24407218  0.15400901  1
  O  O274  1  0.38614249  0.24353928  0.34442895  1
  O  O275  1  0.38586543  0.26264955  0.66323298  1
  O  O276  1  0.39652909  0.25014056  0.86010127  1
  O  O277  1  0.41127747  0.48409844  0.11612695  1
  O  O278  1  0.33692121  0.48785530  0.39905660  1
  O  O279  1  0.33628121  0.48468131  0.59464062  1
  O  O280  1  0.35825502  0.50566452  0.89462075  1
  O  O281  1  0.36479094  0.75270183  0.12804484  1
  O  O282  1  0.39587301  0.74830863  0.35646619  1
  O  O283  1  0.40402775  0.76761550  0.65311370  1
  O  O284  1  0.39715627  0.75915749  0.83028392  1
  O  O285  1  0.64024958  -0.00774587  0.12952818  1
  O  O286  1  0.63123783  0.00726945  0.36555358  1
  O  O287  1  0.66151445  -0.00965690  0.62992894  1
  O  O288  1  0.65059451  -0.00694996  0.85352802  1
  O  O289  1  0.64686186  0.25406438  0.12407940  1
  O  O290  1  0.58866848  0.25104343  0.36138538  1
  O  O291  1  0.64370267  0.24806539  0.63065735  1
  O  O292  1  0.62808506  0.25192573  0.89119424  1
  O  O293  1  0.61816551  0.50113985  0.10577824  1
  O  O294  1  0.65570924  0.51703078  0.38921671  1
  O  O295  1  0.63314224  0.49685829  0.59440105  1
  O  O296  1  0.65804296  0.48507195  0.89114022  1
  O  O297  1  0.62502878  0.75378189  0.09409765  1
  O  O298  1  0.59028378  0.75104155  0.39357431  1
  O  O299  1  0.58530848  0.75033144  0.64824568  1
  O  O300  1  0.58801900  0.75094198  0.85596628  1
  O  O301  1  0.86995680  -0.00070601  0.09528429  1
  O  O302  1  0.85805934  -0.00339382  0.36834348  1
  O  O303  1  0.84465561  -0.01668923  0.61361484  1
  O  O304  1  0.84762393  -0.00650617  0.88410523  1
  O  O305  1  0.86723139  0.25184080  0.11037187  1
  O  O306  1  0.89865951  0.25510842  0.35874794  1
  O  O307  1  0.91138565  0.24453814  0.62484520  1
  O  O308  1  0.89553001  0.24341874  0.85121541  1
  O  O309  1  0.89665716  0.50667148  0.09679894  1
  O  O310  1  0.86205893  0.51080105  0.40739355  1
  O  O311  1  0.87536690  0.50192471  0.60184931  1
  O  O312  1  0.87221361  0.50411979  0.89330117  1
  O  O313  1  0.86484346  0.74375703  0.15125644  1
  O  O314  1  0.89419965  0.75618458  0.35515753  1
  O  O315  1  0.88748917  0.74562384  0.65168819  1
  O  O316  1  0.87941889  0.75465914  0.83563561  1
