# generated using pymatgen
data_Mg32Ti42(Bi17O64)3
_symmetry_space_group_name_H-M   'P 1'
_cell_length_a   15.97640800
_cell_length_b   15.97433741
_cell_length_c   15.95742906
_cell_angle_alpha   90.00786303
_cell_angle_beta   89.96831377
_cell_angle_gamma   90.09532537
_symmetry_Int_Tables_number   1
_chemical_formula_structural   Mg32Ti42(Bi17O64)3
_chemical_formula_sum   'Mg32 Ti42 Bi51 O192'
_cell_volume   4072.52957621
_cell_formula_units_Z   1
loop_
 _symmetry_equiv_pos_site_id
 _symmetry_equiv_pos_as_xyz
  1  'x, y, z'
loop_
 _atom_site_type_symbol
 _atom_site_label
 _atom_site_symmetry_multiplicity
 _atom_site_fract_x
 _atom_site_fract_y
 _atom_site_fract_z
 _atom_site_occupancy
  Mg  Mg0  1  0.37613175  0.11817410  0.62311579  1
  Mg  Mg1  1  0.11847747  0.12561626  0.13443347  1
  Mg  Mg2  1  0.12482792  0.87848941  0.62237352  1
  Mg  Mg3  1  0.38324028  0.62735503  0.63564863  1
  Mg  Mg4  1  0.62017330  0.12702037  0.36506319  1
  Mg  Mg5  1  0.86923206  0.12618540  0.11901551  1
  Mg  Mg6  1  0.63213143  0.87660320  0.87589948  1
  Mg  Mg7  1  0.11862487  0.87464788  0.37344472  1
  Mg  Mg8  1  0.12679201  0.38252952  0.87618225  1
  Mg  Mg9  1  0.37349154  0.86316582  0.86467046  1
  Mg  Mg10  1  0.86603491  0.86461929  0.11848840  1
  Mg  Mg11  1  0.87941708  0.62272985  0.38238932  1
  Mg  Mg12  1  0.38446157  0.13386956  0.88837983  1
  Mg  Mg13  1  0.87373422  0.87774783  0.38043881  1
  Mg  Mg14  1  0.12516485  0.12231453  0.87333590  1
  Mg  Mg15  1  0.86564758  0.37414852  0.38332761  1
  Mg  Mg16  1  0.12146221  0.13433695  0.38017824  1
  Mg  Mg17  1  0.63736917  0.86942677  0.62327610  1
  Mg  Mg18  1  0.63534114  0.61736864  0.87459348  1
  Mg  Mg19  1  0.22368728  0.01848483  0.43939601  1
  Mg  Mg20  1  0.78221977  0.79967830  0.74410122  1
  Mg  Mg21  1  0.56015428  0.73914782  -0.03286320  1
  Mg  Mg22  1  0.02984889  0.00640715  0.53284907  1
  Mg  Mg23  1  0.02802370  0.25174217  0.52536121  1
  Mg  Mg24  1  0.48147039  0.75583565  0.15197645  1
  Mg  Mg25  1  0.74026527  0.45973018  0.72813343  1
  Mg  Mg26  1  -0.02770138  0.80654652  0.23882619  1
  Mg  Mg27  1  0.76161224  0.51562231  0.46861513  1
  Mg  Mg28  1  0.69848325  0.24612928  0.02131568  1
  Mg  Mg29  1  0.75841086  0.71727651  -0.04538976  1
  Mg  Mg30  1  0.00192586  0.17472122  0.00386277  1
  Mg  Mg31  1  0.01119156  0.69581359  0.00972783  1
  Ti  Ti32  1  0.87193706  0.36101819  0.11775769  1
  Ti  Ti33  1  0.13440309  0.37382662  0.61882960  1
  Ti  Ti34  1  0.62687066  0.37680245  0.38377927  1
  Ti  Ti35  1  0.63167097  0.37201303  0.13186773  1
  Ti  Ti36  1  0.12720369  0.86859552  0.88032490  1
  Ti  Ti37  1  0.87741409  0.12314768  0.87701249  1
  Ti  Ti38  1  0.12846512  0.38492290  0.38303259  1
  Ti  Ti39  1  0.12718673  0.62414340  0.88018146  1
  Ti  Ti40  1  0.37500449  0.37341944  0.62775257  1
  Ti  Ti41  1  0.12447857  0.61983199  0.12659401  1
  Ti  Ti42  1  0.87815727  0.87612125  0.88120043  1
  Ti  Ti43  1  0.36945830  0.36576169  0.38496286  1
  Ti  Ti44  1  0.88059568  0.62790177  0.11791329  1
  Ti  Ti45  1  0.62274851  0.12881716  0.88536733  1
  Ti  Ti46  1  0.87160514  0.36717718  0.86801307  1
  Ti  Ti47  1  0.62950649  0.37095845  0.61860334  1
  Ti  Ti48  1  0.37881559  0.61601014  0.11635100  1
  Ti  Ti49  1  0.35232166  0.88716379  0.38822577  1
  Ti  Ti50  1  0.38142389  0.11940154  0.13276855  1
  Ti  Ti51  1  0.88808315  0.13872999  0.62249025  1
  Ti  Ti52  1  0.62298223  0.37455626  0.87700900  1
  Ti  Ti53  1  0.88384140  0.63179720  0.86773067  1
  Ti  Ti54  1  0.38527590  0.62897123  0.88195053  1
  Ti  Ti55  1  0.38562442  0.37955581  0.86210351  1
  Ti  Ti56  1  0.87988040  0.89342667  0.62245866  1
  Ti  Ti57  1  0.12510153  0.85401120  0.12669378  1
  Ti  Ti58  1  0.87410798  0.13116870  0.38025493  1
  Ti  Ti59  1  0.86399740  0.61377374  0.63899812  1
  Ti  Ti60  1  0.62449728  0.86220354  0.37750041  1
  Ti  Ti61  1  0.86712153  0.37539784  0.62099505  1
  Ti  Ti62  1  0.37747886  0.12389211  0.36878166  1
  Ti  Ti63  1  0.11400418  0.37533026  0.11619761  1
  Ti  Ti64  1  0.62756579  0.86265810  0.13284946  1
  Ti  Ti65  1  0.11583393  0.62916455  0.36006666  1
  Ti  Ti66  1  0.62131778  0.11696557  0.12736011  1
  Ti  Ti67  1  0.62624521  0.62147564  0.36058751  1
  Ti  Ti68  1  0.13182248  0.12116515  0.61900845  1
  Ti  Ti69  1  0.10871620  0.62343357  0.62830711  1
  Ti  Ti70  1  0.36569784  0.87944559  0.63042134  1
  Ti  Ti71  1  0.64301665  0.61216761  0.62722369  1
  Ti  Ti72  1  0.62745322  0.12138630  0.63053308  1
  Ti  Ti73  1  0.64096080  0.63086547  0.12259484  1
  Bi  Bi74  1  0.54985532  0.74795678  0.74914465  1
  Bi  Bi75  1  0.45758730  0.72652839  0.46648094  1
  Bi  Bi76  1  0.48153066  0.22229614  0.74941492  1
  Bi  Bi77  1  0.52034973  0.50805068  0.75196413  1
  Bi  Bi78  1  0.77537967  0.73961257  0.50814854  1
  Bi  Bi79  1  0.26405819  0.23141529  0.50573668  1
  Bi  Bi80  1  0.77145477  -0.00605778  0.25918172  1
  Bi  Bi81  1  -0.01226081  0.47717771  0.00313460  1
  Bi  Bi82  1  0.27754550  0.52856453  0.48265131  1
  Bi  Bi83  1  0.51593655  0.48937266  0.02813036  1
  Bi  Bi84  1  0.24087716  -0.03176728  0.22274846  1
  Bi  Bi85  1  0.47594066  0.29085344  0.25104958  1
  Bi  Bi86  1  0.48835900  -0.03393215  0.51435849  1
  Bi  Bi87  1  0.76457393  0.50147514  -0.02003175  1
  Bi  Bi88  1  0.47252076  0.51973607  0.29173790  1
  Bi  Bi89  1  0.71411986  -0.00348456  0.47921754  1
  Bi  Bi90  1  0.00632228  0.00531458  0.27800580  1
  Bi  Bi91  1  0.75672223  0.22825841  0.23273785  1
  Bi  Bi92  1  0.23691893  0.48875659  0.23231643  1
  Bi  Bi93  1  0.24683897  0.75006047  0.72217324  1
  Bi  Bi94  1  0.01864220  -0.01553228  0.03924979  1
  Bi  Bi95  1  0.74006915  0.21811003  0.49892533  1
  Bi  Bi96  1  0.78240810  0.74258854  0.25692137  1
  Bi  Bi97  1  0.26921817  -0.02670995  0.00097871  1
  Bi  Bi98  1  0.02566719  0.00265448  0.75595459  1
  Bi  Bi99  1  0.01859342  0.25064002  0.77440011  1
  Bi  Bi100  1  0.75115228  0.00517997  0.77207103  1
  Bi  Bi101  1  0.76547580  0.49997089  0.26694376  1
  Bi  Bi102  1  0.28655070  0.01633096  0.77979303  1
  Bi  Bi103  1  0.22967976  0.25237335  0.22958449  1
  Bi  Bi104  1  0.75136812  -0.01958166  0.02387329  1
  Bi  Bi105  1  0.26577548  0.51793271  0.75360104  1
  Bi  Bi106  1  0.00480342  0.77319684  0.50606309  1
  Bi  Bi107  1  0.00919904  0.25930379  0.28875813  1
  Bi  Bi108  1  0.23307008  0.21923810  0.00872434  1
  Bi  Bi109  1  -0.00005732  0.77210171  0.75671647  1
  Bi  Bi110  1  0.50163937  0.49668923  0.51988980  1
  Bi  Bi111  1  0.28256217  0.75499251  0.00873543  1
  Bi  Bi112  1  0.73851890  0.24316392  0.76458045  1
  Bi  Bi113  1  0.22750141  0.73300124  0.49146884  1
  Bi  Bi114  1  0.28477748  0.71543129  0.26612166  1
  Bi  Bi115  1  0.28366910  0.46092920  0.01023573  1
  Bi  Bi116  1  0.51583442  -0.03109098  0.74982079  1
  Bi  Bi117  1  0.46881534  0.26660562  0.03224161  1
  Bi  Bi118  1  0.49146422  -0.04129013  0.25603150  1
  Bi  Bi119  1  0.01506465  0.49119989  0.75438869  1
  Bi  Bi120  1  -0.02202582  0.49963521  0.27249911  1
  Bi  Bi121  1  0.50677696  0.22344263  0.49839170  1
  Bi  Bi122  1  -0.00832595  0.47884825  0.51659105  1
  Bi  Bi123  1  0.24840175  0.25458525  0.77755985  1
  Bi  Bi124  1  0.48604676  -0.05309323  0.00279415  1
  O  O125  1  0.12490127  0.13351833  -0.00015287  1
  O  O126  1  0.12578637  0.16859904  0.25659739  1
  O  O127  1  0.12648661  0.08447266  0.49977106  1
  O  O128  1  0.10431535  0.12951268  0.73996042  1
  O  O129  1  0.12163168  0.39113945  0.00276627  1
  O  O130  1  0.12912780  0.35218812  0.25555173  1
  O  O131  1  0.13115816  0.40869204  0.49659903  1
  O  O132  1  0.10698969  0.37484036  0.73413696  1
  O  O133  1  0.12361278  0.61921509  -0.00005706  1
  O  O134  1  0.11509502  0.64810421  0.24721247  1
  O  O135  1  0.15457073  0.61644998  0.50835023  1
  O  O136  1  0.09853794  0.62381103  0.74855554  1
  O  O137  1  0.11891149  0.88337665  -0.00039380  1
  O  O138  1  0.15352310  0.85770302  0.24288228  1
  O  O139  1  0.07868327  0.89170814  0.49887416  1
  O  O140  1  0.09848769  0.87154252  0.75355418  1
  O  O141  1  0.37283487  0.16083326  0.01071527  1
  O  O142  1  0.37155412  0.09845410  0.25323117  1
  O  O143  1  0.38164068  0.15917022  0.49955471  1
  O  O144  1  0.39301525  0.10639997  0.75034858  1
  O  O145  1  0.36610410  0.35131289  -0.01622641  1
  O  O146  1  0.38839225  0.39707688  0.26536756  1
  O  O147  1  0.37115363  0.34182071  0.50292788  1
  O  O148  1  0.37881442  0.40993961  0.74329630  1
  O  O149  1  0.34404316  0.62998046  -0.00034117  1
  O  O150  1  0.37462003  0.61325452  0.24092247  1
  O  O151  1  0.35317471  0.64624683  0.51028964  1
  O  O152  1  0.38555352  0.59570516  0.76248914  1
  O  O153  1  0.36782338  0.86956151  -0.00705477  1
  O  O154  1  0.36024984  0.90094764  0.26915147  1
  O  O155  1  0.39172586  0.86041639  0.50426397  1
  O  O156  1  0.37730514  0.90874728  0.74852056  1
  O  O157  1  0.63620360  0.12699231  -0.00152667  1
  O  O158  1  0.64552567  0.13111026  0.24134341  1
  O  O159  1  0.62474087  0.13258843  0.50375615  1
  O  O160  1  0.62784902  0.15153396  0.74805346  1
  O  O161  1  0.61274106  0.37784950  -0.00598900  1
  O  O162  1  0.63770246  0.37573876  0.24631320  1
  O  O163  1  0.62399128  0.39412615  0.50323997  1
  O  O164  1  0.65124222  0.35882682  0.75366589  1
  O  O165  1  0.64742260  0.65777408  0.00502222  1
  O  O166  1  0.61997424  0.61934234  0.24809323  1
  O  O167  1  0.66177632  0.59531786  0.51605890  1
  O  O168  1  0.60105937  0.62001661  0.75526188  1
  O  O169  1  0.59310690  0.85715322  0.00605863  1
  O  O170  1  0.62578770  0.88650570  0.25164561  1
  O  O171  1  0.62180932  0.87921366  0.49907636  1
  O  O172  1  0.61648179  0.87286874  0.74812223  1
  O  O173  1  0.87959179  0.13217968  -0.01050608  1
  O  O174  1  0.84059681  0.12198177  0.24988077  1
  O  O175  1  0.87519652  0.14464739  0.49397665  1
  O  O176  1  0.89120927  0.12044948  0.73577224  1
  O  O177  1  0.89386814  0.37037087  -0.00696311  1
  O  O178  1  0.86451118  0.40380657  0.23109207  1
  O  O179  1  0.86639036  0.40350870  0.50544223  1
  O  O180  1  0.85472370  0.39873318  0.74917565  1
  O  O181  1  0.87161012  0.67608957  0.00906489  1
  O  O182  1  0.87160633  0.60112211  0.24229956  1
  O  O183  1  0.84465725  0.61661972  0.51185970  1
  O  O184  1  0.90126613  0.61734954  0.75592593  1
  O  O185  1  0.86641523  0.88870864  -0.00567738  1
  O  O186  1  0.84399731  0.87168259  0.24819898  1
  O  O187  1  0.87550652  0.84552344  0.50767064  1
  O  O188  1  0.89326976  0.87135598  0.74447941  1
  O  O189  1  -0.00484938  0.10879889  0.11137580  1
  O  O190  1  -0.00641198  0.12586439  0.35543534  1
  O  O191  1  0.00412828  0.14822613  0.59584291  1
  O  O192  1  -0.00395718  0.15328833  0.87783059  1
  O  O193  1  -0.00353068  0.38990545  0.12381863  1
  O  O194  1  0.00145748  0.39047077  0.36469077  1
  O  O195  1  0.00053936  0.36006912  0.58938949  1
  O  O196  1  -0.00903061  0.37096245  0.85337634  1
  O  O197  1  -0.00108267  0.61759930  0.10893590  1
  O  O198  1  0.00467528  0.60506683  0.38113342  1
  O  O199  1  -0.00092978  0.64932501  0.60513988  1
  O  O200  1  -0.00359742  0.65258038  0.89417911  1
  O  O201  1  0.00021212  0.88101054  0.13735852  1
  O  O202  1  -0.00359926  0.87637943  0.33605156  1
  O  O203  1  -0.00826693  0.83530660  0.62735498  1
  O  O204  1  -0.00771155  0.85120894  0.87934292  1
  O  O205  1  0.25320533  0.14646440  0.12814921  1
  O  O206  1  0.25345544  0.13711244  0.39647608  1
  O  O207  1  0.24731656  0.13263411  0.61687552  1
  O  O208  1  0.25169088  0.13874311  0.86267989  1
  O  O209  1  0.24141675  0.39056220  0.13076818  1
  O  O210  1  0.25083265  0.37081125  0.37831930  1
  O  O211  1  0.24994287  0.38426589  0.62755587  1
  O  O212  1  0.25555882  0.37582365  0.85509927  1
  O  O213  1  0.24349754  0.60880503  0.14087011  1
  O  O214  1  0.24349880  0.63217183  0.37137649  1
  O  O215  1  0.24799518  0.62126577  0.65971407  1
  O  O216  1  0.24137472  0.60310214  0.86032740  1
  O  O217  1  0.24180803  0.87905497  0.11048250  1
  O  O218  1  0.24181799  0.89398662  0.41164349  1
  O  O219  1  0.25012746  0.87345163  0.63784765  1
  O  O220  1  0.24183919  0.89095567  0.87043599  1
  O  O221  1  0.50295431  0.11205631  0.12546890  1
  O  O222  1  0.49460106  0.14028727  0.38103489  1
  O  O223  1  0.50647720  0.14380390  0.62042772  1
  O  O224  1  0.51072083  0.14935179  0.87704937  1
  O  O225  1  0.50947426  0.38851572  0.12091218  1
  O  O226  1  0.50208795  0.36037792  0.38150631  1
  O  O227  1  0.50080776  0.38601834  0.61902675  1
  O  O228  1  0.50457570  0.35725772  0.85656623  1
  O  O229  1  0.49391290  0.63286898  0.10676442  1
  O  O230  1  0.50485868  0.63154115  0.38345271  1
  O  O231  1  0.51257676  0.60413358  0.61381196  1
  O  O232  1  0.49479977  0.64869235  0.90394893  1
  O  O233  1  0.49826807  0.88076920  0.14048262  1
  O  O234  1  0.50043064  0.87796812  0.36919829  1
  O  O235  1  0.50034580  0.88374099  0.63060797  1
  O  O236  1  0.49895486  0.88655787  0.87234327  1
  O  O237  1  0.74276448  0.16252639  0.11093437  1
  O  O238  1  0.74938786  0.11515742  0.39595258  1
  O  O239  1  0.75440133  0.12495187  0.61353209  1
  O  O240  1  0.75675746  0.12062369  0.85349357  1
  O  O241  1  0.74913322  0.35436407  0.09551485  1
  O  O242  1  0.74112210  0.41520674  0.38183956  1
  O  O243  1  0.75077133  0.38896358  0.62100686  1
  O  O244  1  0.75270155  0.40277962  0.88277191  1
  O  O245  1  0.75210032  0.64017112  0.13590419  1
  O  O246  1  0.74476889  0.60165845  0.36933415  1
  O  O247  1  0.75758996  0.57830876  0.66769025  1
  O  O248  1  0.76082720  0.60926779  0.88757726  1
  O  O249  1  0.73818985  0.85951134  0.09685110  1
  O  O250  1  0.74453029  0.89568240  0.38677943  1
  O  O251  1  0.76400069  0.88765180  0.64302263  1
  O  O252  1  0.75607592  0.88961736  0.84706891  1
  O  O253  1  0.12176011  -0.00285873  0.13161361  1
  O  O254  1  0.13261445  0.00519884  0.34266080  1
  O  O255  1  0.10260270  0.00319250  0.63864453  1
  O  O256  1  0.10548931  -0.00393212  0.86619015  1
  O  O257  1  0.13353993  0.25898847  0.11496138  1
  O  O258  1  0.08896572  0.26043730  0.40880271  1
  O  O259  1  0.13256095  0.25556164  0.59826991  1
  O  O260  1  0.12803143  0.25611590  0.85791701  1
  O  O261  1  0.11992996  0.50161700  0.15375501  1
  O  O262  1  0.13693083  0.50049999  0.34665813  1
  O  O263  1  0.09621803  0.50239911  0.62912942  1
  O  O264  1  0.09914094  0.50675479  0.86617498  1
  O  O265  1  0.11164680  0.74349428  0.10278104  1
  O  O266  1  0.11955272  0.74509041  0.39934875  1
  O  O267  1  0.14489398  0.74683518  0.61496629  1
  O  O268  1  0.13740910  0.74958177  0.87234582  1
  O  O269  1  0.36014183  0.00982993  0.10127324  1
  O  O270  1  0.36646449  0.00804784  0.40829491  1
  O  O271  1  0.38083047  -0.00475442  0.60041021  1
  O  O272  1  0.36287324  0.00887677  0.89445268  1
  O  O273  1  0.39445910  0.24771396  0.14705861  1
  O  O274  1  0.37309060  0.25072143  0.34268594  1
  O  O275  1  0.37440486  0.25974950  0.65465732  1
  O  O276  1  0.37355644  0.25649022  0.83951668  1
  O  O277  1  0.38190654  0.49936469  0.09723942  1
  O  O278  1  0.39014986  0.48972579  0.40328502  1
  O  O279  1  0.37459494  0.49784247  0.58737401  1
  O  O280  1  0.38598182  0.49453518  0.90009850  1
  O  O281  1  0.36122477  0.73957270  0.12756445  1
  O  O282  1  0.36533792  0.76434669  0.37061005  1
  O  O283  1  0.36861872  0.75552002  0.65662426  1
  O  O284  1  0.34875766  0.74042336  0.87426056  1
  O  O285  1  0.64302723  -0.00064894  0.11669441  1
  O  O286  1  0.61820919  0.00109946  0.38514597  1
  O  O287  1  0.62145568  0.00813635  0.63723735  1
  O  O288  1  0.63112013  0.01063822  0.85689235  1
  O  O289  1  0.60741133  0.25651501  0.11479041  1
  O  O290  1  0.64606755  0.26101338  0.38805919  1
  O  O291  1  0.63694532  0.25651425  0.61016984  1
  O  O292  1  0.66510254  0.25261773  0.88927420  1
  O  O293  1  0.63021099  0.50884152  0.10783229  1
  O  O294  1  0.59741353  0.50294825  0.37110285  1
  O  O295  1  0.62581659  0.48952465  0.66160057  1
  O  O296  1  0.60653990  0.49362023  0.86743403  1
  O  O297  1  0.60580076  0.75012296  0.14363838  1
  O  O298  1  0.64107011  0.74755566  0.37879476  1
  O  O299  1  0.64401574  0.73397509  0.64267126  1
  O  O300  1  0.63489809  0.74926276  0.86488338  1
  O  O301  1  0.83678303  -0.00081523  0.12601918  1
  O  O302  1  0.87987734  0.00508956  0.35668194  1
  O  O303  1  0.91538248  -0.00107102  0.59818129  1
  O  O304  1  0.87788636  0.00288044  0.86168066  1
  O  O305  1  0.88513534  0.25444374  0.14648896  1
  O  O306  1  0.87103150  0.25144514  0.35642185  1
  O  O307  1  0.86809740  0.25696265  0.62965885  1
  O  O308  1  0.85968867  0.25445698  0.85441660  1
  O  O309  1  0.86977515  0.51049464  0.08452391  1
  O  O310  1  0.87440751  0.49921736  0.36451272  1
  O  O311  1  0.91107478  0.49949835  0.62988949  1
  O  O312  1  0.88756737  0.51260140  0.90423320  1
  O  O313  1  0.89019971  0.74539270  0.16763898  1
  O  O314  1  0.85896201  0.74580994  0.37314735  1
  O  O315  1  0.83506349  0.73141710  0.63897812  1
  O  O316  1  0.84102815  0.75387588  0.85834310  1
