# generated using pymatgen
data_Mg32Ti42(Bi17O64)3
_symmetry_space_group_name_H-M   'P 1'
_cell_length_a   15.90955883
_cell_length_b   15.94983597
_cell_length_c   15.98995556
_cell_angle_alpha   89.95835726
_cell_angle_beta   90.00731229
_cell_angle_gamma   89.96766168
_symmetry_Int_Tables_number   1
_chemical_formula_structural   Mg32Ti42(Bi17O64)3
_chemical_formula_sum   'Mg32 Ti42 Bi51 O192'
_cell_volume   4057.52708320
_cell_formula_units_Z   1
loop_
 _symmetry_equiv_pos_site_id
 _symmetry_equiv_pos_as_xyz
  1  'x, y, z'
loop_
 _atom_site_type_symbol
 _atom_site_label
 _atom_site_symmetry_multiplicity
 _atom_site_fract_x
 _atom_site_fract_y
 _atom_site_fract_z
 _atom_site_occupancy
  Mg  Mg0  1  0.62202005  0.11319185  0.62720280  1
  Mg  Mg1  1  0.61795840  0.88607812  0.89018211  1
  Mg  Mg2  1  0.87971137  0.87198307  0.36631183  1
  Mg  Mg3  1  0.37484077  0.14270592  0.38321641  1
  Mg  Mg4  1  0.88209472  0.87396926  0.87769697  1
  Mg  Mg5  1  0.88117572  0.37668347  0.36482022  1
  Mg  Mg6  1  0.10786778  0.86305934  0.09978085  1
  Mg  Mg7  1  0.63704943  0.63473258  0.87886911  1
  Mg  Mg8  1  0.86723756  0.62454910  0.12715938  1
  Mg  Mg9  1  0.12047448  0.62142213  0.37100748  1
  Mg  Mg10  1  0.62091047  0.38011250  0.37710979  1
  Mg  Mg11  1  0.12865484  0.62296806  0.87964034  1
  Mg  Mg12  1  0.63064150  0.38246365  0.63670430  1
  Mg  Mg13  1  0.13095471  0.62028927  0.11920459  1
  Mg  Mg14  1  0.87526196  0.12641777  0.36522322  1
  Mg  Mg15  1  0.87900454  0.36573149  0.87186906  1
  Mg  Mg16  1  0.13005109  0.13800698  0.12471818  1
  Mg  Mg17  1  0.37876689  0.37999991  0.12179865  1
  Mg  Mg18  1  0.37684437  0.12271840  0.86707321  1
  Mg  Mg19  1  0.46138116  0.81815491  0.21349372  1
  Mg  Mg20  1  -0.01660764  0.28957466  0.18523441  1
  Mg  Mg21  1  0.26079055  -0.06571014  0.19220597  1
  Mg  Mg22  1  0.51892466  0.48229796  0.19694653  1
  Mg  Mg23  1  0.25228863  0.20353196  0.70603447  1
  Mg  Mg24  1  0.54870259  0.54547140  0.75332643  1
  Mg  Mg25  1  0.76773117  0.49950291  0.45242700  1
  Mg  Mg26  1  0.75311072  0.49575461  0.83606331  1
  Mg  Mg27  1  0.01396348  0.03374470  -0.00020269  1
  Mg  Mg28  1  0.70916045  0.55168254  0.05105068  1
  Mg  Mg29  1  0.01327090  0.69068043  0.00097186  1
  Mg  Mg30  1  0.74236800  0.78886826  0.80376030  1
  Mg  Mg31  1  0.50110098  -0.04199696  0.72428714  1
  Ti  Ti32  1  0.86027374  0.37926840  0.62658548  1
  Ti  Ti33  1  0.86950842  0.62087817  0.36300778  1
  Ti  Ti34  1  0.12876704  0.11276859  0.61622554  1
  Ti  Ti35  1  0.63658754  0.36438320  0.86612310  1
  Ti  Ti36  1  0.36606137  0.12495671  0.12905380  1
  Ti  Ti37  1  0.37783868  0.37240389  0.63878790  1
  Ti  Ti38  1  0.38861002  0.87969716  0.86513263  1
  Ti  Ti39  1  0.61893395  0.62058112  0.38728744  1
  Ti  Ti40  1  0.12964905  0.13099932  0.36649718  1
  Ti  Ti41  1  0.63597235  0.87942543  0.61897699  1
  Ti  Ti42  1  0.63021493  0.12284010  0.12947820  1
  Ti  Ti43  1  0.64838745  0.62766367  0.62743677  1
  Ti  Ti44  1  0.12160214  0.37071396  0.36204472  1
  Ti  Ti45  1  0.12939680  0.87405016  0.36964038  1
  Ti  Ti46  1  0.62307004  0.37660578  0.10606259  1
  Ti  Ti47  1  0.87052917  0.12301069  0.62693071  1
  Ti  Ti48  1  0.39338429  0.38315766  0.37228051  1
  Ti  Ti49  1  0.62066940  0.88397597  0.12566457  1
  Ti  Ti50  1  0.36310440  0.86610604  0.62537532  1
  Ti  Ti51  1  0.13373806  0.12220428  0.86765357  1
  Ti  Ti52  1  0.12363112  0.63582549  0.61966722  1
  Ti  Ti53  1  0.13215171  0.37083715  0.12853588  1
  Ti  Ti54  1  0.13194534  0.87645101  0.61710231  1
  Ti  Ti55  1  0.88291485  0.87720940  0.13456916  1
  Ti  Ti56  1  0.11291489  0.87597064  0.87722170  1
  Ti  Ti57  1  0.87964436  0.86482368  0.62436266  1
  Ti  Ti58  1  0.38552944  0.62476764  0.37890365  1
  Ti  Ti59  1  0.87852879  0.62027199  0.61767378  1
  Ti  Ti60  1  0.85663179  0.39858161  0.10866796  1
  Ti  Ti61  1  0.88132153  0.12243639  0.86654714  1
  Ti  Ti62  1  0.38101106  0.10443584  0.63192240  1
  Ti  Ti63  1  0.12892284  0.36904585  0.86860235  1
  Ti  Ti64  1  0.37460164  0.61118106  0.13173649  1
  Ti  Ti65  1  0.87054747  0.63154307  0.88406890  1
  Ti  Ti66  1  0.88583233  0.11963585  0.12740045  1
  Ti  Ti67  1  0.38027873  0.36918858  0.87201062  1
  Ti  Ti68  1  0.37715623  0.86847708  0.37331594  1
  Ti  Ti69  1  0.36958633  0.62707171  0.64112887  1
  Ti  Ti70  1  0.37889757  0.62972042  0.87391936  1
  Ti  Ti71  1  0.62908642  0.13107090  0.37493548  1
  Ti  Ti72  1  0.61637551  0.87630111  0.36930890  1
  Ti  Ti73  1  0.62581502  0.11621056  0.87943852  1
  Bi  Bi74  1  0.77688432  -0.00657777  0.00319731  1
  Bi  Bi75  1  0.21091336  0.48146364  0.72042306  1
  Bi  Bi76  1  0.71579700  0.72713738  0.22667315  1
  Bi  Bi77  1  0.76554201  -0.02178055  0.76074441  1
  Bi  Bi78  1  0.53949959  0.26711794  0.51337426  1
  Bi  Bi79  1  0.25697996  0.01642906  0.47148668  1
  Bi  Bi80  1  0.27103525  0.24054267  -0.01608540  1
  Bi  Bi81  1  0.50044851  0.02179587  0.48119981  1
  Bi  Bi82  1  0.75282109  -0.01143147  0.25150733  1
  Bi  Bi83  1  0.51073990  0.23243865  -0.00605911  1
  Bi  Bi84  1  0.47282925  -0.01916287  0.03212803  1
  Bi  Bi85  1  0.25287750  0.72442952  0.25078587  1
  Bi  Bi86  1  0.02757291  0.27058449  0.70224614  1
  Bi  Bi87  1  0.25611120  -0.01268269  0.77787507  1
  Bi  Bi88  1  -0.00546797  0.23907476  0.47219154  1
  Bi  Bi89  1  -0.02623897  0.50007331  0.75439144  1
  Bi  Bi90  1  0.52176170  0.70206400  0.04962134  1
  Bi  Bi91  1  0.01214054  0.49278556  0.23784061  1
  Bi  Bi92  1  -0.00260657  0.72960381  0.75644279  1
  Bi  Bi93  1  0.27428247  0.49990048  0.50663984  1
  Bi  Bi94  1  0.76299833  0.24263678  -0.00766920  1
  Bi  Bi95  1  0.00125813  -0.00196406  0.73327376  1
  Bi  Bi96  1  0.76852901  0.26066228  0.24625756  1
  Bi  Bi97  1  0.54357444  0.75731618  0.76162397  1
  Bi  Bi98  1  0.75200383  0.75408071  0.47731788  1
  Bi  Bi99  1  0.26640857  0.49294616  -0.02297037  1
  Bi  Bi100  1  0.03079607  0.46475628  0.52202065  1
  Bi  Bi101  1  0.78351578  0.75830095  0.01333439  1
  Bi  Bi102  1  0.75695340  0.27902226  0.48122312  1
  Bi  Bi103  1  0.01929705  0.48610804  -0.01590865  1
  Bi  Bi104  1  0.71855853  0.49233638  0.25363058  1
  Bi  Bi105  1  -0.00121394  -0.00421909  0.46483450  1
  Bi  Bi106  1  0.23555845  0.75070045  0.77693540  1
  Bi  Bi107  1  0.50484357  0.23222840  0.75196247  1
  Bi  Bi108  1  0.50700640  0.51360608  0.54098574  1
  Bi  Bi109  1  -0.00837316  0.71942060  0.48207885  1
  Bi  Bi110  1  0.47405309  0.02561074  0.25979284  1
  Bi  Bi111  1  0.01090197  0.72848960  0.21905368  1
  Bi  Bi112  1  0.22138662  -0.00482334  0.00948285  1
  Bi  Bi113  1  0.73837795  0.24026990  0.71687291  1
  Bi  Bi114  1  0.23733044  0.28460123  0.52205473  1
  Bi  Bi115  1  0.50244853  0.76474412  0.52880429  1
  Bi  Bi116  1  0.25213679  0.48906652  0.25954526  1
  Bi  Bi117  1  0.27488993  0.24467606  0.24779240  1
  Bi  Bi118  1  0.52136934  0.49729764  -0.03880938  1
  Bi  Bi119  1  0.00632722  0.24078258  -0.02148018  1
  Bi  Bi120  1  0.50498097  0.27439375  0.24483728  1
  Bi  Bi121  1  0.24257007  0.74165756  0.47903449  1
  Bi  Bi122  1  0.77786225  -0.00520182  0.48237409  1
  Bi  Bi123  1  0.04902612  0.00275730  0.23075680  1
  Bi  Bi124  1  0.30124440  0.76576391  0.02560286  1
  O  O125  1  0.11894232  0.10590139  -0.00071309  1
  O  O126  1  0.12868783  0.13576701  0.25458848  1
  O  O127  1  0.11434598  0.10610924  0.50531819  1
  O  O128  1  0.14720275  0.15123907  0.75661548  1
  O  O129  1  0.13114409  0.40144962  0.01386431  1
  O  O130  1  0.07745754  0.35545599  0.24971433  1
  O  O131  1  0.15017235  0.40126099  0.48232965  1
  O  O132  1  0.12187379  0.36519982  0.75399004  1
  O  O133  1  0.10156404  0.59793235  0.00167132  1
  O  O134  1  0.13099019  0.65928235  0.24542804  1
  O  O135  1  0.11533282  0.61771799  0.50217478  1
  O  O136  1  0.12508725  0.65697235  0.75007754  1
  O  O137  1  0.09365412  0.92531091  -0.01104703  1
  O  O138  1  0.15340011  0.86800699  0.25763274  1
  O  O139  1  0.10563592  0.89652861  0.50802410  1
  O  O140  1  0.15339541  0.86125347  0.75119801  1
  O  O141  1  0.38459639  0.14917947  0.00880791  1
  O  O142  1  0.36351266  0.11279135  0.25240421  1
  O  O143  1  0.38715028  0.11011822  0.50935370  1
  O  O144  1  0.35291208  0.13621608  0.74241951  1
  O  O145  1  0.34551857  0.36131928  -0.00053518  1
  O  O146  1  0.42373830  0.40111267  0.25179786  1
  O  O147  1  0.34481300  0.37727498  0.48867431  1
  O  O148  1  0.38296022  0.37734900  0.75209961  1
  O  O149  1  0.39618838  0.63155025  0.00148036  1
  O  O150  1  0.35492406  0.62144540  0.25091686  1
  O  O151  1  0.37690702  0.61454241  0.49670082  1
  O  O152  1  0.36282344  0.61611409  0.75259591  1
  O  O153  1  0.40182567  0.87215309  -0.01763837  1
  O  O154  1  0.35209331  0.87539784  0.25880797  1
  O  O155  1  0.40087937  0.86593658  0.50867925  1
  O  O156  1  0.34080891  0.86641268  0.74757017  1
  O  O157  1  0.59592635  0.11749497  0.00793512  1
  O  O158  1  0.63355664  0.13331971  0.25021075  1
  O  O159  1  0.60420736  0.11513414  0.49847597  1
  O  O160  1  0.62547787  0.15475004  0.76348944  1
  O  O161  1  0.64399197  0.40753703  -0.00388565  1
  O  O162  1  0.60196800  0.38689382  0.24763095  1
  O  O163  1  0.63845853  0.36611894  0.50594127  1
  O  O164  1  0.61044101  0.33465200  0.75811970  1
  O  O165  1  0.60864116  0.60330055  -0.00296833  1
  O  O166  1  0.65032967  0.61425629  0.26734524  1
  O  O167  1  0.60954849  0.61206483  0.50800661  1
  O  O168  1  0.63844270  0.63637882  0.74484557  1
  O  O169  1  0.58948091  0.89364426  0.01293779  1
  O  O170  1  0.65347057  0.88464569  0.25683382  1
  O  O171  1  0.59045301  0.86968577  0.50097922  1
  O  O172  1  0.64929699  0.84748391  0.73493500  1
  O  O173  1  0.88997836  0.07986011  -0.00098954  1
  O  O174  1  0.86661755  0.14066650  0.23943844  1
  O  O175  1  0.88616611  0.10633687  0.51388186  1
  O  O176  1  0.87155292  0.15025702  0.75725419  1
  O  O177  1  0.85629409  0.37683067  0.00040992  1
  O  O178  1  0.87975190  0.34316988  0.23672697  1
  O  O179  1  0.82928096  0.39720301  0.50590621  1
  O  O180  1  0.91393015  0.37006566  0.74221049  1
  O  O181  1  0.89456666  0.64131587  -0.00105718  1
  O  O182  1  0.83837938  0.64311364  0.25500667  1
  O  O183  1  0.90596272  0.60892849  0.50348418  1
  O  O184  1  0.89262538  0.62887479  0.74618064  1
  O  O185  1  0.87220047  0.88872811  0.00633122  1
  O  O186  1  0.84135784  0.87438487  0.24552583  1
  O  O187  1  0.88838301  0.90497530  0.50910323  1
  O  O188  1  0.83552384  0.85965034  0.73920754  1
  O  O189  1  0.00049018  0.08340562  0.12628654  1
  O  O190  1  0.00617087  0.12084938  0.37897007  1
  O  O191  1  0.00447268  0.12751327  0.64793227  1
  O  O192  1  0.00310976  0.12492325  0.88190032  1
  O  O193  1  -0.02007645  0.40816108  0.12186912  1
  O  O194  1  0.00280825  0.37467383  0.40807786  1
  O  O195  1  -0.00748854  0.35089696  0.59049821  1
  O  O196  1  0.00659591  0.35914462  0.90032896  1
  O  O197  1  -0.00957804  0.60817219  0.15602400  1
  O  O198  1  -0.00790588  0.64017677  0.35934584  1
  O  O199  1  0.00457743  0.65447249  0.62898630  1
  O  O200  1  -0.00089026  0.65609457  0.87513301  1
  O  O201  1  -0.00448334  0.89760945  0.15113711  1
  O  O202  1  0.00954186  0.89188183  0.36437160  1
  O  O203  1  -0.00318121  0.87494513  0.65233371  1
  O  O204  1  0.00360858  0.86262466  0.84992096  1
  O  O205  1  0.25449551  0.16371500  0.12166572  1
  O  O206  1  0.24875248  0.13640486  0.39772250  1
  O  O207  1  0.24990224  0.10405042  0.61597530  1
  O  O208  1  0.24918766  0.10367145  0.89197885  1
  O  O209  1  0.24273291  0.35818184  0.15793304  1
  O  O210  1  0.24060733  0.36817208  0.33376900  1
  O  O211  1  0.25122244  0.39947852  0.62047004  1
  O  O212  1  0.24378522  0.39706325  0.87169041  1
  O  O213  1  0.25354997  0.66153085  0.11895067  1
  O  O214  1  0.24860521  0.64273253  0.37562039  1
  O  O215  1  0.24391813  0.59901300  0.62696255  1
  O  O216  1  0.25804758  0.61076968  0.88725503  1
  O  O217  1  0.23435634  0.86336865  0.09231116  1
  O  O218  1  0.25395465  0.86583841  0.40784781  1
  O  O219  1  0.25099654  0.89302848  0.60224686  1
  O  O220  1  0.25219623  0.90420513  0.88987068  1
  O  O221  1  0.49603308  0.10463833  0.14515707  1
  O  O222  1  0.49789589  0.11319932  0.36977622  1
  O  O223  1  0.49307058  0.14316381  0.64253281  1
  O  O224  1  0.50276192  0.15531822  0.87275642  1
  O  O225  1  0.50573957  0.39952578  0.09934716  1
  O  O226  1  0.49769154  0.38453296  0.41132444  1
  O  O227  1  0.49243742  0.36481275  0.61053038  1
  O  O228  1  0.49622645  0.35979099  0.89242710  1
  O  O229  1  0.49072342  0.59668318  0.13987757  1
  O  O230  1  0.50251072  0.61136165  0.37124655  1
  O  O231  1  0.48982629  0.62558682  0.63418624  1
  O  O232  1  0.50017123  0.60723067  0.85532589  1
  O  O233  1  0.50140273  0.91827594  0.15010392  1
  O  O234  1  0.49844485  0.86044277  0.33997394  1
  O  O235  1  0.49387011  0.84535375  0.64815799  1
  O  O236  1  0.50160538  0.87698090  0.82608185  1
  O  O237  1  0.74580509  0.14675383  0.10402189  1
  O  O238  1  0.74417422  0.12263579  0.38622177  1
  O  O239  1  0.75249577  0.11555364  0.63850307  1
  O  O240  1  0.75037115  0.12374606  0.90187724  1
  O  O241  1  0.74549653  0.34546123  0.13434539  1
  O  O242  1  0.75042277  0.35216972  0.35627547  1
  O  O243  1  0.75462114  0.38443193  0.66361779  1
  O  O244  1  0.75101733  0.37335804  0.85285368  1
  O  O245  1  0.74244701  0.66153709  0.10655599  1
  O  O246  1  0.75801268  0.62518535  0.41584223  1
  O  O247  1  0.76042107  0.61490783  0.61153719  1
  O  O248  1  0.75599236  0.59982248  0.90167346  1
  O  O249  1  0.73557473  0.85554803  0.10416993  1
  O  O250  1  0.74217417  0.87889197  0.40491602  1
  O  O251  1  0.74709383  0.89191394  0.59534698  1
  O  O252  1  0.74806335  0.89749910  0.87978310  1
  O  O253  1  0.15623438  0.00024687  0.14598445  1
  O  O254  1  0.14355677  0.00275498  0.37592278  1
  O  O255  1  0.11668019  -0.00299826  0.65112827  1
  O  O256  1  0.12058115  0.00382315  0.84311000  1
  O  O257  1  0.08804971  0.26129091  0.11449604  1
  O  O258  1  0.11961441  0.25150385  0.39439669  1
  O  O259  1  0.14490007  0.23853167  0.62225420  1
  O  O260  1  0.13571624  0.25072302  0.89963167  1
  O  O261  1  0.12882627  0.49365760  0.16248627  1
  O  O262  1  0.12689703  0.49582451  0.33976094  1
  O  O263  1  0.10100454  0.51316224  0.64505630  1
  O  O264  1  0.09911714  0.49293478  0.86685059  1
  O  O265  1  0.07397515  0.74394113  0.09727529  1
  O  O266  1  0.12403044  0.75846549  0.40176148  1
  O  O267  1  0.14368902  0.75624748  0.60595469  1
  O  O268  1  0.14933587  0.76401919  0.89259102  1
  O  O269  1  0.34606138  0.00949149  0.11419300  1
  O  O270  1  0.37639879  -0.01141408  0.38971401  1
  O  O271  1  0.40138066  -0.00977935  0.64670658  1
  O  O272  1  0.38887755  -0.00413473  0.85008750  1
  O  O273  1  0.39002318  0.25612852  0.15996474  1
  O  O274  1  0.38311383  0.26471330  0.34826993  1
  O  O275  1  0.33665111  0.25991970  0.62460859  1
  O  O276  1  0.35182561  0.25381742  0.87167407  1
  O  O277  1  0.33988525  0.50260763  0.11783230  1
  O  O278  1  0.34904863  0.50119810  0.37397742  1
  O  O279  1  0.38073410  0.49782959  0.61307239  1
  O  O280  1  0.38001967  0.49263248  0.89644917  1
  O  O281  1  0.39884481  0.74658843  0.12763114  1
  O  O282  1  0.37650956  0.74477965  0.38290671  1
  O  O283  1  0.35261678  0.74394322  0.62340967  1
  O  O284  1  0.37282235  0.74689361  0.86666663  1
  O  O285  1  0.65397366  0.00571366  0.13822990  1
  O  O286  1  0.61095838  -0.00667938  0.37825289  1
  O  O287  1  0.59984975  -0.01316101  0.64757056  1
  O  O288  1  0.61392263  0.00933758  0.85803058  1
  O  O289  1  0.59764637  0.25342210  0.12111232  1
  O  O290  1  0.61190159  0.24635262  0.38387170  1
  O  O291  1  0.64040655  0.24536808  0.61524067  1
  O  O292  1  0.63642070  0.25458011  0.91760129  1
  O  O293  1  0.64052979  0.49320094  0.13931093  1
  O  O294  1  0.65786971  0.50068426  0.38398727  1
  O  O295  1  0.60174264  0.50585534  0.64473087  1
  O  O296  1  0.61997311  0.48759252  0.84660255  1
  O  O297  1  0.58322995  0.77170900  0.16024373  1
  O  O298  1  0.63887704  0.74341269  0.38325883  1
  O  O299  1  0.62703494  0.74382313  0.60810512  1
  O  O300  1  0.63558747  0.75884843  0.87371940  1
  O  O301  1  0.83851538  -0.00140590  0.13641703  1
  O  O302  1  0.86855577  0.00015641  0.37577187  1
  O  O303  1  0.87865078  0.00329964  0.65781148  1
  O  O304  1  0.87646886  0.00182380  0.84330013  1
  O  O305  1  0.90533273  0.23164277  0.09876143  1
  O  O306  1  0.87997469  0.25062495  0.39932896  1
  O  O307  1  0.85384419  0.25290420  0.61471226  1
  O  O308  1  0.87743618  0.23833680  0.90590890  1
  O  O309  1  0.82007344  0.50682915  0.11283457  1
  O  O310  1  0.86188470  0.50321834  0.36175674  1
  O  O311  1  0.89837924  0.50032020  0.63278917  1
  O  O312  1  0.88116243  0.50191204  0.85881707  1
  O  O313  1  0.88588366  0.76055261  0.11746842  1
  O  O314  1  0.87200399  0.75030698  0.40234158  1
  O  O315  1  0.87214600  0.75270962  0.60023092  1
  O  O316  1  0.84439140  0.74604101  0.86712679  1
