# generated using pymatgen
data_Mg32Ti42(Bi17O64)3
_symmetry_space_group_name_H-M   'P 1'
_cell_length_a   15.91442150
_cell_length_b   15.90954861
_cell_length_c   15.93666450
_cell_angle_alpha   89.86818331
_cell_angle_beta   90.11894935
_cell_angle_gamma   90.26649305
_symmetry_Int_Tables_number   1
_chemical_formula_structural   Mg32Ti42(Bi17O64)3
_chemical_formula_sum   'Mg32 Ti42 Bi51 O192'
_cell_volume   4034.96127680
_cell_formula_units_Z   1
loop_
 _symmetry_equiv_pos_site_id
 _symmetry_equiv_pos_as_xyz
  1  'x, y, z'
loop_
 _atom_site_type_symbol
 _atom_site_label
 _atom_site_symmetry_multiplicity
 _atom_site_fract_x
 _atom_site_fract_y
 _atom_site_fract_z
 _atom_site_occupancy
  Mg  Mg0  1  0.36882427  0.86703201  0.36940477  1
  Mg  Mg1  1  0.62268160  0.86766532  0.86812402  1
  Mg  Mg2  1  0.11709890  0.87657624  0.12979427  1
  Mg  Mg3  1  0.63130050  0.37162926  0.37044820  1
  Mg  Mg4  1  0.12315927  0.62083452  0.63102624  1
  Mg  Mg5  1  0.86879894  0.86636228  0.86814749  1
  Mg  Mg6  1  0.12214047  0.87095373  0.86668629  1
  Mg  Mg7  1  0.62586447  0.11780213  0.87528549  1
  Mg  Mg8  1  0.12286799  0.61947240  0.87773176  1
  Mg  Mg9  1  0.63202501  0.37463673  0.87638287  1
  Mg  Mg10  1  0.89038172  0.12882042  0.86860303  1
  Mg  Mg11  1  0.37765888  0.12247183  0.87535483  1
  Mg  Mg12  1  0.63715852  0.37203482  0.12740000  1
  Mg  Mg13  1  0.64209944  0.36453356  0.64394659  1
  Mg  Mg14  1  0.37854918  0.12608528  0.37952211  1
  Mg  Mg15  1  0.87195905  0.88190062  0.61554521  1
  Mg  Mg16  1  0.87147891  0.62567394  0.12914766  1
  Mg  Mg17  1  0.12005161  0.12148964  0.12189058  1
  Mg  Mg18  1  0.62680301  0.87042208  0.38319990  1
  Mg  Mg19  1  0.77481694  0.79140318  0.72748245  1
  Mg  Mg20  1  -0.05335532  0.01052955  0.21216708  1
  Mg  Mg21  1  0.26503466  0.47138922  -0.03193675  1
  Mg  Mg22  1  0.29546575  0.70940096  0.25075457  1
  Mg  Mg23  1  0.02166932  0.23746111  -0.03446127  1
  Mg  Mg24  1  -0.05969035  -0.00238885  0.73070154  1
  Mg  Mg25  1  0.53533416  0.81111833  0.02936994  1
  Mg  Mg26  1  -0.04758716  0.02471275  0.49679305  1
  Mg  Mg27  1  0.72597829  0.57636336  0.74026311  1
  Mg  Mg28  1  0.49563404  0.75092776  0.49886975  1
  Mg  Mg29  1  0.79281580  0.26306830  0.24804817  1
  Mg  Mg30  1  0.02991729  0.21794716  0.73049953  1
  Mg  Mg31  1  0.76459691  0.19583467  0.75736309  1
  Ti  Ti32  1  0.13589649  0.62691013  0.12679307  1
  Ti  Ti33  1  0.11192369  0.88558870  0.63373437  1
  Ti  Ti34  1  0.11645166  0.11866416  0.37781380  1
  Ti  Ti35  1  0.37390581  0.13217781  0.12215568  1
  Ti  Ti36  1  0.86617123  0.12768646  0.36331663  1
  Ti  Ti37  1  0.62290837  0.13295562  0.37399664  1
  Ti  Ti38  1  0.38937070  0.11406126  0.61606429  1
  Ti  Ti39  1  0.38218199  0.62366592  0.37924647  1
  Ti  Ti40  1  0.11200608  0.10967750  0.61914541  1
  Ti  Ti41  1  0.87408628  0.12939225  0.62541370  1
  Ti  Ti42  1  0.87935672  0.87388892  0.37185199  1
  Ti  Ti43  1  0.36884786  0.61693203  0.88778088  1
  Ti  Ti44  1  0.37660449  0.61844766  0.11772938  1
  Ti  Ti45  1  0.61711634  0.61792822  0.12849949  1
  Ti  Ti46  1  0.36498247  0.37421104  0.11231057  1
  Ti  Ti47  1  0.87839368  0.62819748  0.62335757  1
  Ti  Ti48  1  0.38686382  0.85912217  0.88589182  1
  Ti  Ti49  1  0.64443887  0.13885022  0.12766261  1
  Ti  Ti50  1  0.36596201  0.62526457  0.64225846  1
  Ti  Ti51  1  0.87846812  0.37312173  0.11633567  1
  Ti  Ti52  1  0.86454101  0.61372037  0.38337706  1
  Ti  Ti53  1  0.88762747  0.86756970  0.12372124  1
  Ti  Ti54  1  0.88365426  0.13684903  0.10924696  1
  Ti  Ti55  1  0.88308726  0.37326629  0.37550986  1
  Ti  Ti56  1  0.12014081  0.11724083  0.86600317  1
  Ti  Ti57  1  0.12559159  0.87987859  0.36089835  1
  Ti  Ti58  1  0.37313052  0.86152069  0.61608592  1
  Ti  Ti59  1  0.12515840  0.36486449  0.37426319  1
  Ti  Ti60  1  0.10941555  0.36842265  0.86308257  1
  Ti  Ti61  1  0.36611743  0.37423164  0.63363398  1
  Ti  Ti62  1  0.37268016  0.85776943  0.13433165  1
  Ti  Ti63  1  0.86057803  0.63681944  0.86697841  1
  Ti  Ti64  1  0.60433217  0.63399538  0.88220005  1
  Ti  Ti65  1  0.88333335  0.37553903  0.63404562  1
  Ti  Ti66  1  0.63234414  0.12276043  0.62097000  1
  Ti  Ti67  1  0.36984483  0.37023399  0.86370501  1
  Ti  Ti68  1  0.11872995  0.37520962  0.62858022  1
  Ti  Ti69  1  0.12768194  0.37732437  0.10042251  1
  Ti  Ti70  1  0.63126081  0.88926474  0.62439108  1
  Ti  Ti71  1  0.62305889  0.60783339  0.37478486  1
  Ti  Ti72  1  0.87652017  0.37203913  0.86729756  1
  Ti  Ti73  1  0.37889161  0.37165360  0.37449827  1
  Bi  Bi74  1  0.71829879  0.74241717  0.02260384  1
  Bi  Bi75  1  0.23039040  0.50780633  0.76415546  1
  Bi  Bi76  1  0.76280867  0.23833344  -0.03580130  1
  Bi  Bi77  1  0.24382237  -0.00859895  0.01705135  1
  Bi  Bi78  1  -0.00022916  0.77789959  0.48203433  1
  Bi  Bi79  1  0.26254116  0.49114576  0.23732517  1
  Bi  Bi80  1  0.48884489  -0.01735876  0.76557262  1
  Bi  Bi81  1  0.51786672  0.29110892  0.50614485  1
  Bi  Bi82  1  0.52172005  0.23338544  0.74355560  1
  Bi  Bi83  1  0.51212036  0.47978810  -0.01308921  1
  Bi  Bi84  1  0.51429988  0.24192074  0.23632322  1
  Bi  Bi85  1  0.74670629  0.26567539  0.50933320  1
  Bi  Bi86  1  -0.00690303  -0.03214231  -0.03765586  1
  Bi  Bi87  1  0.74423948  0.49664977  -0.01926393  1
  Bi  Bi88  1  0.51683346  0.74639192  0.27746942  1
  Bi  Bi89  1  0.51085944  0.47717701  0.23869752  1
  Bi  Bi90  1  0.51545742  0.23841030  -0.02151311  1
  Bi  Bi91  1  0.53495041  0.74715032  0.71976994  1
  Bi  Bi92  1  0.70855845  0.72924379  0.52384378  1
  Bi  Bi93  1  0.26310343  0.21648673  0.74162538  1
  Bi  Bi94  1  0.25836449  0.23711765  0.24289765  1
  Bi  Bi95  1  0.23238748  0.22358530  -0.00948183  1
  Bi  Bi96  1  0.52722177  0.48351599  0.73975974  1
  Bi  Bi97  1  0.74013553  -0.00669444  0.47633937  1
  Bi  Bi98  1  0.25730492  0.00465951  0.24080290  1
  Bi  Bi99  1  -0.00192602  0.25190181  0.51454522  1
  Bi  Bi100  1  0.21497109  0.72263076  0.47778943  1
  Bi  Bi101  1  0.23028277  0.74362645  0.74356937  1
  Bi  Bi102  1  0.01216891  0.74988343  0.00731055  1
  Bi  Bi103  1  0.25860146  -0.01910846  0.77473343  1
  Bi  Bi104  1  0.00768734  0.23021432  0.24829811  1
  Bi  Bi105  1  0.50776633  0.00739354  0.02044016  1
  Bi  Bi106  1  0.25072838  0.47578800  0.48652806  1
  Bi  Bi107  1  -0.00481668  0.74944708  0.73825698  1
  Bi  Bi108  1  0.25968066  0.23136421  0.50093799  1
  Bi  Bi109  1  0.02385678  0.49278550  0.23682117  1
  Bi  Bi110  1  -0.01806355  0.51726206  0.76415558  1
  Bi  Bi111  1  0.76536252  0.47326459  0.25582838  1
  Bi  Bi112  1  0.53093785  -0.02126126  0.24291156  1
  Bi  Bi113  1  0.48352828  -0.01766380  0.47408484  1
  Bi  Bi114  1  0.24736415  -0.01779360  0.48846716  1
  Bi  Bi115  1  0.02878445  0.52676269  0.46970450  1
  Bi  Bi116  1  0.73782057  -0.03321732  0.23784698  1
  Bi  Bi117  1  0.23691471  0.76352331  -0.02246370  1
  Bi  Bi118  1  0.73774141  -0.02766995  0.01415038  1
  Bi  Bi119  1  0.48589468  0.52253739  0.52700672  1
  Bi  Bi120  1  0.73168079  0.50316644  0.54903849  1
  Bi  Bi121  1  0.74596234  -0.00356257  0.78332818  1
  Bi  Bi122  1  0.75914488  0.72425718  0.25479910  1
  Bi  Bi123  1  -0.02127597  0.52058089  0.01366053  1
  Bi  Bi124  1  0.03402425  0.73060611  0.26227805  1
  O  O125  1  0.13193542  0.11999768  -0.00712050  1
  O  O126  1  0.14645548  0.14307060  0.26168328  1
  O  O127  1  0.07278977  0.10181343  0.50556733  1
  O  O128  1  0.14180449  0.13881217  0.74775874  1
  O  O129  1  0.15052291  0.41333223  -0.00366038  1
  O  O130  1  0.10909634  0.36282852  0.25953590  1
  O  O131  1  0.14877397  0.37371320  0.51315825  1
  O  O132  1  0.09571447  0.33746509  0.75125992  1
  O  O133  1  0.09891142  0.63403314  0.00313273  1
  O  O134  1  0.12299002  0.63296713  0.24581428  1
  O  O135  1  0.11116122  0.63072893  0.50781725  1
  O  O136  1  0.15563365  0.62486135  0.75251412  1
  O  O137  1  0.11692199  0.84974673  -0.00030513  1
  O  O138  1  0.13770755  0.85551175  0.25237929  1
  O  O139  1  0.09893419  0.87052693  0.51692418  1
  O  O140  1  0.16751845  0.87851596  0.74789767  1
  O  O141  1  0.37581085  0.13812742  0.00596556  1
  O  O142  1  0.34371249  0.12081665  0.25354935  1
  O  O143  1  0.38505143  0.16013147  0.50655158  1
  O  O144  1  0.35774961  0.11064425  0.73657234  1
  O  O145  1  0.34457428  0.36662273  0.00143963  1
  O  O146  1  0.37852328  0.40270318  0.25520927  1
  O  O147  1  0.35258640  0.36876915  0.50540148  1
  O  O148  1  0.39399648  0.40473800  0.75196910  1
  O  O149  1  0.37156670  0.64109269  0.00402724  1
  O  O150  1  0.35907261  0.59933897  0.24371536  1
  O  O151  1  0.41573325  0.65040367  0.48994914  1
  O  O152  1  0.34885332  0.61145836  0.75534520  1
  O  O153  1  0.41832621  0.84744232  -0.00462946  1
  O  O154  1  0.34433338  0.88867280  0.24172631  1
  O  O155  1  0.42164861  0.85477836  0.50324975  1
  O  O156  1  0.35792310  0.89607767  0.73657352  1
  O  O157  1  0.60694200  0.10984736  0.01113318  1
  O  O158  1  0.62862691  0.15446696  0.25169218  1
  O  O159  1  0.63801985  0.10927709  0.50411476  1
  O  O160  1  0.64347461  0.15539705  0.74801982  1
  O  O161  1  0.63517029  0.40616382  0.00602932  1
  O  O162  1  0.58872453  0.36014527  0.24812596  1
  O  O163  1  0.64161671  0.37135574  0.50418835  1
  O  O164  1  0.59311199  0.35627532  0.75861804  1
  O  O165  1  0.63984255  0.60692875  0.00756812  1
  O  O166  1  0.63397806  0.65504860  0.24995199  1
  O  O167  1  0.62178805  0.59655065  0.49209966  1
  O  O168  1  0.63115700  0.65187728  0.77033124  1
  O  O169  1  0.60485740  0.91234868  -0.00408489  1
  O  O170  1  0.63155701  0.87869611  0.25511670  1
  O  O171  1  0.62217010  0.91071138  0.50474784  1
  O  O172  1  0.65231075  0.83338491  0.74084083  1
  O  O173  1  0.91130938  0.16521013  0.00044597  1
  O  O174  1  0.85966007  0.10640643  0.25082933  1
  O  O175  1  0.89629014  0.14523439  0.50117525  1
  O  O176  1  0.85454512  0.10777092  0.74322271  1
  O  O177  1  0.87018926  0.34886051  0.00627411  1
  O  O178  1  0.89699370  0.41475507  0.25279566  1
  O  O179  1  0.86350260  0.34437183  0.49070829  1
  O  O180  1  0.89371647  0.38539824  0.74957709  1
  O  O181  1  0.88772338  0.63294838  -0.01293366  1
  O  O182  1  0.84686209  0.61855999  0.25891520  1
  O  O183  1  0.88084486  0.63626260  0.50418982  1
  O  O184  1  0.85343390  0.59435513  0.74584121  1
  O  O185  1  0.88579602  0.87664888  0.00392519  1
  O  O186  1  0.87397242  0.90509416  0.25157076  1
  O  O187  1  0.90603231  0.88105166  0.49516705  1
  O  O188  1  0.84602234  0.89851660  0.74250097  1
  O  O189  1  -0.00241530  0.11732928  0.15499449  1
  O  O190  1  0.00054104  0.12421531  0.34825191  1
  O  O191  1  0.00412003  0.10019808  0.66637168  1
  O  O192  1  0.01163243  0.16430998  0.85275537  1
  O  O193  1  0.00576844  0.40620102  0.11932824  1
  O  O194  1  -0.00024902  0.38815224  0.39448558  1
  O  O195  1  0.00120999  0.38359433  0.59880310  1
  O  O196  1  -0.00123739  0.34915377  0.89950770  1
  O  O197  1  -0.00539287  0.59221613  0.13553939  1
  O  O198  1  -0.01910075  0.60303646  0.36421885  1
  O  O199  1  -0.00575113  0.62558706  0.65550758  1
  O  O200  1  -0.00968939  0.63551549  0.84245873  1
  O  O201  1  -0.00516810  0.91411776  0.13838671  1
  O  O202  1  0.00418068  0.87825687  0.36941811  1
  O  O203  1  0.00333836  0.89740352  0.66963843  1
  O  O204  1  -0.00278907  0.85396117  0.87851981  1
  O  O205  1  0.24560296  0.16203783  0.12432314  1
  O  O206  1  0.23823627  0.12557954  0.41559967  1
  O  O207  1  0.24574843  0.14575146  0.60964568  1
  O  O208  1  0.24849826  0.13036080  0.87395481  1
  O  O209  1  0.24236627  0.36193878  0.14819706  1
  O  O210  1  0.24767290  0.37960268  0.37201891  1
  O  O211  1  0.25071270  0.36117125  0.65211488  1
  O  O212  1  0.25151147  0.39223754  0.86155762  1
  O  O213  1  0.24647737  0.65921991  0.13162168  1
  O  O214  1  0.26546287  0.65123037  0.37352913  1
  O  O215  1  0.25623579  0.64504082  0.60656676  1
  O  O216  1  0.24927140  0.57970939  0.89475304  1
  O  O217  1  0.26494889  0.86651196  0.08172077  1
  O  O218  1  0.24213204  0.86763819  0.40255539  1
  O  O219  1  0.26336209  0.86099690  0.59005637  1
  O  O220  1  0.25961811  0.88800134  0.89847812  1
  O  O221  1  0.48771274  0.11083744  0.14195933  1
  O  O222  1  0.50912719  0.10017894  0.37051935  1
  O  O223  1  0.50700882  0.10946848  0.63630112  1
  O  O224  1  0.50188662  0.14725286  0.87034803  1
  O  O225  1  0.48094983  0.40443420  0.11511615  1
  O  O226  1  0.49299928  0.38892429  0.39736835  1
  O  O227  1  0.49859099  0.40383703  0.61328755  1
  O  O228  1  0.49232762  0.36427576  0.90940535  1
  O  O229  1  0.49472248  0.60103582  0.12814210  1
  O  O230  1  0.50357305  0.61427066  0.34157598  1
  O  O231  1  0.49157199  0.59933590  0.64109937  1
  O  O232  1  0.48976062  0.63708035  0.87096007  1
  O  O233  1  0.48733769  0.90245356  0.13101189  1
  O  O234  1  0.49912440  0.90133679  0.35791858  1
  O  O235  1  0.51402932  0.89098605  0.65515473  1
  O  O236  1  0.49473312  0.85790029  0.83487645  1
  O  O237  1  0.75501334  0.16240967  0.11452043  1
  O  O238  1  0.75539632  0.15761847  0.37885410  1
  O  O239  1  0.75697707  0.16112492  0.62228503  1
  O  O240  1  0.75470362  0.11251544  0.89120543  1
  O  O241  1  0.76240156  0.35908311  0.15890007  1
  O  O242  1  0.75843910  0.35572346  0.33735191  1
  O  O243  1  0.76649853  0.34597834  0.62522053  1
  O  O244  1  0.75907628  0.39202666  0.88420434  1
  O  O245  1  0.74553088  0.65121114  0.12798550  1
  O  O246  1  0.73985039  0.65261265  0.37993764  1
  O  O247  1  0.74996562  0.63061420  0.61774033  1
  O  O248  1  0.74803270  0.59715682  0.87490145  1
  O  O249  1  0.75871277  0.87710157  0.11641916  1
  O  O250  1  0.75849283  0.87786829  0.39097948  1
  O  O251  1  0.74546528  0.84258736  0.60480353  1
  O  O252  1  0.74738661  0.90149737  0.89230909  1
  O  O253  1  0.16162916  -0.00150698  0.12872155  1
  O  O254  1  0.13767926  0.00047808  0.37354880  1
  O  O255  1  0.15225500  -0.00074919  0.62965885  1
  O  O256  1  0.10739670  0.00183009  0.86897054  1
  O  O257  1  0.10137696  0.26525105  0.07622162  1
  O  O258  1  0.11745613  0.24769786  0.39880352  1
  O  O259  1  0.09810252  0.23732052  0.61565288  1
  O  O260  1  0.13631495  0.25745377  0.89748411  1
  O  O261  1  0.14294056  0.50546552  0.14318252  1
  O  O262  1  0.13166879  0.49142249  0.38949602  1
  O  O263  1  0.12993922  0.48865435  0.64795678  1
  O  O264  1  0.10610538  0.48950434  0.84380666  1
  O  O265  1  0.08655965  0.74577727  0.12850577  1
  O  O266  1  0.10748890  0.75685401  0.38731780  1
  O  O267  1  0.11153167  0.75827506  0.65325530  1
  O  O268  1  0.15402923  0.74624163  0.86423958  1
  O  O269  1  0.33999380  0.01174469  0.12061717  1
  O  O270  1  0.36071594  -0.00322587  0.40441647  1
  O  O271  1  0.37307231  0.00251431  0.58933468  1
  O  O272  1  0.39108189  -0.01076915  0.87819567  1
  O  O273  1  0.38415283  0.25789280  0.14791635  1
  O  O274  1  0.37580651  0.25770516  0.35947779  1
  O  O275  1  0.39264984  0.26036555  0.64606667  1
  O  O276  1  0.36799708  0.25698336  0.84955062  1
  O  O277  1  0.33160829  0.50267604  0.10861360  1
  O  O278  1  0.36233758  0.50690323  0.39782763  1
  O  O279  1  0.35926086  0.50728478  0.60148525  1
  O  O280  1  0.38825861  0.49890366  0.90207083  1
  O  O281  1  0.38500849  0.74566159  0.15481568  1
  O  O282  1  0.39116992  0.74578168  0.33825119  1
  O  O283  1  0.39539571  0.74851079  0.64191656  1
  O  O284  1  0.34260450  0.74749985  0.86875552  1
  O  O285  1  0.64107829  0.01876247  0.14350295  1
  O  O286  1  0.65981588  0.01295801  0.36287057  1
  O  O287  1  0.65838712  0.00383546  0.64714042  1
  O  O288  1  0.60870337  -0.00537884  0.83747520  1
  O  O289  1  0.59316224  0.24961479  0.11708180  1
  O  O290  1  0.60116876  0.24721093  0.39732036  1
  O  O291  1  0.60297040  0.24499866  0.61431139  1
  O  O292  1  0.63431101  0.25035076  0.90679821  1
  O  O293  1  0.63300897  0.50411393  0.15681491  1
  O  O294  1  0.63888629  0.49898330  0.34602170  1
  O  O295  1  0.66213733  0.48928972  0.66927544  1
  O  O296  1  0.60106075  0.50603954  0.87183446  1
  O  O297  1  0.60691228  0.74263122  0.10214715  1
  O  O298  1  0.58429161  0.75001206  0.40123657  1
  O  O299  1  0.58998384  0.76036815  0.58802723  1
  O  O300  1  0.61507726  0.75032556  0.92402233  1
  O  O301  1  0.86194987  0.02271414  0.10700582  1
  O  O302  1  0.87102931  0.01236016  0.39720752  1
  O  O303  1  0.87719002  0.01191958  0.60144328  1
  O  O304  1  0.91191781  0.00366257  0.86260296  1
  O  O305  1  0.89335835  0.25586181  0.16187902  1
  O  O306  1  0.89333167  0.25715664  0.33792923  1
  O  O307  1  0.91860983  0.24517331  0.64009613  1
  O  O308  1  0.83856475  0.25293387  0.84754102  1
  O  O309  1  0.85999748  0.49410816  0.09461401  1
  O  O310  1  0.84023915  0.49924159  0.39226036  1
  O  O311  1  0.86350013  0.49264465  0.60958085  1
  O  O312  1  0.89891178  0.49122836  0.88265527  1
  O  O313  1  0.89792414  0.75534185  0.13775201  1
  O  O314  1  0.88478235  0.75674779  0.36564503  1
  O  O315  1  0.87894743  0.74673415  0.65088708  1
  O  O316  1  0.83765713  0.74526712  0.83720465  1
