# generated using pymatgen
data_Mg32Ti42(Bi17O64)3
_symmetry_space_group_name_H-M   'P 1'
_cell_length_a   15.93189746
_cell_length_b   15.95312898
_cell_length_c   15.95712213
_cell_angle_alpha   89.96408996
_cell_angle_beta   90.10445374
_cell_angle_gamma   90.03325618
_symmetry_Int_Tables_number   1
_chemical_formula_structural   Mg32Ti42(Bi17O64)3
_chemical_formula_sum   'Mg32 Ti42 Bi51 O192'
_cell_volume   4055.71162838
_cell_formula_units_Z   1
loop_
 _symmetry_equiv_pos_site_id
 _symmetry_equiv_pos_as_xyz
  1  'x, y, z'
loop_
 _atom_site_type_symbol
 _atom_site_label
 _atom_site_symmetry_multiplicity
 _atom_site_fract_x
 _atom_site_fract_y
 _atom_site_fract_z
 _atom_site_occupancy
  Mg  Mg0  1  0.62320581  0.62414368  0.13027286  1
  Mg  Mg1  1  0.11873555  0.37458535  0.11722276  1
  Mg  Mg2  1  0.13983284  0.11173331  0.36742873  1
  Mg  Mg3  1  0.88017465  0.62701744  0.12115472  1
  Mg  Mg4  1  0.61725824  0.12741697  0.63158446  1
  Mg  Mg5  1  0.61974976  0.37075913  0.63098670  1
  Mg  Mg6  1  0.86690611  0.37558305  0.86816061  1
  Mg  Mg7  1  0.87278181  0.13542234  0.37571910  1
  Mg  Mg8  1  0.36645746  0.63405839  0.61976999  1
  Mg  Mg9  1  0.11566416  0.11312879  0.12802923  1
  Mg  Mg10  1  0.87638218  0.12766904  0.12707808  1
  Mg  Mg11  1  0.12289641  0.62457138  0.62675387  1
  Mg  Mg12  1  0.38049627  0.62693062  0.37053781  1
  Mg  Mg13  1  0.38684112  0.11749019  0.38565212  1
  Mg  Mg14  1  0.62834361  0.62522081  0.63191590  1
  Mg  Mg15  1  0.89142218  0.86831317  0.62577540  1
  Mg  Mg16  1  0.36985672  0.62440565  0.87953181  1
  Mg  Mg17  1  0.14310372  0.12226840  0.62899678  1
  Mg  Mg18  1  0.88129477  0.62859398  0.38116912  1
  Mg  Mg19  1  0.25355355  -0.03004688  0.71180408  1
  Mg  Mg20  1  -0.00023603  0.76477273  0.46143919  1
  Mg  Mg21  1  0.50364429  -0.00031520  -0.04787762  1
  Mg  Mg22  1  0.31314598  0.05151790  0.21278945  1
  Mg  Mg23  1  -0.03974724  0.03310489  -0.01777268  1
  Mg  Mg24  1  0.28383545  0.75775688  0.45593140  1
  Mg  Mg25  1  0.00215302  0.68412268  0.24754841  1
  Mg  Mg26  1  0.24739989  0.25234069  0.80354798  1
  Mg  Mg27  1  0.56673635  0.29710339  0.46687005  1
  Mg  Mg28  1  0.50412963  0.77567418  0.45183108  1
  Mg  Mg29  1  0.73543827  0.25684982  0.80307454  1
  Mg  Mg30  1  0.01128063  0.74110708  0.75080479  1
  Mg  Mg31  1  0.07036799  0.25152734  0.25756362  1
  Ti  Ti32  1  0.87198864  0.36091752  0.62326016  1
  Ti  Ti33  1  0.38256871  0.38416603  0.38394907  1
  Ti  Ti34  1  0.37348369  0.85429801  0.61040839  1
  Ti  Ti35  1  0.37770419  0.36806118  0.61728960  1
  Ti  Ti36  1  0.61527843  0.87401284  0.60980910  1
  Ti  Ti37  1  0.87251182  0.11354338  0.62692972  1
  Ti  Ti38  1  0.88473701  0.87598521  0.87299030  1
  Ti  Ti39  1  0.89251281  0.86844176  0.36728184  1
  Ti  Ti40  1  0.62810895  0.64229506  0.37180475  1
  Ti  Ti41  1  0.63294229  0.13016194  0.11527294  1
  Ti  Ti42  1  0.62650805  0.87795883  0.36545424  1
  Ti  Ti43  1  0.13107468  0.87807254  0.14853798  1
  Ti  Ti44  1  0.62891014  0.37560003  0.11540760  1
  Ti  Ti45  1  0.36684517  0.14109505  0.63747185  1
  Ti  Ti46  1  0.13987401  0.87201075  0.38039051  1
  Ti  Ti47  1  0.11823621  0.36541026  0.87502468  1
  Ti  Ti48  1  0.37756035  0.61165019  0.12531302  1
  Ti  Ti49  1  0.38498460  0.37959589  0.13367225  1
  Ti  Ti50  1  0.13141178  0.87458855  0.87426725  1
  Ti  Ti51  1  0.12601688  0.63405720  0.37562837  1
  Ti  Ti52  1  0.62508307  0.87555468  0.87755508  1
  Ti  Ti53  1  0.63131553  0.61855497  0.87476720  1
  Ti  Ti54  1  0.13592899  0.36939969  0.63176499  1
  Ti  Ti55  1  0.37354120  0.87233277  0.87282462  1
  Ti  Ti56  1  0.62544981  0.12269883  0.87016143  1
  Ti  Ti57  1  0.62058830  0.11967049  0.38126772  1
  Ti  Ti58  1  0.11722086  0.11340267  0.87475072  1
  Ti  Ti59  1  0.12412417  0.85686790  0.61268163  1
  Ti  Ti60  1  0.37519187  0.36905633  0.86488770  1
  Ti  Ti61  1  0.87027193  0.36981984  0.12406047  1
  Ti  Ti62  1  0.89246788  0.63767339  0.62946688  1
  Ti  Ti63  1  0.35882911  0.11687207  0.87108139  1
  Ti  Ti64  1  0.86388330  0.12635404  0.85838337  1
  Ti  Ti65  1  0.88513278  0.62730847  0.87345027  1
  Ti  Ti66  1  0.62055268  0.88368875  0.10756127  1
  Ti  Ti67  1  0.37355333  0.88795974  0.35862319  1
  Ti  Ti68  1  0.12391121  0.61625606  0.12819401  1
  Ti  Ti69  1  0.37816704  0.88174634  0.11301212  1
  Ti  Ti70  1  0.63067752  0.36882451  0.87842910  1
  Ti  Ti71  1  0.12150868  0.61503868  0.87719636  1
  Ti  Ti72  1  0.89513068  0.88712716  0.12272985  1
  Ti  Ti73  1  0.87126116  0.36822565  0.38621448  1
  Bi  Bi74  1  0.50848484  0.73996848  0.72915671  1
  Bi  Bi75  1  0.50604932  0.25468733  0.74834546  1
  Bi  Bi76  1  0.24396175  -0.01693764  0.01721983  1
  Bi  Bi77  1  0.25197481  0.73278731  0.00344079  1
  Bi  Bi78  1  0.21506267  0.47153086  0.27878646  1
  Bi  Bi79  1  0.26192637  0.52899488  0.49759930  1
  Bi  Bi80  1  0.47592600  0.20746485  0.02169473  1
  Bi  Bi81  1  0.02279997  0.03560467  0.50229142  1
  Bi  Bi82  1  0.26665170  0.25135249  0.23857876  1
  Bi  Bi83  1  0.74352509  0.21722514  0.52390230  1
  Bi  Bi84  1  0.72054016  0.48401114  0.48971255  1
  Bi  Bi85  1  0.51571238  0.53107910  0.49041302  1
  Bi  Bi86  1  0.03313766  0.48881478  0.49661515  1
  Bi  Bi87  1  0.72930556  0.27823768  0.28109137  1
  Bi  Bi88  1  0.50501232  0.49283488  -0.03152137  1
  Bi  Bi89  1  0.77566052  0.51062017  0.26778585  1
  Bi  Bi90  1  0.51592048  0.01345483  0.23277570  1
  Bi  Bi91  1  0.76438567  0.75104880  0.00486586  1
  Bi  Bi92  1  0.25214350  0.50532802  0.73819335  1
  Bi  Bi93  1  0.48019276  -0.01575227  0.74001763  1
  Bi  Bi94  1  0.76344743  0.01980390  0.23886725  1
  Bi  Bi95  1  0.74827670  0.49510458  0.72479513  1
  Bi  Bi96  1  -0.00180913  0.02855011  0.27698977  1
  Bi  Bi97  1  0.51426381  0.76317347  0.22856055  1
  Bi  Bi98  1  0.78211690  0.75279298  0.50118452  1
  Bi  Bi99  1  0.76395331  0.23573962  0.00144104  1
  Bi  Bi100  1  0.26106634  0.23679927  0.45334980  1
  Bi  Bi101  1  0.76696507  -0.00866506  -0.00434082  1
  Bi  Bi102  1  -0.00914701  0.47101989  0.73161688  1
  Bi  Bi103  1  0.48591005  0.23203564  0.26768582  1
  Bi  Bi104  1  0.75620181  0.51928179  0.03038696  1
  Bi  Bi105  1  0.02061436  0.74943090  0.02198833  1
  Bi  Bi106  1  0.01697360  0.22711267  0.72421406  1
  Bi  Bi107  1  0.02790409  -0.02196659  0.73474253  1
  Bi  Bi108  1  0.27429410  0.00773507  0.51258152  1
  Bi  Bi109  1  0.48037471  0.51370326  0.72592896  1
  Bi  Bi110  1  0.01084682  0.22828206  0.01932876  1
  Bi  Bi111  1  0.78168328  0.74878111  0.23849502  1
  Bi  Bi112  1  0.26006484  0.45737428  -0.00517956  1
  Bi  Bi113  1  0.04006458  0.25822020  0.46642912  1
  Bi  Bi114  1  -0.02337537  0.47885898  -0.01205087  1
  Bi  Bi115  1  0.50997481  0.72031818  -0.00373664  1
  Bi  Bi116  1  0.24519732  0.23027124  0.03289824  1
  Bi  Bi117  1  0.52831973  0.45787583  0.27341350  1
  Bi  Bi118  1  0.76945131  0.00422001  0.47664977  1
  Bi  Bi119  1  0.50543713  0.02288270  0.51768857  1
  Bi  Bi120  1  0.74787111  -0.02876360  0.72699708  1
  Bi  Bi121  1  0.00137543  0.45373822  0.26496482  1
  Bi  Bi122  1  0.75608866  0.73430901  0.74239656  1
  Bi  Bi123  1  0.23602769  0.73115708  0.75922187  1
  Bi  Bi124  1  0.27102863  0.73243001  0.23987589  1
  O  O125  1  0.14087774  0.14405728  -0.00797808  1
  O  O126  1  0.09014071  0.12322159  0.24967165  1
  O  O127  1  0.13188105  0.12373523  0.50097195  1
  O  O128  1  0.09749293  0.11235488  0.75118215  1
  O  O129  1  0.14096965  0.36025891  -0.00755299  1
  O  O130  1  0.11034371  0.37213909  0.24361351  1
  O  O131  1  0.11289263  0.37389632  0.50851765  1
  O  O132  1  0.11890193  0.39159630  0.75214414  1
  O  O133  1  0.12141856  0.65472487  0.00032918  1
  O  O134  1  0.11845632  0.63257579  0.24919722  1
  O  O135  1  0.12713442  0.59663415  0.49501324  1
  O  O136  1  0.14923440  0.61403960  0.75833748  1
  O  O137  1  0.10907584  0.85258773  -0.01264323  1
  O  O138  1  0.15022833  0.87199816  0.26171232  1
  O  O139  1  0.09569014  0.84103105  0.50272225  1
  O  O140  1  0.14902350  0.91418652  0.75171703  1
  O  O141  1  0.35256844  0.15294453  -0.00911955  1
  O  O142  1  0.41300981  0.11163392  0.26130547  1
  O  O143  1  0.34531675  0.13796023  0.51264962  1
  O  O144  1  0.39420323  0.10736059  0.75568508  1
  O  O145  1  0.35544670  0.35523292  0.00755665  1
  O  O146  1  0.38861681  0.40096241  0.25311573  1
  O  O147  1  0.37156917  0.35165092  0.50237457  1
  O  O148  1  0.37631425  0.40047939  0.75345749  1
  O  O149  1  0.36844874  0.65515692  0.00914765  1
  O  O150  1  0.36023560  0.62281664  0.24250561  1
  O  O151  1  0.33404033  0.64572840  0.49443664  1
  O  O152  1  0.36239041  0.59416902  0.75438614  1
  O  O153  1  0.39165774  0.86347174  0.00150014  1
  O  O154  1  0.35150397  0.92949733  0.25711685  1
  O  O155  1  0.39230709  0.81958955  0.50417436  1
  O  O156  1  0.35675071  0.91340860  0.75705075  1
  O  O157  1  0.66947442  0.11865033  0.00351385  1
  O  O158  1  0.59707167  0.13158997  0.25308215  1
  O  O159  1  0.64949404  0.09656368  0.49645852  1
  O  O160  1  0.59684126  0.14537109  0.75735487  1
  O  O161  1  0.62750773  0.39032741  -0.00425458  1
  O  O162  1  0.61482208  0.35665289  0.23802397  1
  O  O163  1  0.60841540  0.41036363  0.50873035  1
  O  O164  1  0.62288971  0.32725249  0.75425437  1
  O  O165  1  0.61844925  0.62539713  -0.00157068  1
  O  O166  1  0.62088567  0.65309612  0.25726185  1
  O  O167  1  0.64138569  0.60110004  0.50892790  1
  O  O168  1  0.61711117  0.64815634  0.76310019  1
  O  O169  1  0.58748262  0.90971533  0.00182138  1
  O  O170  1  0.63002038  0.85378277  0.25150714  1
  O  O171  1  0.58167099  0.87841270  0.49944262  1
  O  O172  1  0.64537184  0.87917209  0.76092829  1
  O  O173  1  0.84624436  0.11639639  -0.01005813  1
  O  O174  1  0.88713773  0.10421606  0.25212539  1
  O  O175  1  0.86118563  0.11368000  0.50411807  1
  O  O176  1  0.89818157  0.13403410  0.74702708  1
  O  O177  1  0.85808198  0.40808233  -0.00493922  1
  O  O178  1  0.87277675  0.36951713  0.24009722  1
  O  O179  1  0.87843436  0.38662149  0.49877305  1
  O  O180  1  0.87452124  0.37977225  0.74107483  1
  O  O181  1  0.87410375  0.60764625  -0.00557040  1
  O  O182  1  0.87833067  0.64797756  0.24736796  1
  O  O183  1  0.87962204  0.65098932  0.50849021  1
  O  O184  1  0.88286062  0.67432317  0.76025901  1
  O  O185  1  0.89943054  0.91588788  -0.00051836  1
  O  O186  1  0.85891002  0.87021275  0.24484109  1
  O  O187  1  0.89503970  0.83908577  0.49407474  1
  O  O188  1  0.84048038  0.87114245  0.75987567  1
  O  O189  1  -0.00649294  0.10586333  0.08067510  1
  O  O190  1  -0.00094746  0.12278014  0.38654237  1
  O  O191  1  -0.00625983  0.14496107  0.60881321  1
  O  O192  1  -0.00532267  0.12403436  0.89613435  1
  O  O193  1  -0.01169379  0.39551881  0.10240650  1
  O  O194  1  -0.01226738  0.34767583  0.36356740  1
  O  O195  1  -0.00587028  0.36036614  0.63480790  1
  O  O196  1  -0.00053713  0.37761502  0.88935913  1
  O  O197  1  0.00426445  0.63465250  0.12655746  1
  O  O198  1  0.00798773  0.66619584  0.37675189  1
  O  O199  1  0.00254706  0.66081776  0.64804521  1
  O  O200  1  0.00518294  0.64547258  0.86890977  1
  O  O201  1  0.00412558  0.89731420  0.14484364  1
  O  O202  1  0.00238376  0.84360026  0.35910517  1
  O  O203  1  0.01275875  0.84796145  0.66525149  1
  O  O204  1  -0.00451718  0.87512669  0.84574456  1
  O  O205  1  0.24559609  0.14463231  0.15017766  1
  O  O206  1  0.26201534  0.12723830  0.35985845  1
  O  O207  1  0.25991700  0.07810758  0.64684368  1
  O  O208  1  0.24491863  0.13045328  0.85039889  1
  O  O209  1  0.25421214  0.35827952  0.14237593  1
  O  O210  1  0.26107024  0.38877629  0.37399396  1
  O  O211  1  0.24816376  0.39795691  0.62855549  1
  O  O212  1  0.24919761  0.37282073  0.86678682  1
  O  O213  1  0.24486530  0.64751549  0.11813066  1
  O  O214  1  0.24090909  0.58463663  0.36574200  1
  O  O215  1  0.24724293  0.58631142  0.62669543  1
  O  O216  1  0.24213048  0.64681809  0.88838935  1
  O  O217  1  0.24621563  0.86436041  0.10248881  1
  O  O218  1  0.25230772  0.88296015  0.41205045  1
  O  O219  1  0.25276256  0.89094329  0.60790634  1
  O  O220  1  0.24923431  0.87359593  0.89371155  1
  O  O221  1  0.51662576  0.09538096  0.08972926  1
  O  O222  1  0.51009186  0.15248116  0.40731010  1
  O  O223  1  0.48428337  0.12714392  0.61319553  1
  O  O224  1  0.50495720  0.12677545  0.91020120  1
  O  O225  1  0.49956081  0.38884216  0.11452037  1
  O  O226  1  0.50201008  0.35951851  0.37259448  1
  O  O227  1  0.48982267  0.34290278  0.63737459  1
  O  O228  1  0.49756704  0.37824004  0.87955619  1
  O  O229  1  0.49221745  0.62550514  0.11966049  1
  O  O230  1  0.50273938  0.65425189  0.40847809  1
  O  O231  1  0.49459592  0.63130297  0.64135236  1
  O  O232  1  0.49764010  0.61612815  0.89102759  1
  O  O233  1  0.49329272  0.88541736  0.14848574  1
  O  O234  1  0.48911595  0.85572942  0.35204482  1
  O  O235  1  0.49195989  0.86438627  0.65383388  1
  O  O236  1  0.49484876  0.90137535  0.85903562  1
  O  O237  1  0.74624064  0.13613137  0.16192667  1
  O  O238  1  0.74777766  0.09325187  0.36666900  1
  O  O239  1  0.75090857  0.12059238  0.63265298  1
  O  O240  1  0.74549541  0.12927048  0.83494934  1
  O  O241  1  0.74617504  0.34999560  0.11907730  1
  O  O242  1  0.75105624  0.39794931  0.35608830  1
  O  O243  1  0.75349758  0.40492067  0.61756694  1
  O  O244  1  0.74086375  0.37827292  0.85339109  1
  O  O245  1  0.75002188  0.64034430  0.11329523  1
  O  O246  1  0.74676770  0.60665020  0.37151653  1
  O  O247  1  0.75575561  0.61835329  0.65770969  1
  O  O248  1  0.75027750  0.63690731  0.87156156  1
  O  O249  1  0.73603804  0.86675392  0.08941229  1
  O  O250  1  0.73841106  0.89763965  0.38496191  1
  O  O251  1  0.73383148  0.89628976  0.60907682  1
  O  O252  1  0.74076232  0.87392553  0.90864605  1
  O  O253  1  0.14618974  -0.00773153  0.11600345  1
  O  O254  1  0.10978157  -0.01521347  0.39171542  1
  O  O255  1  0.10265315  -0.01187187  0.61208174  1
  O  O256  1  0.11465958  0.00101224  0.89153317  1
  O  O257  1  0.09545178  0.24594870  0.12914192  1
  O  O258  1  0.13247060  0.24315755  0.37045240  1
  O  O259  1  0.13532203  0.25215533  0.64517485  1
  O  O260  1  0.12500688  0.25172441  0.84763770  1
  O  O261  1  0.13398865  0.50626674  0.11621944  1
  O  O262  1  0.09446574  0.50228205  0.36076140  1
  O  O263  1  0.08949316  0.49569501  0.62386612  1
  O  O264  1  0.12206212  0.50401475  0.89387378  1
  O  O265  1  0.10482936  0.76247171  0.13148712  1
  O  O266  1  0.16871150  0.74074184  0.39067642  1
  O  O267  1  0.15624449  0.74989485  0.64423593  1
  O  O268  1  0.11874455  0.76371926  0.82840192  1
  O  O269  1  0.34823698  -0.00258367  0.10620751  1
  O  O270  1  0.38777331  -0.00869725  0.41789851  1
  O  O271  1  0.39122676  -0.01762084  0.59343650  1
  O  O272  1  0.37632239  0.00847538  0.90587685  1
  O  O273  1  0.38889311  0.25737229  0.15933193  1
  O  O274  1  0.36800698  0.25653486  0.35790262  1
  O  O275  1  0.34327725  0.24935622  0.66025480  1
  O  O276  1  0.36664845  0.25275757  0.85073620  1
  O  O277  1  0.35935698  0.49956765  0.10457053  1
  O  O278  1  0.40087186  0.50017798  0.39824326  1
  O  O279  1  0.40142893  0.48815289  0.61191363  1
  O  O280  1  0.37075433  0.49256622  0.90947149  1
  O  O281  1  0.37630400  0.76672571  0.15727417  1
  O  O282  1  0.35189248  0.75979992  0.34926769  1
  O  O283  1  0.36412776  0.75236419  0.66249545  1
  O  O284  1  0.38276166  0.76123126  0.85810079  1
  O  O285  1  0.63947705  -0.00145186  0.14998875  1
  O  O286  1  0.59400319  -0.00226017  0.35918760  1
  O  O287  1  0.59643664  -0.00460897  0.63367595  1
  O  O288  1  0.62109298  0.00846776  0.87551559  1
  O  O289  1  0.60915255  0.24329393  0.10780943  1
  O  O290  1  0.65094157  0.23940650  0.38855655  1
  O  O291  1  0.62447746  0.25057211  0.57934316  1
  O  O292  1  0.64256937  0.24959868  0.89723073  1
  O  O293  1  0.64706843  0.49264741  0.13555430  1
  O  O294  1  0.59962334  0.51853350  0.37577837  1
  O  O295  1  0.61989803  0.49728006  0.66711956  1
  O  O296  1  0.61786174  0.50113397  0.86951600  1
  O  O297  1  0.59855866  0.76136041  0.11127081  1
  O  O298  1  0.62955535  0.75863865  0.39967367  1
  O  O299  1  0.62055765  0.75761562  0.63548387  1
  O  O300  1  0.60801278  0.76114864  0.89406018  1
  O  O301  1  0.84536975  -0.00217914  0.12415174  1
  O  O302  1  0.88857067  -0.01652607  0.38851132  1
  O  O303  1  0.88194178  -0.00314437  0.63510595  1
  O  O304  1  0.86285293  0.00416687  0.87110661  1
  O  O305  1  0.88552055  0.25274894  0.09460502  1
  O  O306  1  0.83941219  0.25625310  0.37774080  1
  O  O307  1  0.85254766  0.25113416  0.61934293  1
  O  O308  1  0.84642572  0.24742021  0.87957109  1
  O  O309  1  0.84847107  0.49905877  0.13325480  1
  O  O310  1  0.88785727  0.49872488  0.35551367  1
  O  O311  1  0.89331437  0.51956753  0.64078078  1
  O  O312  1  0.88921275  0.51497932  0.85377705  1
  O  O313  1  0.87053970  0.76742084  0.10674827  1
  O  O314  1  0.83937646  0.75540368  0.36793921  1
  O  O315  1  0.83856826  0.75491369  0.62857433  1
  O  O316  1  0.87409693  0.76380690  0.91095470  1
