# generated using pymatgen
data_Mg32Ti42(Bi17O64)3
_symmetry_space_group_name_H-M   'P 1'
_cell_length_a   15.91002041
_cell_length_b   15.95971156
_cell_length_c   15.93838247
_cell_angle_alpha   90.08493750
_cell_angle_beta   90.05523763
_cell_angle_gamma   90.11142804
_symmetry_Int_Tables_number   1
_chemical_formula_structural   Mg32Ti42(Bi17O64)3
_chemical_formula_sum   'Mg32 Ti42 Bi51 O192'
_cell_volume   4047.04951234
_cell_formula_units_Z   1
loop_
 _symmetry_equiv_pos_site_id
 _symmetry_equiv_pos_as_xyz
  1  'x, y, z'
loop_
 _atom_site_type_symbol
 _atom_site_label
 _atom_site_symmetry_multiplicity
 _atom_site_fract_x
 _atom_site_fract_y
 _atom_site_fract_z
 _atom_site_occupancy
  Mg  Mg0  1  0.38598976  0.12875287  0.11689392  1
  Mg  Mg1  1  0.63098154  0.62415399  0.38229625  1
  Mg  Mg2  1  0.87115002  0.37553059  0.63184215  1
  Mg  Mg3  1  0.12674373  0.37564404  0.36524338  1
  Mg  Mg4  1  0.87541029  0.37072425  0.37152044  1
  Mg  Mg5  1  0.12579286  0.37522648  0.87836679  1
  Mg  Mg6  1  0.11984562  0.62516484  0.63297963  1
  Mg  Mg7  1  0.87417011  0.88082298  0.12644085  1
  Mg  Mg8  1  0.63166342  0.63366824  0.86595620  1
  Mg  Mg9  1  0.37935904  0.86330807  0.13627044  1
  Mg  Mg10  1  0.11614153  0.88291758  0.64084204  1
  Mg  Mg11  1  0.12936083  0.86871524  0.11621852  1
  Mg  Mg12  1  0.86263757  0.37899751  0.11739748  1
  Mg  Mg13  1  0.62793561  0.63051198  0.62567728  1
  Mg  Mg14  1  0.37912108  0.87376981  0.38060535  1
  Mg  Mg15  1  0.63559780  0.61332217  0.13637748  1
  Mg  Mg16  1  0.60987534  0.12252590  0.87546281  1
  Mg  Mg17  1  0.37003002  0.13147368  0.37621672  1
  Mg  Mg18  1  0.86117504  0.88145051  0.61614802  1
  Mg  Mg19  1  0.70160778  0.06701558  0.51850781  1
  Mg  Mg20  1  0.50558594  0.31325113  -0.00380758  1
  Mg  Mg21  1  0.74028334  0.56741553  0.51823705  1
  Mg  Mg22  1  0.72718921  0.76764107  0.48537708  1
  Mg  Mg23  1  0.23015598  -0.00943919  0.81888005  1
  Mg  Mg24  1  0.50508002  -0.05007764  0.03947762  1
  Mg  Mg25  1  -0.03861017  0.78459210  0.72468551  1
  Mg  Mg26  1  -0.00652191  0.22443569  0.01968304  1
  Mg  Mg27  1  0.77849926  0.49529735  -0.05877141  1
  Mg  Mg28  1  0.53286750  0.71856774  0.51702317  1
  Mg  Mg29  1  0.73927292  0.49011250  0.29524632  1
  Mg  Mg30  1  0.55641381  0.02636918  0.68074035  1
  Mg  Mg31  1  0.00140955  0.28216176  0.19681049  1
  Ti  Ti32  1  0.38564831  0.63791231  0.88092767  1
  Ti  Ti33  1  0.37883131  0.37726426  0.12284349  1
  Ti  Ti34  1  0.62013192  0.36758928  0.38507246  1
  Ti  Ti35  1  0.88243342  0.36060304  0.88198977  1
  Ti  Ti36  1  0.63155164  0.37878185  0.12791940  1
  Ti  Ti37  1  0.87857132  0.61453063  0.13937012  1
  Ti  Ti38  1  0.12973656  0.12326272  0.62435278  1
  Ti  Ti39  1  0.37858459  0.11375764  0.87818875  1
  Ti  Ti40  1  0.11334661  0.12879906  0.86723453  1
  Ti  Ti41  1  0.13078574  0.37356925  0.62988082  1
  Ti  Ti42  1  0.87445976  0.11622068  0.60760121  1
  Ti  Ti43  1  0.11660535  0.62270526  0.12900592  1
  Ti  Ti44  1  0.37533329  0.63142217  0.62215817  1
  Ti  Ti45  1  0.11961059  0.13153105  0.37805953  1
  Ti  Ti46  1  0.11080738  0.61524600  0.37823284  1
  Ti  Ti47  1  0.37550199  0.37580418  0.38466389  1
  Ti  Ti48  1  0.38010838  0.61466564  0.13468169  1
  Ti  Ti49  1  0.87989383  0.13166544  0.12170317  1
  Ti  Ti50  1  0.85812818  0.88924722  0.37538896  1
  Ti  Ti51  1  0.62431269  0.13752282  0.11922290  1
  Ti  Ti52  1  0.62741619  0.87891587  0.37035786  1
  Ti  Ti53  1  0.36319803  0.10898871  0.62387210  1
  Ti  Ti54  1  0.86364715  0.60521841  0.38495658  1
  Ti  Ti55  1  0.37940645  0.87850160  0.61333453  1
  Ti  Ti56  1  0.37179704  0.37760304  0.63190406  1
  Ti  Ti57  1  0.62744545  0.38322608  0.62206688  1
  Ti  Ti58  1  0.61159026  0.87388544  0.87846502  1
  Ti  Ti59  1  0.63177096  0.86525384  0.13670427  1
  Ti  Ti60  1  0.11495061  0.62836112  0.87642485  1
  Ti  Ti61  1  0.87624983  0.12248311  0.88174974  1
  Ti  Ti62  1  0.37297567  0.62668871  0.38748842  1
  Ti  Ti63  1  0.14419249  0.38390802  0.12538202  1
  Ti  Ti64  1  0.89107208  0.63191533  0.63315381  1
  Ti  Ti65  1  0.11144158  0.86235708  0.86817508  1
  Ti  Ti66  1  0.63105970  0.37884960  0.85767244  1
  Ti  Ti67  1  0.37688379  0.87895765  0.86512752  1
  Ti  Ti68  1  0.87039126  0.86786360  0.88353975  1
  Ti  Ti69  1  0.87965665  0.63193953  0.86486180  1
  Ti  Ti70  1  0.63360229  0.13256243  0.36760808  1
  Ti  Ti71  1  0.37553562  0.38054486  0.87512730  1
  Ti  Ti72  1  0.62315454  0.87127629  0.60197929  1
  Ti  Ti73  1  0.88076782  0.12621136  0.37460419  1
  Bi  Bi74  1  0.02290499  0.77084107  0.25934460  1
  Bi  Bi75  1  0.20074730  0.76910552  0.50792603  1
  Bi  Bi76  1  -0.00924838  0.47031830  0.26367172  1
  Bi  Bi77  1  0.25054948  -0.00918030  0.47200560  1
  Bi  Bi78  1  0.52926953  0.51981436  -0.01339228  1
  Bi  Bi79  1  0.02616214  -0.00681228  0.49743982  1
  Bi  Bi80  1  0.24776187  0.24941130  0.48732662  1
  Bi  Bi81  1  0.23991932  0.77678555  0.29183795  1
  Bi  Bi82  1  0.25803698  0.50682103  0.27476512  1
  Bi  Bi83  1  0.51602679  0.01992188  0.23659848  1
  Bi  Bi84  1  -0.00178721  0.46397531  0.01425883  1
  Bi  Bi85  1  0.22821448  0.50112259  0.75972170  1
  Bi  Bi86  1  0.28187410  0.00247594  0.23938437  1
  Bi  Bi87  1  0.49666628  0.27481669  0.25020670  1
  Bi  Bi88  1  -0.00978239  0.76398226  0.02538350  1
  Bi  Bi89  1  0.25446522  0.74390571  0.02230806  1
  Bi  Bi90  1  0.50468435  0.01825344  0.47308515  1
  Bi  Bi91  1  0.04375655  -0.00001199  0.23994119  1
  Bi  Bi92  1  -0.01893835  0.48023786  0.74636708  1
  Bi  Bi93  1  0.74825082  0.52379154  0.74188186  1
  Bi  Bi94  1  0.28740179  -0.02233085  0.01073901  1
  Bi  Bi95  1  0.76632010  0.74007936  0.26713107  1
  Bi  Bi96  1  -0.01798258  0.48424602  0.50479274  1
  Bi  Bi97  1  0.49268696  0.52419152  0.75349354  1
  Bi  Bi98  1  0.00753839  0.26118175  0.49809669  1
  Bi  Bi99  1  0.77048109  0.01252079  0.23146403  1
  Bi  Bi100  1  0.76871362  0.26814803  0.23759165  1
  Bi  Bi101  1  0.22876437  0.75811606  0.73158344  1
  Bi  Bi102  1  0.50294054  0.50004795  0.51343914  1
  Bi  Bi103  1  0.47066687  0.22862761  0.75028272  1
  Bi  Bi104  1  0.48961015  0.77408921  0.73379891  1
  Bi  Bi105  1  0.50580931  0.23068434  0.53460293  1
  Bi  Bi106  1  0.76130764  0.71128917  0.01361699  1
  Bi  Bi107  1  0.23706992  0.51472487  -0.01191539  1
  Bi  Bi108  1  0.71157096  0.21702316  0.71920162  1
  Bi  Bi109  1  0.23555329  0.50040429  0.51182803  1
  Bi  Bi110  1  0.73716420  -0.00104343  0.78305584  1
  Bi  Bi111  1  -0.02032014  0.77241510  0.48091789  1
  Bi  Bi112  1  0.77111142  0.27895512  0.50453104  1
  Bi  Bi113  1  -0.02341904  0.23236490  0.73452226  1
  Bi  Bi114  1  0.71591881  -0.00621160  0.00758039  1
  Bi  Bi115  1  0.24776515  0.21865641  0.21696533  1
  Bi  Bi116  1  0.02425225  -0.00073201  0.00256192  1
  Bi  Bi117  1  0.22096195  0.20794348  0.01119932  1
  Bi  Bi118  1  0.52234137  0.50578330  0.25996076  1
  Bi  Bi119  1  0.72712456  0.24924822  -0.03053891  1
  Bi  Bi120  1  0.25005733  0.24264298  0.78073963  1
  Bi  Bi121  1  -0.02068336  -0.00351872  0.74007426  1
  Bi  Bi122  1  0.50437327  0.73291286  0.03627637  1
  Bi  Bi123  1  0.73179247  0.77063184  0.73606992  1
  Bi  Bi124  1  0.49856522  0.74598174  0.28891693  1
  O  O125  1  0.09550219  0.14481008  -0.01276787  1
  O  O126  1  0.13859246  0.10595117  0.26578360  1
  O  O127  1  0.07590864  0.13388532  0.50427562  1
  O  O128  1  0.14060056  0.12696457  0.73963842  1
  O  O129  1  0.13838383  0.40209559  0.00593764  1
  O  O130  1  0.09341478  0.35891530  0.23557092  1
  O  O131  1  0.14140742  0.39445042  0.50463089  1
  O  O132  1  0.12465415  0.39240096  0.74698048  1
  O  O133  1  0.13534217  0.60804591  -0.00303933  1
  O  O134  1  0.12382234  0.64452667  0.24166634  1
  O  O135  1  0.13254270  0.60023270  0.49383799  1
  O  O136  1  0.14482096  0.61789610  0.75996952  1
  O  O137  1  0.09287590  0.87749887  -0.01234898  1
  O  O138  1  0.12695816  0.86624783  0.24707751  1
  O  O139  1  0.08945614  0.85666863  0.51405213  1
  O  O140  1  0.16122217  0.89347333  0.76189935  1
  O  O141  1  0.38517746  0.10760655  -0.00953099  1
  O  O142  1  0.34872621  0.12749806  0.25127459  1
  O  O143  1  0.40239182  0.12234432  0.50231910  1
  O  O144  1  0.35412157  0.14401588  0.73781556  1
  O  O145  1  0.38787310  0.36985266  -0.00347510  1
  O  O146  1  0.39608865  0.37403498  0.24865949  1
  O  O147  1  0.36484264  0.39133003  0.50126483  1
  O  O148  1  0.39565007  0.36847346  0.74788556  1
  O  O149  1  0.41353674  0.62038857  -0.00227579  1
  O  O150  1  0.37775876  0.62127541  0.24783104  1
  O  O151  1  0.36090954  0.62173313  0.50027260  1
  O  O152  1  0.40324018  0.63765050  0.74588947  1
  O  O153  1  0.40057500  0.90239941  -0.00762601  1
  O  O154  1  0.33665432  0.87130024  0.25475599  1
  O  O155  1  0.39231730  0.89508602  0.50412628  1
  O  O156  1  0.36419928  0.85177352  0.75055571  1
  O  O157  1  0.61869139  0.15741127  0.00456345  1
  O  O158  1  0.64084484  0.09180526  0.25385237  1
  O  O159  1  0.59394467  0.12723629  0.48877173  1
  O  O160  1  0.64271384  0.09732868  0.74537087  1
  O  O161  1  0.63098052  0.34538569  0.01232103  1
  O  O162  1  0.59127538  0.38304188  0.25272437  1
  O  O163  1  0.63354515  0.34068588  0.49905773  1
  O  O164  1  0.62542049  0.40266741  0.74522613  1
  O  O165  1  0.60969973  0.63250501  0.00144341  1
  O  O166  1  0.64156633  0.57635610  0.25889936  1
  O  O167  1  0.65473306  0.66432439  0.50335483  1
  O  O168  1  0.61611058  0.59180751  0.74283278  1
  O  O169  1  0.60909274  0.87920125  -0.00233855  1
  O  O170  1  0.64346384  0.89704119  0.24999257  1
  O  O171  1  0.59786382  0.83356941  0.49468739  1
  O  O172  1  0.65623978  0.89047337  0.74796950  1
  O  O173  1  0.90213087  0.12036020  0.00489151  1
  O  O174  1  0.84303324  0.13759965  0.25897375  1
  O  O175  1  0.88957890  0.09277321  0.49938993  1
  O  O176  1  0.86057864  0.16111546  0.75935658  1
  O  O177  1  0.86046195  0.41346398  -0.00825977  1
  O  O178  1  0.90255942  0.34619614  0.24385782  1
  O  O179  1  0.86763396  0.38852281  0.50251737  1
  O  O180  1  0.90066794  0.35772189  0.75828970  1
  O  O181  1  0.84447918  0.60298392  -0.01796661  1
  O  O182  1  0.87840934  0.64579717  0.25137150  1
  O  O183  1  0.86883926  0.59078799  0.50514022  1
  O  O184  1  0.90217768  0.66755697  0.74909649  1
  O  O185  1  0.91222702  0.89043574  -0.00557398  1
  O  O186  1  0.83995141  0.85610291  0.25623579  1
  O  O187  1  0.89319047  0.87970505  0.49312170  1
  O  O188  1  0.84925761  0.85200466  0.75572756  1
  O  O189  1  -0.01637974  0.17308049  0.14089398  1
  O  O190  1  -0.00498006  0.11344058  0.35795261  1
  O  O191  1  -0.00536774  0.11169672  0.65101771  1
  O  O192  1  -0.00116103  0.13546792  0.84425082  1
  O  O193  1  -0.00827397  0.34260130  0.08248832  1
  O  O194  1  0.00129869  0.39471480  0.38980191  1
  O  O195  1  0.00744682  0.39896921  0.61971827  1
  O  O196  1  -0.00142072  0.39542107  0.89026790  1
  O  O197  1  -0.00085474  0.64411089  0.11279328  1
  O  O198  1  -0.00668338  0.60565764  0.38387725  1
  O  O199  1  -0.00028665  0.59067648  0.62658659  1
  O  O200  1  0.00194859  0.62447926  0.88313021  1
  O  O201  1  -0.00207200  0.84525631  0.13922862  1
  O  O202  1  -0.02358854  0.85627996  0.35829087  1
  O  O203  1  -0.01072959  0.89016581  0.65565727  1
  O  O204  1  0.00032331  0.85299576  0.83442452  1
  O  O205  1  0.25060327  0.12257564  0.11468774  1
  O  O206  1  0.23782811  0.12761857  0.41698668  1
  O  O207  1  0.24484119  0.14055029  0.59487829  1
  O  O208  1  0.24348968  0.11787775  0.87103756  1
  O  O209  1  0.25629006  0.40308242  0.14030774  1
  O  O210  1  0.25615724  0.39900731  0.36078730  1
  O  O211  1  0.25561846  0.35895526  0.63730339  1
  O  O212  1  0.26021459  0.37477839  0.86009374  1
  O  O213  1  0.25832887  0.61224216  0.10630239  1
  O  O214  1  0.25198675  0.61411995  0.36683797  1
  O  O215  1  0.26291325  0.65868511  0.63202808  1
  O  O216  1  0.27079449  0.61902366  0.88923498  1
  O  O217  1  0.25468098  0.86995557  0.09127714  1
  O  O218  1  0.24619551  0.85741965  0.40926023  1
  O  O219  1  0.25836490  0.84733294  0.61235969  1
  O  O220  1  0.25619449  0.88707080  0.90146846  1
  O  O221  1  0.50756464  0.13450786  0.15568578  1
  O  O222  1  0.49991567  0.09981570  0.35500686  1
  O  O223  1  0.48725749  0.12322462  0.64128547  1
  O  O224  1  0.49007854  0.12482959  0.84608849  1
  O  O225  1  0.49911415  0.34117338  0.11821231  1
  O  O226  1  0.49353407  0.34305554  0.38587604  1
  O  O227  1  0.50461401  0.40113325  0.61192103  1
  O  O228  1  0.51492258  0.36820403  0.88403127  1
  O  O229  1  0.50562555  0.64484690  0.13986020  1
  O  O230  1  0.50183913  0.65343232  0.39730431  1
  O  O231  1  0.50412415  0.61387784  0.59375608  1
  O  O232  1  0.50825604  0.60255468  0.86709996  1
  O  O233  1  0.50871958  0.86108168  0.13462571  1
  O  O234  1  0.50429390  0.87188792  0.35060824  1
  O  O235  1  0.50465904  0.90001565  0.65262251  1
  O  O236  1  0.50098108  0.88137513  0.85454581  1
  O  O237  1  0.74532660  0.09756461  0.11607416  1
  O  O238  1  0.74250169  0.12640485  0.40948389  1
  O  O239  1  0.75689769  0.14910948  0.59939384  1
  O  O240  1  0.75937658  0.12200627  0.89281818  1
  O  O241  1  0.74131630  0.39606457  0.16878187  1
  O  O242  1  0.73618333  0.37789218  0.35999371  1
  O  O243  1  0.74613953  0.34668335  0.62884133  1
  O  O244  1  0.75749224  0.36909296  0.87400784  1
  O  O245  1  0.76051319  0.62130082  0.12390671  1
  O  O246  1  0.74844402  0.57687825  0.39094637  1
  O  O247  1  0.76090638  0.62168825  0.63935230  1
  O  O248  1  0.75689847  0.62794935  0.83914798  1
  O  O249  1  0.74665599  0.90338122  0.10922578  1
  O  O250  1  0.74241108  0.86356509  0.40206616  1
  O  O251  1  0.74004088  0.83632121  0.59972703  1
  O  O252  1  0.75808962  0.89055541  0.89892953  1
  O  O253  1  0.10205518  -0.00643314  0.11821354  1
  O  O254  1  0.12645177  0.00458338  0.40221396  1
  O  O255  1  0.12567170  0.00658131  0.60079097  1
  O  O256  1  0.11184877  0.00512157  0.87818560  1
  O  O257  1  0.14955806  0.26371244  0.11317910  1
  O  O258  1  0.12952524  0.25053019  0.39350935  1
  O  O259  1  0.10858599  0.25613893  0.61498438  1
  O  O260  1  0.13775439  0.24928329  0.86809621  1
  O  O261  1  0.10416019  0.50241413  0.13562248  1
  O  O262  1  0.12872298  0.50345505  0.33609804  1
  O  O263  1  0.16355932  0.50147658  0.63049751  1
  O  O264  1  0.14690442  0.50565032  0.87402341  1
  O  O265  1  0.13893468  0.74214461  0.09902964  1
  O  O266  1  0.11562581  0.73545176  0.38043063  1
  O  O267  1  0.11566064  0.75282394  0.65111292  1
  O  O268  1  0.13872835  0.74854064  0.87474561  1
  O  O269  1  0.38487479  -0.00396084  0.13914363  1
  O  O270  1  0.34401378  0.00024242  0.36876121  1
  O  O271  1  0.35239382  -0.00214532  0.63141237  1
  O  O272  1  0.35862249  -0.00136188  0.84942580  1
  O  O273  1  0.34904399  0.25696282  0.12730700  1
  O  O274  1  0.34632575  0.25811930  0.38719085  1
  O  O275  1  0.39324882  0.26007491  0.61703998  1
  O  O276  1  0.36793811  0.24457818  0.86462475  1
  O  O277  1  0.39946624  0.49767869  0.12208050  1
  O  O278  1  0.39077282  0.50481680  0.36752666  1
  O  O279  1  0.36518829  0.50884568  0.63168004  1
  O  O280  1  0.38460541  0.49558169  0.86334351  1
  O  O281  1  0.37092032  0.74057204  0.10560160  1
  O  O282  1  0.37089684  0.74586921  0.36363705  1
  O  O283  1  0.41916417  0.75539077  0.61115528  1
  O  O284  1  0.38676630  0.75291088  0.88990180  1
  O  O285  1  0.60038130  0.00693635  0.09995745  1
  O  O286  1  0.62740248  -0.00847979  0.40064488  1
  O  O287  1  0.63533078  -0.01243606  0.58953497  1
  O  O288  1  0.63428398  -0.00196822  0.88067163  1
  O  O289  1  0.64409425  0.24734838  0.15699333  1
  O  O290  1  0.62323152  0.24377631  0.34830176  1
  O  O291  1  0.59753518  0.26243308  0.64595775  1
  O  O292  1  0.64038846  0.25182773  0.85738836  1
  O  O293  1  0.60042660  0.48913066  0.11380831  1
  O  O294  1  0.59182597  0.48402038  0.38987047  1
  O  O295  1  0.64224910  0.49517365  0.57581216  1
  O  O296  1  0.65041854  0.49060721  0.90444451  1
  O  O297  1  0.64731244  0.75383559  0.12974568  1
  O  O298  1  0.63321903  0.75037984  0.34059743  1
  O  O299  1  0.60262476  0.75553330  0.64826030  1
  O  O300  1  0.63218146  0.76089535  0.85363079  1
  O  O301  1  0.89615509  0.01196078  0.15382856  1
  O  O302  1  0.85915601  -0.00049602  0.35682998  1
  O  O303  1  0.86183093  0.00754868  0.65480048  1
  O  O304  1  0.88760566  0.00566649  0.86328484  1
  O  O305  1  0.83103778  0.24691411  0.11632801  1
  O  O306  1  0.88442959  0.24107438  0.40379146  1
  O  O307  1  0.90249785  0.24376359  0.60398573  1
  O  O308  1  0.89597911  0.25236106  0.91363755  1
  O  O309  1  0.90198929  0.50222938  0.13886667  1
  O  O310  1  0.86742930  0.49498588  0.33259258  1
  O  O311  1  0.86971543  0.50047755  0.66375657  1
  O  O312  1  0.86942108  0.51130513  0.84142438  1
  O  O313  1  0.86531822  0.74785743  0.09553046  1
  O  O314  1  0.83331564  0.72628592  0.39344334  1
  O  O315  1  0.90718281  0.74533374  0.60695010  1
  O  O316  1  0.86790225  0.75120485  0.90496014  1
