# generated using pymatgen
data_Mg32Ti42(Bi17O64)3
_symmetry_space_group_name_H-M   'P 1'
_cell_length_a   15.95196606
_cell_length_b   15.98134727
_cell_length_c   15.97674323
_cell_angle_alpha   89.87885781
_cell_angle_beta   89.98143198
_cell_angle_gamma   89.77865510
_symmetry_Int_Tables_number   1
_chemical_formula_structural   Mg32Ti42(Bi17O64)3
_chemical_formula_sum   'Mg32 Ti42 Bi51 O192'
_cell_volume   4072.97390878
_cell_formula_units_Z   1
loop_
 _symmetry_equiv_pos_site_id
 _symmetry_equiv_pos_as_xyz
  1  'x, y, z'
loop_
 _atom_site_type_symbol
 _atom_site_label
 _atom_site_symmetry_multiplicity
 _atom_site_fract_x
 _atom_site_fract_y
 _atom_site_fract_z
 _atom_site_occupancy
  Mg  Mg0  1  0.87324614  0.62760381  0.62975225  1
  Mg  Mg1  1  0.62972333  0.89707853  0.86185549  1
  Mg  Mg2  1  0.87374081  0.88429000  0.87016343  1
  Mg  Mg3  1  0.37215477  0.62819941  0.87405929  1
  Mg  Mg4  1  0.63300269  0.88375318  0.14291792  1
  Mg  Mg5  1  0.11827010  0.12499861  0.61938648  1
  Mg  Mg6  1  0.12380025  0.62441667  0.86955689  1
  Mg  Mg7  1  0.12186891  0.12295699  0.87613631  1
  Mg  Mg8  1  0.11963044  0.37043799  0.87759607  1
  Mg  Mg9  1  0.62995091  0.36410545  0.11984955  1
  Mg  Mg10  1  0.13600439  0.87456848  0.11255789  1
  Mg  Mg11  1  0.63083410  0.12751013  0.62273716  1
  Mg  Mg12  1  0.12633989  0.36765284  0.62520893  1
  Mg  Mg13  1  0.37937910  0.87949098  0.61741791  1
  Mg  Mg14  1  0.87722317  0.12756205  0.38666027  1
  Mg  Mg15  1  0.36853153  0.12525143  0.87388807  1
  Mg  Mg16  1  0.86998543  0.87196612  0.37383817  1
  Mg  Mg17  1  0.62323175  0.62471874  0.87831024  1
  Mg  Mg18  1  0.12192512  0.86959489  0.63423185  1
  Mg  Mg19  1  0.00600774  0.06011886  0.75631660  1
  Mg  Mg20  1  -0.00335482  0.29113273  0.53471955  1
  Mg  Mg21  1  0.74344263  0.18988124  -0.00659367  1
  Mg  Mg22  1  0.52821928  0.71026504  0.03762658  1
  Mg  Mg23  1  0.27353432  -0.01957270  0.02556801  1
  Mg  Mg24  1  0.21061759  0.22159338  0.75410226  1
  Mg  Mg25  1  0.54972467  0.51914356  0.50890683  1
  Mg  Mg26  1  0.79520548  0.00258670  0.28594695  1
  Mg  Mg27  1  0.75647844  0.52930045  0.54456445  1
  Mg  Mg28  1  0.51935430  0.20426073  -0.00794874  1
  Mg  Mg29  1  0.50329809  0.02257705  0.25714400  1
  Mg  Mg30  1  0.76881092  0.03126978  0.75185343  1
  Mg  Mg31  1  0.68340839  0.71240705  0.20941194  1
  Ti  Ti32  1  0.12115564  0.37745147  0.37341839  1
  Ti  Ti33  1  0.12482001  0.62308979  0.63575481  1
  Ti  Ti34  1  0.87127736  0.38209349  0.12841863  1
  Ti  Ti35  1  0.86401298  0.62885132  0.88519727  1
  Ti  Ti36  1  0.36261006  0.13877885  0.62369567  1
  Ti  Ti37  1  0.11712147  0.88734972  0.86634841  1
  Ti  Ti38  1  0.87723944  0.63121308  0.37643991  1
  Ti  Ti39  1  0.38990693  0.61606684  0.62672862  1
  Ti  Ti40  1  0.37217781  0.36282576  0.12394368  1
  Ti  Ti41  1  0.13000692  0.11659500  0.12858221  1
  Ti  Ti42  1  0.37267033  0.38730364  0.37045305  1
  Ti  Ti43  1  0.13617878  0.61682158  0.37643622  1
  Ti  Ti44  1  0.63212979  0.87659686  0.36121838  1
  Ti  Ti45  1  0.61290159  0.37942449  0.62866989  1
  Ti  Ti46  1  0.63017710  0.13191129  0.12751155  1
  Ti  Ti47  1  0.37582745  0.86985628  0.12350967  1
  Ti  Ti48  1  0.37838360  0.89471537  0.87806015  1
  Ti  Ti49  1  0.36939320  0.11341723  0.12377142  1
  Ti  Ti50  1  0.36733631  0.61984937  0.13097531  1
  Ti  Ti51  1  0.88093335  0.12980193  0.12711263  1
  Ti  Ti52  1  0.12089972  0.12444401  0.38042230  1
  Ti  Ti53  1  0.62541480  0.88451500  0.62781839  1
  Ti  Ti54  1  0.38809453  0.61670507  0.38413656  1
  Ti  Ti55  1  0.88111452  0.12005481  0.87706800  1
  Ti  Ti56  1  0.62739263  0.11649441  0.37202298  1
  Ti  Ti57  1  0.62703437  0.38074433  0.89754471  1
  Ti  Ti58  1  0.13304843  0.63394602  0.12916884  1
  Ti  Ti59  1  0.88426579  0.38151452  0.37611589  1
  Ti  Ti60  1  0.86855277  0.38380253  0.62071540  1
  Ti  Ti61  1  0.63039941  0.11619206  0.86658606  1
  Ti  Ti62  1  0.37773448  0.36465072  0.62832395  1
  Ti  Ti63  1  0.37499062  0.11953173  0.38294522  1
  Ti  Ti64  1  0.37931881  0.36995688  0.89895736  1
  Ti  Ti65  1  0.39177540  0.88604405  0.37727193  1
  Ti  Ti66  1  0.86694461  0.88318816  0.63160803  1
  Ti  Ti67  1  0.62527022  0.62560497  0.63692021  1
  Ti  Ti68  1  0.63590335  0.63046407  0.38320091  1
  Ti  Ti69  1  0.12085891  0.37055876  0.12161250  1
  Ti  Ti70  1  0.87571777  0.36669509  0.88913789  1
  Ti  Ti71  1  0.87669264  0.87602245  0.13427686  1
  Ti  Ti72  1  0.87855374  0.64104833  0.13715750  1
  Ti  Ti73  1  0.87690601  0.13187260  0.62691879  1
  Bi  Bi74  1  0.26014608  0.22282923  0.26384559  1
  Bi  Bi75  1  0.74695738  0.76134556  0.75652643  1
  Bi  Bi76  1  0.01342613  0.73582631  0.51088571  1
  Bi  Bi77  1  -0.00777147  -0.02097075  0.52121746  1
  Bi  Bi78  1  0.52388964  0.77615957  0.50491089  1
  Bi  Bi79  1  0.50268206  0.02658888  0.50144970  1
  Bi  Bi80  1  0.25347452  0.21593291  -0.00937463  1
  Bi  Bi81  1  0.02046833  0.25919888  0.74611593  1
  Bi  Bi82  1  0.23348317  0.26950157  0.49127970  1
  Bi  Bi83  1  0.50942571  0.27033443  0.23450264  1
  Bi  Bi84  1  0.25386148  0.44854970  0.76889629  1
  Bi  Bi85  1  -0.00430675  -0.00506509  0.28405795  1
  Bi  Bi86  1  0.73864419  0.24228279  0.74484511  1
  Bi  Bi87  1  0.72103826  0.30077038  0.48850539  1
  Bi  Bi88  1  0.72164211  0.53582992  0.05230927  1
  Bi  Bi89  1  0.49474200  0.75744690  0.23644551  1
  Bi  Bi90  1  0.50087348  0.28890527  0.47862992  1
  Bi  Bi91  1  0.74392179  0.47396246  0.76789235  1
  Bi  Bi92  1  0.53043614  0.52121273  0.23916687  1
  Bi  Bi93  1  0.24598199  0.76165019  -0.03020025  1
  Bi  Bi94  1  0.74170592  0.26768591  0.26271861  1
  Bi  Bi95  1  0.70477190  0.77226184  -0.00683287  1
  Bi  Bi96  1  -0.02145155  0.25351869  0.26387343  1
  Bi  Bi97  1  0.24508122  0.47022012  0.23559904  1
  Bi  Bi98  1  0.00180816  0.49795551  0.52448747  1
  Bi  Bi99  1  0.26275457  0.75419339  0.28824546  1
  Bi  Bi100  1  0.25172860  0.50491784  0.53349965  1
  Bi  Bi101  1  0.51450401  0.76626242  0.78445435  1
  Bi  Bi102  1  0.74738105  -0.01162853  0.01765209  1
  Bi  Bi103  1  0.00326815  0.76640206  -0.00447431  1
  Bi  Bi104  1  -0.02084664  0.51436592  0.77330861  1
  Bi  Bi105  1  0.02271103  0.24687201  0.00306072  1
  Bi  Bi106  1  0.75662457  0.00440356  0.49023817  1
  Bi  Bi107  1  0.04398548  0.77865075  0.26999129  1
  Bi  Bi108  1  0.49517508  0.52278033  0.00963596  1
  Bi  Bi109  1  0.27808121  0.75550494  0.74501202  1
  Bi  Bi110  1  0.26294429  0.73760845  0.51470196  1
  Bi  Bi111  1  0.00817394  0.51420943  0.23279360  1
  Bi  Bi112  1  -0.01671643  0.75749750  0.76197153  1
  Bi  Bi113  1  0.24173829  -0.01250188  0.74357966  1
  Bi  Bi114  1  0.74418165  0.49488415  0.27672291  1
  Bi  Bi115  1  0.47539877  0.02409981  0.73343621  1
  Bi  Bi116  1  0.49747800  0.50881201  0.78022825  1
  Bi  Bi117  1  0.50033163  0.24896995  0.79060534  1
  Bi  Bi118  1  -0.00462593  -0.01320131  0.02650655  1
  Bi  Bi119  1  -0.00331205  0.51587726  0.00584895  1
  Bi  Bi120  1  0.22572893  -0.02221622  0.27232343  1
  Bi  Bi121  1  0.51633372  -0.01449738  0.02549944  1
  Bi  Bi122  1  0.24235285  0.52104024  -0.02373072  1
  Bi  Bi123  1  0.77712509  0.75118990  0.50376612  1
  Bi  Bi124  1  0.21562531  -0.02806596  0.50513756  1
  O  O125  1  0.12917758  0.14872972  0.00281855  1
  O  O126  1  0.13131856  0.12149634  0.24412479  1
  O  O127  1  0.13792949  0.11084352  0.49316613  1
  O  O128  1  0.10165940  0.14504039  0.74892920  1
  O  O129  1  0.10953027  0.36830444  0.00445398  1
  O  O130  1  0.14004853  0.36831758  0.25611424  1
  O  O131  1  0.11382502  0.35120242  0.49410082  1
  O  O132  1  0.14684161  0.33694433  0.74854367  1
  O  O133  1  0.12546269  0.59380533  0.00988474  1
  O  O134  1  0.10143404  0.62790904  0.24927472  1
  O  O135  1  0.14123464  0.62383878  0.49252292  1
  O  O136  1  0.10017070  0.61798593  0.74533477  1
  O  O137  1  0.09143418  0.88196069  -0.01142125  1
  O  O138  1  0.15076993  0.85920269  0.23687311  1
  O  O139  1  0.10406703  0.89565197  0.50816182  1
  O  O140  1  0.17118957  0.85959775  0.75487449  1
  O  O141  1  0.32945720  0.10040868  -0.00264568  1
  O  O142  1  0.38611832  0.13574280  0.23993227  1
  O  O143  1  0.36774315  0.09761377  0.49881121  1
  O  O144  1  0.40448156  0.14664529  0.74242479  1
  O  O145  1  0.37999527  0.40288167  0.00774095  1
  O  O146  1  0.34446324  0.35634999  0.25124508  1
  O  O147  1  0.40167989  0.38456337  0.48799097  1
  O  O148  1  0.36646999  0.35191998  0.74098396  1
  O  O149  1  0.37046061  0.60585007  0.01015897  1
  O  O150  1  0.39081319  0.65869638  0.25642326  1
  O  O151  1  0.34885029  0.60949400  0.49695220  1
  O  O152  1  0.39475958  0.63231689  0.74186618  1
  O  O153  1  0.39595337  0.91416097  -0.00420529  1
  O  O154  1  0.36887048  0.84816190  0.24011046  1
  O  O155  1  0.40515601  0.89325189  0.48964657  1
  O  O156  1  0.34888423  0.86812259  0.74660292  1
  O  O157  1  0.64037835  0.11569756  -0.01221009  1
  O  O158  1  0.59397472  0.12446365  0.24089360  1
  O  O159  1  0.63207852  0.09052029  0.49146134  1
  O  O160  1  0.61620694  0.17055552  0.75314153  1
  O  O161  1  0.62753142  0.41378266  0.00478888  1
  O  O162  1  0.62511393  0.33520895  0.24228232  1
  O  O163  1  0.60259663  0.38555572  0.49659716  1
  O  O164  1  0.64319646  0.36333148  0.74230958  1
  O  O165  1  0.61212180  0.60568518  0.00522894  1
  O  O166  1  0.58777344  0.65015774  0.26472033  1
  O  O167  1  0.65312960  0.58496616  0.49133964  1
  O  O168  1  0.59960148  0.64354917  0.74823207  1
  O  O169  1  0.63577323  0.89713630  -0.01200762  1
  O  O170  1  0.64836946  0.82984118  0.25689008  1
  O  O171  1  0.61116267  0.88604403  0.50242519  1
  O  O172  1  0.62699182  0.83792093  0.74884530  1
  O  O173  1  0.85646273  0.13549954  -0.00280865  1
  O  O174  1  0.86457367  0.10083079  0.23655798  1
  O  O175  1  0.85486980  0.10615640  0.51205682  1
  O  O176  1  0.89478431  0.12990658  0.75352263  1
  O  O177  1  0.88373878  0.37523461  0.00368359  1
  O  O178  1  0.89779095  0.37381448  0.24905978  1
  O  O179  1  0.89206383  0.36102914  0.49189577  1
  O  O180  1  0.85214688  0.37664246  0.73453305  1
  O  O181  1  0.88013415  0.61311007  0.00224845  1
  O  O182  1  0.89786814  0.62406152  0.25098352  1
  O  O183  1  0.83013392  0.61873209  0.48727637  1
  O  O184  1  0.89681234  0.63775723  0.75430626  1
  O  O185  1  0.91186801  0.87630333  -0.00633968  1
  O  O186  1  0.85421832  0.89757704  0.24195365  1
  O  O187  1  0.86439339  0.89330745  0.50820838  1
  O  O188  1  0.86892908  0.83482391  0.74602747  1
  O  O189  1  0.00098920  0.10991600  0.11757852  1
  O  O190  1  0.00642871  0.13319451  0.36654111  1
  O  O191  1  -0.01010568  0.08033626  0.62689719  1
  O  O192  1  -0.00807810  0.09497727  0.88285671  1
  O  O193  1  0.00500157  0.40610956  0.13078793  1
  O  O194  1  0.00627581  0.34998827  0.36970385  1
  O  O195  1  -0.00725555  0.39174932  0.62070774  1
  O  O196  1  -0.01156522  0.40239628  0.86053253  1
  O  O197  1  -0.00127036  0.59935037  0.11878059  1
  O  O198  1  -0.00974817  0.63363827  0.40414430  1
  O  O199  1  0.00177343  0.61958496  0.59304341  1
  O  O200  1  0.00117944  0.59071358  0.88430864  1
  O  O201  1  0.00040395  0.90410849  0.13841922  1
  O  O202  1  -0.00468954  0.87331544  0.35229121  1
  O  O203  1  -0.01121468  0.89198164  0.63142699  1
  O  O204  1  0.00650930  0.87989620  0.83485078  1
  O  O205  1  0.24805101  0.15534594  0.12907555  1
  O  O206  1  0.25917094  0.09970837  0.35290693  1
  O  O207  1  0.25289099  0.15804200  0.64952058  1
  O  O208  1  0.24592707  0.16338251  0.85929413  1
  O  O209  1  0.24601785  0.38140628  0.12250593  1
  O  O210  1  0.25097464  0.37928968  0.40195686  1
  O  O211  1  0.25593030  0.36905212  0.59910392  1
  O  O212  1  0.26348039  0.35899057  0.87882414  1
  O  O213  1  0.24934010  0.65125718  0.13652722  1
  O  O214  1  0.24771180  0.61286481  0.35247388  1
  O  O215  1  0.24436499  0.61821403  0.62809756  1
  O  O216  1  0.24836343  0.63098055  0.89162876  1
  O  O217  1  0.26437022  0.86329877  0.09014783  1
  O  O218  1  0.26840753  0.88670551  0.37011462  1
  O  O219  1  0.25440806  0.86331851  0.58591158  1
  O  O220  1  0.25191647  0.89178811  0.91349205  1
  O  O221  1  0.48606808  0.11084655  0.08547385  1
  O  O222  1  0.49951052  0.12675324  0.39290566  1
  O  O223  1  0.50269752  0.10652112  0.61392130  1
  O  O224  1  0.50937282  0.12487477  0.87825718  1
  O  O225  1  0.48731871  0.38584524  0.15046058  1
  O  O226  1  0.48371277  0.34585683  0.35202117  1
  O  O227  1  0.49975528  0.36307780  0.63389897  1
  O  O228  1  0.50068448  0.39857118  0.86773756  1
  O  O229  1  0.49038105  0.61205244  0.12040079  1
  O  O230  1  0.49941903  0.61055908  0.40989369  1
  O  O231  1  0.49884404  0.61061260  0.59347529  1
  O  O232  1  0.49307858  0.59486897  0.88618139  1
  O  O233  1  0.50169694  0.92602867  0.14916498  1
  O  O234  1  0.50135068  0.83582424  0.35898458  1
  O  O235  1  0.50639208  0.86507927  0.63505798  1
  O  O236  1  0.49551942  0.88808308  0.85284081  1
  O  O237  1  0.74159509  0.15821814  0.12001565  1
  O  O238  1  0.74197498  0.08457055  0.36636851  1
  O  O239  1  0.75536794  0.12947831  0.66426911  1
  O  O240  1  0.74443956  0.16503075  0.86553869  1
  O  O241  1  0.75987663  0.35364507  0.14233640  1
  O  O242  1  0.76142945  0.37291247  0.35667452  1
  O  O243  1  0.74871808  0.40213795  0.58882903  1
  O  O244  1  0.74806963  0.37747539  0.87318828  1
  O  O245  1  0.75912812  0.64493461  0.13427023  1
  O  O246  1  0.74234641  0.62955486  0.33010969  1
  O  O247  1  0.74199765  0.61211872  0.64382314  1
  O  O248  1  0.75193141  0.64949397  0.87674124  1
  O  O249  1  0.76120732  0.86927903  0.09284936  1
  O  O250  1  0.74368872  0.90779860  0.37865609  1
  O  O251  1  0.74547456  0.84559705  0.63159547  1
  O  O252  1  0.74963069  0.84206571  0.86988794  1
  O  O253  1  0.15564175  0.00659070  0.10163971  1
  O  O254  1  0.12116352  0.00127277  0.35841662  1
  O  O255  1  0.15685496  -0.00060329  0.63316259  1
  O  O256  1  0.12954821  0.00000396  0.84087859  1
  O  O257  1  0.10145740  0.25587061  0.12803000  1
  O  O258  1  0.15600658  0.24110608  0.37099448  1
  O  O259  1  0.08055777  0.24594751  0.61695950  1
  O  O260  1  0.08284872  0.25054836  0.87947644  1
  O  O261  1  0.13635796  0.50241151  0.15084792  1
  O  O262  1  0.10880111  0.49413551  0.37358406  1
  O  O263  1  0.12439071  0.49866657  0.60845257  1
  O  O264  1  0.15877892  0.49134108  0.86666510  1
  O  O265  1  0.10673681  0.74411566  0.10652551  1
  O  O266  1  0.13299888  0.74106405  0.36931109  1
  O  O267  1  0.11122058  0.74256801  0.61906359  1
  O  O268  1  0.12339825  0.75402319  0.89223322  1
  O  O269  1  0.34676745  0.00185881  0.13337189  1
  O  O270  1  0.40819665  -0.00435673  0.34250798  1
  O  O271  1  0.36698950  0.00990026  0.64825019  1
  O  O272  1  0.37121537  0.00417171  0.84008229  1
  O  O273  1  0.38171605  0.25389090  0.10277550  1
  O  O274  1  0.35044219  0.23502491  0.38475659  1
  O  O275  1  0.38552442  0.24901101  0.59081646  1
  O  O276  1  0.41017812  0.25483975  0.90809428  1
  O  O277  1  0.35577269  0.50965924  0.15295751  1
  O  O278  1  0.38178117  0.50000544  0.35108994  1
  O  O279  1  0.36272886  0.49399401  0.62737327  1
  O  O280  1  0.36050682  0.49114460  0.85210413  1
  O  O281  1  0.42074147  0.76556366  0.09474986  1
  O  O282  1  0.35438564  0.74398383  0.39836343  1
  O  O283  1  0.36409893  0.73855846  0.61197038  1
  O  O284  1  0.35551055  0.76170613  0.87377664  1
  O  O285  1  0.64961960  0.00890129  0.11738017  1
  O  O286  1  0.59365642  -0.01549169  0.34098306  1
  O  O287  1  0.63720543  -0.00670912  0.64534008  1
  O  O288  1  0.65905369  0.01453537  0.82787846  1
  O  O289  1  0.59035078  0.24073962  0.09574388  1
  O  O290  1  0.64676686  0.22906788  0.38135249  1
  O  O291  1  0.64617779  0.25908077  0.59986012  1
  O  O292  1  0.59862747  0.26701296  0.90399155  1
  O  O293  1  0.64500537  0.49498633  0.16067061  1
  O  O294  1  0.62493238  0.50761608  0.34141518  1
  O  O295  1  0.60866937  0.49798445  0.62993290  1
  O  O296  1  0.63008204  0.49897237  0.84762510  1
  O  O297  1  0.61581864  0.76261392  0.10752969  1
  O  O298  1  0.63357926  0.74524227  0.41200649  1
  O  O299  1  0.62173777  0.73453217  0.59759809  1
  O  O300  1  0.58444582  0.74480840  0.90783328  1
  O  O301  1  0.86524523  -0.00004116  0.09983790  1
  O  O302  1  0.89039094  0.00171964  0.37409345  1
  O  O303  1  0.84040999  -0.01029181  0.65501160  1
  O  O304  1  0.84040769  0.01018135  0.85965745  1
  O  O305  1  0.89890289  0.24609706  0.13882603  1
  O  O306  1  0.87126158  0.24671633  0.35120562  1
  O  O307  1  0.89175837  0.24643859  0.61350020  1
  O  O308  1  0.88966977  0.25633921  0.87507444  1
  O  O309  1  0.85692574  0.49798301  0.13211347  1
  O  O310  1  0.88017041  0.49731738  0.37204827  1
  O  O311  1  0.87599955  0.50209293  0.60311795  1
  O  O312  1  0.85651730  0.50658712  0.85299252  1
  O  O313  1  0.90123077  0.75437007  0.12466916  1
  O  O314  1  0.86075562  0.74840472  0.38945586  1
  O  O315  1  0.88839011  0.74746562  0.59021643  1
  O  O316  1  0.91245002  0.74127824  0.88088966  1
