# generated using pymatgen
data_Mg32Ti42(Bi17O64)3
_symmetry_space_group_name_H-M   'P 1'
_cell_length_a   15.92168157
_cell_length_b   15.94690163
_cell_length_c   15.94207020
_cell_angle_alpha   89.91641958
_cell_angle_beta   90.10400137
_cell_angle_gamma   89.94922381
_symmetry_Int_Tables_number   1
_chemical_formula_structural   Mg32Ti42(Bi17O64)3
_chemical_formula_sum   'Mg32 Ti42 Bi51 O192'
_cell_volume   4047.70280039
_cell_formula_units_Z   1
loop_
 _symmetry_equiv_pos_site_id
 _symmetry_equiv_pos_as_xyz
  1  'x, y, z'
loop_
 _atom_site_type_symbol
 _atom_site_label
 _atom_site_symmetry_multiplicity
 _atom_site_fract_x
 _atom_site_fract_y
 _atom_site_fract_z
 _atom_site_occupancy
  Mg  Mg0  1  0.62234144  0.62870965  0.11708087  1
  Mg  Mg1  1  0.37710828  0.87070319  0.13527808  1
  Mg  Mg2  1  0.37868711  0.37903603  0.62228933  1
  Mg  Mg3  1  0.87688070  0.12086103  0.35581305  1
  Mg  Mg4  1  0.87185524  0.37047710  0.12784166  1
  Mg  Mg5  1  0.87568055  0.12950053  0.63292567  1
  Mg  Mg6  1  0.37337602  0.63356898  0.12662206  1
  Mg  Mg7  1  0.12937929  0.62886804  0.13186549  1
  Mg  Mg8  1  0.87202008  0.62382351  0.86608039  1
  Mg  Mg9  1  0.62769913  0.88294794  0.63006220  1
  Mg  Mg10  1  0.61986488  0.87576220  0.88798488  1
  Mg  Mg11  1  0.63232881  0.36689946  0.36972084  1
  Mg  Mg12  1  0.87399692  0.62087390  0.38144815  1
  Mg  Mg13  1  0.13634099  0.12580073  0.10505184  1
  Mg  Mg14  1  0.12995408  0.37678378  0.11425706  1
  Mg  Mg15  1  0.35720952  0.88429238  0.38283404  1
  Mg  Mg16  1  0.37672936  0.37545194  0.12836853  1
  Mg  Mg17  1  0.37528090  0.62430808  0.38006748  1
  Mg  Mg18  1  0.61827562  0.36659506  0.88091366  1
  Mg  Mg19  1  0.70698213  0.45401453  0.75270527  1
  Mg  Mg20  1  0.03119591  0.25283525  0.20068606  1
  Mg  Mg21  1  0.28074149  0.26150241  0.75466327  1
  Mg  Mg22  1  0.25722978  -0.01506707  -0.00207221  1
  Mg  Mg23  1  0.03002182  0.05510934  0.22337867  1
  Mg  Mg24  1  0.51822084  0.44619180  0.47340393  1
  Mg  Mg25  1  0.43361385  0.76243647  -0.00308706  1
  Mg  Mg26  1  0.25522792  0.76392836  0.06818709  1
  Mg  Mg27  1  0.47744151  0.77413507  0.32037861  1
  Mg  Mg28  1  -0.04402019  0.24259621  0.46463587  1
  Mg  Mg29  1  0.49656499  0.76659226  0.81999828  1
  Mg  Mg30  1  0.49197255  0.25645755  0.05520220  1
  Mg  Mg31  1  0.69452108  0.24736390  0.22143036  1
  Ti  Ti32  1  0.61514431  0.36996552  0.61641398  1
  Ti  Ti33  1  0.37948325  0.36916667  0.88007646  1
  Ti  Ti34  1  0.36611838  0.12283264  0.35484670  1
  Ti  Ti35  1  0.87475360  0.37575914  0.36222649  1
  Ti  Ti36  1  0.87765388  0.12541888  0.87328562  1
  Ti  Ti37  1  0.37238881  0.86397774  0.62079146  1
  Ti  Ti38  1  0.63010950  0.61250900  0.63105431  1
  Ti  Ti39  1  0.12152088  0.86639802  0.89077266  1
  Ti  Ti40  1  0.37314864  0.13230252  0.12058063  1
  Ti  Ti41  1  0.87614022  0.89082521  0.62449169  1
  Ti  Ti42  1  0.12145066  0.61518247  0.37616789  1
  Ti  Ti43  1  0.12052259  0.13976193  0.64307264  1
  Ti  Ti44  1  0.88379297  0.87134011  0.86615306  1
  Ti  Ti45  1  0.87521256  0.12918737  0.13439484  1
  Ti  Ti46  1  0.87926529  0.87538789  0.12635013  1
  Ti  Ti47  1  0.36264177  0.12917493  0.88263989  1
  Ti  Ti48  1  0.61418301  0.11972834  0.11369947  1
  Ti  Ti49  1  0.11938809  0.87807962  0.13022460  1
  Ti  Ti50  1  0.12029589  0.13684517  0.37090189  1
  Ti  Ti51  1  0.61495266  0.62141497  0.39157399  1
  Ti  Ti52  1  0.11118765  0.37106650  0.38979834  1
  Ti  Ti53  1  0.11188452  0.90293716  0.35820176  1
  Ti  Ti54  1  0.37288759  0.37512612  0.38079257  1
  Ti  Ti55  1  0.13462489  0.12317834  0.88243772  1
  Ti  Ti56  1  0.61497443  0.62447337  0.86847773  1
  Ti  Ti57  1  0.12549897  0.61712875  0.87133956  1
  Ti  Ti58  1  0.62384619  0.85793306  0.11339914  1
  Ti  Ti59  1  0.88222723  0.88282373  0.36041742  1
  Ti  Ti60  1  0.86351848  0.37047312  0.63815623  1
  Ti  Ti61  1  0.35831357  0.86955370  0.87259639  1
  Ti  Ti62  1  0.12598022  0.36827754  0.87738600  1
  Ti  Ti63  1  0.63402725  0.12062372  0.60819413  1
  Ti  Ti64  1  0.39135360  0.62277237  0.63030991  1
  Ti  Ti65  1  0.36698501  0.61964054  0.87493939  1
  Ti  Ti66  1  0.62185353  0.13380207  0.35854366  1
  Ti  Ti67  1  0.86136572  0.37608759  0.87661796  1
  Ti  Ti68  1  0.86677531  0.62537784  0.62518847  1
  Ti  Ti69  1  0.86714651  0.61426335  0.12341655  1
  Ti  Ti70  1  0.60660501  0.12518395  0.89047900  1
  Ti  Ti71  1  0.12814557  0.61427516  0.61867806  1
  Ti  Ti72  1  0.11481527  0.37791701  0.63807570  1
  Ti  Ti73  1  0.62461022  0.38113340  0.12115390  1
  Bi  Bi74  1  -0.01833989  0.49644270  -0.00406120  1
  Bi  Bi75  1  0.53665882  0.77911875  0.50937138  1
  Bi  Bi76  1  -0.01528419  0.24992095  0.75453941  1
  Bi  Bi77  1  0.76124930  -0.02009096  -0.01161323  1
  Bi  Bi78  1  0.50513655  0.47511377  0.75710099  1
  Bi  Bi79  1  0.71980862  0.51534072  0.26350532  1
  Bi  Bi80  1  0.26455608  0.47772766  0.75463916  1
  Bi  Bi81  1  -0.01513035  0.03762970  0.49960433  1
  Bi  Bi82  1  0.48723554  0.22426300  0.74315672  1
  Bi  Bi83  1  0.76296931  0.47412789  0.49302960  1
  Bi  Bi84  1  -0.01774765  0.50931434  0.51362150  1
  Bi  Bi85  1  0.77461234  0.73473070  -0.00777489  1
  Bi  Bi86  1  0.25106888  -0.01936112  0.74176231  1
  Bi  Bi87  1  0.23338960  0.76521178  0.27401432  1
  Bi  Bi88  1  0.73671772  -0.00810028  0.45445022  1
  Bi  Bi89  1  0.27466074  0.51018771  0.50094643  1
  Bi  Bi90  1  0.49505658  0.53595545  0.25466514  1
  Bi  Bi91  1  0.01749015  0.47442183  0.22889983  1
  Bi  Bi92  1  0.48951253  0.27646165  0.26666319  1
  Bi  Bi93  1  0.71310491  0.76060703  0.75264052  1
  Bi  Bi94  1  0.25785063  0.00311983  0.22134160  1
  Bi  Bi95  1  0.74582769  0.25681371  0.02255019  1
  Bi  Bi96  1  0.03406246  -0.01547645  0.73769066  1
  Bi  Bi97  1  -0.01244377  0.51196595  0.75356924  1
  Bi  Bi98  1  0.24129545  0.26796075  0.01447012  1
  Bi  Bi99  1  0.26365709  0.04357106  0.52905738  1
  Bi  Bi100  1  0.25385681  0.72865500  0.74191609  1
  Bi  Bi101  1  0.72810393  0.74969468  0.28855013  1
  Bi  Bi102  1  0.23601644  0.25549124  0.25377908  1
  Bi  Bi103  1  0.46009692  0.22192580  0.52414996  1
  Bi  Bi104  1  -0.00919855  0.00559557  0.00438253  1
  Bi  Bi105  1  0.72490365  0.51057224  -0.01890674  1
  Bi  Bi106  1  0.50572265  -0.00240916  0.46504074  1
  Bi  Bi107  1  0.75538429  0.76883713  0.52844939  1
  Bi  Bi108  1  0.48009898  0.51423600  0.01778761  1
  Bi  Bi109  1  0.24028857  0.52369135  0.02284377  1
  Bi  Bi110  1  0.73408245  -0.02901807  0.23728441  1
  Bi  Bi111  1  0.48098536  0.00610098  0.71179750  1
  Bi  Bi112  1  0.23377497  0.26481351  0.53163197  1
  Bi  Bi113  1  0.71748946  0.22804184  0.75648361  1
  Bi  Bi114  1  0.24962756  0.51259098  0.25930826  1
  Bi  Bi115  1  0.26317314  0.74386591  0.49737652  1
  Bi  Bi116  1  0.51172938  -0.03019080  0.23810497  1
  Bi  Bi117  1  0.46631886  -0.02352755  -0.00623946  1
  Bi  Bi118  1  0.01657967  0.76119795  0.71812456  1
  Bi  Bi119  1  0.01843105  0.79194784  0.50362378  1
  Bi  Bi120  1  -0.02954626  0.72216653  0.25057539  1
  Bi  Bi121  1  0.71217844  -0.00226680  0.76481999  1
  Bi  Bi122  1  0.76312677  0.23086567  0.47291473  1
  Bi  Bi123  1  -0.01606638  0.24294044  0.00533059  1
  Bi  Bi124  1  0.01880726  0.72623520  0.01006223  1
  O  O125  1  0.17875293  0.09450365  -0.01339110  1
  O  O126  1  0.10004730  0.15937419  0.24976191  1
  O  O127  1  0.14453192  0.10224388  0.48521202  1
  O  O128  1  0.10546114  0.14982520  0.75429073  1
  O  O129  1  0.16724290  0.38735858  -0.01039339  1
  O  O130  1  0.09044624  0.35692117  0.25022978  1
  O  O131  1  0.14867200  0.38362047  0.50022110  1
  O  O132  1  0.10233602  0.36664036  0.75310884  1
  O  O133  1  0.10056735  0.61219758  -0.00660689  1
  O  O134  1  0.15130954  0.62521801  0.25774826  1
  O  O135  1  0.13142350  0.59693203  0.50171417  1
  O  O136  1  0.12973504  0.65338534  0.75134667  1
  O  O137  1  0.15417100  0.90556893  0.00059987  1
  O  O138  1  0.10896870  0.84244204  0.24501898  1
  O  O139  1  0.11171885  0.89020995  0.47373159  1
  O  O140  1  0.09851398  0.86447430  0.76397124  1
  O  O141  1  0.36083224  0.15786733  0.00056938  1
  O  O142  1  0.39493390  0.09855150  0.24198569  1
  O  O143  1  0.35138474  0.14507712  0.48223952  1
  O  O144  1  0.40980154  0.10970224  0.76680973  1
  O  O145  1  0.36623122  0.34226889  -0.00816386  1
  O  O146  1  0.40816819  0.38955288  0.25761326  1
  O  O147  1  0.35769517  0.34078016  0.49695243  1
  O  O148  1  0.38999870  0.39948693  0.74824410  1
  O  O149  1  0.40609093  0.63364985  -0.01411416  1
  O  O150  1  0.36569301  0.59639458  0.25197055  1
  O  O151  1  0.35599382  0.63188352  0.50791557  1
  O  O152  1  0.35581206  0.61963371  0.74820219  1
  O  O153  1  0.35377212  0.87782112  -0.00486254  1
  O  O154  1  0.41650190  0.87194968  0.25914631  1
  O  O155  1  0.33362835  0.87043774  0.51150356  1
  O  O156  1  0.41591122  0.88345565  0.76890241  1
  O  O157  1  0.65262310  0.12300287  0.00090321  1
  O  O158  1  0.61411590  0.13887073  0.24180274  1
  O  O159  1  0.64352684  0.12503739  0.49385606  1
  O  O160  1  0.61970015  0.12206246  0.75619793  1
  O  O161  1  0.65567522  0.37875496  0.00060302  1
  O  O162  1  0.61370743  0.35860132  0.24114381  1
  O  O163  1  0.64168706  0.38749774  0.50160653  1
  O  O164  1  0.59900450  0.37357460  0.74559494  1
  O  O165  1  0.60826231  0.59736080  -0.01163354  1
  O  O166  1  0.62830634  0.61683143  0.24729607  1
  O  O167  1  0.61099580  0.61182123  0.50410878  1
  O  O168  1  0.65271236  0.62978210  0.74861006  1
  O  O169  1  0.66186922  0.87757192  0.00467050  1
  O  O170  1  0.61611638  0.87984136  0.24149833  1
  O  O171  1  0.64700393  0.86029987  0.50676859  1
  O  O172  1  0.62653369  0.88100834  0.75571437  1
  O  O173  1  0.86803957  0.15651807  -0.00051310  1
  O  O174  1  0.91189148  0.09993627  0.23971228  1
  O  O175  1  0.87822094  0.14667882  0.50254022  1
  O  O176  1  0.91559315  0.12281853  0.76166935  1
  O  O177  1  0.85764011  0.34731899  -0.00344337  1
  O  O178  1  0.90139597  0.39583523  0.25365561  1
  O  O179  1  0.83959523  0.35281522  0.51197557  1
  O  O180  1  0.89932294  0.39055767  0.75592938  1
  O  O181  1  0.88820025  0.64919534  0.00276571  1
  O  O182  1  0.87449349  0.61757629  0.24467329  1
  O  O183  1  0.89980482  0.62746850  0.50649901  1
  O  O184  1  0.87349827  0.59046916  0.74218655  1
  O  O185  1  0.85353761  0.87155276  0.00528274  1
  O  O186  1  0.87953897  0.90637754  0.24558001  1
  O  O187  1  0.86906055  0.85646970  0.50267584  1
  O  O188  1  0.90110260  0.88794482  0.75145342  1
  O  O189  1  0.00814392  0.10706871  0.09995793  1
  O  O190  1  0.00575074  0.14513892  0.40113924  1
  O  O191  1  0.00903018  0.11251771  0.61235354  1
  O  O192  1  0.01710861  0.12275812  0.91432813  1
  O  O193  1  0.00334737  0.40461428  0.10618622  1
  O  O194  1  -0.00232348  0.35007068  0.41096379  1
  O  O195  1  0.00327350  0.39661767  0.61401637  1
  O  O196  1  0.01064805  0.39156092  0.90415127  1
  O  O197  1  -0.00002450  0.63505700  0.13426676  1
  O  O198  1  0.00815112  0.63559180  0.36304632  1
  O  O199  1  0.00601413  0.59294587  0.63588957  1
  O  O200  1  0.00321793  0.61011794  0.85876469  1
  O  O201  1  0.00109259  0.88970012  0.11132593  1
  O  O202  1  -0.00386759  0.85483669  0.36511692  1
  O  O203  1  -0.00278107  0.87028070  0.61932857  1
  O  O204  1  0.00136798  0.87968199  0.90404693  1
  O  O205  1  0.25704795  0.14522601  0.15187352  1
  O  O206  1  0.24963748  0.11166201  0.33909829  1
  O  O207  1  0.24261272  0.14253325  0.62326265  1
  O  O208  1  0.25645744  0.15395477  0.83997420  1
  O  O209  1  0.25368695  0.34063674  0.13649431  1
  O  O210  1  0.25775240  0.38802140  0.35139452  1
  O  O211  1  0.24917901  0.34317369  0.65098793  1
  O  O212  1  0.25438408  0.36066343  0.83832435  1
  O  O213  1  0.24974643  0.64054277  0.09647206  1
  O  O214  1  0.25227553  0.58232559  0.38107540  1
  O  O215  1  0.24207266  0.65131856  0.62669852  1
  O  O216  1  0.25045122  0.63877186  0.88113256  1
  O  O217  1  0.24715034  0.86919128  0.14988479  1
  O  O218  1  0.23432052  0.89260524  0.33959495  1
  O  O219  1  0.26273043  0.86233288  0.67046662  1
  O  O220  1  0.24537328  0.87160992  0.85123630  1
  O  O221  1  0.49979269  0.11439919  0.09611980  1
  O  O222  1  0.50395786  0.13719661  0.38803294  1
  O  O223  1  0.50848282  0.11619147  0.61088366  1
  O  O224  1  0.49689343  0.12392850  0.90709793  1
  O  O225  1  0.50694036  0.38110386  0.09516353  1
  O  O226  1  0.50013071  0.34606016  0.39423203  1
  O  O227  1  0.50443402  0.40271553  0.59500577  1
  O  O228  1  0.49389466  0.39800408  0.88003712  1
  O  O229  1  0.49785494  0.59361070  0.12888908  1
  O  O230  1  0.49721553  0.64765118  0.35380890  1
  O  O231  1  0.50406357  0.61409159  0.63700903  1
  O  O232  1  0.50001695  0.63287150  0.84398734  1
  O  O233  1  0.50338810  0.90247308  0.10984114  1
  O  O234  1  0.48863611  0.86371599  0.41238621  1
  O  O235  1  0.49680929  0.88019214  0.60057990  1
  O  O236  1  0.49685891  0.85678397  0.92098093  1
  O  O237  1  0.76087037  0.15740201  0.14576805  1
  O  O238  1  0.74870474  0.10124492  0.36801735  1
  O  O239  1  0.74756426  0.14381287  0.64389390  1
  O  O240  1  0.76352129  0.12662972  0.84901378  1
  O  O241  1  0.74810943  0.33508942  0.14099589  1
  O  O242  1  0.75780049  0.40004925  0.36479490  1
  O  O243  1  0.75000193  0.37194326  0.66079794  1
  O  O244  1  0.75227717  0.37326814  0.84671911  1
  O  O245  1  0.75360693  0.63983701  0.10256758  1
  O  O246  1  0.74158523  0.61372869  0.36989076  1
  O  O247  1  0.75223001  0.62667234  0.60348459  1
  O  O248  1  0.74627669  0.63387574  0.89925633  1
  O  O249  1  0.75051253  0.86885355  0.14859389  1
  O  O250  1  0.75438321  0.88707566  0.35734659  1
  O  O251  1  0.76069265  0.86084235  0.63692305  1
  O  O252  1  0.76292130  0.89859100  0.86346234  1
  O  O253  1  0.13307304  0.00130032  0.15587440  1
  O  O254  1  0.08913417  0.01157036  0.33319674  1
  O  O255  1  0.14505553  0.01101457  0.65406765  1
  O  O256  1  0.12935006  0.00727488  0.84317049  1
  O  O257  1  0.10901764  0.25070621  0.09502209  1
  O  O258  1  0.14948912  0.25224086  0.38520071  1
  O  O259  1  0.11007853  0.25511746  0.60969780  1
  O  O260  1  0.12156218  0.25322346  0.89567504  1
  O  O261  1  0.15270372  0.50042479  0.13247829  1
  O  O262  1  0.10617098  0.48764486  0.35838689  1
  O  O263  1  0.15140130  0.49601386  0.64387786  1
  O  O264  1  0.14495323  0.50380154  0.85529955  1
  O  O265  1  0.12817703  0.76103651  0.09603196  1
  O  O266  1  0.15929758  0.73210108  0.39099570  1
  O  O267  1  0.09816926  0.73593941  0.60758300  1
  O  O268  1  0.11797382  0.75323046  0.90159001  1
  O  O269  1  0.34522080  0.00928405  0.09912408  1
  O  O270  1  0.38853660  0.00684447  0.39134713  1
  O  O271  1  0.36509963  -0.00996710  0.63922790  1
  O  O272  1  0.34715774  0.01024058  0.89970660  1
  O  O273  1  0.40414189  0.24601424  0.14338490  1
  O  O274  1  0.36278572  0.24623741  0.33797037  1
  O  O275  1  0.39667594  0.25297472  0.64560740  1
  O  O276  1  0.38647011  0.25495365  0.83875844  1
  O  O277  1  0.35781621  0.49720089  0.09473717  1
  O  O278  1  0.40062027  0.48600381  0.41994422  1
  O  O279  1  0.35420720  0.50733943  0.61999933  1
  O  O280  1  0.35540003  0.50057879  0.88103489  1
  O  O281  1  0.37601597  0.75407133  0.10523251  1
  O  O282  1  0.34589749  0.75240541  0.37545165  1
  O  O283  1  0.38117651  0.74722164  0.63477006  1
  O  O284  1  0.37973174  0.75316082  0.87210163  1
  O  O285  1  0.64089394  0.00702433  0.13085841  1
  O  O286  1  0.61109978  0.00541973  0.37413205  1
  O  O287  1  0.64169802  0.00629897  0.62345696  1
  O  O288  1  0.62945183  0.00475633  0.87622033  1
  O  O289  1  0.60930303  0.24543529  0.10892099  1
  O  O290  1  0.66353889  0.24456255  0.35798995  1
  O  O291  1  0.61144685  0.25304784  0.62373951  1
  O  O292  1  0.62496382  0.24177138  0.87102863  1
  O  O293  1  0.65280025  0.49340361  0.12996593  1
  O  O294  1  0.60734166  0.49819853  0.36753716  1
  O  O295  1  0.64293283  0.49820132  0.64672851  1
  O  O296  1  0.64357318  0.50152253  0.85706685  1
  O  O297  1  0.60555500  0.75134540  0.10941478  1
  O  O298  1  0.62920169  0.74137137  0.38227953  1
  O  O299  1  0.63724013  0.74529158  0.63079587  1
  O  O300  1  0.61858327  0.74898102  0.85987001  1
  O  O301  1  0.86702709  0.00847513  0.09372177  1
  O  O302  1  0.87989626  -0.00432938  0.40041274  1
  O  O303  1  0.87599133  0.00135712  0.60521803  1
  O  O304  1  0.88362586  0.00859270  0.90188596  1
  O  O305  1  0.92135067  0.24631254  0.13858905  1
  O  O306  1  0.86089321  0.25436849  0.37306027  1
  O  O307  1  0.89311132  0.25733485  0.64785966  1
  O  O308  1  0.89586688  0.25381115  0.86240196  1
  O  O309  1  0.86569600  0.50298275  0.10101578  1
  O  O310  1  0.88512248  0.49013745  0.40661299  1
  O  O311  1  0.86842282  0.49054508  0.59666928  1
  O  O312  1  0.86797356  0.49319502  0.90391561  1
  O  O313  1  0.88465844  0.76103128  0.13842761  1
  O  O314  1  0.85740018  0.75422687  0.34923365  1
  O  O315  1  0.88252556  0.73934315  0.63782685  1
  O  O316  1  0.86621635  0.75816685  0.86893495  1
