# generated using pymatgen
data_Mg32Ti42(Bi17O64)3
_symmetry_space_group_name_H-M   'P 1'
_cell_length_a   15.93050272
_cell_length_b   15.95552672
_cell_length_c   15.85702491
_cell_angle_alpha   89.76503268
_cell_angle_beta   90.49349332
_cell_angle_gamma   90.24738116
_symmetry_Int_Tables_number   1
_chemical_formula_structural   Mg32Ti42(Bi17O64)3
_chemical_formula_sum   'Mg32 Ti42 Bi51 O192'
_cell_volume   4030.31129221
_cell_formula_units_Z   1
loop_
 _symmetry_equiv_pos_site_id
 _symmetry_equiv_pos_as_xyz
  1  'x, y, z'
loop_
 _atom_site_type_symbol
 _atom_site_label
 _atom_site_symmetry_multiplicity
 _atom_site_fract_x
 _atom_site_fract_y
 _atom_site_fract_z
 _atom_site_occupancy
  Mg  Mg0  1  0.86651738  0.62575119  0.11086818  1
  Mg  Mg1  1  0.38723296  0.12901040  0.12348322  1
  Mg  Mg2  1  0.87289495  0.36463798  0.12348733  1
  Mg  Mg3  1  0.13048595  0.88011521  0.62506859  1
  Mg  Mg4  1  0.88012780  0.37679060  0.88361766  1
  Mg  Mg5  1  0.12592870  0.36204163  0.62603744  1
  Mg  Mg6  1  0.87405680  0.61904365  0.37738009  1
  Mg  Mg7  1  0.12115142  0.13276202  0.13288015  1
  Mg  Mg8  1  0.86487943  0.37381089  0.36647473  1
  Mg  Mg9  1  0.87469330  0.11946011  0.86377985  1
  Mg  Mg10  1  0.62667190  0.60858703  0.86841109  1
  Mg  Mg11  1  0.38696196  0.61777290  0.12573506  1
  Mg  Mg12  1  0.37380139  0.37059891  0.62332372  1
  Mg  Mg13  1  0.62984341  0.87211476  0.87184960  1
  Mg  Mg14  1  0.12151284  0.61609600  0.87283878  1
  Mg  Mg15  1  0.61822570  0.12253156  0.85890264  1
  Mg  Mg16  1  0.62902582  0.62103193  0.37276314  1
  Mg  Mg17  1  0.36938506  0.11752156  0.38089868  1
  Mg  Mg18  1  0.86839374  0.87753953  0.62958214  1
  Mg  Mg19  1  0.45685944  0.48297842  0.49985423  1
  Mg  Mg20  1  0.74152118  0.72125027  -0.04174950  1
  Mg  Mg21  1  0.51518042  -0.02982365  0.72951718  1
  Mg  Mg22  1  0.80066970  0.49625183  0.23701301  1
  Mg  Mg23  1  -0.03427127  0.27999139  0.24828383  1
  Mg  Mg24  1  0.75662594  0.24851010  0.24671789  1
  Mg  Mg25  1  0.79875530  0.30653545  0.72956130  1
  Mg  Mg26  1  0.56511035  0.02815965  0.44916952  1
  Mg  Mg27  1  0.52588681  0.20702867  0.48825513  1
  Mg  Mg28  1  0.71572854  0.05908166  0.29103820  1
  Mg  Mg29  1  0.26859684  0.20253343  0.22762649  1
  Mg  Mg30  1  0.29246746  0.75899421  0.47540088  1
  Mg  Mg31  1  0.76987004  0.24736007  -0.05703119  1
  Ti  Ti32  1  0.63674907  0.87219128  0.36397495  1
  Ti  Ti33  1  0.39899189  0.88605034  0.38234175  1
  Ti  Ti34  1  0.37719427  0.36905051  0.14558170  1
  Ti  Ti35  1  0.38312791  0.87841242  0.10805526  1
  Ti  Ti36  1  0.63046662  0.62097781  0.63012606  1
  Ti  Ti37  1  0.85400950  0.11924447  0.62702098  1
  Ti  Ti38  1  0.12444204  0.12841392  0.61270296  1
  Ti  Ti39  1  0.62460165  0.37566087  0.60735258  1
  Ti  Ti40  1  0.63534908  0.37004102  0.86813224  1
  Ti  Ti41  1  0.12591074  0.35409423  0.13789582  1
  Ti  Ti42  1  0.63959670  0.87094346  0.11551134  1
  Ti  Ti43  1  0.63185019  0.36737569  0.14005441  1
  Ti  Ti44  1  0.13330501  0.62850137  0.63167072  1
  Ti  Ti45  1  0.13945740  0.63769343  0.38630869  1
  Ti  Ti46  1  0.62811979  0.61016560  0.11786187  1
  Ti  Ti47  1  0.86896414  0.87107392  0.12016123  1
  Ti  Ti48  1  0.62617127  0.87002603  0.61404408  1
  Ti  Ti49  1  0.37190121  0.62378001  0.62253698  1
  Ti  Ti50  1  0.37973138  0.11665138  0.87302230  1
  Ti  Ti51  1  0.37806699  0.86771992  0.61976355  1
  Ti  Ti52  1  0.12699040  0.12627684  0.87815036  1
  Ti  Ti53  1  0.38048308  0.87175313  0.86737266  1
  Ti  Ti54  1  0.87136933  0.61852125  0.88309884  1
  Ti  Ti55  1  0.13286314  0.35797029  0.37311693  1
  Ti  Ti56  1  0.86846598  0.87561818  0.88815619  1
  Ti  Ti57  1  0.62505992  0.13672981  0.12800558  1
  Ti  Ti58  1  0.61506621  0.10114552  0.61923581  1
  Ti  Ti59  1  0.88014143  0.63312853  0.63207599  1
  Ti  Ti60  1  0.63282180  0.37731493  0.36893485  1
  Ti  Ti61  1  0.38368584  0.12029872  0.62266313  1
  Ti  Ti62  1  0.37390656  0.36696693  0.37876359  1
  Ti  Ti63  1  0.10739438  0.37094351  0.88549693  1
  Ti  Ti64  1  0.86359581  0.13283388  0.13808370  1
  Ti  Ti65  1  0.13530306  0.87888107  0.88317822  1
  Ti  Ti66  1  0.37364008  0.61177519  0.38016408  1
  Ti  Ti67  1  0.12644402  0.86868609  0.37263705  1
  Ti  Ti68  1  0.87919868  0.86281238  0.36116300  1
  Ti  Ti69  1  0.12483293  0.88001049  0.13186673  1
  Ti  Ti70  1  0.38117599  0.36802547  0.87354675  1
  Ti  Ti71  1  0.89064889  0.13627642  0.36853595  1
  Ti  Ti72  1  0.12039522  0.13174519  0.36310073  1
  Ti  Ti73  1  0.37863142  0.61521742  0.87016828  1
  Bi  Bi74  1  0.51385315  0.25398859  0.73417555  1
  Bi  Bi75  1  0.52084446  0.73560098  0.22702514  1
  Bi  Bi76  1  0.24248468  0.74119986  0.76878027  1
  Bi  Bi77  1  0.49833206  0.48204845  0.72491239  1
  Bi  Bi78  1  0.77812631  -0.02112121  0.49099867  1
  Bi  Bi79  1  -0.01426417  0.47000612  0.71009909  1
  Bi  Bi80  1  0.23781468  0.47818790  0.01352460  1
  Bi  Bi81  1  0.28258771  0.74754229  0.23384082  1
  Bi  Bi82  1  0.26948589  0.24360768  -0.00438463  1
  Bi  Bi83  1  0.02502482  0.71287618  0.22727039  1
  Bi  Bi84  1  0.74677532  0.04474617  -0.01049339  1
  Bi  Bi85  1  0.51881177  -0.01342330  0.22541359  1
  Bi  Bi86  1  0.77409382  0.47876001  0.50253187  1
  Bi  Bi87  1  0.25490778  0.71034648  0.00972550  1
  Bi  Bi88  1  0.75440816  0.73685801  0.48860101  1
  Bi  Bi89  1  0.01432563  0.75593503  0.53242269  1
  Bi  Bi90  1  0.76484711  0.47044742  0.01014865  1
  Bi  Bi91  1  0.27653038  -0.00690208  0.23583318  1
  Bi  Bi92  1  0.25683526  -0.01490297  0.48846380  1
  Bi  Bi93  1  0.01092250  0.51738888  0.02375781  1
  Bi  Bi94  1  0.21971059  0.51999075  0.22106469  1
  Bi  Bi95  1  0.52071202  -0.01422980  -0.02258388  1
  Bi  Bi96  1  0.51866374  0.73266004  0.48412421  1
  Bi  Bi97  1  0.51253193  0.50014924  0.28330415  1
  Bi  Bi98  1  0.52749297  0.25534795  -0.01388983  1
  Bi  Bi99  1  0.23828406  0.47760586  0.52313284  1
  Bi  Bi100  1  0.02134540  0.51011623  0.48374339  1
  Bi  Bi101  1  0.01420108  -0.01755294  0.73566616  1
  Bi  Bi102  1  0.26238563  0.23446115  0.73395273  1
  Bi  Bi103  1  0.23239347  0.47257421  0.76448316  1
  Bi  Bi104  1  -0.05566900  0.27554309  0.53001254  1
  Bi  Bi105  1  0.50755201  0.20455806  0.28914220  1
  Bi  Bi106  1  0.23712103  0.02352302  0.01790526  1
  Bi  Bi107  1  0.72671562  0.22610001  0.46163205  1
  Bi  Bi108  1  0.03052265  0.73239321  0.00534570  1
  Bi  Bi109  1  0.01306715  -0.00909140  0.48408646  1
  Bi  Bi110  1  0.26610325  -0.01104999  0.73716228  1
  Bi  Bi111  1  -0.02408517  0.23269146  -0.01412891  1
  Bi  Bi112  1  0.77551438  0.71484441  0.24541804  1
  Bi  Bi113  1  -0.00386877  0.01003581  0.01686609  1
  Bi  Bi114  1  -0.00105413  0.76435916  0.76108202  1
  Bi  Bi115  1  -0.00197181  0.21858879  0.73504443  1
  Bi  Bi116  1  0.52096624  0.73076165  -0.02274572  1
  Bi  Bi117  1  0.74218626  -0.00356621  0.76169658  1
  Bi  Bi118  1  0.48475767  0.47826804  0.01859358  1
  Bi  Bi119  1  0.51258227  0.73524084  0.74119162  1
  Bi  Bi120  1  -0.01648492  -0.01302401  0.23967201  1
  Bi  Bi121  1  0.76264509  0.75559560  0.75966690  1
  Bi  Bi122  1  0.26670838  0.23670193  0.48340373  1
  Bi  Bi123  1  0.77168193  0.49917109  0.73373326  1
  Bi  Bi124  1  0.00074162  0.49254359  0.26591668  1
  O  O125  1  0.16023656  0.14006160  0.00248949  1
  O  O126  1  0.10613218  0.10379838  0.25699154  1
  O  O127  1  0.15071714  0.14678694  0.50388474  1
  O  O128  1  0.09027305  0.11069571  0.76384342  1
  O  O129  1  0.15491817  0.36243716  0.00960448  1
  O  O130  1  0.12066148  0.40343750  0.25636597  1
  O  O131  1  0.15026948  0.36659845  0.49633912  1
  O  O132  1  0.10390012  0.39480965  0.76382617  1
  O  O133  1  0.13451620  0.64345013  -0.00270094  1
  O  O134  1  0.12334359  0.61786363  0.26478357  1
  O  O135  1  0.10397693  0.65157212  0.49988330  1
  O  O136  1  0.13681733  0.62143813  0.74787911  1
  O  O137  1  0.11806051  0.85886683  -0.00005694  1
  O  O138  1  0.13776627  0.89576596  0.25391224  1
  O  O139  1  0.09380063  0.86697537  0.49732823  1
  O  O140  1  0.13246532  0.90795561  0.75578165  1
  O  O141  1  0.34512066  0.12329482  -0.00362085  1
  O  O142  1  0.38137973  0.13758140  0.25453306  1
  O  O143  1  0.33872723  0.11200104  0.51051948  1
  O  O144  1  0.38488587  0.15120180  0.75533411  1
  O  O145  1  0.35618996  0.39590131  -0.00760607  1
  O  O146  1  0.39604668  0.35426625  0.25664357  1
  O  O147  1  0.35669895  0.39984280  0.49750510  1
  O  O148  1  0.41402155  0.36208301  0.75182278  1
  O  O149  1  0.35607442  0.61624159  -0.00556141  1
  O  O150  1  0.38412495  0.65740853  0.26263385  1
  O  O151  1  0.37522571  0.59370836  0.50243864  1
  O  O152  1  0.36733234  0.65702479  0.74911847  1
  O  O153  1  0.38864119  0.89250129  -0.00466335  1
  O  O154  1  0.36450822  0.86671350  0.26525908  1
  O  O155  1  0.37995309  0.90649617  0.50649261  1
  O  O156  1  0.35072141  0.86159998  0.74917184  1
  O  O157  1  0.64681363  0.14814734  0.01264286  1
  O  O158  1  0.60332727  0.10568020  0.25247382  1
  O  O159  1  0.63442623  0.12979246  0.49972814  1
  O  O160  1  0.58734461  0.08651497  0.73472080  1
  O  O161  1  0.64519238  0.33811639  -0.00832847  1
  O  O162  1  0.58973321  0.37955068  0.24734674  1
  O  O163  1  0.65455040  0.38862284  0.49276347  1
  O  O164  1  0.59000335  0.37383918  0.74626896  1
  O  O165  1  0.64238230  0.65121466  0.00074739  1
  O  O166  1  0.59941805  0.62088833  0.24252586  1
  O  O167  1  0.63632122  0.65003584  0.50632442  1
  O  O168  1  0.59222805  0.61826093  0.74571185  1
  O  O169  1  0.60227196  0.86271356  0.00217046  1
  O  O170  1  0.62827906  0.89467098  0.24699586  1
  O  O171  1  0.61311899  0.84585516  0.49591285  1
  O  O172  1  0.63495346  0.90937081  0.74202691  1
  O  O173  1  0.84417414  0.15962914  0.01969772  1
  O  O174  1  0.90921413  0.11060918  0.25445528  1
  O  O175  1  0.84823512  0.15314009  0.50115800  1
  O  O176  1  0.89411716  0.10818317  0.74089952  1
  O  O177  1  0.83223959  0.35069996  0.00159925  1
  O  O178  1  0.89569645  0.40184362  0.24601170  1
  O  O179  1  0.84255528  0.36160914  0.49113396  1
  O  O180  1  0.87951281  0.39983615  0.75946069  1
  O  O181  1  0.84333351  0.65678574  -0.00982795  1
  O  O182  1  0.87079167  0.60762728  0.24531890  1
  O  O183  1  0.86321671  0.64740472  0.50968617  1
  O  O184  1  0.88383045  0.59706370  0.75553984  1
  O  O185  1  0.89696791  0.86061956  0.00154383  1
  O  O186  1  0.86867155  0.90003730  0.24651242  1
  O  O187  1  0.87259369  0.86952709  0.48862495  1
  O  O188  1  0.83640181  0.89621570  0.75649230  1
  O  O189  1  -0.00470623  0.13093860  0.09422466  1
  O  O190  1  0.00240244  0.11421883  0.40593711  1
  O  O191  1  0.00167860  0.15101417  0.61220467  1
  O  O192  1  -0.00125101  0.11628806  0.91433217  1
  O  O193  1  0.01234443  0.33307957  0.13566922  1
  O  O194  1  0.00943765  0.41061677  0.38260873  1
  O  O195  1  0.00101532  0.37357343  0.61402509  1
  O  O196  1  0.00237596  0.39304989  0.91650461  1
  O  O197  1  -0.00529809  0.63354153  0.10462653  1
  O  O198  1  -0.00109360  0.59551744  0.37618044  1
  O  O199  1  -0.00374138  0.63270538  0.62599606  1
  O  O200  1  -0.00692267  0.61809591  0.90774440  1
  O  O201  1  0.00249710  0.87944189  0.14021953  1
  O  O202  1  -0.00410912  0.90015780  0.36343744  1
  O  O203  1  -0.00546989  0.86939627  0.65062734  1
  O  O204  1  -0.00830424  0.88164338  0.84658697  1
  O  O205  1  0.25198738  0.10130526  0.14375008  1
  O  O206  1  0.24060868  0.15980239  0.35747221  1
  O  O207  1  0.24223458  0.11304914  0.65798040  1
  O  O208  1  0.24131129  0.14788119  0.85362040  1
  O  O209  1  0.26177641  0.40317370  0.14206417  1
  O  O210  1  0.25121726  0.35001072  0.36389466  1
  O  O211  1  0.24822409  0.39021398  0.64699652  1
  O  O212  1  0.25913528  0.36306664  0.84499012  1
  O  O213  1  0.26055591  0.62870169  0.13893511  1
  O  O214  1  0.25420482  0.66419075  0.39478034  1
  O  O215  1  0.24705350  0.62783944  0.61484421  1
  O  O216  1  0.25484444  0.65462049  0.87467571  1
  O  O217  1  0.25270494  0.89211233  0.12702714  1
  O  O218  1  0.23803867  0.85795363  0.41144947  1
  O  O219  1  0.25493401  0.90635974  0.61913614  1
  O  O220  1  0.24882553  0.85421382  0.87882645  1
  O  O221  1  0.51161757  0.15677065  0.11774687  1
  O  O222  1  0.49382082  0.11788637  0.39803134  1
  O  O223  1  0.49353755  0.13620418  0.59341923  1
  O  O224  1  0.49256561  0.10679566  0.89968985  1
  O  O225  1  0.50192701  0.35950961  0.09287207  1
  O  O226  1  0.48682457  0.41595854  0.39468474  1
  O  O227  1  0.49992597  0.41172596  0.60174633  1
  O  O228  1  0.49996516  0.38164378  0.90537471  1
  O  O229  1  0.50759743  0.64760512  0.10857155  1
  O  O230  1  0.49385174  0.60356007  0.39216768  1
  O  O231  1  0.49124024  0.64572388  0.61875026  1
  O  O232  1  0.49456620  0.61332325  0.89448837  1
  O  O233  1  0.49816642  0.86939360  0.13773257  1
  O  O234  1  0.50874519  0.92076519  0.37656118  1
  O  O235  1  0.49398115  0.86810088  0.64819527  1
  O  O236  1  0.49317502  0.91269762  0.85089978  1
  O  O237  1  0.75216603  0.10577178  0.16860809  1
  O  O238  1  0.76230905  0.16119661  0.34439218  1
  O  O239  1  0.73740457  0.10450326  0.64240188  1
  O  O240  1  0.74742549  0.13065454  0.87777596  1
  O  O241  1  0.74185479  0.40777184  0.15350473  1
  O  O242  1  0.73689199  0.33968540  0.33670493  1
  O  O243  1  0.73384383  0.38085654  0.65176854  1
  O  O244  1  0.74189947  0.33059004  0.84255215  1
  O  O245  1  0.74187014  0.60406834  0.14904004  1
  O  O246  1  0.74906028  0.65771407  0.37606586  1
  O  O247  1  0.74559417  0.63174233  0.65246117  1
  O  O248  1  0.74919656  0.64768329  0.85241902  1
  O  O249  1  0.75239882  0.88847207  0.10272662  1
  O  O250  1  0.74986530  0.84511232  0.37583814  1
  O  O251  1  0.74023217  0.87999332  0.60722252  1
  O  O252  1  0.75328217  0.83306366  0.89466578  1
  O  O253  1  0.11564956  -0.00010751  0.09962872  1
  O  O254  1  0.12964034  0.00381429  0.40230827  1
  O  O255  1  0.09839906  0.00908335  0.61147378  1
  O  O256  1  0.13580002  0.00400391  0.90151322  1
  O  O257  1  0.16657950  0.25168852  0.16372467  1
  O  O258  1  0.09318077  0.25459671  0.35207790  1
  O  O259  1  0.13167372  0.24147875  0.66073655  1
  O  O260  1  0.09820640  0.25068333  0.87835363  1
  O  O261  1  0.12642353  0.48988055  0.11727923  1
  O  O262  1  0.14469072  0.51671749  0.41036788  1
  O  O263  1  0.11956658  0.50804874  0.60793138  1
  O  O264  1  0.15030699  0.49112272  0.89422710  1
  O  O265  1  0.11926567  0.75954912  0.13737276  1
  O  O266  1  0.10262316  0.75451483  0.35615104  1
  O  O267  1  0.11674093  0.75283840  0.63183856  1
  O  O268  1  0.11099079  0.75898757  0.85566829  1
  O  O269  1  0.38771140  -0.00309080  0.14338993  1
  O  O270  1  0.34231184  -0.00525360  0.37315706  1
  O  O271  1  0.39308649  0.00792034  0.66498378  1
  O  O272  1  0.35016762  0.00526915  0.86503675  1
  O  O273  1  0.34602387  0.25500363  0.11924716  1
  O  O274  1  0.39593934  0.25653840  0.40910917  1
  O  O275  1  0.35378619  0.24368732  0.61767179  1
  O  O276  1  0.38307602  0.25301278  0.89693372  1
  O  O277  1  0.40503376  0.49159341  0.13488752  1
  O  O278  1  0.34795020  0.50747876  0.35037115  1
  O  O279  1  0.37461679  0.51157154  0.65058730  1
  O  O280  1  0.36499224  0.50310426  0.84834471  1
  O  O281  1  0.36314643  0.75976491  0.12220262  1
  O  O282  1  0.39637574  0.76828472  0.40563435  1
  O  O283  1  0.35458931  0.75825905  0.58938777  1
  O  O284  1  0.40064331  0.75990722  0.88419100  1
  O  O285  1  0.60484949  0.00460218  0.11241120  1
  O  O286  1  0.66380046  -0.01090313  0.38491124  1
  O  O287  1  0.59622631  -0.00606188  0.58337686  1
  O  O288  1  0.64041534  -0.00025610  0.90181077  1
  O  O289  1  0.65758605  0.25295859  0.16007582  1
  O  O290  1  0.58962933  0.26768876  0.39623308  1
  O  O291  1  0.60013074  0.26121321  0.60745760  1
  O  O292  1  0.58767880  0.24472136  0.85381007  1
  O  O293  1  0.60695827  0.49648892  0.10077869  1
  O  O294  1  0.63292646  0.49617445  0.35785347  1
  O  O295  1  0.62904984  0.50763295  0.62541673  1
  O  O296  1  0.65168405  0.48322897  0.87530262  1
  O  O297  1  0.63875536  0.75820139  0.14558605  1
  O  O298  1  0.59049752  0.75462035  0.36028370  1
  O  O299  1  0.62151670  0.75662115  0.65002013  1
  O  O300  1  0.59809961  0.75042632  0.86005891  1
  O  O301  1  0.89173077  0.00409952  0.11486595  1
  O  O302  1  0.85647240  0.01251993  0.38463862  1
  O  O303  1  0.87744262  0.00767421  0.59856150  1
  O  O304  1  0.85177532  -0.00662242  0.89703207  1
  O  O305  1  0.86100554  0.24655384  0.17423272  1
  O  O306  1  0.90619663  0.25265543  0.35564245  1
  O  O307  1  0.86953517  0.24412466  0.64665269  1
  O  O308  1  0.89021504  0.24685004  0.87141624  1
  O  O309  1  0.88378731  0.49571389  0.08763402  1
  O  O310  1  0.83278492  0.49670706  0.37802849  1
  O  O311  1  0.86133469  0.50881645  0.62051319  1
  O  O312  1  0.84911306  0.50367864  0.90157522  1
  O  O313  1  0.86988810  0.75754436  0.14422551  1
  O  O314  1  0.89128397  0.75241041  0.34320195  1
  O  O315  1  0.86872248  0.74972094  0.65552972  1
  O  O316  1  0.88486970  0.75087083  0.84209700  1
