# generated using pymatgen
data_Mg32Ti42(Bi17O64)3
_symmetry_space_group_name_H-M   'P 1'
_cell_length_a   15.94763219
_cell_length_b   15.93959717
_cell_length_c   15.92553991
_cell_angle_alpha   89.93817825
_cell_angle_beta   89.92127813
_cell_angle_gamma   89.93337103
_symmetry_Int_Tables_number   1
_chemical_formula_structural   Mg32Ti42(Bi17O64)3
_chemical_formula_sum   'Mg32 Ti42 Bi51 O192'
_cell_volume   4048.24475110
_cell_formula_units_Z   1
loop_
 _symmetry_equiv_pos_site_id
 _symmetry_equiv_pos_as_xyz
  1  'x, y, z'
loop_
 _atom_site_type_symbol
 _atom_site_label
 _atom_site_symmetry_multiplicity
 _atom_site_fract_x
 _atom_site_fract_y
 _atom_site_fract_z
 _atom_site_occupancy
  Mg  Mg0  1  0.87925533  0.87499333  0.11617704  1
  Mg  Mg1  1  0.11708522  0.37861489  0.87387859  1
  Mg  Mg2  1  0.62211428  0.62945105  0.37019545  1
  Mg  Mg3  1  0.62796264  0.12325069  0.11868218  1
  Mg  Mg4  1  0.12596435  0.11648966  0.12198985  1
  Mg  Mg5  1  0.37193605  0.13111053  0.38646198  1
  Mg  Mg6  1  0.13187203  0.37463404  0.12375144  1
  Mg  Mg7  1  0.37984232  0.87631837  0.87390545  1
  Mg  Mg8  1  0.86531016  0.37540963  0.12566026  1
  Mg  Mg9  1  0.12263002  0.87896380  0.63254510  1
  Mg  Mg10  1  0.13041334  0.37546694  0.37161946  1
  Mg  Mg11  1  0.38189880  0.36666404  0.87449388  1
  Mg  Mg12  1  0.37243268  0.86638486  0.13319075  1
  Mg  Mg13  1  0.88853176  0.11806356  0.88072445  1
  Mg  Mg14  1  0.86333441  0.11842037  0.60854281  1
  Mg  Mg15  1  0.37130434  0.61967682  0.12122293  1
  Mg  Mg16  1  0.13387171  0.86957621  0.11313159  1
  Mg  Mg17  1  0.37810777  0.86700720  0.61307181  1
  Mg  Mg18  1  0.36588187  0.63030792  0.37783290  1
  Mg  Mg19  1  0.75869975  -0.01449830  0.44883878  1
  Mg  Mg20  1  0.27161657  -0.06793487  0.73910289  1
  Mg  Mg21  1  0.27507503  0.01043295  0.05194079  1
  Mg  Mg22  1  0.27524618  0.79149814  -0.02114987  1
  Mg  Mg23  1  0.72499513  0.76480175  0.75948593  1
  Mg  Mg24  1  -0.03369618  0.68015179  0.52904193  1
  Mg  Mg25  1  0.03351397  -0.00472006  -0.00514044  1
  Mg  Mg26  1  0.45136820  0.72362320  0.25508632  1
  Mg  Mg27  1  0.56124768  0.25752396  0.74409110  1
  Mg  Mg28  1  0.79283765  0.71914473  0.58127961  1
  Mg  Mg29  1  0.49834635  0.50830042  0.25098923  1
  Mg  Mg30  1  0.18158539  0.75360388  0.50667511  1
  Mg  Mg31  1  0.25222808  0.73486815  0.18054695  1
  Ti  Ti32  1  0.62845483  0.86800731  0.37581051  1
  Ti  Ti33  1  0.62499169  0.11282578  0.86994251  1
  Ti  Ti34  1  0.11032295  0.61889846  0.86945169  1
  Ti  Ti35  1  0.36978869  0.39166787  0.12822615  1
  Ti  Ti36  1  0.87772577  0.87086399  0.36856094  1
  Ti  Ti37  1  0.86931963  0.37141839  0.37269687  1
  Ti  Ti38  1  0.37646075  0.12709730  0.62763353  1
  Ti  Ti39  1  0.88052763  0.87975140  0.60675353  1
  Ti  Ti40  1  0.61628810  0.86878577  0.87912300  1
  Ti  Ti41  1  0.63694993  0.87145079  0.60815526  1
  Ti  Ti42  1  0.62043931  0.12072039  0.36698055  1
  Ti  Ti43  1  0.12715540  0.63387800  0.62966104  1
  Ti  Ti44  1  0.62512956  0.38244581  0.62259085  1
  Ti  Ti45  1  0.11226460  0.87013218  0.37630200  1
  Ti  Ti46  1  0.37064098  0.12468916  0.85779621  1
  Ti  Ti47  1  0.61787523  0.62750716  0.87480274  1
  Ti  Ti48  1  0.13610025  0.88760656  0.87097110  1
  Ti  Ti49  1  0.87211970  0.63582416  0.37653829  1
  Ti  Ti50  1  0.37529748  0.62157408  0.62051159  1
  Ti  Ti51  1  0.62784370  0.38081357  0.36188700  1
  Ti  Ti52  1  0.61968759  0.12718455  0.62088201  1
  Ti  Ti53  1  0.61492042  0.62615152  0.61010123  1
  Ti  Ti54  1  0.13712990  0.11970310  0.36864441  1
  Ti  Ti55  1  0.11765367  0.62327693  0.10833055  1
  Ti  Ti56  1  0.61426939  0.87810100  0.12318304  1
  Ti  Ti57  1  0.87543356  0.62468068  0.11337717  1
  Ti  Ti58  1  0.36828072  0.62821006  0.87997298  1
  Ti  Ti59  1  0.88032265  0.11753783  0.37218554  1
  Ti  Ti60  1  0.86507882  0.62660190  0.88377303  1
  Ti  Ti61  1  0.36962020  0.86820918  0.36706529  1
  Ti  Ti62  1  0.62645127  0.37996653  0.86509293  1
  Ti  Ti63  1  0.88461034  0.12305464  0.11772280  1
  Ti  Ti64  1  0.62430484  0.37663162  0.12706068  1
  Ti  Ti65  1  0.11370448  0.63146770  0.37804915  1
  Ti  Ti66  1  0.14236560  0.12105295  0.63223778  1
  Ti  Ti67  1  0.87517278  0.87413829  0.87205508  1
  Ti  Ti68  1  0.37725114  0.37476708  0.36495747  1
  Ti  Ti69  1  0.12461456  0.11167324  0.87259490  1
  Ti  Ti70  1  0.87705920  0.37262892  0.86802536  1
  Ti  Ti71  1  0.85989078  0.36623027  0.62374553  1
  Ti  Ti72  1  0.60719861  0.62680814  0.12863130  1
  Ti  Ti73  1  0.39031608  0.36470221  0.63352923  1
  Bi  Bi74  1  0.76273496  0.23185026  -0.01482277  1
  Bi  Bi75  1  0.72610773  0.76555819  0.24554105  1
  Bi  Bi76  1  0.48673351  0.74024149  0.47274368  1
  Bi  Bi77  1  0.23086434  0.47457380  0.71271352  1
  Bi  Bi78  1  0.03682938  0.24539835  0.49756179  1
  Bi  Bi79  1  0.46377628  0.02658019  0.23000249  1
  Bi  Bi80  1  0.03366054  0.25328432  0.24836343  1
  Bi  Bi81  1  0.49654280  0.75900159  0.71669710  1
  Bi  Bi82  1  0.23193841  -0.02733185  0.23760689  1
  Bi  Bi83  1  0.74539421  -0.00019455  0.73533995  1
  Bi  Bi84  1  0.74664755  0.22367347  0.47838803  1
  Bi  Bi85  1  0.00283813  0.48292471  0.22509925  1
  Bi  Bi86  1  0.47934846  0.00570750  0.48123258  1
  Bi  Bi87  1  0.75814467  -0.00726860  -0.01524781  1
  Bi  Bi88  1  -0.00500038  0.74009679  0.22689220  1
  Bi  Bi89  1  0.02090419  0.27417337  0.73760862  1
  Bi  Bi90  1  0.03651963  0.23934355  -0.00038656  1
  Bi  Bi91  1  0.50093026  0.48632237  -0.00439552  1
  Bi  Bi92  1  0.01950486  0.00631640  0.50328078  1
  Bi  Bi93  1  0.24101070  0.26790572  0.77500461  1
  Bi  Bi94  1  0.73747694  0.76223982  -0.00440838  1
  Bi  Bi95  1  0.78223198  0.22648560  0.74818783  1
  Bi  Bi96  1  0.24647308  -0.03144454  0.50983017  1
  Bi  Bi97  1  0.22538392  0.51005872  0.49027614  1
  Bi  Bi98  1  0.74464078  -0.00705579  0.22586474  1
  Bi  Bi99  1  -0.03756484  0.73588919  0.74596363  1
  Bi  Bi100  1  0.76686786  0.54133290  0.73253786  1
  Bi  Bi101  1  -0.00009106  0.46611482  0.48984673  1
  Bi  Bi102  1  0.49829573  0.23891247  0.20440646  1
  Bi  Bi103  1  -0.00393989  -0.01901017  0.21830919  1
  Bi  Bi104  1  0.51362137  0.22782087  -0.01625063  1
  Bi  Bi105  1  0.74937658  0.53381498  0.23957748  1
  Bi  Bi106  1  0.24532576  0.73262377  0.76860933  1
  Bi  Bi107  1  0.49898408  0.50280593  0.74292589  1
  Bi  Bi108  1  0.49590863  0.49671756  0.47000563  1
  Bi  Bi109  1  0.25397291  0.53973699  0.24825214  1
  Bi  Bi110  1  0.77541951  0.51189848  0.48813769  1
  Bi  Bi111  1  0.77018112  0.23059434  0.23500027  1
  Bi  Bi112  1  -0.00317984  0.49760946  0.71459210  1
  Bi  Bi113  1  -0.01688189  0.02118764  0.72727172  1
  Bi  Bi114  1  0.02515016  0.77172494  -0.02329263  1
  Bi  Bi115  1  0.47810982  -0.01378456  0.73159079  1
  Bi  Bi116  1  0.45799508  -0.00200702  -0.00910563  1
  Bi  Bi117  1  0.47199469  0.73670414  0.01430874  1
  Bi  Bi118  1  -0.00325755  0.47176856  0.01553259  1
  Bi  Bi119  1  0.25023610  0.28535506  0.50894486  1
  Bi  Bi120  1  0.28107308  0.21990954  0.23049301  1
  Bi  Bi121  1  0.27947447  0.21365087  0.01289794  1
  Bi  Bi122  1  0.74642865  0.47837401  -0.00885632  1
  Bi  Bi123  1  0.25484133  0.47408285  -0.02930605  1
  Bi  Bi124  1  0.50125245  0.26453469  0.47874422  1
  O  O125  1  0.14410761  0.15201178  -0.00834350  1
  O  O126  1  0.10106857  0.12244629  0.25360483  1
  O  O127  1  0.13483633  0.14525186  0.49901764  1
  O  O128  1  0.10868381  0.10085560  0.74831599  1
  O  O129  1  0.09667773  0.36768185  -0.00329703  1
  O  O130  1  0.10709392  0.37833483  0.25003069  1
  O  O131  1  0.12410145  0.35312598  0.49946600  1
  O  O132  1  0.14007037  0.36660682  0.74936030  1
  O  O133  1  0.10073305  0.63413590  -0.00510555  1
  O  O134  1  0.12635702  0.60709030  0.26467769  1
  O  O135  1  0.13617221  0.63635928  0.50705971  1
  O  O136  1  0.14975819  0.62382817  0.75242202  1
  O  O137  1  0.15509012  0.83637815  -0.00917592  1
  O  O138  1  0.10425549  0.89292690  0.25706192  1
  O  O139  1  0.14629698  0.87031275  0.49470745  1
  O  O140  1  0.13384966  0.90690319  0.75670796  1
  O  O141  1  0.34732259  0.09403513  -0.01134976  1
  O  O142  1  0.39765487  0.14800434  0.25968059  1
  O  O143  1  0.36935122  0.09260259  0.50988771  1
  O  O144  1  0.39981971  0.14717176  0.74804159  1
  O  O145  1  0.38157908  0.40574763  0.00617552  1
  O  O146  1  0.36096910  0.35573509  0.25581975  1
  O  O147  1  0.41218573  0.38880416  0.51401813  1
  O  O148  1  0.34928209  0.35631090  0.75101562  1
  O  O149  1  0.40217270  0.60915740  -0.00153776  1
  O  O150  1  0.33610720  0.65793427  0.24887054  1
  O  O151  1  0.39596380  0.60683258  0.50623764  1
  O  O152  1  0.36352052  0.65579896  0.76018120  1
  O  O153  1  0.34617597  0.91023186  0.00276157  1
  O  O154  1  0.40526074  0.83903282  0.25968792  1
  O  O155  1  0.37700950  0.90666609  0.49388383  1
  O  O156  1  0.39314875  0.86777174  0.74648233  1
  O  O157  1  0.64253218  0.13869560  -0.00825574  1
  O  O158  1  0.59686666  0.13617003  0.25566147  1
  O  O159  1  0.65017362  0.12086105  0.50863575  1
  O  O160  1  0.60099621  0.13443479  0.75673653  1
  O  O161  1  0.61931222  0.40326918  0.00475916  1
  O  O162  1  0.64151673  0.36386705  0.25183279  1
  O  O163  1  0.59811365  0.38809423  0.50943138  1
  O  O164  1  0.64195159  0.36118882  0.75457407  1
  O  O165  1  0.60336248  0.61084860  0.01217775  1
  O  O166  1  0.65474709  0.63832060  0.24571695  1
  O  O167  1  0.60180632  0.61082707  0.49907066  1
  O  O168  1  0.64842110  0.65988363  0.76718808  1
  O  O169  1  0.65766647  0.88388236  0.00363890  1
  O  O170  1  0.62160633  0.86398087  0.25113607  1
  O  O171  1  0.65900807  0.89191144  0.49934671  1
  O  O172  1  0.62191454  0.84891728  0.76473654  1
  O  O173  1  0.84670249  0.11677955  0.00378932  1
  O  O174  1  0.88774629  0.15070811  0.24965331  1
  O  O175  1  0.82974957  0.10345179  0.48630859  1
  O  O176  1  0.89473945  0.13885224  0.75489083  1
  O  O177  1  0.87635861  0.40269502  -0.00900944  1
  O  O178  1  0.87209889  0.38266482  0.25948120  1
  O  O179  1  0.87217024  0.38953910  0.50849621  1
  O  O180  1  0.85138649  0.35935405  0.75286345  1
  O  O181  1  0.89734752  0.61602324  -0.00118626  1
  O  O182  1  0.86276865  0.62364856  0.25572502  1
  O  O183  1  0.85143369  0.64316185  0.49625176  1
  O  O184  1  0.83759426  0.66543602  0.75986662  1
  O  O185  1  0.84503697  0.88213367  -0.00449412  1
  O  O186  1  0.91424496  0.87339643  0.25096066  1
  O  O187  1  0.85437617  0.90226643  0.49709932  1
  O  O188  1  0.90042993  0.86246831  0.75575663  1
  O  O189  1  -0.00263916  0.10270954  0.09246112  1
  O  O190  1  -0.00939869  0.12686527  0.40225532  1
  O  O191  1  -0.01018830  0.09702738  0.61123479  1
  O  O192  1  0.01145429  0.09322406  0.90303826  1
  O  O193  1  -0.00790383  0.38373305  0.12576524  1
  O  O194  1  -0.00863841  0.37099468  0.39165018  1
  O  O195  1  -0.01601043  0.37666421  0.64159371  1
  O  O196  1  -0.00952710  0.38895560  0.84675567  1
  O  O197  1  0.00054529  0.62326698  0.15133122  1
  O  O198  1  -0.00383466  0.64410813  0.40422840  1
  O  O199  1  0.00908186  0.62187188  0.63214566  1
  O  O200  1  -0.00084016  0.60747619  0.84292899  1
  O  O201  1  0.00777727  0.91161330  0.09875283  1
  O  O202  1  0.00045570  0.87560344  0.39970837  1
  O  O203  1  -0.00517938  0.91053776  0.61397742  1
  O  O204  1  0.00614265  0.89582007  0.90941061  1
  O  O205  1  0.25165292  0.13773024  0.12789670  1
  O  O206  1  0.24912807  0.12213110  0.34879114  1
  O  O207  1  0.25387090  0.13947781  0.64106656  1
  O  O208  1  0.25374257  0.13952154  0.85459696  1
  O  O209  1  0.25490861  0.40012440  0.11620261  1
  O  O210  1  0.25974474  0.39001073  0.40574103  1
  O  O211  1  0.26774445  0.38513505  0.60687627  1
  O  O212  1  0.24902692  0.35451781  0.89408552  1
  O  O213  1  0.23635416  0.61450309  0.12503018  1
  O  O214  1  0.24473113  0.59660225  0.38361968  1
  O  O215  1  0.25871156  0.61237100  0.62147271  1
  O  O216  1  0.24999599  0.66372253  0.89040632  1
  O  O217  1  0.24909081  0.85746860  0.16865661  1
  O  O218  1  0.25637966  0.88971092  0.36123622  1
  O  O219  1  0.25343438  0.88281096  0.62375272  1
  O  O220  1  0.25420404  0.85930112  0.85337200  1
  O  O221  1  0.50112807  0.13695661  0.11179993  1
  O  O222  1  0.50656878  0.13265955  0.40644255  1
  O  O223  1  0.50329310  0.10014870  0.61300287  1
  O  O224  1  0.50496388  0.11433461  0.90405020  1
  O  O225  1  0.50136698  0.37179754  0.12597031  1
  O  O226  1  0.50047632  0.35329449  0.36955131  1
  O  O227  1  0.50371377  0.36412130  0.67338522  1
  O  O228  1  0.50425801  0.40685845  0.87615076  1
  O  O229  1  0.49639472  0.65949319  0.15421340  1
  O  O230  1  0.49399690  0.66033747  0.35571391  1
  O  O231  1  0.50087152  0.62060826  0.65950265  1
  O  O232  1  0.50215615  0.61730659  0.86006250  1
  O  O233  1  0.50260152  0.87244171  0.10046695  1
  O  O234  1  0.51415433  0.86271750  0.40151675  1
  O  O235  1  0.51266284  0.88075636  0.62687560  1
  O  O236  1  0.50670508  0.89119731  0.89882071  1
  O  O237  1  0.74955648  0.12298294  0.15291929  1
  O  O238  1  0.74393515  0.14467010  0.35333172  1
  O  O239  1  0.74191261  0.12014620  0.66183136  1
  O  O240  1  0.74474635  0.14628994  0.86480547  1
  O  O241  1  0.74208122  0.40559508  0.11359795  1
  O  O242  1  0.74436232  0.40335823  0.39077430  1
  O  O243  1  0.73990132  0.38476615  0.61413830  1
  O  O244  1  0.74396116  0.36819700  0.90045464  1
  O  O245  1  0.75786235  0.61315839  0.11566774  1
  O  O246  1  0.75086775  0.59230902  0.37578022  1
  O  O247  1  0.73206870  0.61960824  0.61802292  1
  O  O248  1  0.75302290  0.64285160  0.90974223  1
  O  O249  1  0.75493157  0.87616479  0.15067627  1
  O  O250  1  0.76057390  0.88892053  0.35432955  1
  O  O251  1  0.75230851  0.82696778  0.64241756  1
  O  O252  1  0.76020957  0.83467180  0.86219615  1
  O  O253  1  0.16288400  -0.00472809  0.10870838  1
  O  O254  1  0.12449186  0.00257320  0.39252043  1
  O  O255  1  0.13138235  0.00714621  0.59512394  1
  O  O256  1  0.14496562  -0.00218149  0.91087224  1
  O  O257  1  0.10429021  0.24706149  0.12763531  1
  O  O258  1  0.11440788  0.24523100  0.36699431  1
  O  O259  1  0.10259122  0.23411049  0.63309465  1
  O  O260  1  0.10492447  0.23975015  0.85628814  1
  O  O261  1  0.10286045  0.50371594  0.11962547  1
  O  O262  1  0.11044350  0.50233035  0.40551725  1
  O  O263  1  0.12237515  0.50444075  0.62995998  1
  O  O264  1  0.14305730  0.50617705  0.87983759  1
  O  O265  1  0.11735276  0.74166471  0.14658734  1
  O  O266  1  0.13653657  0.75005642  0.38118653  1
  O  O267  1  0.13071707  0.75071614  0.62622860  1
  O  O268  1  0.09484701  0.75166515  0.85773770  1
  O  O269  1  0.35620226  -0.00850344  0.15728029  1
  O  O270  1  0.40536574  -0.00257279  0.35524760  1
  O  O271  1  0.36384166  0.00682969  0.66182732  1
  O  O272  1  0.39003978  0.00498627  0.85214325  1
  O  O273  1  0.36843727  0.26379495  0.12383201  1
  O  O274  1  0.36858004  0.25852626  0.40994576  1
  O  O275  1  0.38179045  0.24838907  0.60488446  1
  O  O276  1  0.39390247  0.24003736  0.90425070  1
  O  O277  1  0.39511429  0.50275095  0.16862243  1
  O  O278  1  0.40533735  0.49599047  0.35602054  1
  O  O279  1  0.38856401  0.49889164  0.65585546  1
  O  O280  1  0.34324490  0.51120029  0.86815186  1
  O  O281  1  0.34932079  0.74863928  0.08617448  1
  O  O282  1  0.36504091  0.75735097  0.41186975  1
  O  O283  1  0.39782544  0.74165649  0.61278916  1
  O  O284  1  0.38437747  0.75366224  0.90978595  1
  O  O285  1  0.63098535  -0.00473140  0.13565073  1
  O  O286  1  0.64077006  0.00645963  0.37641030  1
  O  O287  1  0.64403814  -0.01365411  0.64371717  1
  O  O288  1  0.64871651  -0.00334162  0.87274115  1
  O  O289  1  0.63289858  0.26116441  0.12026701  1
  O  O290  1  0.63111389  0.25717174  0.39881681  1
  O  O291  1  0.61420741  0.24495009  0.62643246  1
  O  O292  1  0.59607800  0.26114306  0.87289437  1
  O  O293  1  0.59532178  0.51151377  0.15949486  1
  O  O294  1  0.58672251  0.49609969  0.35131844  1
  O  O295  1  0.60992373  0.49955995  0.64894709  1
  O  O296  1  0.64274276  0.50932363  0.86499972  1
  O  O297  1  0.64444970  0.75277176  0.11977853  1
  O  O298  1  0.65193892  0.75639990  0.37753987  1
  O  O299  1  0.60511651  0.74577909  0.61262325  1
  O  O300  1  0.61874973  0.75184382  0.91404418  1
  O  O301  1  0.86541705  0.00646709  0.14558557  1
  O  O302  1  0.87265437  0.00508848  0.35573363  1
  O  O303  1  0.85343749  -0.00814078  0.65059691  1
  O  O304  1  0.84695675  -0.00798857  0.86884379  1
  O  O305  1  0.85758791  0.24658460  0.11343386  1
  O  O306  1  0.85733567  0.25680075  0.38522358  1
  O  O307  1  0.85629811  0.24850334  0.61874011  1
  O  O308  1  0.87768696  0.25602493  0.89479009  1
  O  O309  1  0.89130185  0.50683491  0.13128749  1
  O  O310  1  0.89168488  0.50775518  0.40056369  1
  O  O311  1  0.87087924  0.49836884  0.64984269  1
  O  O312  1  0.85255693  0.51190831  0.85396660  1
  O  O313  1  0.89823606  0.74738142  0.12684573  1
  O  O314  1  0.86882633  0.75523963  0.36575561  1
  O  O315  1  0.90743233  0.76285966  0.60493545  1
  O  O316  1  0.91025800  0.74924368  0.88553116  1
