# generated using pymatgen
data_Mg32Ti42(Bi17O64)3
_symmetry_space_group_name_H-M   'P 1'
_cell_length_a   15.95277944
_cell_length_b   15.94403200
_cell_length_c   15.93387895
_cell_angle_alpha   90.01602965
_cell_angle_beta   89.99042278
_cell_angle_gamma   89.88373441
_symmetry_Int_Tables_number   1
_chemical_formula_structural   Mg32Ti42(Bi17O64)3
_chemical_formula_sum   'Mg32 Ti42 Bi51 O192'
_cell_volume   4052.79945740
_cell_formula_units_Z   1
loop_
 _symmetry_equiv_pos_site_id
 _symmetry_equiv_pos_as_xyz
  1  'x, y, z'
loop_
 _atom_site_type_symbol
 _atom_site_label
 _atom_site_symmetry_multiplicity
 _atom_site_fract_x
 _atom_site_fract_y
 _atom_site_fract_z
 _atom_site_occupancy
  Mg  Mg0  1  0.87225057  0.11856233  0.88323396  1
  Mg  Mg1  1  0.62750307  0.62875536  0.36987388  1
  Mg  Mg2  1  0.63915735  0.62255066  0.62514744  1
  Mg  Mg3  1  0.87289647  0.88027371  0.12559275  1
  Mg  Mg4  1  0.12247527  0.37856216  0.63054244  1
  Mg  Mg5  1  0.62290974  0.37278132  0.12153495  1
  Mg  Mg6  1  0.11156396  0.37666263  0.11853843  1
  Mg  Mg7  1  0.13629564  0.62556171  0.86550615  1
  Mg  Mg8  1  0.37721963  0.12822072  0.88236527  1
  Mg  Mg9  1  0.62948623  0.62872520  0.87539724  1
  Mg  Mg10  1  0.12523687  0.62710178  0.37454191  1
  Mg  Mg11  1  0.37799393  0.13305687  0.12760695  1
  Mg  Mg12  1  0.88483112  0.62467301  0.13474444  1
  Mg  Mg13  1  0.62369697  0.13649998  0.88521576  1
  Mg  Mg14  1  0.36418726  0.13298495  0.37477625  1
  Mg  Mg15  1  0.11516497  0.37818611  0.37810158  1
  Mg  Mg16  1  0.87650001  0.36840782  0.86988766  1
  Mg  Mg17  1  0.37023615  0.62604701  0.61628336  1
  Mg  Mg18  1  0.12623915  0.11601408  0.88486146  1
  Mg  Mg19  1  0.28746782  0.55232927  0.75241607  1
  Mg  Mg20  1  -0.00160201  -0.00695182  0.06621881  1
  Mg  Mg21  1  0.00360432  0.77433566  0.20169325  1
  Mg  Mg22  1  0.00313434  0.78520768  0.49704551  1
  Mg  Mg23  1  0.46921069  0.81256627  0.19624575  1
  Mg  Mg24  1  -0.04391505  0.52567091  -0.07222206  1
  Mg  Mg25  1  0.71277562  0.49358521  0.27650241  1
  Mg  Mg26  1  0.20185344  0.46836485  0.23249482  1
  Mg  Mg27  1  0.25570621  -0.05379795  0.54170553  1
  Mg  Mg28  1  0.00301292  0.52028131  0.47242900  1
  Mg  Mg29  1  0.34080680  0.76429230  0.01606744  1
  Mg  Mg30  1  0.74378341  0.02527028  0.26973482  1
  Mg  Mg31  1  0.49533926  0.30444400  -0.03927761  1
  Ti  Ti32  1  0.12288600  0.86278893  0.63060114  1
  Ti  Ti33  1  0.61718567  0.86932038  0.36209364  1
  Ti  Ti34  1  0.86656692  0.11262395  0.12625508  1
  Ti  Ti35  1  0.39191023  0.87355062  0.62735723  1
  Ti  Ti36  1  0.62489775  0.37519440  0.62963726  1
  Ti  Ti37  1  0.86793431  0.12179218  0.61408891  1
  Ti  Ti38  1  0.38702382  0.86810159  0.38126764  1
  Ti  Ti39  1  0.36715626  0.38770878  0.63416092  1
  Ti  Ti40  1  0.38155106  0.13341052  0.62141449  1
  Ti  Ti41  1  0.13320510  0.12848852  0.36885448  1
  Ti  Ti42  1  0.63256662  0.87702407  0.12854208  1
  Ti  Ti43  1  0.36725703  0.38743939  0.86807433  1
  Ti  Ti44  1  0.36833992  0.61346319  0.12863548  1
  Ti  Ti45  1  0.86795273  0.38024616  0.37326481  1
  Ti  Ti46  1  0.38440836  0.88621565  0.87090992  1
  Ti  Ti47  1  0.88062126  0.37160245  0.62800239  1
  Ti  Ti48  1  0.63005704  0.87918407  0.62102463  1
  Ti  Ti49  1  0.37491032  0.63615317  0.88594584  1
  Ti  Ti50  1  0.14437244  0.87085478  0.88202011  1
  Ti  Ti51  1  0.12609243  0.62341218  0.13456817  1
  Ti  Ti52  1  0.12680424  0.11886001  0.12086022  1
  Ti  Ti53  1  0.88461248  0.63410250  0.60346928  1
  Ti  Ti54  1  0.37040174  0.38264439  0.11435916  1
  Ti  Ti55  1  0.62140185  0.37400548  0.37936571  1
  Ti  Ti56  1  0.12455359  0.86989168  0.11513483  1
  Ti  Ti57  1  0.62865710  0.13102698  0.37379553  1
  Ti  Ti58  1  0.61786874  0.12865384  0.62018919  1
  Ti  Ti59  1  0.37475903  0.61780226  0.37586195  1
  Ti  Ti60  1  0.88371625  0.88804639  0.88397313  1
  Ti  Ti61  1  0.87363868  0.38248168  0.13143369  1
  Ti  Ti62  1  0.10610395  0.38705038  0.87178623  1
  Ti  Ti63  1  0.87983550  0.88585348  0.61560191  1
  Ti  Ti64  1  0.87939083  0.87478908  0.37124490  1
  Ti  Ti65  1  0.88291478  0.64249036  0.37612911  1
  Ti  Ti66  1  0.62545634  0.86987246  0.86248963  1
  Ti  Ti67  1  0.64280014  0.62185048  0.13304752  1
  Ti  Ti68  1  0.35262310  0.38626515  0.36983579  1
  Ti  Ti69  1  0.63208720  0.37125639  0.87460851  1
  Ti  Ti70  1  0.13155403  0.63442322  0.61810000  1
  Ti  Ti71  1  0.62761195  0.12779188  0.12639602  1
  Ti  Ti72  1  0.11981941  0.86960304  0.36827081  1
  Ti  Ti73  1  0.87102688  0.13899087  0.38010366  1
  Bi  Bi74  1  0.73773480  0.02629910  0.76289493  1
  Bi  Bi75  1  0.78964710  0.74835706  -0.01298724  1
  Bi  Bi76  1  0.00332117  0.73710795  0.77488435  1
  Bi  Bi77  1  0.48720821  0.25368708  0.76383680  1
  Bi  Bi78  1  0.51797248  0.73389421  0.74169882  1
  Bi  Bi79  1  0.01520632  0.23926778  0.52860281  1
  Bi  Bi80  1  -0.01229637  0.01759254  0.27364714  1
  Bi  Bi81  1  0.78143026  0.51756941  0.00842899  1
  Bi  Bi82  1  0.01332885  0.24974105  0.24734894  1
  Bi  Bi83  1  0.49101683  0.50159395  0.23939510  1
  Bi  Bi84  1  0.28387058  0.75016495  0.74163685  1
  Bi  Bi85  1  0.54250064  0.75531981  0.00915324  1
  Bi  Bi86  1  0.53417217  0.50927589  0.01302633  1
  Bi  Bi87  1  0.47826182  0.28635728  0.50098146  1
  Bi  Bi88  1  0.23514358  0.03128463  0.72949488  1
  Bi  Bi89  1  0.51943454  0.50474739  0.77883800  1
  Bi  Bi90  1  0.77756167  0.76450825  0.74708335  1
  Bi  Bi91  1  -0.01067215  0.24386186  0.01229747  1
  Bi  Bi92  1  0.00693372  0.51614405  0.70975945  1
  Bi  Bi93  1  0.22871957  0.25392366  -0.02897197  1
  Bi  Bi94  1  0.49617808  0.02212591  0.76626426  1
  Bi  Bi95  1  0.21532662  0.24705695  0.75694068  1
  Bi  Bi96  1  0.52580776  0.51550118  0.50828683  1
  Bi  Bi97  1  0.24537091  0.25429842  0.22415401  1
  Bi  Bi98  1  0.46819268  0.01108459  0.48862445  1
  Bi  Bi99  1  0.26352946  0.75465905  0.22634574  1
  Bi  Bi100  1  0.49345512  0.02648069  0.25344110  1
  Bi  Bi101  1  0.75437813  0.27048347  0.50489863  1
  Bi  Bi102  1  0.77729437  0.75731953  0.23118819  1
  Bi  Bi103  1  0.22947942  0.24980416  0.53294551  1
  Bi  Bi104  1  0.27960787  -0.01212114  0.04015658  1
  Bi  Bi105  1  0.00500349  0.50890090  0.26100481  1
  Bi  Bi106  1  0.78328859  0.54676853  0.76910059  1
  Bi  Bi107  1  0.51820958  0.72352103  0.50170210  1
  Bi  Bi108  1  0.01099902  0.71225459  -0.01358793  1
  Bi  Bi109  1  0.74731855  0.76178955  0.47979760  1
  Bi  Bi110  1  0.75987609  0.51709477  0.48270371  1
  Bi  Bi111  1  0.04495117  0.00800952  0.50031215  1
  Bi  Bi112  1  0.47363397  0.26565864  0.25543268  1
  Bi  Bi113  1  0.49276262  0.01083322  0.00856563  1
  Bi  Bi114  1  0.02291803  -0.01080738  0.77129502  1
  Bi  Bi115  1  0.73618141  0.27213660  0.24333824  1
  Bi  Bi116  1  0.25309596  0.73664108  0.46983542  1
  Bi  Bi117  1  0.22102751  0.49129162  0.50493820  1
  Bi  Bi118  1  0.27632185  -0.02255135  0.25916048  1
  Bi  Bi119  1  0.76921778  0.26987698  0.00112586  1
  Bi  Bi120  1  0.21651729  0.50335510  -0.00106896  1
  Bi  Bi121  1  0.73826166  0.00338894  -0.00120100  1
  Bi  Bi122  1  0.76528129  0.24386463  0.74854405  1
  Bi  Bi123  1  0.73255162  -0.00304454  0.49348744  1
  Bi  Bi124  1  0.00432062  0.20905243  0.75521049  1
  O  O125  1  0.14586586  0.13426896  0.00720958  1
  O  O126  1  0.08390765  0.12330355  0.24781818  1
  O  O127  1  0.12744259  0.13388588  0.48645437  1
  O  O128  1  0.12687831  0.13475356  0.75592397  1
  O  O129  1  0.14747113  0.37839351  -0.00392723  1
  O  O130  1  0.09306796  0.39894634  0.25153854  1
  O  O131  1  0.15464185  0.36071199  0.49861168  1
  O  O132  1  0.10657047  0.36556411  0.75641310  1
  O  O133  1  0.13270505  0.62728737  0.01260367  1
  O  O134  1  0.12742188  0.57549578  0.25598051  1
  O  O135  1  0.16652413  0.63030534  0.50456761  1
  O  O136  1  0.09273210  0.63030590  0.73784624  1
  O  O137  1  0.14803986  0.87355008  0.00042169  1
  O  O138  1  0.08734342  0.86238563  0.25904777  1
  O  O139  1  0.14352864  0.90529941  0.50780386  1
  O  O140  1  0.09366710  0.85546099  0.74946006  1
  O  O141  1  0.37141845  0.08999418  0.00574689  1
  O  O142  1  0.41262521  0.13639956  0.25449395  1
  O  O143  1  0.37684649  0.12185246  0.50113047  1
  O  O144  1  0.40948547  0.12827496  0.74711640  1
  O  O145  1  0.37878242  0.36492601  -0.00067120  1
  O  O146  1  0.39626093  0.39410686  0.25340081  1
  O  O147  1  0.35845602  0.36374447  0.49601626  1
  O  O148  1  0.39020647  0.36473620  0.74898071  1
  O  O149  1  0.35172557  0.63450469  0.00442634  1
  O  O150  1  0.39052516  0.60365068  0.25117855  1
  O  O151  1  0.34344193  0.63102974  0.49280777  1
  O  O152  1  0.39056895  0.64542678  0.75327620  1
  O  O153  1  0.35761347  0.88685699  -0.00750429  1
  O  O154  1  0.38154157  0.87385838  0.26205693  1
  O  O155  1  0.35794071  0.88756604  0.50094204  1
  O  O156  1  0.39246647  0.86128184  0.74912996  1
  O  O157  1  0.65832240  0.12508740  0.00985107  1
  O  O158  1  0.61818149  0.09430734  0.25082555  1
  O  O159  1  0.64360367  0.12007287  0.49435120  1
  O  O160  1  0.60846855  0.10755857  0.74460908  1
  O  O161  1  0.60876510  0.36312720  -0.00741597  1
  O  O162  1  0.64321361  0.38567389  0.25394322  1
  O  O163  1  0.63059658  0.35265989  0.49867742  1
  O  O164  1  0.60518735  0.37697795  0.74579910  1
  O  O165  1  0.61852485  0.63021924  0.00268648  1
  O  O166  1  0.64348733  0.59620267  0.24937247  1
  O  O167  1  0.62008083  0.62359711  0.49977661  1
  O  O168  1  0.60216503  0.62317741  0.74682402  1
  O  O169  1  0.65467881  0.84143177  0.00615248  1
  O  O170  1  0.58683206  0.86582680  0.24893686  1
  O  O171  1  0.64994124  0.87593199  0.50117565  1
  O  O172  1  0.61065689  0.87741098  0.74844490  1
  O  O173  1  0.85083722  0.09002805  0.00947546  1
  O  O174  1  0.90417303  0.13499006  0.25312363  1
  O  O175  1  0.84767886  0.10790118  0.49612324  1
  O  O176  1  0.87490810  0.15163009  0.74080069  1
  O  O177  1  0.84741920  0.38783525  0.00565051  1
  O  O178  1  0.86706049  0.34877386  0.25133946  1
  O  O179  1  0.83886295  0.38582734  0.49708805  1
  O  O180  1  0.88016557  0.33663761  0.74261015  1
  O  O181  1  0.89023456  0.60170173  0.00703002  1
  O  O182  1  0.86960318  0.64732217  0.26184979  1
  O  O183  1  0.88516381  0.57909212  0.49120033  1
  O  O184  1  0.90171975  0.62287751  0.72893150  1
  O  O185  1  0.84679788  0.88643709  -0.00351383  1
  O  O186  1  0.89827943  0.83016635  0.25976576  1
  O  O187  1  0.84058265  0.88574418  0.50016386  1
  O  O188  1  0.88773391  0.85095876  0.74304569  1
  O  O189  1  0.00057104  0.12321135  0.09134443  1
  O  O190  1  -0.01726414  0.09719194  0.39299388  1
  O  O191  1  -0.01290204  0.13031321  0.61697697  1
  O  O192  1  -0.00180712  0.11122685  0.85746256  1
  O  O193  1  -0.01365983  0.35675422  0.10937758  1
  O  O194  1  -0.02367990  0.41849945  0.38702877  1
  O  O195  1  -0.00623475  0.36997106  0.60046361  1
  O  O196  1  -0.00344625  0.40971758  0.89389033  1
  O  O197  1  0.01031879  0.64806628  0.15227683  1
  O  O198  1  -0.00434684  0.60073279  0.37226939  1
  O  O199  1  0.00833384  0.58956944  0.59261235  1
  O  O200  1  0.01022694  0.62464875  0.88308544  1
  O  O201  1  0.00486844  0.86624257  0.10469562  1
  O  O202  1  -0.00751203  0.89305088  0.41091912  1
  O  O203  1  -0.00629215  0.88571961  0.59254568  1
  O  O204  1  -0.00507228  0.91221446  0.88894879  1
  O  O205  1  0.24296636  0.13307917  0.15032976  1
  O  O206  1  0.24229413  0.13660793  0.34808731  1
  O  O207  1  0.26626313  0.14485182  0.64888902  1
  O  O208  1  0.25422259  0.15850304  0.86635335  1
  O  O209  1  0.24924544  0.37292518  0.15043612  1
  O  O210  1  0.24420908  0.39030710  0.33655376  1
  O  O211  1  0.25707224  0.34706584  0.63529684  1
  O  O212  1  0.25680163  0.34761817  0.86631979  1
  O  O213  1  0.25117964  0.63541499  0.15230974  1
  O  O214  1  0.25315681  0.66060378  0.35459801  1
  O  O215  1  0.24391505  0.63944690  0.65973093  1
  O  O216  1  0.25799419  0.64187535  0.84449508  1
  O  O217  1  0.23841977  0.88449649  0.15395495  1
  O  O218  1  0.24039659  0.86625774  0.35817276  1
  O  O219  1  0.23781507  0.85254644  0.63415377  1
  O  O220  1  0.25222235  0.85505880  0.85753589  1
  O  O221  1  0.50991698  0.10646252  0.11547011  1
  O  O222  1  0.51563982  0.09050813  0.38307443  1
  O  O223  1  0.50249759  0.09199545  0.61150482  1
  O  O224  1  0.50688078  0.08889632  0.88961392  1
  O  O225  1  0.49375117  0.40458006  0.12550263  1
  O  O226  1  0.50457324  0.38045061  0.38449526  1
  O  O227  1  0.49256259  0.38765461  0.59898652  1
  O  O228  1  0.49119536  0.40467710  0.87855034  1
  O  O229  1  0.49377042  0.59156006  0.12314288  1
  O  O230  1  0.49423136  0.61727448  0.39511606  1
  O  O231  1  0.49295071  0.61250997  0.59736053  1
  O  O232  1  0.48924811  0.59700185  0.88473219  1
  O  O233  1  0.51326807  0.86984433  0.09785479  1
  O  O234  1  0.50447971  0.88779462  0.39670040  1
  O  O235  1  0.50262015  0.89397801  0.61134640  1
  O  O236  1  0.50457817  0.89578818  0.89084869  1
  O  O237  1  0.75541983  0.10283985  0.16089211  1
  O  O238  1  0.75163519  0.12812760  0.35183397  1
  O  O239  1  0.74370067  0.13820707  0.64212890  1
  O  O240  1  0.74578703  0.13865719  0.84736509  1
  O  O241  1  0.75138829  0.34927632  0.12715158  1
  O  O242  1  0.74277515  0.33517303  0.37362450  1
  O  O243  1  0.74067620  0.34912977  0.62995500  1
  O  O244  1  0.74318623  0.34383688  0.86857938  1
  O  O245  1  0.75332726  0.63047724  0.11334924  1
  O  O246  1  0.75873272  0.63918918  0.39890730  1
  O  O247  1  0.76657033  0.63270714  0.61619781  1
  O  O248  1  0.75255454  0.64751088  0.85597667  1
  O  O249  1  0.74705457  0.88479825  0.16863464  1
  O  O250  1  0.75701908  0.83362022  0.36057240  1
  O  O251  1  0.74911136  0.85439132  0.64270395  1
  O  O252  1  0.74793240  0.84070051  0.85608782  1
  O  O253  1  0.11282990  -0.00110425  0.11953417  1
  O  O254  1  0.11789008  0.00386141  0.37176646  1
  O  O255  1  0.13039371  -0.01121003  0.65223263  1
  O  O256  1  0.13726333  -0.00979976  0.85111785  1
  O  O257  1  0.12038652  0.24868504  0.14775193  1
  O  O258  1  0.09544292  0.24863454  0.35929926  1
  O  O259  1  0.12001487  0.25022177  0.61779260  1
  O  O260  1  0.11531433  0.25746433  0.88699707  1
  O  O261  1  0.13964644  0.50238087  0.11597743  1
  O  O262  1  0.11882264  0.50172272  0.41945304  1
  O  O263  1  0.14117473  0.50406183  0.62074497  1
  O  O264  1  0.14700978  0.49897387  0.87640680  1
  O  O265  1  0.13468486  0.75288668  0.14537046  1
  O  O266  1  0.10313594  0.76075549  0.40880797  1
  O  O267  1  0.09379086  0.74907281  0.60210732  1
  O  O268  1  0.09938955  0.75643994  0.88178429  1
  O  O269  1  0.36196165  0.00547602  0.14948285  1
  O  O270  1  0.37390623  -0.00032451  0.36821094  1
  O  O271  1  0.34005276  -0.00696480  0.62731879  1
  O  O272  1  0.36622938  -0.00389409  0.85151003  1
  O  O273  1  0.37494538  0.26022930  0.14799811  1
  O  O274  1  0.38384938  0.26253632  0.36177844  1
  O  O275  1  0.40119247  0.24670857  0.61932455  1
  O  O276  1  0.41264651  0.25275342  0.87970236  1
  O  O277  1  0.34823916  0.49908273  0.11316974  1
  O  O278  1  0.36614203  0.50209805  0.38803287  1
  O  O279  1  0.34692497  0.49866125  0.64837984  1
  O  O280  1  0.34442799  0.49971742  0.85604397  1
  O  O281  1  0.38076691  0.74241081  0.13464185  1
  O  O282  1  0.38756997  0.75367696  0.38559550  1
  O  O283  1  0.38300056  0.75751041  0.62068085  1
  O  O284  1  0.39240147  0.75168929  0.89843880  1
  O  O285  1  0.62984912  -0.01068266  0.10393911  1
  O  O286  1  0.66423643  -0.01975367  0.36622737  1
  O  O287  1  0.64950221  -0.00414315  0.61613391  1
  O  O288  1  0.65736323  -0.01150391  0.87810189  1
  O  O289  1  0.62121470  0.24018035  0.14616569  1
  O  O290  1  0.60484240  0.24032308  0.35756490  1
  O  O291  1  0.59989080  0.24201571  0.62222781  1
  O  O292  1  0.58738482  0.25713193  0.87181111  1
  O  O293  1  0.63977484  0.49974507  0.10475750  1
  O  O294  1  0.64354716  0.49040629  0.38655754  1
  O  O295  1  0.63013832  0.49047952  0.60882383  1
  O  O296  1  0.63310422  0.49549628  0.86552280  1
  O  O297  1  0.61048906  0.73844821  0.13564150  1
  O  O298  1  0.61828483  0.75338572  0.39445377  1
  O  O299  1  0.60307525  0.75281891  0.62224734  1
  O  O300  1  0.59501169  0.75267352  0.86573490  1
  O  O301  1  0.90267322  -0.00033696  0.14562807  1
  O  O302  1  0.85269465  -0.01642569  0.33775155  1
  O  O303  1  0.86324035  -0.00059241  0.63513662  1
  O  O304  1  0.84318600  -0.00503515  0.85557855  1
  O  O305  1  0.87296090  0.23474879  0.09622772  1
  O  O306  1  0.88697950  0.24961458  0.39538549  1
  O  O307  1  0.87421037  0.24643201  0.59108082  1
  O  O308  1  0.88385289  0.24538258  0.91553046  1
  O  O309  1  0.86452710  0.49474163  0.13949229  1
  O  O310  1  0.81746685  0.48626407  0.35266053  1
  O  O311  1  0.87365525  0.48561222  0.64672121  1
  O  O312  1  0.85004356  0.49336520  0.87094914  1
  O  O313  1  0.86344691  0.75380323  0.11226851  1
  O  O314  1  0.90032226  0.74825886  0.41578213  1
  O  O315  1  0.90106809  0.74454255  0.59139727  1
  O  O316  1  0.90215571  0.76348839  0.89710729  1
