# generated using pymatgen
data_Mg32Ti42(Bi17O64)3
_symmetry_space_group_name_H-M   'P 1'
_cell_length_a   15.92378834
_cell_length_b   15.95305288
_cell_length_c   15.95361001
_cell_angle_alpha   90.03841188
_cell_angle_beta   90.06984577
_cell_angle_gamma   90.01029930
_symmetry_Int_Tables_number   1
_chemical_formula_structural   Mg32Ti42(Bi17O64)3
_chemical_formula_sum   'Mg32 Ti42 Bi51 O192'
_cell_volume   4052.74002173
_cell_formula_units_Z   1
loop_
 _symmetry_equiv_pos_site_id
 _symmetry_equiv_pos_as_xyz
  1  'x, y, z'
loop_
 _atom_site_type_symbol
 _atom_site_label
 _atom_site_symmetry_multiplicity
 _atom_site_fract_x
 _atom_site_fract_y
 _atom_site_fract_z
 _atom_site_occupancy
  Mg  Mg0  1  0.37920505  0.36823628  0.62805687  1
  Mg  Mg1  1  0.12278856  0.37925787  0.87502395  1
  Mg  Mg2  1  0.36933216  0.38238332  0.12107005  1
  Mg  Mg3  1  0.11619457  0.61996846  0.12100076  1
  Mg  Mg4  1  0.38099575  0.87630468  0.62721942  1
  Mg  Mg5  1  0.88120969  0.12002421  0.62026185  1
  Mg  Mg6  1  0.38710400  0.62761628  0.12211207  1
  Mg  Mg7  1  0.63691945  0.62250255  0.86848782  1
  Mg  Mg8  1  0.63248831  0.38410593  0.37359825  1
  Mg  Mg9  1  0.38005320  0.86833627  0.11668086  1
  Mg  Mg10  1  0.12506758  0.87067042  0.11682561  1
  Mg  Mg11  1  0.86614668  0.87511218  0.11295599  1
  Mg  Mg12  1  0.87644131  0.62232136  0.11877411  1
  Mg  Mg13  1  0.63203036  0.12884026  0.61698603  1
  Mg  Mg14  1  0.62147521  0.12506935  0.87902673  1
  Mg  Mg15  1  0.13128921  0.86637746  0.37577293  1
  Mg  Mg16  1  0.12272524  0.87711027  0.63283248  1
  Mg  Mg17  1  0.11627075  0.12518417  0.12139166  1
  Mg  Mg18  1  0.11889746  0.61871782  0.63599936  1
  Mg  Mg19  1  0.52899300  0.73362760  0.44866195  1
  Mg  Mg20  1  0.76328000  0.31513288  0.70363861  1
  Mg  Mg21  1  0.81191499  0.53204955  0.51536321  1
  Mg  Mg22  1  0.01832820  -0.05423972  0.76097919  1
  Mg  Mg23  1  0.04789327  0.73259985  0.76302650  1
  Mg  Mg24  1  0.24042918  0.28068459  -0.00748320  1
  Mg  Mg25  1  0.55167496  0.74856841  -0.04775240  1
  Mg  Mg26  1  0.49279465  0.54293429  0.43853770  1
  Mg  Mg27  1  0.00995092  0.27932082  0.53729483  1
  Mg  Mg28  1  -0.04580849  0.28798127  0.24622867  1
  Mg  Mg29  1  0.74267088  0.74650238  0.75486703  1
  Mg  Mg30  1  0.00738125  0.49720334  -0.01806015  1
  Mg  Mg31  1  0.27177438  0.49854578  0.00304001  1
  Ti  Ti32  1  0.12188701  0.38358116  0.12142341  1
  Ti  Ti33  1  0.61933045  0.36868367  0.13110406  1
  Ti  Ti34  1  0.38837862  0.86726050  0.87990823  1
  Ti  Ti35  1  0.88354154  0.88019257  0.63123230  1
  Ti  Ti36  1  0.88973922  0.12953877  0.37243010  1
  Ti  Ti37  1  0.12386823  0.13403782  0.87160931  1
  Ti  Ti38  1  0.87887234  0.12560601  0.86796318  1
  Ti  Ti39  1  0.12370607  0.36011409  0.35570081  1
  Ti  Ti40  1  0.37889497  0.11829990  0.86382370  1
  Ti  Ti41  1  0.36972266  0.86803405  0.38096300  1
  Ti  Ti42  1  0.39384385  0.62446751  0.88173307  1
  Ti  Ti43  1  0.12822992  0.13394842  0.35888191  1
  Ti  Ti44  1  0.64008977  0.87927416  0.86476859  1
  Ti  Ti45  1  0.36426139  0.12573397  0.38095505  1
  Ti  Ti46  1  0.62667796  0.63365114  0.11827044  1
  Ti  Ti47  1  0.61663652  0.62686645  0.60785775  1
  Ti  Ti48  1  0.87526416  0.62654322  0.36935119  1
  Ti  Ti49  1  0.65147185  0.61554996  0.37370437  1
  Ti  Ti50  1  0.88189028  0.60917032  0.87202920  1
  Ti  Ti51  1  0.36455408  0.64073415  0.36647323  1
  Ti  Ti52  1  0.88398990  0.12666340  0.12844475  1
  Ti  Ti53  1  0.87672212  0.38304294  0.37471706  1
  Ti  Ti54  1  0.87528626  0.87315798  0.87137018  1
  Ti  Ti55  1  0.13245958  0.86689497  0.87981805  1
  Ti  Ti56  1  0.62369080  0.88026404  0.38337519  1
  Ti  Ti57  1  0.37222784  0.13126769  0.62613901  1
  Ti  Ti58  1  0.37088985  0.37730277  0.35584755  1
  Ti  Ti59  1  0.12920522  0.63016445  0.38166962  1
  Ti  Ti60  1  0.62651313  0.12879618  0.38292076  1
  Ti  Ti61  1  0.87773415  0.88061411  0.38404211  1
  Ti  Ti62  1  0.63162544  0.36730240  0.86940408  1
  Ti  Ti63  1  0.13527973  0.37539660  0.63542416  1
  Ti  Ti64  1  0.62786898  0.87535503  0.61328952  1
  Ti  Ti65  1  0.88730378  0.65142613  0.63676963  1
  Ti  Ti66  1  0.88979362  0.39316484  0.11763134  1
  Ti  Ti67  1  0.12310427  0.60260975  0.87501780  1
  Ti  Ti68  1  0.35245272  0.37560352  0.87733325  1
  Ti  Ti69  1  0.62463979  0.38006759  0.60473431  1
  Ti  Ti70  1  0.62667344  0.12097426  0.11865863  1
  Ti  Ti71  1  0.62090471  0.87659031  0.10931211  1
  Ti  Ti72  1  0.11985738  0.11160284  0.63293145  1
  Ti  Ti73  1  0.87648010  0.36747283  0.87701933  1
  Bi  Bi74  1  0.74776566  0.77457199  0.23759597  1
  Bi  Bi75  1  0.76758327  0.73805775  -0.02569681  1
  Bi  Bi76  1  0.25242809  0.00237782  0.21753976  1
  Bi  Bi77  1  0.77533870  0.00430190  0.23955278  1
  Bi  Bi78  1  0.76651336  0.01704192  0.51165601  1
  Bi  Bi79  1  0.44939983  0.23641462  -0.00021894  1
  Bi  Bi80  1  -0.02053253  0.76096312  0.22598124  1
  Bi  Bi81  1  0.00742245  0.72745346  -0.00693655  1
  Bi  Bi82  1  0.46827554  0.01477860  0.02659922  1
  Bi  Bi83  1  0.24065701  0.01512411  -0.00927850  1
  Bi  Bi84  1  0.73935124  0.02810950  0.74623278  1
  Bi  Bi85  1  0.49940627  0.49832755  0.72579546  1
  Bi  Bi86  1  0.01498246  0.51964602  0.26580842  1
  Bi  Bi87  1  0.01524196  0.26697348  -0.00493296  1
  Bi  Bi88  1  0.02490045  0.00163634  0.47754879  1
  Bi  Bi89  1  0.75093528  0.23811502  0.25344010  1
  Bi  Bi90  1  0.49337998  0.22881495  0.22912374  1
  Bi  Bi91  1  0.74375818  0.49984008  0.22261611  1
  Bi  Bi92  1  0.25420223  0.76697774  0.21872372  1
  Bi  Bi93  1  0.02323841  -0.03388392  0.24620335  1
  Bi  Bi94  1  0.76706494  0.01597049  -0.01237966  1
  Bi  Bi95  1  0.28959687  0.49982821  0.49755631  1
  Bi  Bi96  1  0.72658671  0.49295294  -0.00450546  1
  Bi  Bi97  1  0.77035547  0.75978617  0.49760480  1
  Bi  Bi98  1  0.25554242  0.51645534  0.21375980  1
  Bi  Bi99  1  0.03006616  0.74774540  0.51759767  1
  Bi  Bi100  1  0.50600979  0.77265300  0.24754623  1
  Bi  Bi101  1  0.78885414  0.27334018  0.51692036  1
  Bi  Bi102  1  0.50060854  0.26839954  0.46617210  1
  Bi  Bi103  1  0.25477702  0.23191822  0.19295054  1
  Bi  Bi104  1  0.75247858  0.25309896  -0.01298802  1
  Bi  Bi105  1  0.27097561  0.75241507  0.75688083  1
  Bi  Bi106  1  0.49103459  0.01039251  0.25162863  1
  Bi  Bi107  1  0.01482694  0.00080668  -0.02410191  1
  Bi  Bi108  1  0.24506270  -0.02055591  0.50310230  1
  Bi  Bi109  1  0.74315741  0.52459102  0.71651135  1
  Bi  Bi110  1  0.50472220  0.50394468  0.22873017  1
  Bi  Bi111  1  0.27474082  -0.01097895  0.74160811  1
  Bi  Bi112  1  0.25370738  0.70839346  0.00672654  1
  Bi  Bi113  1  0.26576938  0.71491478  0.53740856  1
  Bi  Bi114  1  0.53779596  0.24641873  0.73004344  1
  Bi  Bi115  1  0.25560273  0.28118319  0.49443882  1
  Bi  Bi116  1  0.52752463  0.75544341  0.73377550  1
  Bi  Bi117  1  0.50295116  0.47763283  -0.03258169  1
  Bi  Bi118  1  0.48449307  0.00748968  0.48754426  1
  Bi  Bi119  1  0.51420109  0.00788465  0.73444075  1
  Bi  Bi120  1  0.02471593  0.48758382  0.49925678  1
  Bi  Bi121  1  -0.02770852  0.46946879  0.71936945  1
  Bi  Bi122  1  -0.03025555  0.24119462  0.72789995  1
  Bi  Bi123  1  0.24137528  0.24774435  0.73538065  1
  Bi  Bi124  1  0.27695722  0.51912091  0.72293314  1
  O  O125  1  0.12609854  0.09279387  -0.00365749  1
  O  O126  1  0.12391872  0.15324889  0.25009738  1
  O  O127  1  0.12838323  0.08901791  0.51526106  1
  O  O128  1  0.11415677  0.16104693  0.75749192  1
  O  O129  1  0.08356137  0.39498070  0.00723303  1
  O  O130  1  0.15076367  0.35335144  0.24537040  1
  O  O131  1  0.09992311  0.36783250  0.50884929  1
  O  O132  1  0.15073286  0.36173103  0.75141248  1
  O  O133  1  0.07576961  0.60674213  -0.00557141  1
  O  O134  1  0.12209301  0.61875656  0.26222324  1
  O  O135  1  0.09285288  0.61248841  0.50385929  1
  O  O136  1  0.13855185  0.64183842  0.76190153  1
  O  O137  1  0.12407793  0.90856923  -0.00451496  1
  O  O138  1  0.10900531  0.85660455  0.25181674  1
  O  O139  1  0.12362352  0.90404348  0.50246752  1
  O  O140  1  0.10621071  0.84777308  0.75964955  1
  O  O141  1  0.37488488  0.11147210  -0.00935961  1
  O  O142  1  0.39990657  0.12728852  0.26454646  1
  O  O143  1  0.36815313  0.09891893  0.50807316  1
  O  O144  1  0.36832561  0.14841908  0.75236517  1
  O  O145  1  0.38867017  0.40651856  -0.00367277  1
  O  O146  1  0.35194884  0.34801016  0.24654731  1
  O  O147  1  0.37741641  0.37667743  0.49507342  1
  O  O148  1  0.34240966  0.36615728  0.76206928  1
  O  O149  1  0.37857703  0.60883151  -0.00376836  1
  O  O150  1  0.33305484  0.63880721  0.25010611  1
  O  O151  1  0.38595305  0.59952592  0.48330884  1
  O  O152  1  0.34137818  0.63426985  0.77024832  1
  O  O153  1  0.38361828  0.90409012  -0.00726463  1
  O  O154  1  0.38135736  0.84875445  0.25748221  1
  O  O155  1  0.38125735  0.89845666  0.50072378  1
  O  O156  1  0.35831525  0.86743103  0.75978401  1
  O  O157  1  0.65351357  0.12256879  0.00734383  1
  O  O158  1  0.58411494  0.12527208  0.25340948  1
  O  O159  1  0.64631278  0.11223753  0.49490361  1
  O  O160  1  0.62467894  0.11607410  0.74905587  1
  O  O161  1  0.62043106  0.38755377  0.01075069  1
  O  O162  1  0.65089719  0.38566527  0.24721168  1
  O  O163  1  0.59749037  0.37511379  0.49718715  1
  O  O164  1  0.65735775  0.36694108  0.75774219  1
  O  O165  1  0.60927662  0.64393184  0.00620799  1
  O  O166  1  0.66391153  0.62232924  0.25988910  1
  O  O167  1  0.57454275  0.62318368  0.50122120  1
  O  O168  1  0.67166732  0.63632410  0.74644437  1
  O  O169  1  0.61959224  0.86020027  -0.00336460  1
  O  O170  1  0.61779455  0.86428837  0.26429897  1
  O  O171  1  0.59318442  0.86587890  0.50363440  1
  O  O172  1  0.64995186  0.84884091  0.74805657  1
  O  O173  1  0.84064168  0.13696140  0.01158311  1
  O  O174  1  0.88656866  0.08929829  0.25295033  1
  O  O175  1  0.85185273  0.13799854  0.48744720  1
  O  O176  1  0.88725956  0.11155383  0.75529556  1
  O  O177  1  0.88874318  0.34425697  0.00810123  1
  O  O178  1  0.87474676  0.39793295  0.24903854  1
  O  O179  1  0.90750386  0.33110563  0.48354975  1
  O  O180  1  0.85517953  0.38436470  0.76372051  1
  O  O181  1  0.88857887  0.65553898  -0.00965290  1
  O  O182  1  0.86582189  0.59821927  0.25878623  1
  O  O183  1  0.88221284  0.65432155  0.51744579  1
  O  O184  1  0.85657393  0.60834956  0.75285436  1
  O  O185  1  0.86040946  0.85134721  -0.01044499  1
  O  O186  1  0.85929137  0.87985276  0.26392761  1
  O  O187  1  0.87814215  0.84308649  0.50273219  1
  O  O188  1  0.88865700  0.90790453  0.74823570  1
  O  O189  1  -0.00786944  0.13217031  0.10629679  1
  O  O190  1  0.00276387  0.13069063  0.39033991  1
  O  O191  1  0.00491593  0.17079784  0.61229457  1
  O  O192  1  -0.00616212  0.14392926  0.89777010  1
  O  O193  1  0.00059033  0.34293564  0.14332465  1
  O  O194  1  0.00650494  0.35516179  0.34203740  1
  O  O195  1  0.00350165  0.35163407  0.64850225  1
  O  O196  1  -0.00850909  0.33973057  0.87060881  1
  O  O197  1  -0.00188065  0.66538667  0.13202558  1
  O  O198  1  -0.00732467  0.62879257  0.36793046  1
  O  O199  1  -0.00178596  0.67602320  0.65403989  1
  O  O200  1  -0.00935034  0.66602997  0.85761159  1
  O  O201  1  -0.00743876  0.86252677  0.13273863  1
  O  O202  1  -0.00730632  0.87251283  0.38022475  1
  O  O203  1  -0.00566883  0.85516080  0.62427366  1
  O  O204  1  -0.00791733  0.87075494  0.88024533  1
  O  O205  1  0.24650169  0.10406840  0.12782902  1
  O  O206  1  0.24958118  0.10659491  0.37034354  1
  O  O207  1  0.24224324  0.10537459  0.64626161  1
  O  O208  1  0.24261130  0.10180037  0.87428038  1
  O  O209  1  0.23876958  0.41662185  0.10282864  1
  O  O210  1  0.24709139  0.38327472  0.39243186  1
  O  O211  1  0.24635330  0.40293416  0.60970546  1
  O  O212  1  0.24578095  0.39663253  0.91637185  1
  O  O213  1  0.24152502  0.59043272  0.09735728  1
  O  O214  1  0.24204424  0.60200320  0.39474853  1
  O  O215  1  0.24254311  0.59539899  0.60957074  1
  O  O216  1  0.23171099  0.58588100  0.91176238  1
  O  O217  1  0.25350173  0.89141461  0.13852168  1
  O  O218  1  0.25639553  0.89861799  0.37722648  1
  O  O219  1  0.24595119  0.91086056  0.62810429  1
  O  O220  1  0.24193818  0.90249189  0.87414085  1
  O  O221  1  0.50476925  0.14977033  0.10785465  1
  O  O222  1  0.49665527  0.13169952  0.40769852  1
  O  O223  1  0.49421479  0.14679991  0.63488485  1
  O  O224  1  0.49171871  0.15074487  0.88090346  1
  O  O225  1  0.50361235  0.37101766  0.14638289  1
  O  O226  1  0.48912448  0.34678373  0.35596815  1
  O  O227  1  0.50613826  0.36047528  0.65416899  1
  O  O228  1  0.50995568  0.36909953  0.87597654  1
  O  O229  1  0.51037923  0.62894204  0.15764053  1
  O  O230  1  0.48182760  0.64770859  0.35838653  1
  O  O231  1  0.51427493  0.62528179  0.66877504  1
  O  O232  1  0.50363598  0.65342448  0.87267341  1
  O  O233  1  0.50657802  0.85369996  0.13052066  1
  O  O234  1  0.49764040  0.83517332  0.37828735  1
  O  O235  1  0.50497531  0.87062820  0.66012308  1
  O  O236  1  0.50012434  0.83961257  0.87234664  1
  O  O237  1  0.73768593  0.12134145  0.16460293  1
  O  O238  1  0.73967933  0.12101649  0.34226994  1
  O  O239  1  0.75510342  0.09680971  0.62800721  1
  O  O240  1  0.75233637  0.09796931  0.86929873  1
  O  O241  1  0.76472010  0.40373001  0.11304742  1
  O  O242  1  0.76419330  0.36987768  0.39207785  1
  O  O243  1  0.74446774  0.39084593  0.59927852  1
  O  O244  1  0.75622062  0.38543203  0.90970686  1
  O  O245  1  0.74916915  0.59828405  0.11197306  1
  O  O246  1  0.75763500  0.59238497  0.41245202  1
  O  O247  1  0.73933209  0.59678528  0.59826086  1
  O  O248  1  0.76382921  0.60854187  0.90133288  1
  O  O249  1  0.73798273  0.88296928  0.14129437  1
  O  O250  1  0.74019989  0.87686320  0.40228438  1
  O  O251  1  0.74360676  0.88785616  0.59780117  1
  O  O252  1  0.74977532  0.91068626  0.87600181  1
  O  O253  1  0.12049215  -0.00047183  0.15853524  1
  O  O254  1  0.10450131  0.00611566  0.35965572  1
  O  O255  1  0.08519647  0.00849975  0.66593800  1
  O  O256  1  0.08431272  0.00598379  0.85622988  1
  O  O257  1  0.15880399  0.25968675  0.09483065  1
  O  O258  1  0.14181860  0.24607350  0.39618991  1
  O  O259  1  0.15731481  0.25528723  0.61978799  1
  O  O260  1  0.14188649  0.24657197  0.91133144  1
  O  O261  1  0.09981217  0.49491680  0.15497377  1
  O  O262  1  0.10139223  0.48784094  0.37475499  1
  O  O263  1  0.08736678  0.49351777  0.63724216  1
  O  O264  1  0.08199207  0.49900647  0.86359689  1
  O  O265  1  0.15931259  0.74455562  0.11024528  1
  O  O266  1  0.13177879  0.74269849  0.40484974  1
  O  O267  1  0.14429531  0.74962699  0.60191195  1
  O  O268  1  0.13788192  0.75357558  0.90298622  1
  O  O269  1  0.39950776  -0.00512126  0.14186794  1
  O  O270  1  0.40568924  -0.00516310  0.36975982  1
  O  O271  1  0.38780641  0.00843471  0.65316579  1
  O  O272  1  0.39280594  0.00334029  0.85036249  1
  O  O273  1  0.33597417  0.26493285  0.08327449  1
  O  O274  1  0.35978464  0.24094927  0.39694782  1
  O  O275  1  0.34425051  0.24597993  0.61647025  1
  O  O276  1  0.34509210  0.25855287  0.90317229  1
  O  O277  1  0.38447810  0.50382189  0.15603001  1
  O  O278  1  0.39239014  0.49205010  0.35462287  1
  O  O279  1  0.38800574  0.49457275  0.64750164  1
  O  O280  1  0.40248431  0.50512340  0.85910665  1
  O  O281  1  0.34385706  0.74634812  0.11328353  1
  O  O282  1  0.34718723  0.75041495  0.39628412  1
  O  O283  1  0.34416828  0.75483771  0.63680099  1
  O  O284  1  0.34991003  0.75278686  0.88641253  1
  O  O285  1  0.60514582  -0.00005774  0.12270327  1
  O  O286  1  0.59787953  -0.00610161  0.38005554  1
  O  O287  1  0.61149922  -0.00681415  0.63350430  1
  O  O288  1  0.59927437  -0.01242484  0.85860408  1
  O  O289  1  0.63764276  0.25231158  0.13524050  1
  O  O290  1  0.62008649  0.24542779  0.38372558  1
  O  O291  1  0.64255993  0.25751370  0.63548650  1
  O  O292  1  0.64805695  0.25243789  0.88882560  1
  O  O293  1  0.61825075  0.50360764  0.13588438  1
  O  O294  1  0.59638368  0.50950653  0.37536056  1
  O  O295  1  0.61129732  0.49738222  0.63741116  1
  O  O296  1  0.62535772  0.49656841  0.88173701  1
  O  O297  1  0.64308559  0.74945083  0.13743903  1
  O  O298  1  0.64128483  0.73352553  0.39196788  1
  O  O299  1  0.62244823  0.74516032  0.62111398  1
  O  O300  1  0.65412033  0.75157711  0.87705426  1
  O  O301  1  0.85503999  0.00391446  0.11715012  1
  O  O302  1  0.87195130  -0.00299353  0.39554802  1
  O  O303  1  0.88453152  -0.00772719  0.59328022  1
  O  O304  1  0.88394037  0.00545561  0.90398485  1
  O  O305  1  0.86156076  0.24027471  0.16307608  1
  O  O306  1  0.87362253  0.24037215  0.33593323  1
  O  O307  1  0.85038249  0.24598831  0.64429436  1
  O  O308  1  0.84459569  0.24594615  0.87545225  1
  O  O309  1  0.92027739  0.49763444  0.08899157  1
  O  O310  1  0.88907201  0.49353504  0.41368491  1
  O  O311  1  0.89676303  0.52100908  0.61640666  1
  O  O312  1  0.90573420  0.49770984  0.89624401  1
  O  O313  1  0.85435778  0.74869823  0.15214627  1
  O  O314  1  0.84757372  0.74091355  0.36878570  1
  O  O315  1  0.83174973  0.75450692  0.65491733  1
  O  O316  1  0.83159132  0.76255277  0.85006658  1
