# generated using pymatgen
data_Mg32Ti42(Bi17O64)3
_symmetry_space_group_name_H-M   'P 1'
_cell_length_a   15.97264724
_cell_length_b   16.00676745
_cell_length_c   15.97413865
_cell_angle_alpha   90.39193203
_cell_angle_beta   89.91588576
_cell_angle_gamma   89.81469514
_symmetry_Int_Tables_number   1
_chemical_formula_structural   Mg32Ti42(Bi17O64)3
_chemical_formula_sum   'Mg32 Ti42 Bi51 O192'
_cell_volume   4083.99376918
_cell_formula_units_Z   1
loop_
 _symmetry_equiv_pos_site_id
 _symmetry_equiv_pos_as_xyz
  1  'x, y, z'
loop_
 _atom_site_type_symbol
 _atom_site_label
 _atom_site_symmetry_multiplicity
 _atom_site_fract_x
 _atom_site_fract_y
 _atom_site_fract_z
 _atom_site_occupancy
  Mg  Mg0  1  0.86542220  0.87317813  0.12338636  1
  Mg  Mg1  1  0.37488540  0.87674680  0.63409710  1
  Mg  Mg2  1  0.12225601  0.87757345  0.88248027  1
  Mg  Mg3  1  0.12217814  0.37773098  0.63228768  1
  Mg  Mg4  1  0.87327680  0.37872534  0.87610294  1
  Mg  Mg5  1  0.62869821  0.11489489  0.12541063  1
  Mg  Mg6  1  0.86499859  0.87888839  0.87757233  1
  Mg  Mg7  1  0.62876276  0.11450059  0.37380155  1
  Mg  Mg8  1  0.37190323  0.89387812  0.13175696  1
  Mg  Mg9  1  0.38074931  0.37662329  0.60665192  1
  Mg  Mg10  1  0.11655832  0.13411561  0.87841329  1
  Mg  Mg11  1  0.61706241  0.88327463  0.62608751  1
  Mg  Mg12  1  0.87430796  0.62032626  0.61601430  1
  Mg  Mg13  1  0.87671323  0.86706828  0.37292763  1
  Mg  Mg14  1  0.88245882  0.61351843  0.12822543  1
  Mg  Mg15  1  0.36504349  0.13107483  0.63088042  1
  Mg  Mg16  1  0.88453903  0.87993547  0.62719207  1
  Mg  Mg17  1  0.62576688  0.13168111  0.87070021  1
  Mg  Mg18  1  0.88209465  0.12389823  0.37445244  1
  Mg  Mg19  1  0.74885036  0.56076805  -0.00067401  1
  Mg  Mg20  1  0.27863524  0.07620423  0.25457529  1
  Mg  Mg21  1  0.15260198  0.31370654  0.28232742  1
  Mg  Mg22  1  0.79949869  -0.00123259  0.46397617  1
  Mg  Mg23  1  -0.02362881  0.45667516  0.25605437  1
  Mg  Mg24  1  0.70927528  0.50871868  0.48221238  1
  Mg  Mg25  1  -0.01192851  0.05858292  0.74161327  1
  Mg  Mg26  1  0.27611232  0.74716346  0.19268214  1
  Mg  Mg27  1  0.23324381  0.25363754  0.09484588  1
  Mg  Mg28  1  0.73883720  0.03522583  -0.03734329  1
  Mg  Mg29  1  0.25983662  0.29122457  0.69223326  1
  Mg  Mg30  1  0.70738262  0.20796659  0.00302131  1
  Mg  Mg31  1  0.48539498  0.81357237  0.00077844  1
  Ti  Ti32  1  0.86237595  0.36932545  0.38165712  1
  Ti  Ti33  1  0.37587426  0.61712816  0.10886346  1
  Ti  Ti34  1  0.11712382  0.62516786  0.63474008  1
  Ti  Ti35  1  0.12934148  0.86806424  0.36154228  1
  Ti  Ti36  1  0.36647273  0.13562389  0.87198234  1
  Ti  Ti37  1  0.36704117  0.86481772  0.36061579  1
  Ti  Ti38  1  0.62499333  0.12817195  0.61837247  1
  Ti  Ti39  1  0.87238257  0.38380597  0.11806594  1
  Ti  Ti40  1  0.87199186  0.13979368  0.87636155  1
  Ti  Ti41  1  0.62106953  0.62029410  0.11701951  1
  Ti  Ti42  1  0.63293286  0.62113956  0.61173983  1
  Ti  Ti43  1  0.63990872  0.37330844  0.87521343  1
  Ti  Ti44  1  0.37347702  0.37269947  0.11704796  1
  Ti  Ti45  1  0.62505496  0.88368483  0.87088393  1
  Ti  Ti46  1  0.86302234  0.61571452  0.37919898  1
  Ti  Ti47  1  0.13509967  0.62897137  0.87388339  1
  Ti  Ti48  1  0.13207830  0.87655828  0.12085179  1
  Ti  Ti49  1  0.61413756  0.63181500  0.37239847  1
  Ti  Ti50  1  0.37651013  0.63535710  0.87036835  1
  Ti  Ti51  1  0.63090199  0.37941172  0.36971930  1
  Ti  Ti52  1  0.62873435  0.62838891  0.86537595  1
  Ti  Ti53  1  0.13243771  0.36913399  0.87056681  1
  Ti  Ti54  1  0.12033594  0.13079680  0.14227810  1
  Ti  Ti55  1  0.62989605  0.37640549  0.11260912  1
  Ti  Ti56  1  0.62531396  0.37474167  0.61141152  1
  Ti  Ti57  1  0.12674205  0.88771915  0.62787519  1
  Ti  Ti58  1  0.38253576  0.89198567  0.87160235  1
  Ti  Ti59  1  0.88398413  0.12967600  0.61983479  1
  Ti  Ti60  1  0.12316930  0.11159618  0.36042264  1
  Ti  Ti61  1  0.86311806  0.11721957  0.11253309  1
  Ti  Ti62  1  0.88151889  0.37504300  0.61995735  1
  Ti  Ti63  1  0.87546062  0.61904398  0.88072542  1
  Ti  Ti64  1  0.37763118  0.62227402  0.61408159  1
  Ti  Ti65  1  0.37497700  0.13131369  0.11740824  1
  Ti  Ti66  1  0.35480313  0.38350328  0.36130887  1
  Ti  Ti67  1  0.13314244  0.13545607  0.63897626  1
  Ti  Ti68  1  0.12820080  0.62879642  0.36279736  1
  Ti  Ti69  1  0.36600255  0.36907338  0.86872813  1
  Ti  Ti70  1  0.36286217  0.63287077  0.36456364  1
  Ti  Ti71  1  0.60959020  0.86686588  0.37781681  1
  Ti  Ti72  1  0.62067291  0.88032594  0.12796515  1
  Ti  Ti73  1  0.12932549  0.64217736  0.11100324  1
  Bi  Bi74  1  0.75187248  0.26942422  0.72918203  1
  Bi  Bi75  1  -0.00856955  0.27169232  0.76111478  1
  Bi  Bi76  1  -0.00155347  0.26776865  0.00661012  1
  Bi  Bi77  1  0.02797158  0.49480666  0.00703570  1
  Bi  Bi78  1  0.50734778  0.03312196  -0.00027740  1
  Bi  Bi79  1  0.51195704  0.25760619  0.73312031  1
  Bi  Bi80  1  0.46997624  -0.00010491  0.49706671  1
  Bi  Bi81  1  0.76979643  0.75548612  0.73128039  1
  Bi  Bi82  1  0.25117283  0.48927285  -0.00482282  1
  Bi  Bi83  1  -0.02034950  0.00745486  -0.02557847  1
  Bi  Bi84  1  0.72577431  0.24553583  0.23960915  1
  Bi  Bi85  1  0.49724013  0.03652936  0.73331402  1
  Bi  Bi86  1  -0.03954062  0.24592107  0.23355226  1
  Bi  Bi87  1  -0.03902406  -0.00167537  0.23901286  1
  Bi  Bi88  1  0.74590013  0.21530846  0.48047239  1
  Bi  Bi89  1  0.00057793  0.75268012  0.21844835  1
  Bi  Bi90  1  0.76583670  0.51271093  0.73216782  1
  Bi  Bi91  1  0.47500634  0.25230685  0.27408848  1
  Bi  Bi92  1  0.76587493  0.73616178  0.25408380  1
  Bi  Bi93  1  0.48719739  0.74959581  0.21326047  1
  Bi  Bi94  1  -0.00407540  0.50507270  0.76071515  1
  Bi  Bi95  1  0.76056262  0.00124499  0.71599261  1
  Bi  Bi96  1  0.25013844  0.23766742  0.47900481  1
  Bi  Bi97  1  0.49938965  0.49592265  -0.04298379  1
  Bi  Bi98  1  0.73672295  0.51037943  0.23430294  1
  Bi  Bi99  1  0.47710987  0.21617811  0.48470055  1
  Bi  Bi100  1  0.23710521  0.00224526  0.47607665  1
  Bi  Bi101  1  0.26852715  0.78379807  -0.00668151  1
  Bi  Bi102  1  -0.00400472  0.48425961  0.47483580  1
  Bi  Bi103  1  -0.01577218  0.77242920  -0.01391939  1
  Bi  Bi104  1  0.00224098  0.77538169  0.74735720  1
  Bi  Bi105  1  -0.00628195  0.72898770  0.48656327  1
  Bi  Bi106  1  0.26376031  0.49868353  0.72982054  1
  Bi  Bi107  1  0.48204210  0.49143980  0.46644123  1
  Bi  Bi108  1  -0.00932659  -0.02493082  0.48496575  1
  Bi  Bi109  1  0.03988101  0.25852419  0.47235743  1
  Bi  Bi110  1  0.73417356  0.77972961  0.00123854  1
  Bi  Bi111  1  0.49710559  0.25899032  -0.02218292  1
  Bi  Bi112  1  0.47398198  0.76737336  0.50423465  1
  Bi  Bi113  1  0.22850883  0.74534191  0.50280228  1
  Bi  Bi114  1  0.22486421  0.01747786  0.76909009  1
  Bi  Bi115  1  0.47874223  0.03347399  0.26117679  1
  Bi  Bi116  1  0.24021409  0.77932925  0.75096074  1
  Bi  Bi117  1  0.72609605  -0.02215078  0.27168630  1
  Bi  Bi118  1  0.74496861  0.79100541  0.51177934  1
  Bi  Bi119  1  0.20279217  0.48362905  0.22068152  1
  Bi  Bi120  1  0.22198680  0.03230751  0.00451278  1
  Bi  Bi121  1  0.49226536  0.48585615  0.22778357  1
  Bi  Bi122  1  0.50692071  0.51961766  0.73358421  1
  Bi  Bi123  1  0.22103476  0.48687726  0.50520951  1
  Bi  Bi124  1  0.50448016  0.76281167  0.74591312  1
  O  O125  1  0.14311776  0.15041645  0.02102572  1
  O  O126  1  0.14140257  0.08236997  0.25213147  1
  O  O127  1  0.15126266  0.13921685  0.51708582  1
  O  O128  1  0.11082383  0.09513904  0.75400654  1
  O  O129  1  0.08773111  0.37256461  -0.00958270  1
  O  O130  1  0.09380137  0.41608105  0.24890448  1
  O  O131  1  0.15086775  0.33911298  0.50939243  1
  O  O132  1  0.15368277  0.40174113  0.75874151  1
  O  O133  1  0.11772196  0.65109088  -0.00213765  1
  O  O134  1  0.14029899  0.60580458  0.25090346  1
  O  O135  1  0.11439075  0.65982791  0.50881860  1
  O  O136  1  0.14476076  0.59700605  0.75121419  1
  O  O137  1  0.13587257  0.84533482  0.00631803  1
  O  O138  1  0.11018738  0.88600697  0.25308316  1
  O  O139  1  0.15409489  0.86520357  0.51140305  1
  O  O140  1  0.11863405  0.86874247  0.75345284  1
  O  O141  1  0.37094326  0.09626080  0.00245580  1
  O  O142  1  0.38916574  0.14675529  0.24460243  1
  O  O143  1  0.38777672  0.11139869  0.50265550  1
  O  O144  1  0.39224988  0.14294935  0.75932458  1
  O  O145  1  0.39134619  0.39432603  0.00567519  1
  O  O146  1  0.38881390  0.36739160  0.24596666  1
  O  O147  1  0.36901307  0.40745369  0.48302364  1
  O  O148  1  0.34952857  0.35021258  0.75783888  1
  O  O149  1  0.39061691  0.59425830  -0.00077190  1
  O  O150  1  0.35231270  0.65624357  0.25473286  1
  O  O151  1  0.40086000  0.60352182  0.50051998  1
  O  O152  1  0.36471169  0.64122194  0.75496344  1
  O  O153  1  0.37264240  0.88297327  -0.00135382  1
  O  O154  1  0.36383681  0.83482986  0.25016201  1
  O  O155  1  0.39134820  0.88474315  0.50025618  1
  O  O156  1  0.38903770  0.84644166  0.76015358  1
  O  O157  1  0.62654631  0.10171168  -0.00241792  1
  O  O158  1  0.64625880  0.13622787  0.24740234  1
  O  O159  1  0.61000491  0.13069624  0.50295142  1
  O  O160  1  0.61033410  0.15064542  0.74961447  1
  O  O161  1  0.62219712  0.39607630  0.00264020  1
  O  O162  1  0.64185297  0.36038931  0.25248948  1
  O  O163  1  0.63967294  0.40035219  0.50164230  1
  O  O164  1  0.62176443  0.34506279  0.75693584  1
  O  O165  1  0.62369002  0.59917483  0.00282990  1
  O  O166  1  0.65657623  0.62876354  0.25725426  1
  O  O167  1  0.61038743  0.60363717  0.49829159  1
  O  O168  1  0.63976914  0.62143154  0.74723137  1
  O  O169  1  0.61300137  0.86201902  0.00272261  1
  O  O170  1  0.64383220  0.86198292  0.25060582  1
  O  O171  1  0.60954948  0.86873756  0.49653830  1
  O  O172  1  0.61226797  0.85808093  0.75619300  1
  O  O173  1  0.90588775  0.13676258  0.00518497  1
  O  O174  1  0.86988856  0.10396840  0.24436004  1
  O  O175  1  0.88036900  0.09309410  0.51092324  1
  O  O176  1  0.86869439  0.13795618  0.75854931  1
  O  O177  1  0.89953422  0.37742201  0.00307022  1
  O  O178  1  0.88183833  0.36713219  0.26111321  1
  O  O179  1  0.87137653  0.39117966  0.50585137  1
  O  O180  1  0.87275526  0.34432693  0.74553124  1
  O  O181  1  0.87295516  0.59497539  -0.00471041  1
  O  O182  1  0.84263404  0.61548915  0.25914269  1
  O  O183  1  0.91323462  0.61165076  0.49487182  1
  O  O184  1  0.84206157  0.63651285  0.74363939  1
  O  O185  1  0.86611235  0.83885848  0.00270478  1
  O  O186  1  0.86482020  0.89899986  0.24909292  1
  O  O187  1  0.87242371  0.89918646  0.50342251  1
  O  O188  1  0.87601941  0.84809615  0.75190857  1
  O  O189  1  0.00617265  0.13611629  0.14454399  1
  O  O190  1  0.00934554  0.14167879  0.37694636  1
  O  O191  1  -0.00066788  0.13860792  0.63770240  1
  O  O192  1  -0.01051428  0.09383501  0.86543454  1
  O  O193  1  -0.01345222  0.33119571  0.13271174  1
  O  O194  1  -0.00592520  0.35954701  0.39492756  1
  O  O195  1  -0.00293438  0.35698996  0.63086425  1
  O  O196  1  0.00754022  0.39056859  0.83972023  1
  O  O197  1  0.01022820  0.64374446  0.13233713  1
  O  O198  1  0.01371124  0.66241765  0.36578514  1
  O  O199  1  0.00615657  0.65031675  0.65064701  1
  O  O200  1  0.00551734  0.59998221  0.86573800  1
  O  O201  1  0.00652827  0.84843385  0.11730697  1
  O  O202  1  0.01333588  0.85835829  0.40005567  1
  O  O203  1  0.01005206  0.84558716  0.62491815  1
  O  O204  1  -0.00548699  0.87892603  0.89773886  1
  O  O205  1  0.25612464  0.12643408  0.13595847  1
  O  O206  1  0.24683537  0.09809833  0.37708227  1
  O  O207  1  0.24570236  0.09927289  0.65797042  1
  O  O208  1  0.24940964  0.11774821  0.86887730  1
  O  O209  1  0.25496742  0.37880451  0.11106264  1
  O  O210  1  0.24544902  0.38001832  0.34224053  1
  O  O211  1  0.25305532  0.40534888  0.62641666  1
  O  O212  1  0.24920900  0.37720525  0.90627774  1
  O  O213  1  0.25868730  0.64023257  0.11123459  1
  O  O214  1  0.25340369  0.61361448  0.39909424  1
  O  O215  1  0.25980166  0.58927503  0.61032195  1
  O  O216  1  0.25483701  0.62511859  0.89225483  1
  O  O217  1  0.25236157  0.85574457  0.12254245  1
  O  O218  1  0.25428526  0.90112891  0.37590640  1
  O  O219  1  0.25009856  0.88441294  0.65767363  1
  O  O220  1  0.25756685  0.86514319  0.87466619  1
  O  O221  1  0.49760652  0.12375113  0.10800273  1
  O  O222  1  0.50819142  0.15009136  0.36710040  1
  O  O223  1  0.50077432  0.14938820  0.63331540  1
  O  O224  1  0.49485045  0.13053304  0.89923168  1
  O  O225  1  0.50868007  0.37127621  0.13388955  1
  O  O226  1  0.51516534  0.36672651  0.37712237  1
  O  O227  1  0.50697381  0.34371906  0.61816806  1
  O  O228  1  0.49250090  0.35992222  0.87966862  1
  O  O229  1  0.49962718  0.61129925  0.15048928  1
  O  O230  1  0.50308982  0.64501828  0.35911834  1
  O  O231  1  0.50432581  0.63425174  0.64771916  1
  O  O232  1  0.50095079  0.60977027  0.86537911  1
  O  O233  1  0.49807773  0.86204636  0.12676612  1
  O  O234  1  0.49874555  0.84120057  0.36507838  1
  O  O235  1  0.50028593  0.83389553  0.62931504  1
  O  O236  1  0.50080443  0.88234604  0.88980786  1
  O  O237  1  0.75593579  0.10602072  0.08120539  1
  O  O238  1  0.75366564  0.09932700  0.40013695  1
  O  O239  1  0.74788470  0.10263714  0.62601782  1
  O  O240  1  0.75686796  0.14729986  0.90148070  1
  O  O241  1  0.75652091  0.40021179  0.12446806  1
  O  O242  1  0.75573428  0.41140755  0.38368303  1
  O  O243  1  0.74766457  0.38221469  0.64626352  1
  O  O244  1  0.75032233  0.36468567  0.86685333  1
  O  O245  1  0.74612807  0.59563912  0.11844833  1
  O  O246  1  0.75787146  0.59452521  0.40638933  1
  O  O247  1  0.74219645  0.57555789  0.59960306  1
  O  O248  1  0.74892264  0.61477664  0.88847131  1
  O  O249  1  0.73903995  0.86556979  0.11012391  1
  O  O250  1  0.74948017  0.90690259  0.38690627  1
  O  O251  1  0.74598127  0.89350383  0.62870264  1
  O  O252  1  0.74092924  0.85408291  0.88564068  1
  O  O253  1  0.12664276  -0.00649677  0.10384819  1
  O  O254  1  0.11573242  -0.00388380  0.40460360  1
  O  O255  1  0.10878130  -0.00338642  0.61827820  1
  O  O256  1  0.13181815  0.00322317  0.90580067  1
  O  O257  1  0.14211873  0.23982544  0.17889083  1
  O  O258  1  0.13931901  0.23300548  0.37319598  1
  O  O259  1  0.14707820  0.24615976  0.66449004  1
  O  O260  1  0.10723180  0.25775197  0.86350836  1
  O  O261  1  0.13957197  0.51649531  0.09656175  1
  O  O262  1  0.11176535  0.52035210  0.40579412  1
  O  O263  1  0.11251842  0.50745789  0.59658384  1
  O  O264  1  0.13454061  0.50257908  0.91294466  1
  O  O265  1  0.13969921  0.74898755  0.16110907  1
  O  O266  1  0.15882520  0.75503359  0.37116093  1
  O  O267  1  0.16075835  0.73794568  0.64125985  1
  O  O268  1  0.12286874  0.74042205  0.85237153  1
  O  O269  1  0.36916295  0.01043042  0.17252200  1
  O  O270  1  0.40335567  -0.01694549  0.36265219  1
  O  O271  1  0.41221166  -0.00010357  0.63244431  1
  O  O272  1  0.37593412  0.00174047  0.84977472  1
  O  O273  1  0.36265743  0.25128431  0.10412928  1
  O  O274  1  0.38093298  0.26750319  0.38077790  1
  O  O275  1  0.33592314  0.25264554  0.60029557  1
  O  O276  1  0.37211906  0.24825268  0.90254670  1
  O  O277  1  0.37573881  0.49911806  0.14646758  1
  O  O278  1  0.39662170  0.50711895  0.35466813  1
  O  O279  1  0.39795091  0.50001028  0.64866749  1
  O  O280  1  0.38211489  0.48923895  0.86428134  1
  O  O281  1  0.39365879  0.73711214  0.10735471  1
  O  O282  1  0.36137088  0.74938008  0.40557523  1
  O  O283  1  0.36360844  0.73783740  0.59909485  1
  O  O284  1  0.39315437  0.74333625  0.90406422  1
  O  O285  1  0.61262436  -0.00893077  0.13997796  1
  O  O286  1  0.60431322  -0.01206152  0.35605988  1
  O  O287  1  0.60553979  0.01018763  0.64405181  1
  O  O288  1  0.64889543  -0.00404533  0.86862730  1
  O  O289  1  0.65700041  0.25523525  0.11125448  1
  O  O290  1  0.66049359  0.25931877  0.38352361  1
  O  O291  1  0.64999357  0.25042017  0.61820455  1
  O  O292  1  0.62209652  0.25489142  0.91627742  1
  O  O293  1  0.61862875  0.49544448  0.15292864  1
  O  O294  1  0.61396730  0.50274968  0.36438321  1
  O  O295  1  0.60376537  0.48977920  0.63988363  1
  O  O296  1  0.61583450  0.48948012  0.86404887  1
  O  O297  1  0.61427404  0.73453531  0.12465071  1
  O  O298  1  0.65086875  0.74538355  0.38472094  1
  O  O299  1  0.65935315  0.73480458  0.61183027  1
  O  O300  1  0.61648162  0.73807259  0.88057798  1
  O  O301  1  0.89664104  -0.00044236  0.11198675  1
  O  O302  1  0.90971400  -0.00221753  0.37698664  1
  O  O303  1  0.89164976  0.00578678  0.66714073  1
  O  O304  1  0.85310505  0.00466263  0.90975743  1
  O  O305  1  0.85384480  0.23935617  0.14356825  1
  O  O306  1  0.84829090  0.25175590  0.38790964  1
  O  O307  1  0.85229488  0.24356002  0.61344281  1
  O  O308  1  0.91265225  0.25169907  0.88139562  1
  O  O309  1  0.91359317  0.48763914  0.14684306  1
  O  O310  1  0.91698349  0.50188497  0.36230132  1
  O  O311  1  0.88481632  0.49190587  0.65307507  1
  O  O312  1  0.87595919  0.50122855  0.83484295  1
  O  O313  1  0.87161631  0.74318108  0.15717295  1
  O  O314  1  0.85251306  0.74081950  0.37485066  1
  O  O315  1  0.84063096  0.74701065  0.61020240  1
  O  O316  1  0.89776453  0.73206247  0.87686134  1
