# generated using pymatgen
data_Mg32Ti42(Bi17O64)3
_symmetry_space_group_name_H-M   'P 1'
_cell_length_a   16.00658379
_cell_length_b   15.97895300
_cell_length_c   15.92160460
_cell_angle_alpha   89.99159182
_cell_angle_beta   90.00816763
_cell_angle_gamma   90.05284293
_symmetry_Int_Tables_number   1
_chemical_formula_structural   Mg32Ti42(Bi17O64)3
_chemical_formula_sum   'Mg32 Ti42 Bi51 O192'
_cell_volume   4072.24231453
_cell_formula_units_Z   1
loop_
 _symmetry_equiv_pos_site_id
 _symmetry_equiv_pos_as_xyz
  1  'x, y, z'
loop_
 _atom_site_type_symbol
 _atom_site_label
 _atom_site_symmetry_multiplicity
 _atom_site_fract_x
 _atom_site_fract_y
 _atom_site_fract_z
 _atom_site_occupancy
  Mg  Mg0  1  0.12975523  0.61828042  0.86940028  1
  Mg  Mg1  1  0.11800812  0.36505464  0.89012041  1
  Mg  Mg2  1  0.12388257  0.64158311  0.37088464  1
  Mg  Mg3  1  0.62639317  0.86406429  0.87385400  1
  Mg  Mg4  1  0.86893886  0.87300058  0.63395526  1
  Mg  Mg5  1  0.37662333  0.62356276  0.11951479  1
  Mg  Mg6  1  0.13515067  0.62712939  0.12319481  1
  Mg  Mg7  1  0.87772753  0.87418757  0.36998524  1
  Mg  Mg8  1  0.62841651  0.13351802  0.88406194  1
  Mg  Mg9  1  0.87621512  0.62693491  0.12536935  1
  Mg  Mg10  1  0.87745167  0.86894788  0.12235960  1
  Mg  Mg11  1  0.37939227  0.87599488  0.87082226  1
  Mg  Mg12  1  0.63193703  0.64082662  0.37390009  1
  Mg  Mg13  1  0.63354444  0.13027997  0.61992106  1
  Mg  Mg14  1  0.62473280  0.63885199  0.12312879  1
  Mg  Mg15  1  0.87506360  0.62132845  0.62591936  1
  Mg  Mg16  1  0.88899816  0.37138573  0.12003550  1
  Mg  Mg17  1  0.38248563  0.87857174  0.13404783  1
  Mg  Mg18  1  0.87063923  0.63513471  0.37025545  1
  Mg  Mg19  1  0.04540653  0.24302332  0.03670698  1
  Mg  Mg20  1  0.24525400  0.45601172  0.78802081  1
  Mg  Mg21  1  0.81026579  0.25614537  0.51804285  1
  Mg  Mg22  1  0.40569375  0.75749853  0.00777375  1
  Mg  Mg23  1  0.74901078  -0.05992051  -0.01137284  1
  Mg  Mg24  1  0.01159201  0.72313913  0.20377995  1
  Mg  Mg25  1  0.19633621  0.75854876  -0.04632909  1
  Mg  Mg26  1  0.77387882  0.74779825  0.22516998  1
  Mg  Mg27  1  0.78752171  0.72235420  0.75744797  1
  Mg  Mg28  1  0.00060623  0.53969623  0.03249844  1
  Mg  Mg29  1  0.44326625  0.70312387  0.32232689  1
  Mg  Mg30  1  0.24515140  0.24626040  0.51039994  1
  Mg  Mg31  1  0.04847586  0.19420225  0.52425564  1
  Ti  Ti32  1  0.89311286  0.12528576  0.38020541  1
  Ti  Ti33  1  0.37121924  0.13047279  0.37259430  1
  Ti  Ti34  1  0.87043354  0.11524501  0.62339606  1
  Ti  Ti35  1  0.12698823  0.63452556  0.62486046  1
  Ti  Ti36  1  0.38673753  0.38669389  0.62317336  1
  Ti  Ti37  1  0.13231642  0.37243253  0.37766551  1
  Ti  Ti38  1  0.35946942  0.62983083  0.63171237  1
  Ti  Ti39  1  0.62919103  0.88156121  0.62925927  1
  Ti  Ti40  1  0.62358950  0.37359764  0.61782554  1
  Ti  Ti41  1  0.88388654  0.12739917  0.11754666  1
  Ti  Ti42  1  0.36155825  0.63139759  0.88089377  1
  Ti  Ti43  1  0.37910896  0.88636986  0.37247482  1
  Ti  Ti44  1  0.86394933  0.87363947  0.87614916  1
  Ti  Ti45  1  0.11766949  0.87650007  0.37307585  1
  Ti  Ti46  1  0.88314563  0.37785764  0.87021565  1
  Ti  Ti47  1  0.63472038  0.37229170  0.86371512  1
  Ti  Ti48  1  0.88289945  0.61271045  0.87443593  1
  Ti  Ti49  1  0.62677091  0.63825837  0.87060965  1
  Ti  Ti50  1  0.63066201  0.87559200  0.37414814  1
  Ti  Ti51  1  0.12064343  0.86792465  0.13108269  1
  Ti  Ti52  1  0.37849320  0.37054816  0.12479641  1
  Ti  Ti53  1  0.37759779  0.36144998  0.87167364  1
  Ti  Ti54  1  0.63549080  0.12572391  0.37186375  1
  Ti  Ti55  1  0.63862070  0.12903499  0.12824799  1
  Ti  Ti56  1  0.12329294  0.39744579  0.12807684  1
  Ti  Ti57  1  0.37831460  0.12162070  0.88643271  1
  Ti  Ti58  1  0.14056977  0.37539356  0.61285337  1
  Ti  Ti59  1  0.37660127  0.87632640  0.62519198  1
  Ti  Ti60  1  0.62266372  0.63928447  0.62293450  1
  Ti  Ti61  1  0.12016067  0.13489662  0.88057606  1
  Ti  Ti62  1  0.63854433  0.38268506  0.37414892  1
  Ti  Ti63  1  0.12945138  0.10639726  0.12603251  1
  Ti  Ti64  1  0.88345413  0.37705214  0.38109183  1
  Ti  Ti65  1  0.37438284  0.36534918  0.38659336  1
  Ti  Ti66  1  0.88005748  0.38686613  0.62480144  1
  Ti  Ti67  1  0.13447365  0.87197795  0.61456014  1
  Ti  Ti68  1  0.63061939  0.86661870  0.12593643  1
  Ti  Ti69  1  0.12834475  0.13101303  0.36557042  1
  Ti  Ti70  1  0.87689698  0.12762353  0.88071217  1
  Ti  Ti71  1  0.37276164  0.11223826  0.61652814  1
  Ti  Ti72  1  0.38344124  0.12493913  0.12795056  1
  Ti  Ti73  1  0.64353993  0.37054817  0.12970145  1
  Bi  Bi74  1  0.51081490  0.22182085  0.73469986  1
  Bi  Bi75  1  0.77129883  -0.01453445  0.50722861  1
  Bi  Bi76  1  0.22354891  0.78011343  0.77050662  1
  Bi  Bi77  1  0.02735075  0.48593128  0.75389670  1
  Bi  Bi78  1  0.73294331  0.51762424  0.73471971  1
  Bi  Bi79  1  0.25282923  0.02978815  0.76742251  1
  Bi  Bi80  1  0.77806661  0.49596693  0.02375121  1
  Bi  Bi81  1  0.48945045  0.51287902  0.76523268  1
  Bi  Bi82  1  0.73174718  0.53202297  0.25523171  1
  Bi  Bi83  1  0.00662273  -0.01927434  0.51930480  1
  Bi  Bi84  1  0.24857975  0.25085419  0.01050513  1
  Bi  Bi85  1  0.24302817  0.53087252  0.47696552  1
  Bi  Bi86  1  0.78682837  0.24780959  0.26186465  1
  Bi  Bi87  1  0.25281303  -0.04833215  -0.00910604  1
  Bi  Bi88  1  0.25968215  0.76470897  0.47126543  1
  Bi  Bi89  1  0.77262310  0.25509413  0.72459135  1
  Bi  Bi90  1  0.77217471  -0.01933928  0.23699665  1
  Bi  Bi91  1  0.73881834  0.02456102  0.77677340  1
  Bi  Bi92  1  0.01227106  0.50453950  0.49950875  1
  Bi  Bi93  1  0.50633909  0.51989260  0.21709002  1
  Bi  Bi94  1  0.03367210  -0.01578597  0.75448846  1
  Bi  Bi95  1  0.26148218  0.26894931  0.24916099  1
  Bi  Bi96  1  0.25845494  -0.00624674  0.23976309  1
  Bi  Bi97  1  0.52360898  0.01019588  0.50904156  1
  Bi  Bi98  1  0.53292454  0.51707974  -0.00469570  1
  Bi  Bi99  1  0.51988659  0.26102608  0.24722999  1
  Bi  Bi100  1  -0.01430580  0.76462791  0.76629817  1
  Bi  Bi101  1  0.01662069  0.73272469  -0.01254150  1
  Bi  Bi102  1  0.47531949  0.75663767  0.75515316  1
  Bi  Bi103  1  0.01124447  0.27596568  0.24928620  1
  Bi  Bi104  1  0.27888119  0.24871157  0.72584440  1
  Bi  Bi105  1  0.77103531  0.74241713  0.50379613  1
  Bi  Bi106  1  0.52175107  -0.00125810  0.24589505  1
  Bi  Bi107  1  0.52298849  0.25082348  0.47927591  1
  Bi  Bi108  1  0.22899905  0.02301651  0.49019605  1
  Bi  Bi109  1  -0.01173445  0.73847015  0.50024483  1
  Bi  Bi110  1  0.50781961  -0.03435565  0.01361464  1
  Bi  Bi111  1  0.50678456  0.77119984  0.49495534  1
  Bi  Bi112  1  0.52895745  -0.00055705  0.77577004  1
  Bi  Bi113  1  0.03176755  -0.01401845  -0.02639665  1
  Bi  Bi114  1  0.24903683  0.47580206  -0.02177574  1
  Bi  Bi115  1  0.28946381  0.52359704  0.26175565  1
  Bi  Bi116  1  0.52495568  0.25318789  -0.00066726  1
  Bi  Bi117  1  0.74360014  0.50969713  0.50182466  1
  Bi  Bi118  1  0.26363589  0.74726981  0.22418665  1
  Bi  Bi119  1  0.77783694  0.25472811  -0.01167480  1
  Bi  Bi120  1  0.75598439  0.73370583  0.00675551  1
  Bi  Bi121  1  0.47190785  0.53849474  0.48580227  1
  Bi  Bi122  1  -0.00302373  0.53620623  0.27571695  1
  Bi  Bi123  1  0.00661351  0.22169094  0.71944797  1
  Bi  Bi124  1  0.00124034  -0.02121023  0.24366725  1
  O  O125  1  0.11667579  0.09580481  0.00075340  1
  O  O126  1  0.10946144  0.09801107  0.24706535  1
  O  O127  1  0.15726110  0.15491630  0.48233648  1
  O  O128  1  0.10870227  0.13803833  0.76118624  1
  O  O129  1  0.15394401  0.36746377  0.01349653  1
  O  O130  1  0.09699223  0.38592993  0.24820109  1
  O  O131  1  0.15176757  0.34108938  0.48842223  1
  O  O132  1  0.13719987  0.40556592  0.73382010  1
  O  O133  1  0.13730837  0.65988218  -0.00356353  1
  O  O134  1  0.09023829  0.62992326  0.24971203  1
  O  O135  1  0.15802984  0.63775361  0.50201608  1
  O  O136  1  0.10990917  0.59831818  0.73644433  1
  O  O137  1  0.12579571  0.86042814  0.01026716  1
  O  O138  1  0.14399054  0.90544161  0.25739880  1
  O  O139  1  0.08436994  0.86255599  0.49919258  1
  O  O140  1  0.14067358  0.89359474  0.73302818  1
  O  O141  1  0.36489879  0.12917508  -0.00012249  1
  O  O142  1  0.36458975  0.13371538  0.24890321  1
  O  O143  1  0.37486321  0.11704812  0.50060952  1
  O  O144  1  0.35751365  0.12195561  0.75177707  1
  O  O145  1  0.35447428  0.36451007  0.00184174  1
  O  O146  1  0.38074009  0.34313886  0.25091486  1
  O  O147  1  0.37272057  0.36413459  0.50648223  1
  O  O148  1  0.35484720  0.38516000  0.75455874  1
  O  O149  1  0.36432298  0.63809485  -0.00529927  1
  O  O150  1  0.40184097  0.61063968  0.25058981  1
  O  O151  1  0.36041216  0.61774591  0.50915031  1
  O  O152  1  0.40268709  0.63003866  0.75105269  1
  O  O153  1  0.37862347  0.88301594  0.00210266  1
  O  O154  1  0.35667983  0.88895243  0.25656166  1
  O  O155  1  0.38945793  0.86010140  0.50151195  1
  O  O156  1  0.36095326  0.85441650  0.74497220  1
  O  O157  1  0.62535289  0.15426218  0.01107214  1
  O  O158  1  0.60133119  0.11602386  0.25375372  1
  O  O159  1  0.60640015  0.12973813  0.49339575  1
  O  O160  1  0.61990332  0.12082944  0.74984247  1
  O  O161  1  0.63015213  0.34307492  0.01185033  1
  O  O162  1  0.60972970  0.38137512  0.25533552  1
  O  O163  1  0.61604277  0.36658569  0.49876136  1
  O  O164  1  0.63012068  0.39269770  0.74867379  1
  O  O165  1  0.63088017  0.62968115  -0.00882336  1
  O  O166  1  0.61099718  0.60513017  0.24856122  1
  O  O167  1  0.66210241  0.62718080  0.50971171  1
  O  O168  1  0.60700824  0.59512648  0.74826476  1
  O  O169  1  0.62829456  0.88410651  0.00523959  1
  O  O170  1  0.62756907  0.89932360  0.25189983  1
  O  O171  1  0.59199372  0.88491103  0.49718726  1
  O  O172  1  0.63477706  0.89539167  0.74270751  1
  O  O173  1  0.86009791  0.11793226  0.00106535  1
  O  O174  1  0.88874218  0.15593262  0.25781825  1
  O  O175  1  0.86423084  0.11410131  0.49988169  1
  O  O176  1  0.87964379  0.13891170  0.74715743  1
  O  O177  1  0.85714793  0.37065822  -0.00912622  1
  O  O178  1  0.88649637  0.34815494  0.25421849  1
  O  O179  1  0.86943995  0.37858211  0.50321825  1
  O  O180  1  0.86518881  0.36672517  0.74918185  1
  O  O181  1  0.84168216  0.62435061  -0.01034516  1
  O  O182  1  0.91531895  0.64303811  0.24739813  1
  O  O183  1  0.83481654  0.61523935  0.49783350  1
  O  O184  1  0.89427544  0.63887106  0.75589819  1
  O  O185  1  0.87703857  0.88766078  -0.00591828  1
  O  O186  1  0.83554304  0.85816919  0.24998730  1
  O  O187  1  0.88191088  0.90672326  0.49861706  1
  O  O188  1  0.85131909  0.83041987  0.75303700  1
  O  O189  1  -0.00444037  0.14872822  0.10962673  1
  O  O190  1  0.00592846  0.14531396  0.40715087  1
  O  O191  1  -0.00764492  0.12673203  0.61652459  1
  O  O192  1  -0.00999315  0.09273984  0.88109474  1
  O  O193  1  0.01368277  0.33902514  0.11231275  1
  O  O194  1  -0.00114073  0.35684578  0.37940760  1
  O  O195  1  -0.00868849  0.41568089  0.63315755  1
  O  O196  1  -0.00359540  0.38961213  0.86486058  1
  O  O197  1  -0.00190751  0.65010951  0.09643521  1
  O  O198  1  -0.00019277  0.61443395  0.40182734  1
  O  O199  1  0.00454007  0.61353229  0.58896809  1
  O  O200  1  -0.00608322  0.60015772  0.91608358  1
  O  O201  1  0.00200226  0.84888030  0.16066724  1
  O  O202  1  0.00556960  0.87220816  0.34889010  1
  O  O203  1  -0.00269032  0.89788367  0.64132750  1
  O  O204  1  -0.01414902  0.88897062  0.84243986  1
  O  O205  1  0.24199771  0.08276389  0.12544812  1
  O  O206  1  0.24331667  0.09555324  0.35984299  1
  O  O207  1  0.26435678  0.16760014  0.61628177  1
  O  O208  1  0.23815346  0.13608257  0.86799644  1
  O  O209  1  0.24025303  0.38182788  0.15565835  1
  O  O210  1  0.24497534  0.38096231  0.34742110  1
  O  O211  1  0.25041911  0.34490980  0.62126522  1
  O  O212  1  0.25028957  0.36399183  0.87876095  1
  O  O213  1  0.25438917  0.61996482  0.16394237  1
  O  O214  1  0.24403353  0.60483652  0.36004532  1
  O  O215  1  0.24898151  0.64241207  0.64759097  1
  O  O216  1  0.25353252  0.66825968  0.86258042  1
  O  O217  1  0.24512953  0.89839850  0.12486336  1
  O  O218  1  0.24973861  0.89633852  0.41089972  1
  O  O219  1  0.24690243  0.85173360  0.60217197  1
  O  O220  1  0.25486934  0.84742169  0.89095818  1
  O  O221  1  0.49043982  0.16308606  0.12538839  1
  O  O222  1  0.48193812  0.16084780  0.37216106  1
  O  O223  1  0.48927090  0.11692835  0.63639562  1
  O  O224  1  0.49128430  0.09858457  0.87853463  1
  O  O225  1  0.49166247  0.34485617  0.12108712  1
  O  O226  1  0.48933117  0.34763659  0.37887723  1
  O  O227  1  0.50074103  0.39929673  0.62839863  1
  O  O228  1  0.48682699  0.40153974  0.87597630  1
  O  O229  1  0.50302685  0.60895875  0.10935122  1
  O  O230  1  0.50870907  0.64291621  0.40691149  1
  O  O231  1  0.51021844  0.61093874  0.60361995  1
  O  O232  1  0.50199155  0.59386976  0.87931302  1
  O  O233  1  0.51031284  0.86967098  0.11839074  1
  O  O234  1  0.48911280  0.83810816  0.36413992  1
  O  O235  1  0.49176463  0.89270868  0.63741681  1
  O  O236  1  0.50282588  0.90126902  0.86882173  1
  O  O237  1  0.74743325  0.10886984  0.14281984  1
  O  O238  1  0.74448873  0.11299533  0.36320779  1
  O  O239  1  0.75675606  0.16058423  0.61597363  1
  O  O240  1  0.75442636  0.13624801  0.86068855  1
  O  O241  1  0.75415352  0.39462922  0.13296590  1
  O  O242  1  0.74950620  0.37366765  0.36624727  1
  O  O243  1  0.74297527  0.34323202  0.61664370  1
  O  O244  1  0.74565839  0.34580700  0.87023116  1
  O  O245  1  0.74995656  0.59470899  0.13385416  1
  O  O246  1  0.75519612  0.65112812  0.31695197  1
  O  O247  1  0.74372865  0.64454397  0.66560206  1
  O  O248  1  0.74546196  0.64736913  0.85101098  1
  O  O249  1  0.74357071  0.91612140  0.11412433  1
  O  O250  1  0.74093524  0.90300770  0.39268256  1
  O  O251  1  0.74100005  0.87163623  0.59581233  1
  O  O252  1  0.75070630  0.84777908  0.89580973  1
  O  O253  1  0.08437791  -0.01081575  0.11774196  1
  O  O254  1  0.11287468  0.00335945  0.40873596  1
  O  O255  1  0.13323265  -0.00998375  0.59359471  1
  O  O256  1  0.12736590  0.00056475  0.87017486  1
  O  O257  1  0.14812152  0.22466656  0.11075852  1
  O  O258  1  0.13062801  0.24591953  0.33742165  1
  O  O259  1  0.08450422  0.27126963  0.61762608  1
  O  O260  1  0.09300423  0.24155519  0.91706208  1
  O  O261  1  0.10108777  0.50484088  0.10072195  1
  O  O262  1  0.11558079  0.48906331  0.39826342  1
  O  O263  1  0.13140584  0.49291472  0.58094876  1
  O  O264  1  0.15487651  0.49594366  0.87868268  1
  O  O265  1  0.13744144  0.75544069  0.15223244  1
  O  O266  1  0.15031263  0.76434478  0.37444219  1
  O  O267  1  0.10550647  0.74766893  0.63404956  1
  O  O268  1  0.10500123  0.74546336  0.85124204  1
  O  O269  1  0.40350694  0.00974426  0.12871500  1
  O  O270  1  0.39419586  0.00344992  0.37607999  1
  O  O271  1  0.34670234  -0.00364989  0.63003068  1
  O  O272  1  0.34116566  0.00285936  0.87048745  1
  O  O273  1  0.33345752  0.24472255  0.11991608  1
  O  O274  1  0.32630903  0.24285695  0.39358194  1
  O  O275  1  0.39613003  0.26036788  0.65263069  1
  O  O276  1  0.39008208  0.24627780  0.86916330  1
  O  O277  1  0.38247753  0.48481522  0.12712188  1
  O  O278  1  0.37595364  0.48163360  0.38165978  1
  O  O279  1  0.36481798  0.50226899  0.62936963  1
  O  O280  1  0.33706595  0.51088502  0.86928889  1
  O  O281  1  0.36311161  0.75325293  0.12766662  1
  O  O282  1  0.34413042  0.76121467  0.36273691  1
  O  O283  1  0.39452940  0.74471991  0.62527510  1
  O  O284  1  0.40984870  0.74782964  0.87931774  1
  O  O285  1  0.59415124  0.01528259  0.12396736  1
  O  O286  1  0.59016393  0.00548170  0.38098252  1
  O  O287  1  0.62818952  0.00202370  0.60548459  1
  O  O288  1  0.64380903  0.00182349  0.87312105  1
  O  O289  1  0.63788433  0.24968862  0.15849708  1
  O  O290  1  0.62224475  0.24824115  0.37414278  1
  O  O291  1  0.59727173  0.25644301  0.63429676  1
  O  O292  1  0.59165333  0.25762173  0.87011442  1
  O  O293  1  0.61053988  0.48306080  0.11529895  1
  O  O294  1  0.63858565  0.50023212  0.38743202  1
  O  O295  1  0.65729319  0.49684839  0.61711558  1
  O  O296  1  0.63971129  0.48606857  0.90040663  1
  O  O297  1  0.66535655  0.75801659  0.14150730  1
  O  O298  1  0.63648968  0.76454271  0.39323383  1
  O  O299  1  0.60677815  0.75514062  0.62387540  1
  O  O300  1  0.59877210  0.74348724  0.85210531  1
  O  O301  1  0.88885398  0.00695712  0.15590356  1
  O  O302  1  0.89207750  0.01205006  0.35074894  1
  O  O303  1  0.84844682  0.00465877  0.63573027  1
  O  O304  1  0.84083320  -0.00820862  0.86642249  1
  O  O305  1  0.84783766  0.24432265  0.11745851  1
  O  O306  1  0.85093251  0.24735266  0.39462416  1
  O  O307  1  0.88618018  0.26063617  0.62427177  1
  O  O308  1  0.88439282  0.24465950  0.88868146  1
  O  O309  1  0.89799725  0.49935086  0.09514702  1
  O  O310  1  0.87652062  0.49259262  0.36216017  1
  O  O311  1  0.83638825  0.49757317  0.63206950  1
  O  O312  1  0.85692322  0.49695248  0.86938630  1
  O  O313  1  0.84037492  0.74804761  0.11502264  1
  O  O314  1  0.87674529  0.75474458  0.41237144  1
  O  O315  1  0.88300474  0.74856495  0.59456110  1
  O  O316  1  0.90545075  0.74342146  0.88283182  1
