# generated using pymatgen
data_Mg32Ti42(Bi17O64)3
_symmetry_space_group_name_H-M   'P 1'
_cell_length_a   15.92658485
_cell_length_b   15.94517119
_cell_length_c   15.92472249
_cell_angle_alpha   89.95771104
_cell_angle_beta   89.96591970
_cell_angle_gamma   89.97275797
_symmetry_Int_Tables_number   1
_chemical_formula_structural   Mg32Ti42(Bi17O64)3
_chemical_formula_sum   'Mg32 Ti42 Bi51 O192'
_cell_volume   4044.11479436
_cell_formula_units_Z   1
loop_
 _symmetry_equiv_pos_site_id
 _symmetry_equiv_pos_as_xyz
  1  'x, y, z'
loop_
 _atom_site_type_symbol
 _atom_site_label
 _atom_site_symmetry_multiplicity
 _atom_site_fract_x
 _atom_site_fract_y
 _atom_site_fract_z
 _atom_site_occupancy
  Mg  Mg0  1  0.63273543  0.86864716  0.36506267  1
  Mg  Mg1  1  0.88510406  0.62746102  0.12946995  1
  Mg  Mg2  1  0.61428993  0.62124767  0.12743283  1
  Mg  Mg3  1  0.37605420  0.11904442  0.87546336  1
  Mg  Mg4  1  0.11446605  0.38436362  0.62033907  1
  Mg  Mg5  1  0.63484783  0.12511173  0.37862780  1
  Mg  Mg6  1  0.37071105  0.87196602  0.62155028  1
  Mg  Mg7  1  0.62411627  0.86001120  0.62706693  1
  Mg  Mg8  1  0.86408086  0.86836802  0.12694885  1
  Mg  Mg9  1  0.11951765  0.12718166  0.12206393  1
  Mg  Mg10  1  0.87903981  0.12490155  0.37236888  1
  Mg  Mg11  1  0.62717590  0.87588086  0.88312417  1
  Mg  Mg12  1  0.38044554  0.37401292  0.62473143  1
  Mg  Mg13  1  0.11912236  0.37617275  0.37787341  1
  Mg  Mg14  1  0.62241771  0.62319199  0.37160998  1
  Mg  Mg15  1  0.87355209  0.11062420  0.63544868  1
  Mg  Mg16  1  0.36132415  0.87416239  0.11723612  1
  Mg  Mg17  1  0.36744651  0.12581010  0.12834133  1
  Mg  Mg18  1  0.36822507  0.62482995  0.87671435  1
  Mg  Mg19  1  0.70045543  0.53181156  0.00348308  1
  Mg  Mg20  1  0.45029962  0.52295939  0.25855517  1
  Mg  Mg21  1  0.06451801  0.05327844  0.72894911  1
  Mg  Mg22  1  0.76801188  0.22557266  0.16956764  1
  Mg  Mg23  1  0.26323561  0.72748251  0.01085149  1
  Mg  Mg24  1  0.00531284  0.77982720  0.21092931  1
  Mg  Mg25  1  0.23213784  0.74347091  0.81704370  1
  Mg  Mg26  1  0.74617244  0.70109300  0.20089054  1
  Mg  Mg27  1  -0.03962177  0.48111868  0.49408252  1
  Mg  Mg28  1  0.24196217  0.02657090  0.02125981  1
  Mg  Mg29  1  0.68050380  0.04776713  0.02684726  1
  Mg  Mg30  1  0.72607304  0.47425179  0.72819352  1
  Mg  Mg31  1  0.24363040  0.23228262  0.19380068  1
  Ti  Ti32  1  0.12063431  0.36503475  0.12348644  1
  Ti  Ti33  1  0.36617560  0.62513429  0.38227655  1
  Ti  Ti34  1  0.86983032  0.38752093  0.12687861  1
  Ti  Ti35  1  0.62196046  0.11581171  0.87064217  1
  Ti  Ti36  1  0.63904246  0.86874765  0.12548751  1
  Ti  Ti37  1  0.12166489  0.88749241  0.87874819  1
  Ti  Ti38  1  0.12576470  0.62908716  0.38487831  1
  Ti  Ti39  1  0.13349705  0.87397642  0.10310226  1
  Ti  Ti40  1  0.86511074  0.38424074  0.87178793  1
  Ti  Ti41  1  0.86882110  0.62260782  0.63045547  1
  Ti  Ti42  1  0.36444056  0.12541472  0.36714579  1
  Ti  Ti43  1  0.87386226  0.61950499  0.87374702  1
  Ti  Ti44  1  0.62570275  0.38232572  0.86698723  1
  Ti  Ti45  1  0.86748935  0.37205184  0.36869421  1
  Ti  Ti46  1  0.12409311  0.36335264  0.88603935  1
  Ti  Ti47  1  0.38018135  0.36457922  0.13544111  1
  Ti  Ti48  1  0.37009408  0.62917338  0.13196455  1
  Ti  Ti49  1  0.12821452  0.13511047  0.36409702  1
  Ti  Ti50  1  0.12646343  0.86915218  0.63898939  1
  Ti  Ti51  1  0.61634661  0.62122765  0.87237814  1
  Ti  Ti52  1  0.62526509  0.37187352  0.36768278  1
  Ti  Ti53  1  0.62369292  0.37353381  0.11553535  1
  Ti  Ti54  1  0.11570774  0.87029620  0.36872139  1
  Ti  Ti55  1  0.62203999  0.12670233  0.61986840  1
  Ti  Ti56  1  0.86675365  0.87825423  0.87832601  1
  Ti  Ti57  1  0.12404841  0.62144942  0.88480672  1
  Ti  Ti58  1  0.87147603  0.10890560  0.86601779  1
  Ti  Ti59  1  0.87661235  0.86966608  0.63739717  1
  Ti  Ti60  1  0.62203056  0.37249372  0.61216631  1
  Ti  Ti61  1  0.36952758  0.37226427  0.36650211  1
  Ti  Ti62  1  0.88008651  0.86516177  0.36326890  1
  Ti  Ti63  1  0.36051596  0.86943688  0.88043133  1
  Ti  Ti64  1  0.37102408  0.89260161  0.37371663  1
  Ti  Ti65  1  0.38392262  0.12758736  0.61575158  1
  Ti  Ti66  1  0.36880282  0.62770535  0.62685213  1
  Ti  Ti67  1  0.13048368  0.63732186  0.13223652  1
  Ti  Ti68  1  0.12052965  0.11888424  0.88700105  1
  Ti  Ti69  1  0.37077559  0.37382682  0.88409881  1
  Ti  Ti70  1  0.61697854  0.61611568  0.62464693  1
  Ti  Ti71  1  0.87165698  0.38279775  0.62116154  1
  Ti  Ti72  1  0.13173217  0.63328955  0.64688862  1
  Ti  Ti73  1  0.87366284  0.62541810  0.36286272  1
  Bi  Bi74  1  0.23653373  0.22518030  0.71495481  1
  Bi  Bi75  1  0.73088131  -0.02591930  0.73850912  1
  Bi  Bi76  1  0.73577084  0.24137728  0.73496145  1
  Bi  Bi77  1  -0.02231509  0.48640639  0.00475975  1
  Bi  Bi78  1  0.53355241  0.00697275  0.23440263  1
  Bi  Bi79  1  0.77605331  0.03469459  0.20672992  1
  Bi  Bi80  1  0.23711899  0.00630031  0.24290218  1
  Bi  Bi81  1  -0.00084082  0.76071386  0.78439939  1
  Bi  Bi82  1  0.27017023  0.00557698  0.75458481  1
  Bi  Bi83  1  0.26453833  0.77203202  0.25235345  1
  Bi  Bi84  1  0.50069727  0.24362692  -0.00854075  1
  Bi  Bi85  1  0.47462118  0.50961754  0.75868071  1
  Bi  Bi86  1  0.23599999  0.78103782  0.50436924  1
  Bi  Bi87  1  0.72015496  0.49338180  0.24670255  1
  Bi  Bi88  1  0.24842192  0.48707778  0.52878872  1
  Bi  Bi89  1  0.22975763  0.47302901  0.24949120  1
  Bi  Bi90  1  0.47358889  0.75925355  0.75744217  1
  Bi  Bi91  1  0.00213190  0.49328247  0.28126160  1
  Bi  Bi92  1  -0.03624491  0.22676884  0.23461599  1
  Bi  Bi93  1  0.47967541  0.00698040  0.02790265  1
  Bi  Bi94  1  0.76828396  0.72204829  0.00441674  1
  Bi  Bi95  1  0.00746347  0.73329308  0.00420291  1
  Bi  Bi96  1  -0.03251366  -0.00360708  0.02196195  1
  Bi  Bi97  1  0.21187170  0.02647077  0.52419942  1
  Bi  Bi98  1  -0.01556530  -0.03083271  0.51675891  1
  Bi  Bi99  1  -0.02879806  0.23886448  0.00066680  1
  Bi  Bi100  1  -0.01077599  0.49571180  0.73474000  1
  Bi  Bi101  1  0.49202402  -0.01751493  0.72929398  1
  Bi  Bi102  1  0.00687503  0.00663414  0.24195109  1
  Bi  Bi103  1  0.47536099  0.48621235  0.49502412  1
  Bi  Bi104  1  0.49142425  0.76865667  0.47887663  1
  Bi  Bi105  1  0.47313030  0.26014006  0.75953276  1
  Bi  Bi106  1  0.48333591  0.52164976  0.01473805  1
  Bi  Bi107  1  0.76125664  -0.00741949  0.46475002  1
  Bi  Bi108  1  0.53903246  -0.02056575  0.49804759  1
  Bi  Bi109  1  0.73660056  0.23906706  -0.02102102  1
  Bi  Bi110  1  -0.01757662  0.23845634  0.74390761  1
  Bi  Bi111  1  0.22755104  0.26285140  0.49817585  1
  Bi  Bi112  1  0.76925874  0.75674952  0.49141934  1
  Bi  Bi113  1  0.49938894  0.23498167  0.46146174  1
  Bi  Bi114  1  0.50672167  0.73329596  0.26358734  1
  Bi  Bi115  1  0.00312590  0.71785698  0.51360867  1
  Bi  Bi116  1  0.54238446  0.21508197  0.22841030  1
  Bi  Bi117  1  0.72907598  0.51786450  0.49342059  1
  Bi  Bi118  1  0.78667490  0.22897920  0.49941169  1
  Bi  Bi119  1  0.26498380  0.22897361  -0.01147268  1
  Bi  Bi120  1  0.50350776  0.77555942  0.00479632  1
  Bi  Bi121  1  0.24142015  0.50362404  0.01778605  1
  Bi  Bi122  1  0.22900788  0.47156130  0.75374653  1
  Bi  Bi123  1  0.73056333  0.72815924  0.74774112  1
  Bi  Bi124  1  0.01399698  0.20423840  0.52981980  1
  O  O125  1  0.08802609  0.11242466  -0.00260245  1
  O  O126  1  0.16857507  0.13818245  0.25269083  1
  O  O127  1  0.09902523  0.09507033  0.48288437  1
  O  O128  1  0.16513071  0.12121096  0.76111216  1
  O  O129  1  0.15747476  0.38179750  0.00572688  1
  O  O130  1  0.11053000  0.39256802  0.24378085  1
  O  O131  1  0.15478156  0.38842501  0.49763700  1
  O  O132  1  0.12339371  0.37844245  0.76049776  1
  O  O133  1  0.09514805  0.61822743  -0.00061915  1
  O  O134  1  0.14524147  0.65289320  0.24169335  1
  O  O135  1  0.10681639  0.61001919  0.49628730  1
  O  O136  1  0.16120766  0.65350431  0.75611149  1
  O  O137  1  0.15696217  0.91861136  -0.00321962  1
  O  O138  1  0.10680788  0.84011967  0.25510153  1
  O  O139  1  0.14356325  0.89316242  0.49414343  1
  O  O140  1  0.10805456  0.85815563  0.75073537  1
  O  O141  1  0.38841322  0.15636443  -0.00201175  1
  O  O142  1  0.34119610  0.12107754  0.25682241  1
  O  O143  1  0.40094324  0.13363820  0.50378783  1
  O  O144  1  0.34218336  0.12242009  0.75288034  1
  O  O145  1  0.37323427  0.34708051  0.00110056  1
  O  O146  1  0.39971956  0.40606575  0.24713859  1
  O  O147  1  0.36132700  0.38692815  0.49037870  1
  O  O148  1  0.39883764  0.38468170  0.75566665  1
  O  O149  1  0.39892048  0.63008089  0.00402827  1
  O  O150  1  0.35062183  0.60681082  0.24587256  1
  O  O151  1  0.39996000  0.63554930  0.49456891  1
  O  O152  1  0.36446080  0.59260453  0.74456296  1
  O  O153  1  0.34471506  0.82646203  -0.01031580  1
  O  O154  1  0.37214491  0.87818265  0.25673882  1
  O  O155  1  0.36351565  0.85224823  0.49432320  1
  O  O156  1  0.39766880  0.88003928  0.75053119  1
  O  O157  1  0.62265367  0.15563393  -0.01045567  1
  O  O158  1  0.62729323  0.10722867  0.25218266  1
  O  O159  1  0.60258905  0.14219464  0.50627984  1
  O  O160  1  0.65120760  0.11467168  0.75337234  1
  O  O161  1  0.64725450  0.35558277  0.00080135  1
  O  O162  1  0.61735289  0.39743644  0.25199153  1
  O  O163  1  0.64951034  0.36667667  0.50063334  1
  O  O164  1  0.61679523  0.39773683  0.75356841  1
  O  O165  1  0.59852549  0.62406039  -0.00461367  1
  O  O166  1  0.65986913  0.61635028  0.24803689  1
  O  O167  1  0.61386551  0.61011798  0.50697095  1
  O  O168  1  0.66510771  0.59851557  0.75651077  1
  O  O169  1  0.62754770  0.84062685  0.00558252  1
  O  O170  1  0.60541845  0.88873173  0.24247058  1
  O  O171  1  0.61561484  0.86201967  0.50167376  1
  O  O172  1  0.61269562  0.90363291  0.75365811  1
  O  O173  1  0.90599331  0.11530425  -0.01756199  1
  O  O174  1  0.84273096  0.16232210  0.25269129  1
  O  O175  1  0.89172744  0.12851390  0.50737246  1
  O  O176  1  0.86577922  0.16094005  0.75464005  1
  O  O177  1  0.86555907  0.40433318  0.00016719  1
  O  O178  1  0.89804170  0.37374049  0.25107923  1
  O  O179  1  0.85949278  0.40091115  0.50725322  1
  O  O180  1  0.90835491  0.37036190  0.76032026  1
  O  O181  1  0.89986439  0.63408087  -0.00237869  1
  O  O182  1  0.84696590  0.64164946  0.25524227  1
  O  O183  1  0.91005535  0.59516846  0.52154230  1
  O  O184  1  0.86028113  0.64656169  0.75791891  1
  O  O185  1  0.86930590  0.89878444  -0.00607122  1
  O  O186  1  0.90522481  0.84440206  0.25491081  1
  O  O187  1  0.87035710  0.88752514  0.50387042  1
  O  O188  1  0.89570022  0.85623153  0.75034181  1
  O  O189  1  0.00172562  0.11823159  0.16016918  1
  O  O190  1  0.00681653  0.12126038  0.33596281  1
  O  O191  1  0.00238145  0.13188945  0.64972842  1
  O  O192  1  0.00699188  0.13055080  0.83613090  1
  O  O193  1  0.00706461  0.37726896  0.09601740  1
  O  O194  1  -0.00360308  0.41289440  0.39289621  1
  O  O195  1  -0.00720875  0.42531148  0.60951140  1
  O  O196  1  0.01183359  0.37380008  0.90805048  1
  O  O197  1  0.01032309  0.67471388  0.13842388  1
  O  O198  1  -0.00195200  0.61876545  0.35876979  1
  O  O199  1  0.01110811  0.62512193  0.65977543  1
  O  O200  1  0.00537517  0.63273422  0.85727463  1
  O  O201  1  0.01388425  0.85810714  0.10696546  1
  O  O202  1  -0.00001144  0.89393522  0.39255483  1
  O  O203  1  0.00352795  0.86302299  0.60270094  1
  O  O204  1  0.00414414  0.87096565  0.88732494  1
  O  O205  1  0.24402221  0.13843865  0.09601956  1
  O  O206  1  0.24653830  0.13236938  0.41098070  1
  O  O207  1  0.25869233  0.14390260  0.60159157  1
  O  O208  1  0.24110836  0.10701486  0.92066506  1
  O  O209  1  0.25228721  0.36382547  0.15377050  1
  O  O210  1  0.25484760  0.37491967  0.34835393  1
  O  O211  1  0.25391359  0.39070792  0.63565281  1
  O  O212  1  0.25675303  0.38443282  0.87101655  1
  O  O213  1  0.25248750  0.63008178  0.09293016  1
  O  O214  1  0.25038220  0.64228826  0.39016387  1
  O  O215  1  0.25589244  0.63530054  0.60591193  1
  O  O216  1  0.24392146  0.64945210  0.90870990  1
  O  O217  1  0.24067732  0.87343836  0.15740725  1
  O  O218  1  0.24695912  0.85378511  0.36689478  1
  O  O219  1  0.24409301  0.85814072  0.62765402  1
  O  O220  1  0.24365311  0.86681582  0.84906354  1
  O  O221  1  0.48954874  0.10813166  0.13545575  1
  O  O222  1  0.48927694  0.13105601  0.36323492  1
  O  O223  1  0.50356207  0.11634210  0.65022093  1
  O  O224  1  0.50771599  0.14769058  0.86657028  1
  O  O225  1  0.50508398  0.36501300  0.10867816  1
  O  O226  1  0.50571225  0.38301865  0.39539754  1
  O  O227  1  0.50770652  0.38562678  0.60011160  1
  O  O228  1  0.51064469  0.34514631  0.88398720  1
  O  O229  1  0.48823036  0.59196880  0.14787698  1
  O  O230  1  0.49710118  0.61267268  0.33372832  1
  O  O231  1  0.50665242  0.60452429  0.64761385  1
  O  O232  1  0.50428787  0.62760354  0.84417393  1
  O  O233  1  0.48515264  0.88019232  0.09280790  1
  O  O234  1  0.49068241  0.88876904  0.39480767  1
  O  O235  1  0.50042196  0.90096436  0.61836765  1
  O  O236  1  0.49053336  0.85084149  0.89085844  1
  O  O237  1  0.75419902  0.11379072  0.10298572  1
  O  O238  1  0.75549410  0.12855279  0.41241362  1
  O  O239  1  0.75011431  0.15117602  0.61592369  1
  O  O240  1  0.75731098  0.12153340  0.89356201  1
  O  O241  1  0.75984616  0.37064768  0.14355891  1
  O  O242  1  0.75370439  0.36441484  0.36017520  1
  O  O243  1  0.75712629  0.36684850  0.65228348  1
  O  O244  1  0.75722737  0.40334458  0.84327571  1
  O  O245  1  0.74708740  0.61750263  0.09032807  1
  O  O246  1  0.75819332  0.64018783  0.41312965  1
  O  O247  1  0.75617890  0.63160026  0.60635910  1
  O  O248  1  0.76001152  0.60615989  0.90928185  1
  O  O249  1  0.74473999  0.90919207  0.13090388  1
  O  O250  1  0.75868601  0.85569757  0.38252866  1
  O  O251  1  0.75396973  0.86528977  0.64778532  1
  O  O252  1  0.75374175  0.87962553  0.84918727  1
  O  O253  1  0.12684795  -0.00349868  0.14910150  1
  O  O254  1  0.13847281  -0.00619250  0.34115522  1
  O  O255  1  0.12695962  -0.00984577  0.63719770  1
  O  O256  1  0.11403408  0.00092404  0.84788941  1
  O  O257  1  0.12427401  0.25370831  0.13289885  1
  O  O258  1  0.12171899  0.24784272  0.39797243  1
  O  O259  1  0.13205439  0.25764251  0.60674656  1
  O  O260  1  0.13454343  0.24681971  0.88840169  1
  O  O261  1  0.14438221  0.51247995  0.12437222  1
  O  O262  1  0.13206259  0.51358346  0.34890022  1
  O  O263  1  0.14368694  0.51248426  0.64430630  1
  O  O264  1  0.13468386  0.50662500  0.86824743  1
  O  O265  1  0.15112506  0.75679084  0.07882099  1
  O  O266  1  0.10917368  0.75187536  0.40342249  1
  O  O267  1  0.12034702  0.74659918  0.60249839  1
  O  O268  1  0.11751954  0.75737784  0.88477202  1
  O  O269  1  0.35004627  -0.00063436  0.08519686  1
  O  O270  1  0.35570752  0.00486586  0.38390471  1
  O  O271  1  0.36137388  0.00648672  0.63770948  1
  O  O272  1  0.36773601  -0.01103161  0.87536349  1
  O  O273  1  0.37012826  0.25319848  0.15438374  1
  O  O274  1  0.37863660  0.25540305  0.37531869  1
  O  O275  1  0.38412308  0.24730339  0.64452947  1
  O  O276  1  0.36844567  0.25343693  0.85393376  1
  O  O277  1  0.35821917  0.49025801  0.09806585  1
  O  O278  1  0.37979783  0.50551055  0.38023819  1
  O  O279  1  0.37849240  0.50525003  0.60243597  1
  O  O280  1  0.39940302  0.49353149  0.89018365  1
  O  O281  1  0.36971822  0.74358340  0.14166438  1
  O  O282  1  0.39999074  0.74538276  0.36037787  1
  O  O283  1  0.39896818  0.74189784  0.63827171  1
  O  O284  1  0.36095793  0.74550808  0.83361596  1
  O  O285  1  0.60103137  -0.00861690  0.10676739  1
  O  O286  1  0.63885314  -0.00351107  0.39490319  1
  O  O287  1  0.64363353  0.00976898  0.61130302  1
  O  O288  1  0.62383900  0.00802794  0.91122958  1
  O  O289  1  0.64490007  0.25687021  0.14905673  1
  O  O290  1  0.60915214  0.25223369  0.36000301  1
  O  O291  1  0.62045749  0.25510407  0.64990044  1
  O  O292  1  0.66071094  0.25834005  0.86241719  1
  O  O293  1  0.64161505  0.49124429  0.11191805  1
  O  O294  1  0.64909444  0.49706465  0.37992398  1
  O  O295  1  0.65214077  0.49411391  0.62137804  1
  O  O296  1  0.62021187  0.49511523  0.90211839  1
  O  O297  1  0.63766001  0.75098145  0.15040785  1
  O  O298  1  0.59081831  0.74817936  0.37074677  1
  O  O299  1  0.62362063  0.73467140  0.65174640  1
  O  O300  1  0.64185589  0.73599239  0.85790369  1
  O  O301  1  0.89730394  -0.00957648  0.14433390  1
  O  O302  1  0.85899357  -0.00806784  0.36336779  1
  O  O303  1  0.88310788  -0.01233106  0.63456754  1
  O  O304  1  0.87816012  -0.00097675  0.84888535  1
  O  O305  1  0.88371478  0.26121910  0.11091507  1
  O  O306  1  0.89265297  0.26151888  0.39557811  1
  O  O307  1  0.90319722  0.26831871  0.61870298  1
  O  O308  1  0.87285021  0.26397853  0.90052051  1
  O  O309  1  0.90077565  0.50311544  0.13037992  1
  O  O310  1  0.86485051  0.50760488  0.36815949  1
  O  O311  1  0.85845024  0.50430304  0.67159841  1
  O  O312  1  0.90196370  0.50432866  0.86868190  1
  O  O313  1  0.83923241  0.74884724  0.12045532  1
  O  O314  1  0.88674727  0.74683887  0.40996410  1
  O  O315  1  0.87929512  0.74430909  0.60601833  1
  O  O316  1  0.88113066  0.75507117  0.88626995  1
