# generated using pymatgen
data_Mg32Ti42(Bi17O64)3
_symmetry_space_group_name_H-M   'P 1'
_cell_length_a   15.99854558
_cell_length_b   15.92011350
_cell_length_c   16.01554937
_cell_angle_alpha   89.83239161
_cell_angle_beta   89.81024430
_cell_angle_gamma   90.08455614
_symmetry_Int_Tables_number   1
_chemical_formula_structural   Mg32Ti42(Bi17O64)3
_chemical_formula_sum   'Mg32 Ti42 Bi51 O192'
_cell_volume   4079.09466365
_cell_formula_units_Z   1
loop_
 _symmetry_equiv_pos_site_id
 _symmetry_equiv_pos_as_xyz
  1  'x, y, z'
loop_
 _atom_site_type_symbol
 _atom_site_label
 _atom_site_symmetry_multiplicity
 _atom_site_fract_x
 _atom_site_fract_y
 _atom_site_fract_z
 _atom_site_occupancy
  Mg  Mg0  1  0.62298979  0.38012157  0.62473810  1
  Mg  Mg1  1  0.12818279  0.62291529  0.36410813  1
  Mg  Mg2  1  0.36843053  0.12373008  0.62148574  1
  Mg  Mg3  1  0.62543928  0.37452091  0.11511811  1
  Mg  Mg4  1  0.37348529  0.12081031  0.12355472  1
  Mg  Mg5  1  0.36597522  0.37935128  0.12049303  1
  Mg  Mg6  1  0.87024662  0.12916450  0.37570855  1
  Mg  Mg7  1  0.86723251  0.86976733  0.37984050  1
  Mg  Mg8  1  0.11869469  0.12829946  0.11586390  1
  Mg  Mg9  1  0.62546187  0.62463226  0.11506818  1
  Mg  Mg10  1  0.37744582  0.87190058  0.61490275  1
  Mg  Mg11  1  0.36107792  0.14170191  0.86962001  1
  Mg  Mg12  1  0.87094025  0.37158262  0.87727004  1
  Mg  Mg13  1  0.62544458  0.62451174  0.62990948  1
  Mg  Mg14  1  0.11203691  0.87189833  0.87256023  1
  Mg  Mg15  1  0.37297035  0.12505403  0.37585762  1
  Mg  Mg16  1  0.62758018  0.12119193  0.62252631  1
  Mg  Mg17  1  0.38250944  0.86912721  0.37161030  1
  Mg  Mg18  1  0.12568077  0.36613129  0.87029651  1
  Mg  Mg19  1  0.00759310  0.77739957  0.31666475  1
  Mg  Mg20  1  0.04968638  -0.06178317  0.49300260  1
  Mg  Mg21  1  0.01129825  0.24858295  -0.05070005  1
  Mg  Mg22  1  0.46151146  0.50348465  0.45287586  1
  Mg  Mg23  1  0.70465966  0.49746846  -0.04658123  1
  Mg  Mg24  1  0.23596744  -0.04336013  0.45221427  1
  Mg  Mg25  1  0.16096519  0.74824452  0.49294616  1
  Mg  Mg26  1  0.28652422  0.25249192  0.70044543  1
  Mg  Mg27  1  0.79547644  -0.02715642  0.74921347  1
  Mg  Mg28  1  0.76885718  0.00148319  -0.01376145  1
  Mg  Mg29  1  0.28220619  0.21816731  0.00787676  1
  Mg  Mg30  1  0.22421110  0.48116770  0.20221936  1
  Mg  Mg31  1  0.26287272  0.73391960  0.67489230  1
  Ti  Ti32  1  0.88707777  0.61791822  0.36588649  1
  Ti  Ti33  1  0.61907965  0.63621303  0.87848148  1
  Ti  Ti34  1  0.87516009  0.87411084  0.88604838  1
  Ti  Ti35  1  0.36716219  0.63220383  0.36810538  1
  Ti  Ti36  1  0.14790172  0.88343156  0.63302061  1
  Ti  Ti37  1  0.12985739  0.12970401  0.87547935  1
  Ti  Ti38  1  0.63651034  0.88543405  0.88514168  1
  Ti  Ti39  1  0.87600773  0.37715744  0.11840070  1
  Ti  Ti40  1  0.87175202  0.62304041  0.88183311  1
  Ti  Ti41  1  0.13068605  0.37192698  0.62442529  1
  Ti  Ti42  1  0.12810318  0.88861419  0.12277024  1
  Ti  Ti43  1  0.36753252  0.61940884  0.87300914  1
  Ti  Ti44  1  0.11178784  0.63022034  0.88428767  1
  Ti  Ti45  1  0.62334103  0.87001016  0.37388125  1
  Ti  Ti46  1  0.12137224  0.36605750  0.11030791  1
  Ti  Ti47  1  0.87014975  0.62271307  0.64742549  1
  Ti  Ti48  1  0.37637771  0.38969796  0.61702256  1
  Ti  Ti49  1  0.62535339  0.87931691  0.62070447  1
  Ti  Ti50  1  0.36450584  0.38518982  0.36603719  1
  Ti  Ti51  1  0.62615187  0.35812743  0.87886370  1
  Ti  Ti52  1  0.63267893  0.11744423  0.11578096  1
  Ti  Ti53  1  0.88978429  0.87416440  0.13970124  1
  Ti  Ti54  1  0.38942919  0.62611465  0.61959586  1
  Ti  Ti55  1  0.63292490  0.12610624  0.87069505  1
  Ti  Ti56  1  0.62062860  0.12012189  0.37613645  1
  Ti  Ti57  1  0.63944420  0.87636210  0.11821865  1
  Ti  Ti58  1  0.37498050  0.88090821  0.12762735  1
  Ti  Ti59  1  0.88149965  0.37092588  0.36707292  1
  Ti  Ti60  1  0.88192001  0.87613043  0.62780028  1
  Ti  Ti61  1  0.61427347  0.37425359  0.37782644  1
  Ti  Ti62  1  0.86975937  0.11336711  0.85630273  1
  Ti  Ti63  1  0.13687146  0.12003923  0.37094052  1
  Ti  Ti64  1  0.88009038  0.61306657  0.12582746  1
  Ti  Ti65  1  0.36357454  0.37407734  0.87149964  1
  Ti  Ti66  1  0.87685033  0.37320311  0.62109495  1
  Ti  Ti67  1  0.13503177  0.62559844  0.12619254  1
  Ti  Ti68  1  0.36342841  0.61754062  0.11519832  1
  Ti  Ti69  1  0.87805148  0.11306081  0.13559139  1
  Ti  Ti70  1  0.61726627  0.61780710  0.37854821  1
  Ti  Ti71  1  0.13444554  0.12848368  0.61651546  1
  Ti  Ti72  1  0.87751084  0.11914926  0.61473883  1
  Ti  Ti73  1  0.12342359  0.38143245  0.37194480  1
  Bi  Bi74  1  0.72870435  0.47905102  0.24238034  1
  Bi  Bi75  1  0.02019804  0.74907289  0.03241334  1
  Bi  Bi76  1  0.24283070  0.53661065  0.73591756  1
  Bi  Bi77  1  0.27862286  0.00750098  0.26503665  1
  Bi  Bi78  1  0.47428547  0.23510333  0.49118171  1
  Bi  Bi79  1  0.00544301  0.25214738  0.73651117  1
  Bi  Bi80  1  -0.00756181  0.47736407  0.74521183  1
  Bi  Bi81  1  0.76272306  0.00358588  0.26512463  1
  Bi  Bi82  1  0.72802078  0.25110210  0.72402538  1
  Bi  Bi83  1  0.20783443  0.78685829  0.27255564  1
  Bi  Bi84  1  -0.03324054  0.73828341  0.50986733  1
  Bi  Bi85  1  0.49518193  0.21977230  0.24012388  1
  Bi  Bi86  1  0.77923087  0.22545598  -0.00934972  1
  Bi  Bi87  1  0.47737291  0.78060171  0.78767113  1
  Bi  Bi88  1  0.25404622  -0.00832650  -0.02197384  1
  Bi  Bi89  1  0.76218136  -0.01515217  0.49745003  1
  Bi  Bi90  1  0.49622857  0.76431771  0.00997374  1
  Bi  Bi91  1  0.47844646  0.24908426  0.72699083  1
  Bi  Bi92  1  0.77814632  0.74974187  0.01693879  1
  Bi  Bi93  1  0.75144909  0.48298728  0.48077852  1
  Bi  Bi94  1  0.02426399  0.01026763  0.73603945  1
  Bi  Bi95  1  0.73508762  0.72152321  0.50548034  1
  Bi  Bi96  1  0.25780655  0.77066792  -0.03889098  1
  Bi  Bi97  1  0.00974669  -0.02429248  0.29830147  1
  Bi  Bi98  1  -0.00855303  0.47733801  -0.01733221  1
  Bi  Bi99  1  0.46530744  -0.01004467  0.49961461  1
  Bi  Bi100  1  0.72351241  0.76978549  0.74863361  1
  Bi  Bi101  1  -0.00956965  0.23593935  0.48031814  1
  Bi  Bi102  1  0.50680901  0.49831204  0.73543350  1
  Bi  Bi103  1  0.50025740  0.01936264  0.72590594  1
  Bi  Bi104  1  0.48376613  0.73592196  0.22838148  1
  Bi  Bi105  1  0.47848004  0.01171133  -0.04037904  1
  Bi  Bi106  1  0.51523023  -0.01225362  0.24887953  1
  Bi  Bi107  1  0.49289287  0.47576867  -0.01525956  1
  Bi  Bi108  1  0.72763997  0.51004616  0.75985780  1
  Bi  Bi109  1  0.49603030  0.49258823  0.21726012  1
  Bi  Bi110  1  0.47604882  0.23380874  0.00360447  1
  Bi  Bi111  1  0.01917158  0.51181136  0.25637545  1
  Bi  Bi112  1  0.24336790  0.24203562  0.21516658  1
  Bi  Bi113  1  0.74992089  0.24878521  0.22015671  1
  Bi  Bi114  1  0.49793830  0.75507232  0.49530617  1
  Bi  Bi115  1  0.72080566  0.24270693  0.50335707  1
  Bi  Bi116  1  0.01277115  0.01647428  -0.01249527  1
  Bi  Bi117  1  0.23671076  0.26418602  0.48112950  1
  Bi  Bi118  1  0.28965589  -0.03985712  0.76873310  1
  Bi  Bi119  1  0.75016560  0.72026046  0.25135727  1
  Bi  Bi120  1  0.02313996  0.52458507  0.52607097  1
  Bi  Bi121  1  0.23305169  0.48793327  -0.02065105  1
  Bi  Bi122  1  0.05087258  0.72433892  0.72831462  1
  Bi  Bi123  1  0.23700351  0.54092071  0.50677076  1
  Bi  Bi124  1  -0.00852393  0.23560975  0.24574442  1
  O  O125  1  0.07593220  0.14566267  -0.00876904  1
  O  O126  1  0.14832003  0.10993776  0.25742303  1
  O  O127  1  0.12393748  0.15096771  0.50471436  1
  O  O128  1  0.13091909  0.09396160  0.76105250  1
  O  O129  1  0.14143276  0.34862062  0.00162617  1
  O  O130  1  0.13041621  0.40270516  0.25880947  1
  O  O131  1  0.12576950  0.35020713  0.50479643  1
  O  O132  1  0.09715549  0.37832947  0.74611136  1
  O  O133  1  0.12330987  0.64612805  0.00325006  1
  O  O134  1  0.14564262  0.58386330  0.24101187  1
  O  O135  1  0.12224158  0.62478930  0.49507664  1
  O  O136  1  0.12211447  0.60961761  0.75995555  1
  O  O137  1  0.13450035  0.84413668  0.00983800  1
  O  O138  1  0.09905988  0.87170151  0.24332910  1
  O  O139  1  0.15767361  0.87395331  0.51209051  1
  O  O140  1  0.10295230  0.88345641  0.74306980  1
  O  O141  1  0.38869649  0.11729165  -0.00124118  1
  O  O142  1  0.37548905  0.14924800  0.24754547  1
  O  O143  1  0.39732012  0.12098625  0.49976616  1
  O  O144  1  0.36738477  0.16456124  0.74954194  1
  O  O145  1  0.36660803  0.41353876  -0.00644188  1
  O  O146  1  0.37771603  0.35811178  0.25881671  1
  O  O147  1  0.38035179  0.41437163  0.50857226  1
  O  O148  1  0.36902346  0.34255210  0.75803802  1
  O  O149  1  0.37737459  0.60415676  0.00176869  1
  O  O150  1  0.37023039  0.65539562  0.25641289  1
  O  O151  1  0.39449245  0.59640010  0.50884469  1
  O  O152  1  0.33577536  0.64647536  0.75426996  1
  O  O153  1  0.33441976  0.87511655  0.01377845  1
  O  O154  1  0.40735138  0.85457727  0.24233890  1
  O  O155  1  0.35159472  0.91551603  0.49329569  1
  O  O156  1  0.40122863  0.88602344  0.74824458  1
  O  O157  1  0.66092327  0.09589599  0.00670882  1
  O  O158  1  0.59709529  0.12499932  0.25044315  1
  O  O159  1  0.63156737  0.12531603  0.49401650  1
  O  O160  1  0.63109711  0.14115663  0.75763602  1
  O  O161  1  0.62685092  0.40609641  -0.00632917  1
  O  O162  1  0.62665180  0.37587299  0.26109802  1
  O  O163  1  0.65539379  0.38492477  0.49981475  1
  O  O164  1  0.62608324  0.34116066  0.75917246  1
  O  O165  1  0.62987604  0.59877265  -0.00981477  1
  O  O166  1  0.63421660  0.64696778  0.26159158  1
  O  O167  1  0.63229709  0.62493963  0.49869929  1
  O  O168  1  0.65457117  0.63718115  0.75716950  1
  O  O169  1  0.66283081  0.89693250  0.00062136  1
  O  O170  1  0.59750607  0.86681003  0.25687446  1
  O  O171  1  0.65314614  0.89964368  0.50497738  1
  O  O172  1  0.60368634  0.84723567  0.74997020  1
  O  O173  1  0.84875779  0.10300953  0.01701040  1
  O  O174  1  0.87274522  0.15729975  0.25182109  1
  O  O175  1  0.89719314  0.12076850  0.50119821  1
  O  O176  1  0.85656451  0.10864436  0.74569604  1
  O  O177  1  0.86535113  0.38580216  0.00773300  1
  O  O178  1  0.88493736  0.34876793  0.25448949  1
  O  O179  1  0.86483461  0.40046035  0.50612507  1
  O  O180  1  0.90726348  0.36943592  0.75296902  1
  O  O181  1  0.86596811  0.62774031  0.00404814  1
  O  O182  1  0.86041523  0.63587011  0.24506999  1
  O  O183  1  0.90510981  0.61331156  0.48859476  1
  O  O184  1  0.86489765  0.64386582  0.75839334  1
  O  O185  1  0.84198699  0.89095778  -0.00002492  1
  O  O186  1  0.91237031  0.85487085  0.24951309  1
  O  O187  1  0.84030145  0.87729371  0.50583961  1
  O  O188  1  0.88950500  0.88628488  0.74537851  1
  O  O189  1  -0.00851717  0.12443104  0.14459188  1
  O  O190  1  0.01079565  0.15524041  0.36416129  1
  O  O191  1  -0.00100514  0.12089953  0.64952273  1
  O  O192  1  -0.01186594  0.09025253  0.86201226  1
  O  O193  1  -0.00143133  0.37961819  0.12169565  1
  O  O194  1  0.00904527  0.34299643  0.37631574  1
  O  O195  1  0.00268590  0.40203161  0.61729066  1
  O  O196  1  0.00005807  0.36727558  0.90706630  1
  O  O197  1  -0.00340441  0.61321117  0.12376625  1
  O  O198  1  0.00339717  0.63234138  0.32901845  1
  O  O199  1  -0.00702125  0.63433320  0.62641276  1
  O  O200  1  -0.00177270  0.64563226  0.88146389  1
  O  O201  1  -0.00150870  0.88239384  0.09969788  1
  O  O202  1  -0.00668138  0.88259937  0.39526745  1
  O  O203  1  -0.00628835  0.87949764  0.59343982  1
  O  O204  1  -0.01241426  0.89065386  0.89816099  1
  O  O205  1  0.24491846  0.15141571  0.10837657  1
  O  O206  1  0.25165586  0.07823942  0.39147732  1
  O  O207  1  0.24518249  0.15133934  0.62852988  1
  O  O208  1  0.23803498  0.13950119  0.91219432  1
  O  O209  1  0.24134429  0.36635837  0.14095483  1
  O  O210  1  0.24816399  0.38499137  0.39428864  1
  O  O211  1  0.25018849  0.35668491  0.63514287  1
  O  O212  1  0.24930644  0.40262217  0.86651498  1
  O  O213  1  0.24877886  0.64369038  0.11589680  1
  O  O214  1  0.25482422  0.63202129  0.39445685  1
  O  O215  1  0.25786357  0.61860382  0.61855562  1
  O  O216  1  0.24970054  0.60107851  0.88739059  1
  O  O217  1  0.24323619  0.87664837  0.15650921  1
  O  O218  1  0.25747789  0.89150947  0.34565941  1
  O  O219  1  0.25817386  0.86604254  0.66285218  1
  O  O220  1  0.24142295  0.88636306  0.87634359  1
  O  O221  1  0.50895438  0.13892247  0.11412077  1
  O  O222  1  0.50017683  0.16002022  0.37154361  1
  O  O223  1  0.50170708  0.13374175  0.64467913  1
  O  O224  1  0.50767194  0.12689230  0.88718526  1
  O  O225  1  0.49425087  0.40198119  0.11354368  1
  O  O226  1  0.50222150  0.39175418  0.39424313  1
  O  O227  1  0.49471579  0.38646511  0.64196324  1
  O  O228  1  0.49912176  0.37140786  0.88774171  1
  O  O229  1  0.49088139  0.60866162  0.14049966  1
  O  O230  1  0.50404293  0.60771417  0.37920764  1
  O  O231  1  0.49922567  0.61942344  0.65550662  1
  O  O232  1  0.50460833  0.64261166  0.86808454  1
  O  O233  1  0.49068975  0.88171577  0.08446548  1
  O  O234  1  0.50652367  0.86826162  0.41188071  1
  O  O235  1  0.50517601  0.86508439  0.58786437  1
  O  O236  1  0.51498736  0.85995942  0.89668952  1
  O  O237  1  0.74607261  0.11848696  0.15961676  1
  O  O238  1  0.73899344  0.11000405  0.36083225  1
  O  O239  1  0.75980333  0.14569994  0.61277915  1
  O  O240  1  0.75171172  0.14199026  0.87639728  1
  O  O241  1  0.75315889  0.37711476  0.14945590  1
  O  O242  1  0.76358547  0.39568412  0.37004523  1
  O  O243  1  0.76206402  0.36699985  0.64566466  1
  O  O244  1  0.74418002  0.39332534  0.87428107  1
  O  O245  1  0.75095838  0.65341230  0.12861404  1
  O  O246  1  0.76318890  0.63222870  0.37989092  1
  O  O247  1  0.76105576  0.62146135  0.60384925  1
  O  O248  1  0.75864732  0.59009989  0.88222738  1
  O  O249  1  0.74713961  0.85643776  0.14780252  1
  O  O250  1  0.74120130  0.89462245  0.36249789  1
  O  O251  1  0.74289936  0.88827840  0.65868799  1
  O  O252  1  0.74513846  0.88269306  0.83803862  1
  O  O253  1  0.12714810  -0.00056372  0.09354747  1
  O  O254  1  0.10100964  0.01029098  0.40337319  1
  O  O255  1  0.11990182  0.00238767  0.61560476  1
  O  O256  1  0.12564130  0.00162584  0.90949596  1
  O  O257  1  0.11586666  0.25392120  0.15474968  1
  O  O258  1  0.16358253  0.24543886  0.36726155  1
  O  O259  1  0.10858611  0.24786657  0.64521631  1
  O  O260  1  0.09693363  0.23997964  0.85427004  1
  O  O261  1  0.13841534  0.49539363  0.10424678  1
  O  O262  1  0.09416531  0.49385529  0.39107080  1
  O  O263  1  0.14265749  0.49044024  0.60845821  1
  O  O264  1  0.10910236  0.50296016  0.90301282  1
  O  O265  1  0.10449181  0.73957380  0.14366471  1
  O  O266  1  0.12007302  0.75046155  0.37319950  1
  O  O267  1  0.14237736  0.75595860  0.62884785  1
  O  O268  1  0.13509114  0.74519531  0.85546454  1
  O  O269  1  0.37349617  -0.00440829  0.14273010  1
  O  O270  1  0.39826349  0.00072503  0.34246329  1
  O  O271  1  0.39893877  0.00149777  0.63396483  1
  O  O272  1  0.36520523  0.01118594  0.87726180  1
  O  O273  1  0.37560564  0.25511602  0.09395205  1
  O  O274  1  0.36766537  0.26461210  0.40933311  1
  O  O275  1  0.38839603  0.26133419  0.61141622  1
  O  O276  1  0.36107774  0.26227491  0.91499925  1
  O  O277  1  0.34657901  0.50814226  0.15762505  1
  O  O278  1  0.37594467  0.50411228  0.36070200  1
  O  O279  1  0.36949893  0.50119933  0.66152890  1
  O  O280  1  0.39473221  0.50544287  0.85366186  1
  O  O281  1  0.39791138  0.74542567  0.11432462  1
  O  O282  1  0.39301594  0.74361201  0.40208370  1
  O  O283  1  0.37485081  0.74262129  0.61178560  1
  O  O284  1  0.37556914  0.74130180  0.89113666  1
  O  O285  1  0.62350115  -0.00719303  0.14416225  1
  O  O286  1  0.59787442  0.00252373  0.36488623  1
  O  O287  1  0.60587980  -0.00340896  0.64221711  1
  O  O288  1  0.61510579  0.00034962  0.86836326  1
  O  O289  1  0.64389921  0.24291934  0.12231719  1
  O  O290  1  0.63525116  0.25713792  0.38764499  1
  O  O291  1  0.63668177  0.25306204  0.61479054  1
  O  O292  1  0.62844217  0.24570082  0.90680398  1
  O  O293  1  0.62487268  0.50353000  0.15643054  1
  O  O294  1  0.64094070  0.50259287  0.37277420  1
  O  O295  1  0.62723380  0.49969859  0.65918952  1
  O  O296  1  0.61885610  0.50041866  0.84646253  1
  O  O297  1  0.60099968  0.75899525  0.10735190  1
  O  O298  1  0.62827866  0.75482634  0.39894146  1
  O  O299  1  0.64486203  0.75502357  0.61224659  1
  O  O300  1  0.64909241  0.75043054  0.88760780  1
  O  O301  1  0.86716247  -0.00467775  0.15476649  1
  O  O302  1  0.87325270  0.00238389  0.35061821  1
  O  O303  1  0.85717201  0.00090222  0.62013936  1
  O  O304  1  0.83964733  -0.00020134  0.87527815  1
  O  O305  1  0.85485055  0.24803580  0.11569369  1
  O  O306  1  0.87036486  0.25785573  0.40521857  1
  O  O307  1  0.89948651  0.25622837  0.62031061  1
  O  O308  1  0.89089619  0.23172658  0.90265758  1
  O  O309  1  0.86786436  0.49910754  0.14071420  1
  O  O310  1  0.90304751  0.49737716  0.35654773  1
  O  O311  1  0.87880866  0.50528679  0.65306496  1
  O  O312  1  0.90600252  0.50701069  0.87380431  1
  O  O313  1  0.88506682  0.75654801  0.10583217  1
  O  O314  1  0.89661152  0.74466157  0.38587173  1
  O  O315  1  0.87073514  0.75359923  0.61182524  1
  O  O316  1  0.85859241  0.75639000  0.89380743  1
