# generated using pymatgen
data_Mg32Ti42(Bi17O64)3
_symmetry_space_group_name_H-M   'P 1'
_cell_length_a   15.96480767
_cell_length_b   15.96182288
_cell_length_c   15.94915242
_cell_angle_alpha   90.07110624
_cell_angle_beta   89.80831589
_cell_angle_gamma   89.98474562
_symmetry_Int_Tables_number   1
_chemical_formula_structural   Mg32Ti42(Bi17O64)3
_chemical_formula_sum   'Mg32 Ti42 Bi51 O192'
_cell_volume   4064.25553607
_cell_formula_units_Z   1
loop_
 _symmetry_equiv_pos_site_id
 _symmetry_equiv_pos_as_xyz
  1  'x, y, z'
loop_
 _atom_site_type_symbol
 _atom_site_label
 _atom_site_symmetry_multiplicity
 _atom_site_fract_x
 _atom_site_fract_y
 _atom_site_fract_z
 _atom_site_occupancy
  Mg  Mg0  1  0.87910187  0.12294040  0.13021365  1
  Mg  Mg1  1  0.38190294  0.63870450  0.86840537  1
  Mg  Mg2  1  0.61971419  0.61908618  0.86827653  1
  Mg  Mg3  1  0.87607896  0.86939782  0.62257514  1
  Mg  Mg4  1  0.87442750  0.62980900  0.63446952  1
  Mg  Mg5  1  0.36718050  0.63049337  0.63072299  1
  Mg  Mg6  1  0.13038489  0.87505007  0.13147605  1
  Mg  Mg7  1  0.13125655  0.38679663  0.63706306  1
  Mg  Mg8  1  0.88128870  0.36789345  0.63164288  1
  Mg  Mg9  1  0.11420656  0.62592313  0.13101331  1
  Mg  Mg10  1  0.62388712  0.13334750  0.13050615  1
  Mg  Mg11  1  0.62845781  0.61166793  0.12100535  1
  Mg  Mg12  1  0.10939126  0.12232058  0.87124141  1
  Mg  Mg13  1  0.37026032  0.86617447  0.37534079  1
  Mg  Mg14  1  0.62341557  0.36925419  0.13428838  1
  Mg  Mg15  1  0.88305087  0.11846801  0.37657378  1
  Mg  Mg16  1  0.12186317  0.36257387  0.12010213  1
  Mg  Mg17  1  0.87994039  0.86863803  0.12194246  1
  Mg  Mg18  1  0.62289182  0.62930261  0.61663461  1
  Mg  Mg19  1  0.07112850  0.75154014  -0.00723997  1
  Mg  Mg20  1  0.00980859  0.30926472  0.76613078  1
  Mg  Mg21  1  0.46780578  0.02834674  0.72017523  1
  Mg  Mg22  1  0.72856163  0.55447591  0.73840393  1
  Mg  Mg23  1  0.20467696  0.57722037  -0.01092349  1
  Mg  Mg24  1  0.75656564  0.73575210  0.49867943  1
  Mg  Mg25  1  0.50587871  0.68979024  0.22670481  1
  Mg  Mg26  1  0.44222085  0.50365511  0.76900782  1
  Mg  Mg27  1  0.02791760  0.69325885  0.79755921  1
  Mg  Mg28  1  -0.04570395  0.25393691  0.29092225  1
  Mg  Mg29  1  0.79719585  0.00380458  0.54057419  1
  Mg  Mg30  1  0.03746900  0.25814960  0.56582276  1
  Mg  Mg31  1  0.25571221  0.04362604  0.80014342  1
  Ti  Ti32  1  0.11278646  0.13825818  0.38528022  1
  Ti  Ti33  1  0.38278529  0.12739628  0.13512527  1
  Ti  Ti34  1  0.11851567  0.87146188  0.62566658  1
  Ti  Ti35  1  0.61255450  0.12726962  0.61498972  1
  Ti  Ti36  1  0.11407273  0.37416256  0.37510616  1
  Ti  Ti37  1  0.86014063  0.87679835  0.37632740  1
  Ti  Ti38  1  0.63238790  0.38240127  0.62687456  1
  Ti  Ti39  1  0.62288109  0.11825215  0.37829383  1
  Ti  Ti40  1  0.36563265  0.13323788  0.62501232  1
  Ti  Ti41  1  0.86107686  0.37707887  0.38088348  1
  Ti  Ti42  1  0.62441551  0.88186720  0.61026576  1
  Ti  Ti43  1  0.37983105  0.36205873  0.10739656  1
  Ti  Ti44  1  0.87847804  0.62895384  0.11544131  1
  Ti  Ti45  1  0.87045287  0.11350259  0.88802466  1
  Ti  Ti46  1  0.61221405  0.88032520  0.86502376  1
  Ti  Ti47  1  0.86238614  0.61937458  0.87116977  1
  Ti  Ti48  1  0.12263208  0.62953712  0.62221598  1
  Ti  Ti49  1  0.88117041  0.84738365  0.86621474  1
  Ti  Ti50  1  0.38173364  0.88522775  0.85726586  1
  Ti  Ti51  1  0.36823831  0.37305503  0.87478406  1
  Ti  Ti52  1  0.37473350  0.87982476  0.14104313  1
  Ti  Ti53  1  0.13575626  0.11846470  0.63138893  1
  Ti  Ti54  1  0.62568981  0.39444904  0.85494177  1
  Ti  Ti55  1  0.61713880  0.11408159  0.86470816  1
  Ti  Ti56  1  0.36585647  0.87564841  0.62957449  1
  Ti  Ti57  1  0.88116618  0.36138196  0.12859906  1
  Ti  Ti58  1  0.37229169  0.13118057  0.38471493  1
  Ti  Ti59  1  0.89903839  0.13224919  0.62956129  1
  Ti  Ti60  1  0.37264671  0.37591135  0.63247901  1
  Ti  Ti61  1  0.86419622  0.38174386  0.87706866  1
  Ti  Ti62  1  0.38500269  0.63075244  0.37407833  1
  Ti  Ti63  1  0.62481674  0.39317249  0.37021100  1
  Ti  Ti64  1  0.11738209  0.61833047  0.37031575  1
  Ti  Ti65  1  0.63460051  0.63140535  0.38338272  1
  Ti  Ti66  1  0.38836494  0.12890803  0.87662055  1
  Ti  Ti67  1  0.37394151  0.37088692  0.38203264  1
  Ti  Ti68  1  0.12698931  0.37943079  0.88487375  1
  Ti  Ti69  1  0.87254828  0.61964640  0.36873479  1
  Ti  Ti70  1  0.12809999  0.85755683  0.37712122  1
  Ti  Ti71  1  0.62216495  0.86704279  0.37854374  1
  Ti  Ti72  1  0.11869449  0.11646903  0.12864348  1
  Ti  Ti73  1  0.12729649  0.88985672  0.86795019  1
  Bi  Bi74  1  0.22713842  0.23464003  0.00424435  1
  Bi  Bi75  1  0.77453381  0.21752928  0.50116957  1
  Bi  Bi76  1  0.01002152  0.52565281  -0.02411440  1
  Bi  Bi77  1  0.52112678  0.25274798  0.27472804  1
  Bi  Bi78  1  0.46649568  0.48607655  0.23575041  1
  Bi  Bi79  1  0.24066336  0.53379452  0.79448251  1
  Bi  Bi80  1  0.75837524  0.22478835  0.26047499  1
  Bi  Bi81  1  0.50650248  0.72951083  0.75645033  1
  Bi  Bi82  1  -0.00305460  0.74685674  0.22668112  1
  Bi  Bi83  1  0.76125216  0.51389620  0.22820003  1
  Bi  Bi84  1  -0.00920219  0.50902494  0.73351483  1
  Bi  Bi85  1  0.28064813  0.70730600  0.20894120  1
  Bi  Bi86  1  0.51240256  0.26567283  0.75528096  1
  Bi  Bi87  1  0.24806937  0.48063112  0.20416383  1
  Bi  Bi88  1  0.72461307  -0.02668612  0.22561993  1
  Bi  Bi89  1  0.47252762  0.54027025  0.02023472  1
  Bi  Bi90  1  0.23051172  0.00368177  0.28045480  1
  Bi  Bi91  1  0.48598985  -0.00661838  0.27741950  1
  Bi  Bi92  1  -0.00190690  -0.03011418  0.00204444  1
  Bi  Bi93  1  0.49083751  0.74836000  0.52223920  1
  Bi  Bi94  1  0.73847210  0.76198039  0.72177290  1
  Bi  Bi95  1  0.22650021  0.26807028  0.51222982  1
  Bi  Bi96  1  0.50333208  0.49613160  0.51957102  1
  Bi  Bi97  1  0.71425662  0.75695617  0.21140713  1
  Bi  Bi98  1  0.27683507  0.76622808  -0.01057345  1
  Bi  Bi99  1  0.51420476  0.26533899  0.51097683  1
  Bi  Bi100  1  0.75880800  0.23786404  0.77173563  1
  Bi  Bi101  1  -0.02543750  -0.01381714  0.23991323  1
  Bi  Bi102  1  0.25421992  0.00938450  0.01372938  1
  Bi  Bi103  1  -0.03653467  -0.00739474  0.76311415  1
  Bi  Bi104  1  0.00652408  0.48365012  0.22467438  1
  Bi  Bi105  1  0.49655380  0.76949493  0.03426369  1
  Bi  Bi106  1  0.47942975  -0.01009136  0.49878473  1
  Bi  Bi107  1  -0.01640298  0.26154441  -0.01475107  1
  Bi  Bi108  1  0.25649766  0.72987267  0.48832279  1
  Bi  Bi109  1  0.21852438  0.75327163  0.76477530  1
  Bi  Bi110  1  0.75168180  0.24371129  0.02521198  1
  Bi  Bi111  1  0.74600023  -0.02753369  0.01564590  1
  Bi  Bi112  1  0.23119903  0.25031199  0.24621706  1
  Bi  Bi113  1  -0.00300883  0.49945088  0.51174695  1
  Bi  Bi114  1  -0.03218921  0.73769652  0.49524039  1
  Bi  Bi115  1  0.71326332  0.48891183  0.00464550  1
  Bi  Bi116  1  0.26949947  0.50056206  0.49507276  1
  Bi  Bi117  1  0.72621603  0.01216392  0.72446413  1
  Bi  Bi118  1  0.77439455  0.50191756  0.52064399  1
  Bi  Bi119  1  0.51640203  -0.00104001  0.03573021  1
  Bi  Bi120  1  0.22202023  0.25252015  0.76523935  1
  Bi  Bi121  1  -0.00592333  -0.02844119  0.48836226  1
  Bi  Bi122  1  0.52183504  0.24599956  -0.01062406  1
  Bi  Bi123  1  0.71713796  0.75533190  -0.01960550  1
  Bi  Bi124  1  0.22916545  -0.01303136  0.50431885  1
  O  O125  1  0.12791970  0.13617061  0.00167847  1
  O  O126  1  0.15056817  0.12303092  0.25045296  1
  O  O127  1  0.11257951  0.16485858  0.50104435  1
  O  O128  1  0.16270084  0.11270544  0.74328612  1
  O  O129  1  0.11889490  0.33449413  -0.00401460  1
  O  O130  1  0.15838639  0.37602413  0.25748773  1
  O  O131  1  0.10883155  0.35001744  0.49817128  1
  O  O132  1  0.14333005  0.38361236  0.76293787  1
  O  O133  1  0.09166517  0.62975518  0.00495807  1
  O  O134  1  0.14331065  0.62249921  0.26051549  1
  O  O135  1  0.07997036  0.63052163  0.51074813  1
  O  O136  1  0.14749296  0.63085709  0.74932224  1
  O  O137  1  0.10961900  0.87449766  -0.00776823  1
  O  O138  1  0.12443942  0.88756080  0.26328566  1
  O  O139  1  0.13918373  0.87772126  0.50361104  1
  O  O140  1  0.13617984  0.87895069  0.74649698  1
  O  O141  1  0.41472255  0.13358409  -0.01243635  1
  O  O142  1  0.35742890  0.10209309  0.24306995  1
  O  O143  1  0.39608516  0.13438339  0.49644422  1
  O  O144  1  0.35475348  0.10167153  0.73845124  1
  O  O145  1  0.39496853  0.35497689  -0.00541253  1
  O  O146  1  0.35311762  0.39900941  0.26438032  1
  O  O147  1  0.40269344  0.36844944  0.50058288  1
  O  O148  1  0.36222860  0.38894741  0.74796456  1
  O  O149  1  0.41330173  0.65851582  -0.00890193  1
  O  O150  1  0.35132339  0.60138650  0.26293755  1
  O  O151  1  0.38067623  0.65499609  0.50117127  1
  O  O152  1  0.35005275  0.59838748  0.74905445  1
  O  O153  1  0.38449446  0.84927922  -0.00882093  1
  O  O154  1  0.36232794  0.90312968  0.24999087  1
  O  O155  1  0.39416162  0.86626057  0.50540100  1
  O  O156  1  0.39200713  0.91375718  0.74473824  1
  O  O157  1  0.59742149  0.12020641  -0.01915165  1
  O  O158  1  0.62625942  0.15455824  0.25526352  1
  O  O159  1  0.59422848  0.10984881  0.49563473  1
  O  O160  1  0.64793640  0.14371170  0.74103483  1
  O  O161  1  0.61218061  0.39914948  -0.02557994  1
  O  O162  1  0.63404114  0.35354768  0.26007810  1
  O  O163  1  0.59806280  0.38403168  0.49786251  1
  O  O164  1  0.64163369  0.34459897  0.73913251  1
  O  O165  1  0.60939339  0.58511260  -0.00664036  1
  O  O166  1  0.63189844  0.65398387  0.25916576  1
  O  O167  1  0.58893919  0.61750046  0.49147846  1
  O  O168  1  0.65062262  0.65710000  0.74327381  1
  O  O169  1  0.64292873  0.88745026  -0.01702784  1
  O  O170  1  0.63681607  0.86068634  0.25477506  1
  O  O171  1  0.61854852  0.90294072  0.49743102  1
  O  O172  1  0.63872250  0.85490627  0.74930006  1
  O  O173  1  0.86802808  0.09563853  -0.00059577  1
  O  O174  1  0.87725650  0.15888385  0.25409706  1
  O  O175  1  0.86617945  0.11189404  0.50369693  1
  O  O176  1  0.85882522  0.13796763  0.74017949  1
  O  O177  1  0.90445569  0.37621677  0.00006744  1
  O  O178  1  0.86279806  0.34577055  0.24860245  1
  O  O179  1  0.89014242  0.39691627  0.49107297  1
  O  O180  1  0.88295563  0.36002173  0.76300832  1
  O  O181  1  0.89936449  0.61587179  0.00456405  1
  O  O182  1  0.83956663  0.63572531  0.25994156  1
  O  O183  1  0.89997539  0.60505102  0.49761955  1
  O  O184  1  0.84103188  0.60904193  0.75871787  1
  O  O185  1  0.88434580  0.88712026  -0.01061760  1
  O  O186  1  0.89986268  0.86258627  0.26090711  1
  O  O187  1  0.86818795  0.90699665  0.49717619  1
  O  O188  1  0.88807787  0.86790015  0.74987364  1
  O  O189  1  0.00897633  0.10005024  0.13211004  1
  O  O190  1  0.00699540  0.15748240  0.35891772  1
  O  O191  1  0.01155259  0.15099806  0.63553785  1
  O  O192  1  -0.01288531  0.09713647  0.86730703  1
  O  O193  1  -0.00153772  0.36401245  0.15032853  1
  O  O194  1  0.00470424  0.35604158  0.34884685  1
  O  O195  1  0.00800038  0.34849971  0.64717617  1
  O  O196  1  0.00807416  0.38223707  0.87183998  1
  O  O197  1  -0.01119403  0.61414915  0.16702572  1
  O  O198  1  -0.00914573  0.64883766  0.36118641  1
  O  O199  1  -0.00167699  0.63982675  0.68143866  1
  O  O200  1  -0.01052106  0.59002319  0.85650305  1
  O  O201  1  0.00186084  0.90436891  0.12408180  1
  O  O202  1  0.00785745  0.86110453  0.40388356  1
  O  O203  1  0.00563234  0.87009461  0.60541219  1
  O  O204  1  0.00424061  0.90413141  0.86919420  1
  O  O205  1  0.27064813  0.12690713  0.08848391  1
  O  O206  1  0.25737289  0.10926047  0.38393793  1
  O  O207  1  0.25149514  0.11492343  0.59269380  1
  O  O208  1  0.26559424  0.15108601  0.88082513  1
  O  O209  1  0.25881672  0.36555425  0.12032584  1
  O  O210  1  0.25536582  0.38829748  0.41000159  1
  O  O211  1  0.25678038  0.38623501  0.59982611  1
  O  O212  1  0.25577605  0.34663079  0.88432598  1
  O  O213  1  0.24107049  0.62894614  0.10181581  1
  O  O214  1  0.23225121  0.61205848  0.41377305  1
  O  O215  1  0.23654350  0.62025166  0.59487437  1
  O  O216  1  0.25667947  0.63200156  0.89039690  1
  O  O217  1  0.26096463  0.84053131  0.11187903  1
  O  O218  1  0.24545270  0.89926165  0.38493065  1
  O  O219  1  0.25444068  0.89992118  0.61763753  1
  O  O220  1  0.25396389  0.85753138  0.88101792  1
  O  O221  1  0.49973418  0.09584526  0.13415160  1
  O  O222  1  0.49283562  0.12697965  0.34513803  1
  O  O223  1  0.49545893  0.13606754  0.64277509  1
  O  O224  1  0.50098693  0.09849552  0.82947462  1
  O  O225  1  0.49552812  0.38121081  0.14652314  1
  O  O226  1  0.49686069  0.38357593  0.35494064  1
  O  O227  1  0.49936285  0.35064492  0.63402765  1
  O  O228  1  0.50816973  0.39380766  0.82809788  1
  O  O229  1  0.50655178  0.59525081  0.14262567  1
  O  O230  1  0.49270063  0.65158418  0.34760216  1
  O  O231  1  0.49772257  0.66103037  0.63377834  1
  O  O232  1  0.49988000  0.60924482  0.82432927  1
  O  O233  1  0.49398096  0.89107433  0.12166857  1
  O  O234  1  0.50531961  0.87366582  0.36483617  1
  O  O235  1  0.51160335  0.84649551  0.62469146  1
  O  O236  1  0.50149970  0.89754594  0.87566273  1
  O  O237  1  0.75113562  0.15647816  0.13253920  1
  O  O238  1  0.74055326  0.13118561  0.37847717  1
  O  O239  1  0.73011193  0.09415318  0.60127370  1
  O  O240  1  0.74380808  0.14244133  0.87422813  1
  O  O241  1  0.75848803  0.36058404  0.09927441  1
  O  O242  1  0.74541275  0.38472121  0.39146236  1
  O  O243  1  0.74714490  0.39559133  0.60965366  1
  O  O244  1  0.74981299  0.35273663  0.88042345  1
  O  O245  1  0.75955750  0.61105561  0.11909011  1
  O  O246  1  0.74835823  0.62386814  0.41643381  1
  O  O247  1  0.74765947  0.59327303  0.61659599  1
  O  O248  1  0.75174104  0.64194231  0.90222496  1
  O  O249  1  0.75525436  0.87902138  0.12209914  1
  O  O250  1  0.75083162  0.89621434  0.36441452  1
  O  O251  1  0.74656757  0.91262601  0.62390462  1
  O  O252  1  0.76484088  0.83303122  0.87072960  1
  O  O253  1  0.16177736  0.00195750  0.12348491  1
  O  O254  1  0.11844389  0.01666167  0.39426728  1
  O  O255  1  0.11799864  0.00648585  0.60516759  1
  O  O256  1  0.15683539  0.00191200  0.87281592  1
  O  O257  1  0.14517240  0.23731981  0.13575841  1
  O  O258  1  0.15746336  0.25415359  0.36540948  1
  O  O259  1  0.15170193  0.25011477  0.63507052  1
  O  O260  1  0.10416275  0.24585697  0.83835882  1
  O  O261  1  0.11209096  0.49265604  0.12979366  1
  O  O262  1  0.10383600  0.49748256  0.38179879  1
  O  O263  1  0.09560049  0.50875195  0.62736179  1
  O  O264  1  0.14693503  0.48830262  0.91924928  1
  O  O265  1  0.09062139  0.75338254  0.12382689  1
  O  O266  1  0.14072595  0.74490865  0.38436208  1
  O  O267  1  0.13946244  0.75482551  0.63486374  1
  O  O268  1  0.11065703  0.76064196  0.86447401  1
  O  O269  1  0.36656784  -0.00705297  0.09532638  1
  O  O270  1  0.39408123  0.00320480  0.38575244  1
  O  O271  1  0.39856372  0.00333760  0.60805733  1
  O  O272  1  0.34960014  0.00434735  0.88297389  1
  O  O273  1  0.38987695  0.24418333  0.14205902  1
  O  O274  1  0.37350745  0.25364015  0.36373222  1
  O  O275  1  0.35549298  0.24944106  0.63257939  1
  O  O276  1  0.40748662  0.24879888  0.85515946  1
  O  O277  1  0.37408364  0.48443660  0.12276308  1
  O  O278  1  0.38176530  0.51086230  0.40917311  1
  O  O279  1  0.39912454  0.49610550  0.61887892  1
  O  O280  1  0.36974162  0.48868409  0.88138120  1
  O  O281  1  0.41186994  0.75355398  0.15800326  1
  O  O282  1  0.33836772  0.74266241  0.36699746  1
  O  O283  1  0.35377150  0.76183104  0.63926974  1
  O  O284  1  0.38764170  0.76543415  0.83657338  1
  O  O285  1  0.64634392  0.01053999  0.10941525  1
  O  O286  1  0.61205499  0.00428243  0.35038904  1
  O  O287  1  0.59781882  -0.00171436  0.65778190  1
  O  O288  1  0.64499204  -0.00201696  0.85518536  1
  O  O289  1  0.62016121  0.25297417  0.08725022  1
  O  O290  1  0.59967273  0.25071167  0.39085074  1
  O  O291  1  0.62874530  0.24465490  0.59712514  1
  O  O292  1  0.59891400  0.24657451  0.87335320  1
  O  O293  1  0.65627363  0.48881740  0.13315416  1
  O  O294  1  0.62623883  0.50824184  0.35811003  1
  O  O295  1  0.60008335  0.49418310  0.63070580  1
  O  O296  1  0.66155797  0.49967295  0.83048412  1
  O  O297  1  0.62470706  0.73661200  0.11033626  1
  O  O298  1  0.64538429  0.75610869  0.40535062  1
  O  O299  1  0.66809015  0.76175502  0.59729557  1
  O  O300  1  0.60746823  0.75357046  0.89646957  1
  O  O301  1  0.86082495  0.00031323  0.16324762  1
  O  O302  1  0.90432316  -0.00455328  0.36674227  1
  O  O303  1  0.89156761  0.01119624  0.63202500  1
  O  O304  1  0.85442737  -0.00032444  0.84737339  1
  O  O305  1  0.88817876  0.24609688  0.09247268  1
  O  O306  1  0.86234090  0.25745619  0.39289066  1
  O  O307  1  0.86377117  0.24514886  0.60310677  1
  O  O308  1  0.88356005  0.24138474  0.89096744  1
  O  O309  1  0.87679156  0.49024981  0.14919256  1
  O  O310  1  0.87612932  0.50184866  0.35501276  1
  O  O311  1  0.90242279  0.49839209  0.62294700  1
  O  O312  1  0.85443182  0.49601331  0.88566157  1
  O  O313  1  0.89225820  0.74368907  0.12923944  1
  O  O314  1  0.85622733  0.75514239  0.40890756  1
  O  O315  1  0.85375526  0.74704434  0.58857670  1
  O  O316  1  0.91496625  0.73647679  0.86514238  1
