# generated using pymatgen
data_Mg32Ti42(Bi17O64)3
_symmetry_space_group_name_H-M   'P 1'
_cell_length_a   15.92442599
_cell_length_b   15.99547758
_cell_length_c   15.94910614
_cell_angle_alpha   89.90965732
_cell_angle_beta   89.96687010
_cell_angle_gamma   89.97654470
_symmetry_Int_Tables_number   1
_chemical_formula_structural   Mg32Ti42(Bi17O64)3
_chemical_formula_sum   'Mg32 Ti42 Bi51 O192'
_cell_volume   4062.53109139
_cell_formula_units_Z   1
loop_
 _symmetry_equiv_pos_site_id
 _symmetry_equiv_pos_as_xyz
  1  'x, y, z'
loop_
 _atom_site_type_symbol
 _atom_site_label
 _atom_site_symmetry_multiplicity
 _atom_site_fract_x
 _atom_site_fract_y
 _atom_site_fract_z
 _atom_site_occupancy
  Mg  Mg0  1  0.37580818  0.12937447  0.37491304  1
  Mg  Mg1  1  0.37594616  0.87404364  0.62351994  1
  Mg  Mg2  1  0.87206163  0.62125265  0.37689576  1
  Mg  Mg3  1  0.62963643  0.88624498  0.61757070  1
  Mg  Mg4  1  0.62520233  0.37373198  0.38403435  1
  Mg  Mg5  1  0.37923485  0.62313111  0.62594010  1
  Mg  Mg6  1  0.37250024  0.36077609  0.37051741  1
  Mg  Mg7  1  0.11038713  0.11931016  0.37467202  1
  Mg  Mg8  1  0.61838629  0.37298231  0.13082101  1
  Mg  Mg9  1  0.36943538  0.12888359  0.62331066  1
  Mg  Mg10  1  0.13515717  0.37075949  0.63558914  1
  Mg  Mg11  1  0.62691378  0.87747956  0.87007603  1
  Mg  Mg12  1  0.12058364  0.13086024  0.12205766  1
  Mg  Mg13  1  0.37492275  0.11958373  0.88612400  1
  Mg  Mg14  1  0.62613741  0.13155277  0.13204285  1
  Mg  Mg15  1  0.37360397  0.61819771  0.37043156  1
  Mg  Mg16  1  0.12543091  0.62540584  0.12433230  1
  Mg  Mg17  1  0.88073673  0.87055887  0.61611928  1
  Mg  Mg18  1  0.63064580  0.87195990  0.13504030  1
  Mg  Mg19  1  0.24325295  -0.00246932  0.07747947  1
  Mg  Mg20  1  0.76814917  0.04007955  0.31445037  1
  Mg  Mg21  1  -0.01300005  0.06532862  0.54292523  1
  Mg  Mg22  1  0.45623704  0.20774218  0.75270921  1
  Mg  Mg23  1  0.53055342  0.25579707  0.28867343  1
  Mg  Mg24  1  0.49359134  0.06743843  0.25180493  1
  Mg  Mg25  1  -0.03738545  0.20638121  0.41845887  1
  Mg  Mg26  1  0.14642990  0.28228438  0.30508452  1
  Mg  Mg27  1  -0.00293864  0.19174804  0.23266461  1
  Mg  Mg28  1  0.23648884  0.43377715  0.28338286  1
  Mg  Mg29  1  0.02675965  0.37532930  0.48904235  1
  Mg  Mg30  1  0.24382582  0.11431484  0.25636188  1
  Mg  Mg31  1  0.77864019  0.19662842  0.70382115  1
  Ti  Ti32  1  0.87653500  0.39600519  0.36829080  1
  Ti  Ti33  1  0.62348510  0.62704400  0.86834110  1
  Ti  Ti34  1  0.87134206  0.11211186  0.11444214  1
  Ti  Ti35  1  0.88652885  0.88127266  0.87484838  1
  Ti  Ti36  1  0.37388930  0.12767036  0.12479766  1
  Ti  Ti37  1  0.87524960  0.62349156  0.61637120  1
  Ti  Ti38  1  0.37698792  0.36712133  0.63071580  1
  Ti  Ti39  1  0.37945399  0.88097158  0.13265405  1
  Ti  Ti40  1  0.12890498  0.10744526  0.87427233  1
  Ti  Ti41  1  0.12067646  0.38334801  0.86997530  1
  Ti  Ti42  1  0.13355668  0.13508721  0.62677746  1
  Ti  Ti43  1  0.12988804  0.62719002  0.61830751  1
  Ti  Ti44  1  0.62759402  0.61984078  0.62739706  1
  Ti  Ti45  1  0.38049385  0.87618142  0.87574697  1
  Ti  Ti46  1  0.61542196  0.13217155  0.87254594  1
  Ti  Ti47  1  0.62648254  0.89079345  0.36881068  1
  Ti  Ti48  1  0.86716959  0.86355104  0.37840724  1
  Ti  Ti49  1  0.88216480  0.38073349  0.62405002  1
  Ti  Ti50  1  0.12000715  0.38466673  0.11779129  1
  Ti  Ti51  1  0.62185252  0.61944007  0.38413968  1
  Ti  Ti52  1  0.11971386  0.88276306  0.37150882  1
  Ti  Ti53  1  0.62687104  0.62302829  0.11815472  1
  Ti  Ti54  1  0.13510919  0.62752030  0.86938513  1
  Ti  Ti55  1  0.12910003  0.62019333  0.37400146  1
  Ti  Ti56  1  0.36743535  0.37326054  0.13733000  1
  Ti  Ti57  1  0.87893443  0.61887548  0.12406390  1
  Ti  Ti58  1  0.13456369  0.87162973  0.87281220  1
  Ti  Ti59  1  0.61993167  0.36941624  0.62488941  1
  Ti  Ti60  1  0.88068791  0.37861728  0.11808140  1
  Ti  Ti61  1  0.38233219  0.62871936  0.87431877  1
  Ti  Ti62  1  0.12563160  0.87011115  0.13678995  1
  Ti  Ti63  1  0.87215914  0.62389763  0.86089055  1
  Ti  Ti64  1  0.87436784  0.86186162  0.13026318  1
  Ti  Ti65  1  0.36998603  0.37740161  0.87599827  1
  Ti  Ti66  1  0.62145881  0.13097805  0.38141420  1
  Ti  Ti67  1  0.12810461  0.87463119  0.61472257  1
  Ti  Ti68  1  0.62003219  0.13344776  0.62202143  1
  Ti  Ti69  1  0.87669565  0.37111414  0.87153240  1
  Ti  Ti70  1  0.86743572  0.11770069  0.88066748  1
  Ti  Ti71  1  0.36540255  0.87979596  0.36679417  1
  Ti  Ti72  1  0.62375639  0.36876669  0.87543015  1
  Ti  Ti73  1  0.38007532  0.62436274  0.13121834  1
  Bi  Bi74  1  0.26087687  0.73424929  0.26025103  1
  Bi  Bi75  1  0.80054628  0.04347141  0.51516570  1
  Bi  Bi76  1  0.48048525  0.01079160  0.48644172  1
  Bi  Bi77  1  0.72824763  0.01328513  0.75701367  1
  Bi  Bi78  1  0.28412137  0.75019891  0.00898495  1
  Bi  Bi79  1  -0.02630466  0.22305876  0.74088031  1
  Bi  Bi80  1  0.74948054  0.73506295  0.26379369  1
  Bi  Bi81  1  0.72977145  0.26714461  0.01839796  1
  Bi  Bi82  1  0.01733666  0.49381322  0.72571810  1
  Bi  Bi83  1  0.76625238  0.77229030  0.73096189  1
  Bi  Bi84  1  0.01040913  -0.01532258  0.02635407  1
  Bi  Bi85  1  0.50091855  0.00052645  0.73252964  1
  Bi  Bi86  1  0.78668026  0.26179257  0.48654007  1
  Bi  Bi87  1  0.22887489  0.02623904  0.48042837  1
  Bi  Bi88  1  0.76370106  0.75407294  -0.02244073  1
  Bi  Bi89  1  0.78871574  0.23854838  0.24244198  1
  Bi  Bi90  1  0.73653889  -0.02092711  0.01452887  1
  Bi  Bi91  1  0.74567393  0.47669083  0.75696007  1
  Bi  Bi92  1  0.25222490  0.23264868  0.77988580  1
  Bi  Bi93  1  -0.00671550  0.52111083  -0.02546555  1
  Bi  Bi94  1  0.74440330  0.50839239  0.24371413  1
  Bi  Bi95  1  0.47137331  0.48886500  0.48531516  1
  Bi  Bi96  1  0.02031096  0.74941221  -0.00364882  1
  Bi  Bi97  1  0.26120832  0.76144992  0.73861149  1
  Bi  Bi98  1  0.51850198  0.00377202  0.03304432  1
  Bi  Bi99  1  0.27815998  0.00115413  0.74793079  1
  Bi  Bi100  1  0.01359615  0.23215658  -0.02389042  1
  Bi  Bi101  1  0.01545946  0.72543424  0.25851999  1
  Bi  Bi102  1  0.48311628  0.26064633  0.01954683  1
  Bi  Bi103  1  -0.04053504  0.00175203  0.27580733  1
  Bi  Bi104  1  0.23657659  0.49996200  0.49075174  1
  Bi  Bi105  1  0.20968081  0.26642761  0.48098987  1
  Bi  Bi106  1  0.50965465  0.77068948  0.26913221  1
  Bi  Bi107  1  0.73866883  0.51179419  -0.01068205  1
  Bi  Bi108  1  0.48285721  0.24784699  0.49411162  1
  Bi  Bi109  1  0.23233602  0.26960025  0.01041046  1
  Bi  Bi110  1  0.52410324  0.77386263  0.00180081  1
  Bi  Bi111  1  0.01418844  0.75291842  0.73299458  1
  Bi  Bi112  1  0.24509872  0.51829094  0.01355098  1
  Bi  Bi113  1  0.73775098  0.48320325  0.50951694  1
  Bi  Bi114  1  0.52129752  0.77173475  0.72947112  1
  Bi  Bi115  1  0.71840378  0.75979607  0.50783229  1
  Bi  Bi116  1  0.26906831  0.49240377  0.73088808  1
  Bi  Bi117  1  0.51939143  0.48001642  0.26350276  1
  Bi  Bi118  1  0.49976736  0.50138093  0.74383023  1
  Bi  Bi119  1  0.48524404  0.49723899  0.00453391  1
  Bi  Bi120  1  0.01481161  0.48297839  0.25663481  1
  Bi  Bi121  1  -0.00600899  -0.00699555  0.72293773  1
  Bi  Bi122  1  0.47901306  0.74964620  0.50479688  1
  Bi  Bi123  1  -0.01056744  0.74688446  0.48700424  1
  Bi  Bi124  1  0.26332233  0.74939863  0.49587197  1
  O  O125  1  0.09989909  0.11625990  -0.00898173  1
  O  O126  1  0.13066379  0.17224807  0.25035110  1
  O  O127  1  0.10281391  0.09330502  0.50593584  1
  O  O128  1  0.15377258  0.13389460  0.74861905  1
  O  O129  1  0.15672647  0.38831675  -0.00400620  1
  O  O130  1  0.12672339  0.38168256  0.23844795  1
  O  O131  1  0.14923204  0.38729851  0.50952662  1
  O  O132  1  0.10457177  0.37185204  0.75651994  1
  O  O133  1  0.09708079  0.62053872  -0.00461291  1
  O  O134  1  0.14225106  0.65176912  0.25078986  1
  O  O135  1  0.12349370  0.61308132  0.49797344  1
  O  O136  1  0.13298402  0.64513412  0.75307641  1
  O  O137  1  0.09472098  0.87890386  -0.00902290  1
  O  O138  1  0.13179427  0.85397465  0.24972521  1
  O  O139  1  0.12178540  0.88086085  0.49840824  1
  O  O140  1  0.14315244  0.84061004  0.75215102  1
  O  O141  1  0.38957813  0.14325923  0.00756300  1
  O  O142  1  0.37070816  0.10953580  0.24878567  1
  O  O143  1  0.40634036  0.12777522  0.50288223  1
  O  O144  1  0.34584623  0.12900672  0.75189850  1
  O  O145  1  0.36237347  0.35031813  -0.00713840  1
  O  O146  1  0.36232132  0.40327779  0.24694233  1
  O  O147  1  0.38687666  0.35755481  0.51070061  1
  O  O148  1  0.38905134  0.41498419  0.75422162  1
  O  O149  1  0.39116801  0.64847621  -0.00284377  1
  O  O150  1  0.34968677  0.62068558  0.24295562  1
  O  O151  1  0.37647559  0.65540980  0.49755005  1
  O  O152  1  0.37536968  0.59471264  0.75613341  1
  O  O153  1  0.38623359  0.85786055  -0.00575531  1
  O  O154  1  0.36193277  0.88772656  0.24749312  1
  O  O155  1  0.38098832  0.85024873  0.49455667  1
  O  O156  1  0.34526330  0.87299133  0.75251148  1
  O  O157  1  0.60625951  0.10611026  -0.01459664  1
  O  O158  1  0.59900144  0.14946501  0.26206951  1
  O  O159  1  0.59328103  0.10578209  0.50807609  1
  O  O160  1  0.67097848  0.14340449  0.74746996  1
  O  O161  1  0.64893973  0.39045587  -0.00562579  1
  O  O162  1  0.59187204  0.35788278  0.25461009  1
  O  O163  1  0.61093861  0.40594958  0.50962641  1
  O  O164  1  0.63966482  0.37806116  0.74930761  1
  O  O165  1  0.61261516  0.59207321  0.00076857  1
  O  O166  1  0.65197660  0.63590296  0.24375733  1
  O  O167  1  0.62457365  0.60641378  0.49967897  1
  O  O168  1  0.63510405  0.64366480  0.75181169  1
  O  O169  1  0.60382576  0.88805194  -0.00352645  1
  O  O170  1  0.63680810  0.84201599  0.25650338  1
  O  O171  1  0.62071758  0.87565363  0.48800968  1
  O  O172  1  0.64570612  0.85226977  0.74699001  1
  O  O173  1  0.89526565  0.14193468  -0.00150863  1
  O  O174  1  0.84354958  0.10270514  0.23767563  1
  O  O175  1  0.89650174  0.13687151  0.49748772  1
  O  O176  1  0.87030451  0.12802095  0.75811181  1
  O  O177  1  0.87290956  0.35353174  0.00613643  1
  O  O178  1  0.88363729  0.41233837  0.25148073  1
  O  O179  1  0.89870941  0.35015100  0.50292292  1
  O  O180  1  0.88851882  0.40247896  0.75285613  1
  O  O181  1  0.90026302  0.63184858  0.00715840  1
  O  O182  1  0.83978194  0.61770516  0.24517029  1
  O  O183  1  0.89314095  0.64220323  0.50322911  1
  O  O184  1  0.85132400  0.60889900  0.75197147  1
  O  O185  1  0.90250869  0.86451766  -0.00477939  1
  O  O186  1  0.86076445  0.88132346  0.24432946  1
  O  O187  1  0.88892319  0.84851232  0.49119929  1
  O  O188  1  0.84869422  0.88173526  0.75526223  1
  O  O189  1  -0.01010564  0.11002888  0.13963545  1
  O  O190  1  -0.00755295  0.12007737  0.33742114  1
  O  O191  1  0.01285746  0.11715797  0.65332257  1
  O  O192  1  0.01095533  0.13960294  0.85617697  1
  O  O193  1  0.00343643  0.40107728  0.11682994  1
  O  O194  1  -0.00767177  0.41582061  0.37856206  1
  O  O195  1  0.00095949  0.40187355  0.61697114  1
  O  O196  1  0.00284794  0.38739482  0.89573541  1
  O  O197  1  -0.00796709  0.61029116  0.15708987  1
  O  O198  1  0.00937039  0.60642629  0.34370353  1
  O  O199  1  -0.00295955  0.60785132  0.64254985  1
  O  O200  1  -0.00754767  0.61158236  0.86225369  1
  O  O201  1  -0.00511615  0.89378289  0.13491391  1
  O  O202  1  0.00310337  0.89589917  0.36177048  1
  O  O203  1  0.00601032  0.87122824  0.65275668  1
  O  O204  1  -0.00202823  0.86805975  0.84298092  1
  O  O205  1  0.25045979  0.11563086  0.12692944  1
  O  O206  1  0.24451765  0.13268374  0.38748000  1
  O  O207  1  0.24642044  0.12152842  0.59106565  1
  O  O208  1  0.24526817  0.13983115  0.88755682  1
  O  O209  1  0.25309865  0.35347204  0.12574674  1
  O  O210  1  0.24697438  0.33164257  0.36161861  1
  O  O211  1  0.26156995  0.36580336  0.65673633  1
  O  O212  1  0.25492932  0.38167620  0.85398986  1
  O  O213  1  0.25272902  0.63532361  0.09399985  1
  O  O214  1  0.24749274  0.66262396  0.38123734  1
  O  O215  1  0.24485529  0.65144783  0.61877771  1
  O  O216  1  0.24983161  0.62534176  0.89165061  1
  O  O217  1  0.24165205  0.87132216  0.10520424  1
  O  O218  1  0.25110498  0.84716935  0.37823038  1
  O  O219  1  0.24583656  0.84683184  0.61907810  1
  O  O220  1  0.24564088  0.86570083  0.89056671  1
  O  O221  1  0.49572688  0.09985142  0.13390640  1
  O  O222  1  0.50471515  0.07883665  0.37284677  1
  O  O223  1  0.50591907  0.12463897  0.66367319  1
  O  O224  1  0.50396320  0.13394167  0.84380730  1
  O  O225  1  0.48977157  0.38633837  0.09755714  1
  O  O226  1  0.49522391  0.40520373  0.37994044  1
  O  O227  1  0.50449747  0.40192778  0.63900905  1
  O  O228  1  0.50919844  0.39146607  0.89028048  1
  O  O229  1  0.49641413  0.61168595  0.13657166  1
  O  O230  1  0.50027506  0.58473292  0.37253766  1
  O  O231  1  0.51007410  0.59270941  0.63452405  1
  O  O232  1  0.50488014  0.62097665  0.86570088  1
  O  O233  1  0.49568803  0.87756921  0.12934475  1
  O  O234  1  0.50466736  0.88626034  0.35270580  1
  O  O235  1  0.50466390  0.88554648  0.64890085  1
  O  O236  1  0.49484102  0.86359557  0.85324459  1
  O  O237  1  0.75668227  0.16031184  0.11275652  1
  O  O238  1  0.73736616  0.13272114  0.39504164  1
  O  O239  1  0.74237856  0.13525972  0.60046096  1
  O  O240  1  0.75536896  0.11398837  0.89006076  1
  O  O241  1  0.75907454  0.34614669  0.13681899  1
  O  O242  1  0.75027102  0.36767014  0.40577147  1
  O  O243  1  0.75244027  0.36764495  0.59356307  1
  O  O244  1  0.75936654  0.37800620  0.86827675  1
  O  O245  1  0.74573077  0.62554837  0.09718340  1
  O  O246  1  0.74054236  0.65898938  0.38249689  1
  O  O247  1  0.75068601  0.65217121  0.61027378  1
  O  O248  1  0.75014768  0.62762681  0.90062163  1
  O  O249  1  0.75507376  0.86733120  0.09442463  1
  O  O250  1  0.75129840  0.84335316  0.38070088  1
  O  O251  1  0.75309132  0.84899660  0.61096099  1
  O  O252  1  0.75499227  0.87741246  0.90578950  1
  O  O253  1  0.12515412  -0.00669659  0.11541709  1
  O  O254  1  0.14765653  -0.00530713  0.36056119  1
  O  O255  1  0.12197800  -0.01271994  0.64831461  1
  O  O256  1  0.12724154  -0.00538967  0.85738231  1
  O  O257  1  0.11152282  0.25842573  0.08908913  1
  O  O258  1  0.08462895  0.25234398  0.41398577  1
  O  O259  1  0.12228211  0.24598627  0.61124441  1
  O  O260  1  0.13155660  0.26138503  0.89265116  1
  O  O261  1  0.14927831  0.49926356  0.12071965  1
  O  O262  1  0.17108705  0.51234925  0.36032886  1
  O  O263  1  0.13873965  0.50850210  0.64724025  1
  O  O264  1  0.12433287  0.50584742  0.87000528  1
  O  O265  1  0.10159447  0.75504033  0.11089411  1
  O  O266  1  0.09332123  0.74878056  0.38222033  1
  O  O267  1  0.09739699  0.74502469  0.61402201  1
  O  O268  1  0.11595637  0.74775923  0.89173560  1
  O  O269  1  0.36400219  -0.00547410  0.10374791  1
  O  O270  1  0.36178464  -0.00838299  0.40242748  1
  O  O271  1  0.37533527  0.00047270  0.64534775  1
  O  O272  1  0.36924402  -0.00643633  0.86123923  1
  O  O273  1  0.39840758  0.25121218  0.13494631  1
  O  O274  1  0.42794866  0.24586535  0.36684770  1
  O  O275  1  0.39953321  0.25627710  0.64961081  1
  O  O276  1  0.38495429  0.26350408  0.84436047  1
  O  O277  1  0.36410636  0.50126585  0.09696317  1
  O  O278  1  0.34839542  0.49401824  0.40587876  1
  O  O279  1  0.34702647  0.49909712  0.61097831  1
  O  O280  1  0.37763004  0.50214689  0.90726710  1
  O  O281  1  0.36802446  0.75193022  0.12978483  1
  O  O282  1  0.39678515  0.75471201  0.35351366  1
  O  O283  1  0.40967242  0.74775905  0.63595532  1
  O  O284  1  0.36714870  0.74352991  0.85759440  1
  O  O285  1  0.63397600  0.00111466  0.11696437  1
  O  O286  1  0.65554034  -0.00222251  0.34812645  1
  O  O287  1  0.62979729  0.00867437  0.65511301  1
  O  O288  1  0.62450962  0.00666432  0.84330880  1
  O  O289  1  0.61166076  0.25135978  0.09238723  1
  O  O290  1  0.60011056  0.24500944  0.39891597  1
  O  O291  1  0.61393098  0.25499857  0.61558924  1
  O  O292  1  0.62632559  0.25351494  0.88922230  1
  O  O293  1  0.63333039  0.49976171  0.15001993  1
  O  O294  1  0.64103075  0.50212232  0.34481886  1
  O  O295  1  0.65907066  0.50455329  0.64125806  1
  O  O296  1  0.64749338  0.50507468  0.86007920  1
  O  O297  1  0.61271644  0.74208043  0.10417180  1
  O  O298  1  0.58582233  0.73323733  0.37889014  1
  O  O299  1  0.60240707  0.74158198  0.60775865  1
  O  O300  1  0.63013986  0.74355983  0.90741662  1
  O  O301  1  0.85651383  0.00028962  0.09681295  1
  O  O302  1  0.86047197  -0.01462825  0.37729389  1
  O  O303  1  0.90200437  -0.00534217  0.60312005  1
  O  O304  1  0.88979529  0.00167881  0.88251640  1
  O  O305  1  0.90323337  0.25767895  0.17178491  1
  O  O306  1  0.87311472  0.26825382  0.35977484  1
  O  O307  1  0.86839731  0.26794777  0.65517026  1
  O  O308  1  0.88844788  0.25582349  0.86111424  1
  O  O309  1  0.85639880  0.49712597  0.11020373  1
  O  O310  1  0.83826472  0.50251255  0.39008283  1
  O  O311  1  0.85049505  0.50166799  0.61077899  1
  O  O312  1  0.86729311  0.50295958  0.89904562  1
  O  O313  1  0.88047615  0.74714269  0.13497922  1
  O  O314  1  0.90849320  0.74761630  0.36162941  1
  O  O315  1  0.89239532  0.74253245  0.64868113  1
  O  O316  1  0.86377998  0.74687251  0.87036767  1
