# generated using pymatgen
data_Mg32Ti42(Bi17O64)3
_symmetry_space_group_name_H-M   'P 1'
_cell_length_a   15.91914742
_cell_length_b   15.93876568
_cell_length_c   15.95055817
_cell_angle_alpha   89.93638196
_cell_angle_beta   90.01992372
_cell_angle_gamma   90.06114243
_symmetry_Int_Tables_number   1
_chemical_formula_structural   Mg32Ti42(Bi17O64)3
_chemical_formula_sum   'Mg32 Ti42 Bi51 O192'
_cell_volume   4047.15497311
_cell_formula_units_Z   1
loop_
 _symmetry_equiv_pos_site_id
 _symmetry_equiv_pos_as_xyz
  1  'x, y, z'
loop_
 _atom_site_type_symbol
 _atom_site_label
 _atom_site_symmetry_multiplicity
 _atom_site_fract_x
 _atom_site_fract_y
 _atom_site_fract_z
 _atom_site_occupancy
  Mg  Mg0  1  0.36976636  0.37773964  0.88870109  1
  Mg  Mg1  1  0.62411502  0.13662154  0.37437791  1
  Mg  Mg2  1  0.37036034  0.86954799  0.12642995  1
  Mg  Mg3  1  0.11625263  0.61521269  0.37262735  1
  Mg  Mg4  1  0.88314217  0.61801890  0.86977481  1
  Mg  Mg5  1  0.63029890  0.12712356  0.12518584  1
  Mg  Mg6  1  0.37431138  0.12250223  0.87891268  1
  Mg  Mg7  1  0.87884732  0.12434965  0.37339451  1
  Mg  Mg8  1  0.86985292  0.88052173  0.61593288  1
  Mg  Mg9  1  0.88646218  0.12856116  0.63101346  1
  Mg  Mg10  1  0.61237749  0.87731285  0.87070876  1
  Mg  Mg11  1  0.88026204  0.36946958  0.12932208  1
  Mg  Mg12  1  0.37551743  0.13776188  0.62043317  1
  Mg  Mg13  1  0.87111826  0.62828099  0.37480314  1
  Mg  Mg14  1  0.87976352  0.86431651  0.87640350  1
  Mg  Mg15  1  0.62667553  0.38094202  0.87463248  1
  Mg  Mg16  1  0.13183473  0.63825140  0.11593573  1
  Mg  Mg17  1  0.88152869  0.37089703  0.63248100  1
  Mg  Mg18  1  0.12557573  0.36607288  0.13108115  1
  Mg  Mg19  1  0.22478910  0.74856115  -0.01051329  1
  Mg  Mg20  1  -0.02017296  0.55488093  0.70979819  1
  Mg  Mg21  1  0.01609164  0.28741019  0.51075493  1
  Mg  Mg22  1  0.79959386  0.51245651  0.72436808  1
  Mg  Mg23  1  0.49435447  0.46074288  0.79443082  1
  Mg  Mg24  1  -0.01947011  0.57963858  0.22105399  1
  Mg  Mg25  1  0.24435482  0.20670902  0.20925827  1
  Mg  Mg26  1  0.46841973  0.26671427  0.51820908  1
  Mg  Mg27  1  0.00943765  0.31097431  0.75456200  1
  Mg  Mg28  1  0.25321517  0.29507246  0.04245326  1
  Mg  Mg29  1  0.54398659  0.55831788  -0.00452738  1
  Mg  Mg30  1  -0.04166253  0.73131180  0.67859757  1
  Mg  Mg31  1  -0.07085942  0.55265921  0.53652708  1
  Ti  Ti32  1  0.12607238  0.37442019  0.88579010  1
  Ti  Ti33  1  0.38086890  0.61553439  0.35706402  1
  Ti  Ti34  1  0.86848102  0.12530002  0.12501889  1
  Ti  Ti35  1  0.12866115  0.88363469  0.38265837  1
  Ti  Ti36  1  0.12232045  0.13677713  0.62996940  1
  Ti  Ti37  1  0.37539109  0.86832477  0.61641676  1
  Ti  Ti38  1  0.87046185  0.87739393  0.38273078  1
  Ti  Ti39  1  0.13152434  0.61875323  0.63470126  1
  Ti  Ti40  1  0.37244157  0.14166087  0.38024652  1
  Ti  Ti41  1  0.63645865  0.61065611  0.85252800  1
  Ti  Ti42  1  0.12299900  0.87018284  0.87595944  1
  Ti  Ti43  1  0.88498781  0.38254651  0.39264744  1
  Ti  Ti44  1  0.61714818  0.88320394  0.62404459  1
  Ti  Ti45  1  0.13271282  0.86899651  0.63393774  1
  Ti  Ti46  1  0.62803880  0.62227667  0.37176294  1
  Ti  Ti47  1  0.61412589  0.62767129  0.63108962  1
  Ti  Ti48  1  0.37931554  0.62361890  0.63216564  1
  Ti  Ti49  1  0.12650825  0.12540159  0.09992216  1
  Ti  Ti50  1  0.11563031  0.62369771  0.87329310  1
  Ti  Ti51  1  0.37372722  0.87660696  0.88277180  1
  Ti  Ti52  1  0.88222187  0.39135490  0.87334957  1
  Ti  Ti53  1  0.12477867  0.12492012  0.37289387  1
  Ti  Ti54  1  0.62309168  0.12640700  0.87758449  1
  Ti  Ti55  1  0.38418038  0.37712474  0.37079650  1
  Ti  Ti56  1  0.85614997  0.87685979  0.12975708  1
  Ti  Ti57  1  0.63022369  0.38321132  0.38981403  1
  Ti  Ti58  1  0.63465650  0.37748972  0.12698179  1
  Ti  Ti59  1  0.37884360  0.62335987  0.88717233  1
  Ti  Ti60  1  0.37004214  0.87840863  0.37413594  1
  Ti  Ti61  1  0.62418347  0.14464341  0.62849929  1
  Ti  Ti62  1  0.37543966  0.38231647  0.13746885  1
  Ti  Ti63  1  0.13408405  0.86908935  0.12542364  1
  Ti  Ti64  1  0.12201486  0.11379628  0.86527858  1
  Ti  Ti65  1  0.37530600  0.37685252  0.62959263  1
  Ti  Ti66  1  0.11940963  0.38514252  0.63213567  1
  Ti  Ti67  1  0.62639974  0.87491069  0.13187993  1
  Ti  Ti68  1  0.12480451  0.37940193  0.37741521  1
  Ti  Ti69  1  0.63101591  0.38105977  0.63951612  1
  Ti  Ti70  1  0.89172570  0.11997980  0.87486080  1
  Ti  Ti71  1  0.37779085  0.12900101  0.11333271  1
  Ti  Ti72  1  0.63176658  0.87192715  0.38101477  1
  Ti  Ti73  1  0.37354748  0.63115869  0.11495686  1
  Bi  Bi74  1  0.50639445  0.03702404  0.50171754  1
  Bi  Bi75  1  0.52868053  0.25117801  0.23579509  1
  Bi  Bi76  1  0.75581539  0.73917708  0.51096312  1
  Bi  Bi77  1  0.49713634  0.01621057  0.74714461  1
  Bi  Bi78  1  0.23303980  0.26146010  0.49129545  1
  Bi  Bi79  1  0.00557552  0.02567463  0.51903277  1
  Bi  Bi80  1  0.73857929  0.51773044  0.52811549  1
  Bi  Bi81  1  0.73210459  0.75974448  -0.03367470  1
  Bi  Bi82  1  0.51254764  0.01500419  0.25846503  1
  Bi  Bi83  1  0.49342690  0.48703338  0.51390177  1
  Bi  Bi84  1  0.26727154  0.72362629  0.48735266  1
  Bi  Bi85  1  0.52443055  0.00502699  0.00315346  1
  Bi  Bi86  1  0.49388268  0.27819198  0.00326049  1
  Bi  Bi87  1  0.26048409  0.75129223  0.77804975  1
  Bi  Bi88  1  0.74323382  0.01372449  0.26631336  1
  Bi  Bi89  1  0.74702234  0.01915791  0.51835779  1
  Bi  Bi90  1  0.25244099  0.02036489  0.50206332  1
  Bi  Bi91  1  0.76955934  0.00028775  -0.02720693  1
  Bi  Bi92  1  0.49980646  0.74537332  0.48456966  1
  Bi  Bi93  1  0.74569177  0.52022082  0.01566642  1
  Bi  Bi94  1  -0.00483784  -0.02404634  0.01745727  1
  Bi  Bi95  1  0.78510992  0.24088591  0.75658546  1
  Bi  Bi96  1  0.74339904  0.26968722  -0.02196640  1
  Bi  Bi97  1  -0.00628774  -0.04406228  0.73485497  1
  Bi  Bi98  1  0.27850330  0.01090245  0.74432455  1
  Bi  Bi99  1  0.76052683  0.26260253  0.28021144  1
  Bi  Bi100  1  0.04130193  0.73915726  0.50716202  1
  Bi  Bi101  1  -0.04101077  0.73789531  0.02148567  1
  Bi  Bi102  1  0.21346199  0.50659622  0.23318849  1
  Bi  Bi103  1  -0.02381858  0.51684548  0.03099722  1
  Bi  Bi104  1  -0.01947366  0.25576608  0.01565991  1
  Bi  Bi105  1  0.24323076  0.25342253  0.78108461  1
  Bi  Bi106  1  0.77514698  0.71469176  0.73262945  1
  Bi  Bi107  1  0.00075837  0.27233787  0.25880184  1
  Bi  Bi108  1  0.79646400  0.50068840  0.23569609  1
  Bi  Bi109  1  0.77964086  0.24523132  0.50530224  1
  Bi  Bi110  1  0.52881590  0.52314017  0.20698076  1
  Bi  Bi111  1  -0.00569363  0.76026530  0.28374328  1
  Bi  Bi112  1  0.51210999  0.75567883  0.02425404  1
  Bi  Bi113  1  0.25828077  0.49752356  0.77151479  1
  Bi  Bi114  1  0.22968268  0.50950524  0.01455783  1
  Bi  Bi115  1  0.22417268  0.74366964  0.26452913  1
  Bi  Bi116  1  0.49744465  0.77268932  0.25825897  1
  Bi  Bi117  1  0.27084997  0.00928073  0.23805771  1
  Bi  Bi118  1  0.25276849  -0.00951531  0.00551800  1
  Bi  Bi119  1  0.49514037  0.76094287  0.75380912  1
  Bi  Bi120  1  0.74371897  0.69783850  0.21219198  1
  Bi  Bi121  1  0.75344353  -0.03551307  0.75440036  1
  Bi  Bi122  1  0.47909981  0.25214369  0.78044970  1
  Bi  Bi123  1  -0.01892468  0.00439454  0.25929679  1
  Bi  Bi124  1  0.25433108  0.49005501  0.50160310  1
  O  O125  1  0.14519338  0.11469819  -0.01080177  1
  O  O126  1  0.14486040  0.14063215  0.26123427  1
  O  O127  1  0.13176433  0.09100895  0.50828013  1
  O  O128  1  0.10388762  0.12732263  0.74419023  1
  O  O129  1  0.14903042  0.36470116  -0.00157845  1
  O  O130  1  0.11838034  0.35131316  0.26236928  1
  O  O131  1  0.12560455  0.36933291  0.50721041  1
  O  O132  1  0.12505016  0.36356405  0.74777004  1
  O  O133  1  0.16386214  0.62950625  -0.00833435  1
  O  O134  1  0.13661020  0.62830121  0.24273919  1
  O  O135  1  0.13422135  0.63140737  0.50153503  1
  O  O136  1  0.09082037  0.62328801  0.74890493  1
  O  O137  1  0.16389200  0.87261998  -0.00813993  1
  O  O138  1  0.12990239  0.86184441  0.24267881  1
  O  O139  1  0.11811999  0.86977227  0.49935626  1
  O  O140  1  0.12263978  0.86735825  0.75049739  1
  O  O141  1  0.36771293  0.10240505  0.00314141  1
  O  O142  1  0.34223116  0.14317451  0.26743073  1
  O  O143  1  0.37408970  0.09454151  0.50125724  1
  O  O144  1  0.39648817  0.11920714  0.74254301  1
  O  O145  1  0.36512510  0.35881993  0.01252035  1
  O  O146  1  0.38480402  0.35531117  0.25930530  1
  O  O147  1  0.36672281  0.41113507  0.50015475  1
  O  O148  1  0.39912498  0.37619483  0.74206933  1
  O  O149  1  0.35122584  0.59233943  -0.00366115  1
  O  O150  1  0.39379026  0.63896048  0.24334716  1
  O  O151  1  0.34268640  0.60492019  0.50563410  1
  O  O152  1  0.39059118  0.65866193  0.74731090  1
  O  O153  1  0.36940077  0.90195928  -0.00281514  1
  O  O154  1  0.37055658  0.84325134  0.25624124  1
  O  O155  1  0.37846911  0.88521442  0.50019483  1
  O  O156  1  0.37964804  0.83838223  0.74571347  1
  O  O157  1  0.62409050  0.10947100  -0.00106140  1
  O  O158  1  0.59719793  0.12348986  0.24868211  1
  O  O159  1  0.63893597  0.11146603  0.49872894  1
  O  O160  1  0.59554415  0.12751899  0.74273140  1
  O  O161  1  0.62251811  0.34893310  0.00524492  1
  O  O162  1  0.60607009  0.40207022  0.24174387  1
  O  O163  1  0.64992090  0.37243226  0.49997132  1
  O  O164  1  0.59137915  0.38940201  0.74558685  1
  O  O165  1  0.66045551  0.62135010  -0.02377760  1
  O  O166  1  0.60586174  0.63553679  0.25514278  1
  O  O167  1  0.65609016  0.63021319  0.50181963  1
  O  O168  1  0.58690881  0.62153740  0.74297038  1
  O  O169  1  0.60326141  0.89037102  0.00396687  1
  O  O170  1  0.61954354  0.85615257  0.24876238  1
  O  O171  1  0.62136474  0.88300847  0.49706484  1
  O  O172  1  0.62786141  0.88492462  0.74353751  1
  O  O173  1  0.86759539  0.10188967  0.00143331  1
  O  O174  1  0.90492501  0.12982875  0.23896854  1
  O  O175  1  0.84858814  0.11819919  0.50089090  1
  O  O176  1  0.88105380  0.14047659  0.75844069  1
  O  O177  1  0.89620511  0.39515638  -0.00255236  1
  O  O178  1  0.88805986  0.35811680  0.26260358  1
  O  O179  1  0.88349952  0.34265905  0.50622779  1
  O  O180  1  0.88526991  0.33796094  0.76085503  1
  O  O181  1  0.86372952  0.58858185  -0.00537355  1
  O  O182  1  0.86247388  0.62689109  0.24467551  1
  O  O183  1  0.83539029  0.62667519  0.49796799  1
  O  O184  1  0.89801855  0.64948077  0.74875890  1
  O  O185  1  0.87159018  0.89442568  0.00608043  1
  O  O186  1  0.88935140  0.87154518  0.24092024  1
  O  O187  1  0.87441924  0.89986055  0.49158016  1
  O  O188  1  0.86330697  0.87582629  0.74976820  1
  O  O189  1  0.00889029  0.14647977  0.09955604  1
  O  O190  1  0.00792439  0.10028348  0.37709203  1
  O  O191  1  0.00703785  0.15164204  0.58547876  1
  O  O192  1  0.00354399  0.13402407  0.89020567  1
  O  O193  1  0.00481649  0.33199144  0.12905994  1
  O  O194  1  0.00225365  0.35105536  0.38848472  1
  O  O195  1  0.00992168  0.33936046  0.63035340  1
  O  O196  1  0.00740903  0.35873398  0.87244693  1
  O  O197  1  0.00570568  0.64121251  0.11109602  1
  O  O198  1  -0.00503303  0.62715469  0.33967142  1
  O  O199  1  0.00026720  0.63720757  0.60331286  1
  O  O200  1  0.00848867  0.62755997  0.90952831  1
  O  O201  1  0.01364387  0.85419787  0.09416408  1
  O  O202  1  0.00547916  0.88835516  0.36217502  1
  O  O203  1  -0.00319272  0.84553818  0.64052120  1
  O  O204  1  0.00935810  0.86184137  0.89529544  1
  O  O205  1  0.24719920  0.09311338  0.12844746  1
  O  O206  1  0.25118463  0.13303780  0.40963414  1
  O  O207  1  0.24699688  0.09624475  0.62817040  1
  O  O208  1  0.24644364  0.11390863  0.84126510  1
  O  O209  1  0.25514838  0.39202810  0.13663148  1
  O  O210  1  0.24978458  0.36646181  0.38968902  1
  O  O211  1  0.25323286  0.40456662  0.62175458  1
  O  O212  1  0.24988944  0.38062675  0.85610095  1
  O  O213  1  0.25932654  0.59145780  0.13193059  1
  O  O214  1  0.25860162  0.63787097  0.36314987  1
  O  O215  1  0.24669826  0.60620548  0.64812830  1
  O  O216  1  0.25142715  0.61392924  0.84099989  1
  O  O217  1  0.25112502  0.91538765  0.12688184  1
  O  O218  1  0.24875987  0.85033127  0.37736585  1
  O  O219  1  0.24883407  0.88693397  0.62865025  1
  O  O220  1  0.25635645  0.88453567  0.84992878  1
  O  O221  1  0.49109233  0.15800089  0.12235175  1
  O  O222  1  0.49186964  0.11616836  0.38020082  1
  O  O223  1  0.50585541  0.15478014  0.58150375  1
  O  O224  1  0.50121868  0.15731721  0.88305120  1
  O  O225  1  0.49458775  0.34523742  0.12543875  1
  O  O226  1  0.50102512  0.37588473  0.40285247  1
  O  O227  1  0.49879317  0.36845641  0.58965351  1
  O  O228  1  0.49593914  0.35502081  0.88077788  1
  O  O229  1  0.49386742  0.62959862  0.09227821  1
  O  O230  1  0.49581692  0.62712742  0.39994148  1
  O  O231  1  0.49714344  0.64386755  0.59541475  1
  O  O232  1  0.49004237  0.64254712  0.90789778  1
  O  O233  1  0.49554948  0.84547269  0.13416396  1
  O  O234  1  0.49566691  0.87019134  0.36602154  1
  O  O235  1  0.49988598  0.84176332  0.62681248  1
  O  O236  1  0.48837271  0.84005172  0.87411018  1
  O  O237  1  0.75666369  0.10279023  0.14534994  1
  O  O238  1  0.74844913  0.12650196  0.34045872  1
  O  O239  1  0.73518605  0.09408492  0.63481183  1
  O  O240  1  0.73856515  0.09592389  0.86629434  1
  O  O241  1  0.75114796  0.39828988  0.13104598  1
  O  O242  1  0.75505618  0.38148004  0.36330656  1
  O  O243  1  0.74267949  0.41157795  0.65530409  1
  O  O244  1  0.75946606  0.38224133  0.89309104  1
  O  O245  1  0.73906056  0.58111558  0.13956786  1
  O  O246  1  0.74098401  0.63550791  0.34764268  1
  O  O247  1  0.73633607  0.59913786  0.65054067  1
  O  O248  1  0.74394374  0.58714181  0.82259256  1
  O  O249  1  0.74350260  0.90316599  0.13020334  1
  O  O250  1  0.75013183  0.86920001  0.37216353  1
  O  O251  1  0.74036986  0.90932382  0.62153700  1
  O  O252  1  0.74141619  0.88976775  0.88270782  1
  O  O253  1  0.09992365  -0.00167154  0.11653342  1
  O  O254  1  0.15023783  -0.00397385  0.37183194  1
  O  O255  1  0.09078261  -0.01337454  0.63116736  1
  O  O256  1  0.11510239  -0.00334098  0.87020717  1
  O  O257  1  0.16209920  0.23828205  0.11674717  1
  O  O258  1  0.11647460  0.23671963  0.41448212  1
  O  O259  1  0.15557530  0.24522033  0.61853638  1
  O  O260  1  0.14207357  0.24681297  0.87020492  1
  O  O261  1  0.12131333  0.49762705  0.12724775  1
  O  O262  1  0.12881793  0.49098774  0.36862123  1
  O  O263  1  0.09839520  0.50015520  0.63533560  1
  O  O264  1  0.13362030  0.49851448  0.87768195  1
  O  O265  1  0.17069272  0.75820172  0.11297012  1
  O  O266  1  0.11456528  0.75142270  0.36615395  1
  O  O267  1  0.13297671  0.74579693  0.61715916  1
  O  O268  1  0.14949621  0.74692891  0.87726657  1
  O  O269  1  0.39032374  0.01182574  0.16335792  1
  O  O270  1  0.36212458  -0.00718911  0.36022282  1
  O  O271  1  0.39039618  -0.01668536  0.64588433  1
  O  O272  1  0.38797594  -0.00913105  0.84961376  1
  O  O273  1  0.33585092  0.23861361  0.12427106  1
  O  O274  1  0.38549943  0.25323185  0.41566158  1
  O  O275  1  0.36777941  0.26329601  0.60332878  1
  O  O276  1  0.36068324  0.24924165  0.85761755  1
  O  O277  1  0.39931129  0.49257850  0.13829510  1
  O  O278  1  0.37471782  0.49918776  0.35699655  1
  O  O279  1  0.40212111  0.50893900  0.63542744  1
  O  O280  1  0.38479611  0.50672800  0.84645678  1
  O  O281  1  0.35822793  0.74041327  0.09087559  1
  O  O282  1  0.38166592  0.74275837  0.40246151  1
  O  O283  1  0.35575386  0.74386081  0.59877078  1
  O  O284  1  0.33346840  0.74492036  0.89855746  1
  O  O285  1  0.58886173  -0.00372707  0.13615260  1
  O  O286  1  0.62718355  -0.00732453  0.35542329  1
  O  O287  1  0.58491725  -0.00231141  0.62244905  1
  O  O288  1  0.58474212  0.00573984  0.87348789  1
  O  O289  1  0.63853174  0.25625472  0.15042665  1
  O  O290  1  0.63279794  0.26397117  0.35137314  1
  O  O291  1  0.64722243  0.25710636  0.63302484  1
  O  O292  1  0.65255833  0.24434068  0.87477652  1
  O  O293  1  0.59413177  0.48850823  0.09114702  1
  O  O294  1  0.62457896  0.50479941  0.38868458  1
  O  O295  1  0.60772070  0.50355102  0.60321070  1
  O  O296  1  0.58613683  0.50489679  0.88087580  1
  O  O297  1  0.63570395  0.76022382  0.10113367  1
  O  O298  1  0.61096864  0.74993372  0.38855638  1
  O  O299  1  0.65144233  0.74615172  0.62255173  1
  O  O300  1  0.64504140  0.73907780  0.86204992  1
  O  O301  1  0.90765965  -0.00163164  0.13096101  1
  O  O302  1  0.86746082  -0.00144141  0.34363252  1
  O  O303  1  0.91173402  0.00432207  0.63311065  1
  O  O304  1  0.87595307  0.00032263  0.87302647  1
  O  O305  1  0.86400449  0.24275184  0.09928942  1
  O  O306  1  0.85462340  0.24713957  0.38101201  1
  O  O307  1  0.83896151  0.24577008  0.62929596  1
  O  O308  1  0.85443930  0.23846346  0.89465508  1
  O  O309  1  0.91373312  0.49146380  0.15467492  1
  O  O310  1  0.89145761  0.49334091  0.41932877  1
  O  O311  1  0.89502432  0.49476897  0.63914927  1
  O  O312  1  0.89035708  0.49407401  0.82761759  1
  O  O313  1  0.84938979  0.76048717  0.10832075  1
  O  O314  1  0.89442861  0.75997699  0.38178677  1
  O  O315  1  0.84374869  0.75589816  0.61873016  1
  O  O316  1  0.84827398  0.74035582  0.89554119  1
