# generated using pymatgen
data_Mg32Ti42(Bi17O64)3
_symmetry_space_group_name_H-M   'P 1'
_cell_length_a   15.95996726
_cell_length_b   15.96624169
_cell_length_c   15.98418148
_cell_angle_alpha   90.09580705
_cell_angle_beta   90.09371289
_cell_angle_gamma   90.00839017
_symmetry_Int_Tables_number   1
_chemical_formula_structural   Mg32Ti42(Bi17O64)3
_chemical_formula_sum   'Mg32 Ti42 Bi51 O192'
_cell_volume   4073.08903903
_cell_formula_units_Z   1
loop_
 _symmetry_equiv_pos_site_id
 _symmetry_equiv_pos_as_xyz
  1  'x, y, z'
loop_
 _atom_site_type_symbol
 _atom_site_label
 _atom_site_symmetry_multiplicity
 _atom_site_fract_x
 _atom_site_fract_y
 _atom_site_fract_z
 _atom_site_occupancy
  Mg  Mg0  1  0.86361201  0.35989163  0.36926787  1
  Mg  Mg1  1  0.87381886  0.88245870  0.87953773  1
  Mg  Mg2  1  0.62395630  0.38126458  0.87945368  1
  Mg  Mg3  1  0.62730511  0.12532988  0.12651478  1
  Mg  Mg4  1  0.36726133  0.12661785  0.87116211  1
  Mg  Mg5  1  0.37231550  0.37924426  0.36772589  1
  Mg  Mg6  1  0.87813255  0.62551531  0.12901378  1
  Mg  Mg7  1  0.12453431  0.37624283  0.62112244  1
  Mg  Mg8  1  0.38533324  0.12543952  0.11669699  1
  Mg  Mg9  1  0.86837490  0.37560381  0.88345390  1
  Mg  Mg10  1  0.37208591  0.62534221  0.88076678  1
  Mg  Mg11  1  0.36696870  0.87350357  0.87088080  1
  Mg  Mg12  1  0.12514252  0.11930719  0.62737382  1
  Mg  Mg13  1  0.37550246  0.87202534  0.61077261  1
  Mg  Mg14  1  0.87391592  0.13524441  0.14047623  1
  Mg  Mg15  1  0.36896725  0.61759978  0.60214399  1
  Mg  Mg16  1  0.12138444  0.12398147  0.13571147  1
  Mg  Mg17  1  0.61793775  0.62451306  0.39198330  1
  Mg  Mg18  1  0.37808586  0.12344771  0.62832480  1
  Mg  Mg19  1  0.01641197  -0.06851707  0.49332120  1
  Mg  Mg20  1  0.48955258  0.51551615  0.31399489  1
  Mg  Mg21  1  0.58136399  0.03031133  0.44268174  1
  Mg  Mg22  1  0.03107855  0.21277371  0.26873735  1
  Mg  Mg23  1  0.74779284  0.49852699  0.03418664  1
  Mg  Mg24  1  0.23002080  0.71332297  0.26380213  1
  Mg  Mg25  1  0.25882089  0.50184760  0.42640763  1
  Mg  Mg26  1  0.49675041  0.42952515  0.49969377  1
  Mg  Mg27  1  0.55482396  0.82906675  0.47087424  1
  Mg  Mg28  1  0.29963682  0.53711994  0.24051009  1
  Mg  Mg29  1  0.25293304  0.00043412  0.68106688  1
  Mg  Mg30  1  -0.00452636  0.25141048  0.07052866  1
  Mg  Mg31  1  0.71418010  0.20616876  0.31955832  1
  Ti  Ti32  1  0.11977608  0.61457256  0.37426588  1
  Ti  Ti33  1  0.13594853  0.87101945  0.12354505  1
  Ti  Ti34  1  0.37269915  0.37848011  0.61776605  1
  Ti  Ti35  1  0.62033363  0.37162444  0.63524023  1
  Ti  Ti36  1  0.87913367  0.11739093  0.62884375  1
  Ti  Ti37  1  0.88090365  0.12613309  0.36523788  1
  Ti  Ti38  1  0.62392936  0.11668836  0.87400152  1
  Ti  Ti39  1  0.61711338  0.38381774  0.36892308  1
  Ti  Ti40  1  0.62811085  0.11584410  0.64148657  1
  Ti  Ti41  1  0.13347858  0.37593996  0.87703087  1
  Ti  Ti42  1  0.37810684  0.37659250  0.87317091  1
  Ti  Ti43  1  0.11831932  0.62194731  0.86543470  1
  Ti  Ti44  1  0.86733176  0.87039654  0.12748297  1
  Ti  Ti45  1  0.87357627  0.37044019  0.62729247  1
  Ti  Ti46  1  0.62411310  0.86478326  0.10978636  1
  Ti  Ti47  1  0.12099198  0.62076966  0.61987670  1
  Ti  Ti48  1  0.36523428  0.86217464  0.37109521  1
  Ti  Ti49  1  0.61870577  0.62465678  0.87617232  1
  Ti  Ti50  1  0.61977088  0.62347230  0.12947951  1
  Ti  Ti51  1  0.87464756  0.63395495  0.36391577  1
  Ti  Ti52  1  0.12304195  0.36661941  0.13906898  1
  Ti  Ti53  1  0.88269595  0.87610519  0.62553172  1
  Ti  Ti54  1  0.62323385  0.88197611  0.62593348  1
  Ti  Ti55  1  0.88013177  0.12853934  0.86917198  1
  Ti  Ti56  1  0.38251564  0.63858757  0.12227609  1
  Ti  Ti57  1  0.62843360  0.87410288  0.87735393  1
  Ti  Ti58  1  0.88935646  0.88008882  0.36679577  1
  Ti  Ti59  1  0.87674990  0.62013244  0.87717708  1
  Ti  Ti60  1  0.36780225  0.62917481  0.37766390  1
  Ti  Ti61  1  0.13176698  0.61586518  0.13098557  1
  Ti  Ti62  1  0.88021046  0.61652808  0.63566486  1
  Ti  Ti63  1  0.86250942  0.37710174  0.12851094  1
  Ti  Ti64  1  0.12515270  0.87478054  0.88021776  1
  Ti  Ti65  1  0.12598279  0.13619870  0.87823234  1
  Ti  Ti66  1  0.11337781  0.10308375  0.38483268  1
  Ti  Ti67  1  0.12988962  0.87400002  0.36492087  1
  Ti  Ti68  1  0.37383426  0.87601877  0.12003376  1
  Ti  Ti69  1  0.12929708  0.36564800  0.37133272  1
  Ti  Ti70  1  0.61043399  0.61304101  0.62320250  1
  Ti  Ti71  1  0.38125426  0.37911098  0.12644003  1
  Ti  Ti72  1  0.62824833  0.37680652  0.13339254  1
  Ti  Ti73  1  0.13009481  0.87031839  0.63192316  1
  Bi  Bi74  1  0.46306664  0.51179238  0.75247202  1
  Bi  Bi75  1  0.75348178  0.22968561  0.00212909  1
  Bi  Bi76  1  -0.02165377  0.48480967  0.01108373  1
  Bi  Bi77  1  -0.01703243  0.77690374  0.00293501  1
  Bi  Bi78  1  0.75791772  0.21772222  0.51746212  1
  Bi  Bi79  1  0.50829131  0.74287889  0.28117788  1
  Bi  Bi80  1  0.76287565  -0.02431562  0.49431315  1
  Bi  Bi81  1  0.72237694  0.74173977  0.74986962  1
  Bi  Bi82  1  0.02332923  -0.00764755  0.75546650  1
  Bi  Bi83  1  0.30056624  0.01085909  0.24778284  1
  Bi  Bi84  1  0.29163049  0.24029163  0.25403636  1
  Bi  Bi85  1  0.74364502  0.49979136  0.76960624  1
  Bi  Bi86  1  0.52498097  0.48823433  0.00585142  1
  Bi  Bi87  1  0.73995719  0.51326668  0.27406636  1
  Bi  Bi88  1  0.26568598  0.22187456  0.47071866  1
  Bi  Bi89  1  -0.01108088  0.76190292  0.77795698  1
  Bi  Bi90  1  0.00115526  0.03248546  0.00836782  1
  Bi  Bi91  1  0.71924167  0.77393007  0.29520117  1
  Bi  Bi92  1  0.74813712  0.47685462  0.50424960  1
  Bi  Bi93  1  -0.02344408  0.72799040  0.49854497  1
  Bi  Bi94  1  0.75871933  0.01312403  0.03132268  1
  Bi  Bi95  1  -0.01986776  0.47736220  0.26011001  1
  Bi  Bi96  1  0.02301724  0.23702917  0.50684583  1
  Bi  Bi97  1  -0.01211027  0.47552797  0.76825691  1
  Bi  Bi98  1  0.23873558  0.50873131  0.00728593  1
  Bi  Bi99  1  0.50500064  0.24152901  0.01363096  1
  Bi  Bi100  1  0.23413604  0.49531169  0.72657317  1
  Bi  Bi101  1  0.24675115  0.73853538  -0.02905817  1
  Bi  Bi102  1  0.00432018  -0.00915469  0.23017847  1
  Bi  Bi103  1  0.01228986  0.74008612  0.22946109  1
  Bi  Bi104  1  0.24246798  0.02997990  0.01067066  1
  Bi  Bi105  1  0.75183618  0.71189320  0.01062620  1
  Bi  Bi106  1  0.24730848  0.24595320  0.72270752  1
  Bi  Bi107  1  0.47880783  0.74664589  0.71012833  1
  Bi  Bi108  1  0.26538443  0.73660108  0.72857876  1
  Bi  Bi109  1  0.00083321  0.46263285  0.49374240  1
  Bi  Bi110  1  0.52914484  0.21357595  0.50342341  1
  Bi  Bi111  1  0.01420508  0.23884172  0.73990765  1
  Bi  Bi112  1  0.22800570  0.75559430  0.49767852  1
  Bi  Bi113  1  0.29222602  0.00920896  0.46912335  1
  Bi  Bi114  1  0.73604993  0.25637182  0.78080631  1
  Bi  Bi115  1  0.26044008  0.27392959  0.00875367  1
  Bi  Bi116  1  0.48484930  0.76046309  -0.01658995  1
  Bi  Bi117  1  0.47780877  0.24201700  0.74762067  1
  Bi  Bi118  1  0.73507196  0.00089428  0.26286275  1
  Bi  Bi119  1  0.75147217  0.71757410  0.52143963  1
  Bi  Bi120  1  0.51361214  0.20764704  0.29197806  1
  Bi  Bi121  1  0.46461004  -0.01055720  0.74596336  1
  Bi  Bi122  1  0.47345236  0.00689346  -0.01595644  1
  Bi  Bi123  1  0.52209487  -0.03610218  0.24436653  1
  Bi  Bi124  1  0.75741424  -0.00510444  0.77089410  1
  O  O125  1  0.12549716  0.11485571  -0.00111228  1
  O  O126  1  0.09507513  0.10279929  0.26438116  1
  O  O127  1  0.12978205  0.14773416  0.50155378  1
  O  O128  1  0.08940445  0.12011470  0.76052636  1
  O  O129  1  0.14701924  0.35947181  -0.00194651  1
  O  O130  1  0.10804418  0.39247718  0.24993738  1
  O  O131  1  0.11399828  0.36223579  0.49302853  1
  O  O132  1  0.10859351  0.39416492  0.75685184  1
  O  O133  1  0.15339094  0.62766057  0.01423233  1
  O  O134  1  0.09776064  0.62050637  0.25733906  1
  O  O135  1  0.13741901  0.64582793  0.49959105  1
  O  O136  1  0.10770595  0.61506900  0.75148428  1
  O  O137  1  0.12127235  0.85921440  0.00522109  1
  O  O138  1  0.11196148  0.89698495  0.25327271  1
  O  O139  1  0.13535155  0.86068043  0.50603217  1
  O  O140  1  0.10162742  0.86567013  0.75367625  1
  O  O141  1  0.36413412  0.09518395  -0.00529683  1
  O  O142  1  0.38303002  0.13795829  0.24212174  1
  O  O143  1  0.35460562  0.12983842  0.50633444  1
  O  O144  1  0.40668132  0.12457025  0.75329678  1
  O  O145  1  0.34426680  0.38334044  -0.00418957  1
  O  O146  1  0.38132115  0.34666878  0.23833573  1
  O  O147  1  0.37173678  0.39992748  0.50493976  1
  O  O148  1  0.40695753  0.37831661  0.75389541  1
  O  O149  1  0.33758418  0.61496140  0.00908956  1
  O  O150  1  0.39796618  0.62499162  0.23870915  1
  O  O151  1  0.33252881  0.60256689  0.48263043  1
  O  O152  1  0.39399683  0.64297838  0.75506804  1
  O  O153  1  0.37870341  0.89452482  0.00331974  1
  O  O154  1  0.36492389  0.87431592  0.24504304  1
  O  O155  1  0.34769821  0.86900930  0.48715518  1
  O  O156  1  0.39872807  0.86078670  0.74639546  1
  O  O157  1  0.66482879  0.11098682  -0.00801664  1
  O  O158  1  0.62579011  0.15570084  0.24672970  1
  O  O159  1  0.63725901  0.11902745  0.51351185  1
  O  O160  1  0.61298245  0.15590327  0.75487709  1
  O  O161  1  0.64331294  0.42050366  0.00371456  1
  O  O162  1  0.61700762  0.36233243  0.24569947  1
  O  O163  1  0.62290386  0.41089734  0.49155433  1
  O  O164  1  0.61555996  0.35159069  0.74605769  1
  O  O165  1  0.64985144  0.60328332  -0.01165712  1
  O  O166  1  0.61727929  0.65954544  0.24017501  1
  O  O167  1  0.64926375  0.61442035  0.51094543  1
  O  O168  1  0.61580569  0.65432869  0.74346043  1
  O  O169  1  0.63562251  0.89606624  -0.00283772  1
  O  O170  1  0.61060964  0.84170476  0.23844414  1
  O  O171  1  0.62775436  0.92429977  0.50206173  1
  O  O172  1  0.62691222  0.85857616  0.74488319  1
  O  O173  1  0.84677486  0.11331869  -0.00883573  1
  O  O174  1  0.91476404  0.15150417  0.25832663  1
  O  O175  1  0.85664987  0.11676232  0.50731755  1
  O  O176  1  0.89585926  0.15294346  0.74971685  1
  O  O177  1  0.85613089  0.41668830  0.00567207  1
  O  O178  1  0.89283422  0.37035396  0.24258221  1
  O  O179  1  0.86743244  0.40024808  0.49801250  1
  O  O180  1  0.89962058  0.36480509  0.74356009  1
  O  O181  1  0.85219234  0.59935285  -0.00982138  1
  O  O182  1  0.88939203  0.65530661  0.25277628  1
  O  O183  1  0.86894522  0.62374595  0.50310204  1
  O  O184  1  0.89683163  0.64545459  0.74619478  1
  O  O185  1  0.88806444  0.88422094  0.00668541  1
  O  O186  1  0.88638874  0.85724398  0.25097309  1
  O  O187  1  0.88678697  0.90614300  0.49547758  1
  O  O188  1  0.89028483  0.85840734  0.74165607  1
  O  O189  1  -0.00789991  0.13098124  0.09978386  1
  O  O190  1  -0.00317552  0.14900166  0.39927745  1
  O  O191  1  -0.00374030  0.15001301  0.61765737  1
  O  O192  1  -0.00778224  0.13382682  0.90139350  1
  O  O193  1  0.00554222  0.37488104  0.09313119  1
  O  O194  1  -0.00579998  0.38570844  0.37958840  1
  O  O195  1  -0.00640078  0.37618258  0.60519307  1
  O  O196  1  0.00212024  0.40135697  0.88997859  1
  O  O197  1  0.01283682  0.65409141  0.11901734  1
  O  O198  1  -0.00098943  0.63374726  0.39268428  1
  O  O199  1  0.00312761  0.63354084  0.60842821  1
  O  O200  1  -0.00095267  0.60277988  0.88699219  1
  O  O201  1  0.00133708  0.84720108  0.12992347  1
  O  O202  1  0.00631640  0.85644007  0.38872624  1
  O  O203  1  0.00455144  0.87590241  0.60692346  1
  O  O204  1  -0.00105984  0.86411068  0.87914716  1
  O  O205  1  0.24752762  0.10895778  0.12465125  1
  O  O206  1  0.23504419  0.11211302  0.37839931  1
  O  O207  1  0.24881099  0.12313608  0.65838785  1
  O  O208  1  0.23907180  0.12313054  0.87600178  1
  O  O209  1  0.24239089  0.34235994  0.13086043  1
  O  O210  1  0.24204248  0.38766587  0.37227127  1
  O  O211  1  0.25303081  0.37559553  0.64757493  1
  O  O212  1  0.25066186  0.36710716  0.85601617  1
  O  O213  1  0.24678717  0.62615617  0.16683811  1
  O  O214  1  0.24121152  0.60632733  0.34120552  1
  O  O215  1  0.24615281  0.61960724  0.65389858  1
  O  O216  1  0.24206186  0.64836865  0.86425105  1
  O  O217  1  0.24880881  0.90055811  0.11934734  1
  O  O218  1  0.24046038  0.90719528  0.36590418  1
  O  O219  1  0.24574428  0.87974345  0.64636649  1
  O  O220  1  0.23882990  0.85613391  0.87230854  1
  O  O221  1  0.50861559  0.12935803  0.08725393  1
  O  O222  1  0.51079411  0.12466040  0.39813038  1
  O  O223  1  0.50952439  0.13949257  0.61807291  1
  O  O224  1  0.51228046  0.12932483  0.90458652  1
  O  O225  1  0.49817842  0.38365914  0.09919962  1
  O  O226  1  0.49825509  0.40287607  0.37871011  1
  O  O227  1  0.50004745  0.37293747  0.60853214  1
  O  O228  1  0.49649358  0.38974822  0.90579779  1
  O  O229  1  0.49739459  0.63574699  0.09732944  1
  O  O230  1  0.48702068  0.62886225  0.38023262  1
  O  O231  1  0.49933479  0.63309269  0.61079022  1
  O  O232  1  0.50606838  0.63992240  0.89978794  1
  O  O233  1  0.50245525  0.86506091  0.11846324  1
  O  O234  1  0.48107849  0.85115655  0.37544349  1
  O  O235  1  0.51222249  0.85465363  0.59540007  1
  O  O236  1  0.51115341  0.86206185  0.88902024  1
  O  O237  1  0.75302407  0.10535690  0.13528880  1
  O  O238  1  0.76147954  0.09674570  0.35706331  1
  O  O239  1  0.75249681  0.13116488  0.64053824  1
  O  O240  1  0.75114118  0.11466755  0.84199658  1
  O  O241  1  0.74796099  0.40327386  0.13468920  1
  O  O242  1  0.74150578  0.41000512  0.37001416  1
  O  O243  1  0.74710719  0.39340548  0.62107503  1
  O  O244  1  0.74697484  0.38483115  0.84511883  1
  O  O245  1  0.74394471  0.61200332  0.11807152  1
  O  O246  1  0.75083613  0.62732491  0.36015619  1
  O  O247  1  0.75842119  0.63665891  0.63809458  1
  O  O248  1  0.75346760  0.62586068  0.84408688  1
  O  O249  1  0.74992410  0.87738322  0.13546025  1
  O  O250  1  0.76393356  0.89123797  0.36982825  1
  O  O251  1  0.75992274  0.89831397  0.61220487  1
  O  O252  1  0.75059798  0.89333789  0.86402271  1
  O  O253  1  0.09366113  -0.00684525  0.11814554  1
  O  O254  1  0.09298737  -0.00487131  0.41115675  1
  O  O255  1  0.12625761  -0.00603568  0.64703187  1
  O  O256  1  0.10950463  -0.00662233  0.87303205  1
  O  O257  1  0.09157760  0.25082681  0.15568146  1
  O  O258  1  0.11980640  0.25179393  0.35563199  1
  O  O259  1  0.12744012  0.25102659  0.64863917  1
  O  O260  1  0.11682561  0.25252334  0.86038855  1
  O  O261  1  0.13259279  0.49885131  0.11731700  1
  O  O262  1  0.12448653  0.50444435  0.39966661  1
  O  O263  1  0.13329333  0.50512994  0.61955071  1
  O  O264  1  0.14898409  0.50234532  0.89158441  1
  O  O265  1  0.14695864  0.75923109  0.16556371  1
  O  O266  1  0.15408356  0.75567790  0.36455267  1
  O  O267  1  0.14871371  0.74707077  0.63264889  1
  O  O268  1  0.10526660  0.74029258  0.88241179  1
  O  O269  1  0.39299815  -0.00274500  0.14149145  1
  O  O270  1  0.37955220  -0.00872363  0.36651837  1
  O  O271  1  0.37290606  -0.00364380  0.64145898  1
  O  O272  1  0.39397048  -0.00310448  0.86314964  1
  O  O273  1  0.38107971  0.25272680  0.09155274  1
  O  O274  1  0.35598355  0.25457141  0.37454431  1
  O  O275  1  0.36955684  0.25703235  0.64328848  1
  O  O276  1  0.38764126  0.25593114  0.86787048  1
  O  O277  1  0.35503488  0.49112105  0.13633628  1
  O  O278  1  0.36593886  0.50542146  0.34446653  1
  O  O279  1  0.36883246  0.49879220  0.65072703  1
  O  O280  1  0.37018217  0.50137048  0.85479745  1
  O  O281  1  0.36845994  0.75324035  0.10832283  1
  O  O282  1  0.33597002  0.74334397  0.35558543  1
  O  O283  1  0.36313458  0.74455720  0.62496842  1
  O  O284  1  0.37318578  0.75089671  0.90570601  1
  O  O285  1  0.61937091  -0.01051859  0.15016789  1
  O  O286  1  0.62018776  -0.00833378  0.33387858  1
  O  O287  1  0.62346926  0.00403363  0.65571790  1
  O  O288  1  0.62179640  0.00107305  0.85044280  1
  O  O289  1  0.62638894  0.26604884  0.09380107  1
  O  O290  1  0.62647330  0.26674943  0.38765498  1
  O  O291  1  0.63501419  0.26002830  0.60197025  1
  O  O292  1  0.65302137  0.24863189  0.89310725  1
  O  O293  1  0.60629497  0.50938459  0.13955822  1
  O  O294  1  0.61464179  0.51109549  0.33772494  1
  O  O295  1  0.61341156  0.50226448  0.64379858  1
  O  O296  1  0.62128994  0.51180366  0.84329930  1
  O  O297  1  0.63703288  0.74732877  0.08860284  1
  O  O298  1  0.61819288  0.75166778  0.38733215  1
  O  O299  1  0.65187922  0.76316239  0.61063349  1
  O  O300  1  0.64865271  0.75353799  0.88032510  1
  O  O301  1  0.88757247  -0.00891909  0.13389814  1
  O  O302  1  0.89975103  0.00092984  0.35381155  1
  O  O303  1  0.89076782  0.00659014  0.64638857  1
  O  O304  1  0.88110734  0.00880350  0.84694292  1
  O  O305  1  0.87284492  0.26302472  0.10052154  1
  O  O306  1  0.82768056  0.23931519  0.37994575  1
  O  O307  1  0.86287233  0.25754535  0.60682587  1
  O  O308  1  0.84233771  0.24886711  0.88781794  1
  O  O309  1  0.90072148  0.50125462  0.14097020  1
  O  O310  1  0.87267756  0.51372049  0.34634075  1
  O  O311  1  0.87919320  0.50386649  0.64344402  1
  O  O312  1  0.86722480  0.50304695  0.84177818  1
  O  O313  1  0.86374338  0.74853184  0.09525737  1
  O  O314  1  0.86981208  0.75508717  0.39825474  1
  O  O315  1  0.87243416  0.75980822  0.60006550  1
  O  O316  1  0.88655913  0.74206878  0.88534804  1
