# generated using pymatgen
data_Mg32Ti42(Bi17O64)3
_symmetry_space_group_name_H-M   'P 1'
_cell_length_a   15.93674736
_cell_length_b   15.93783936
_cell_length_c   15.98039250
_cell_angle_alpha   89.92922161
_cell_angle_beta   90.01183106
_cell_angle_gamma   89.94422410
_symmetry_Int_Tables_number   1
_chemical_formula_structural   Mg32Ti42(Bi17O64)3
_chemical_formula_sum   'Mg32 Ti42 Bi51 O192'
_cell_volume   4058.97175020
_cell_formula_units_Z   1
loop_
 _symmetry_equiv_pos_site_id
 _symmetry_equiv_pos_as_xyz
  1  'x, y, z'
loop_
 _atom_site_type_symbol
 _atom_site_label
 _atom_site_symmetry_multiplicity
 _atom_site_fract_x
 _atom_site_fract_y
 _atom_site_fract_z
 _atom_site_occupancy
  Mg  Mg0  1  0.87750616  0.36639290  0.38024110  1
  Mg  Mg1  1  0.87761765  0.37080290  0.87653974  1
  Mg  Mg2  1  0.87495953  0.86973727  0.14017509  1
  Mg  Mg3  1  0.12220250  0.61907034  0.11910829  1
  Mg  Mg4  1  0.12958174  0.87647697  0.12340704  1
  Mg  Mg5  1  0.36609221  0.12325257  0.36752970  1
  Mg  Mg6  1  0.13381911  0.37127876  0.62172483  1
  Mg  Mg7  1  0.87365905  0.11943545  0.87963110  1
  Mg  Mg8  1  0.87978190  0.37855471  0.13360788  1
  Mg  Mg9  1  0.12471332  0.62003430  0.37720199  1
  Mg  Mg10  1  0.62414684  0.87934626  0.38478202  1
  Mg  Mg11  1  0.14054236  0.12523561  0.62917818  1
  Mg  Mg12  1  0.36740872  0.12462389  0.88113264  1
  Mg  Mg13  1  0.37305245  0.37816375  0.88301915  1
  Mg  Mg14  1  0.86488017  0.12533020  0.13141277  1
  Mg  Mg15  1  0.63304244  0.36414140  0.11376639  1
  Mg  Mg16  1  0.14652846  0.88674092  0.62880963  1
  Mg  Mg17  1  0.37208601  0.86277131  0.37921850  1
  Mg  Mg18  1  0.62860180  0.39007914  0.37548207  1
  Mg  Mg19  1  0.69395878  0.25086896  0.45235848  1
  Mg  Mg20  1  0.68742709  -0.01882241  0.22904361  1
  Mg  Mg21  1  0.25411707  -0.01210861  0.78485998  1
  Mg  Mg22  1  0.77009755  0.24128278  0.80662807  1
  Mg  Mg23  1  0.43656320  -0.00378532  0.47163295  1
  Mg  Mg24  1  0.72233315  0.56561489  0.05347474  1
  Mg  Mg25  1  0.48934397  0.18888593  0.47273967  1
  Mg  Mg26  1  0.00132537  0.71113920  0.48040715  1
  Mg  Mg27  1  0.45651223  0.24954061  0.79034382  1
  Mg  Mg28  1  0.24733346  -0.03825803  0.45473705  1
  Mg  Mg29  1  0.29759143  0.25169412  0.02641001  1
  Mg  Mg30  1  0.53808443  0.30595911  0.25616321  1
  Mg  Mg31  1  0.56090233  0.49668647  0.20235250  1
  Ti  Ti32  1  0.61714146  0.13471981  0.62561068  1
  Ti  Ti33  1  0.62402285  0.63020903  0.37607496  1
  Ti  Ti34  1  0.62128634  0.88777097  0.62048478  1
  Ti  Ti35  1  0.11535156  0.86595110  0.38178764  1
  Ti  Ti36  1  0.37342063  0.87378541  0.87312691  1
  Ti  Ti37  1  0.37871814  0.36702582  0.62123140  1
  Ti  Ti38  1  0.87200940  0.88503864  0.61722030  1
  Ti  Ti39  1  0.12282515  0.37002892  0.88599630  1
  Ti  Ti40  1  0.12746574  0.62326989  0.61961770  1
  Ti  Ti41  1  0.38103318  0.62373962  0.62429874  1
  Ti  Ti42  1  0.38460372  0.12175089  0.61987089  1
  Ti  Ti43  1  0.36203298  0.88502572  0.62948942  1
  Ti  Ti44  1  0.87578071  0.36149267  0.61798142  1
  Ti  Ti45  1  0.87004097  0.87873972  0.37233123  1
  Ti  Ti46  1  0.38146649  0.12208345  0.12857802  1
  Ti  Ti47  1  0.61837586  0.89088179  0.86593125  1
  Ti  Ti48  1  0.13255526  0.37077840  0.36576775  1
  Ti  Ti49  1  0.13164268  0.11562340  0.37121836  1
  Ti  Ti50  1  0.37359295  0.61535515  0.86228112  1
  Ti  Ti51  1  0.13365719  0.12541486  0.13251714  1
  Ti  Ti52  1  0.38904532  0.36429713  0.37721069  1
  Ti  Ti53  1  0.61535474  0.11788581  0.35992281  1
  Ti  Ti54  1  0.88062323  0.87827214  0.86935764  1
  Ti  Ti55  1  0.12497059  0.37307841  0.12097445  1
  Ti  Ti56  1  0.87666622  0.62778478  0.13043466  1
  Ti  Ti57  1  0.62999980  0.14128278  0.12962202  1
  Ti  Ti58  1  0.63293361  0.35878550  0.62098052  1
  Ti  Ti59  1  0.87645520  0.62127255  0.62187832  1
  Ti  Ti60  1  0.87937526  0.63324056  0.37343363  1
  Ti  Ti61  1  0.62940526  0.35972889  0.87573941  1
  Ti  Ti62  1  0.87443765  0.63021663  0.85706706  1
  Ti  Ti63  1  0.62742690  0.60983538  0.86072227  1
  Ti  Ti64  1  0.36692346  0.86736785  0.11291933  1
  Ti  Ti65  1  0.62819778  0.13171444  0.87630935  1
  Ti  Ti66  1  0.38288327  0.62535415  0.38827398  1
  Ti  Ti67  1  0.38858722  0.37252694  0.12978237  1
  Ti  Ti68  1  0.13268552  0.86523186  0.87911797  1
  Ti  Ti69  1  0.87233807  0.13221434  0.38388152  1
  Ti  Ti70  1  0.86823330  0.13633337  0.61628038  1
  Ti  Ti71  1  0.12750170  0.11644309  0.87008429  1
  Ti  Ti72  1  0.11286142  0.62491770  0.87230792  1
  Ti  Ti73  1  0.63775262  0.62896867  0.62608266  1
  Bi  Bi74  1  -0.00819415  0.22275704  0.75548046  1
  Bi  Bi75  1  0.52617873  0.47755091  0.50477644  1
  Bi  Bi76  1  -0.00313485  0.50540674  0.23631441  1
  Bi  Bi77  1  0.00320310  0.45985376  0.74203572  1
  Bi  Bi78  1  -0.00268318  0.21819530  0.01468623  1
  Bi  Bi79  1  0.50738323  0.76296174  0.72684251  1
  Bi  Bi80  1  0.74160863  0.28180841  0.25814512  1
  Bi  Bi81  1  0.25172267  0.73054555  0.73637432  1
  Bi  Bi82  1  0.78117423  0.26829736  0.01738843  1
  Bi  Bi83  1  0.24194533  0.00091132  0.01071306  1
  Bi  Bi84  1  0.76285865  0.76034086  0.48604363  1
  Bi  Bi85  1  0.27911782  0.50991143  0.24722431  1
  Bi  Bi86  1  0.01807992  -0.01657020  0.74887776  1
  Bi  Bi87  1  0.49296753  -0.03858519  0.26393425  1
  Bi  Bi88  1  -0.02711960  0.00215191  0.02613672  1
  Bi  Bi89  1  0.76673777  0.02801716  0.74422776  1
  Bi  Bi90  1  0.75649259  0.46391222  0.74996032  1
  Bi  Bi91  1  0.52737126  -0.00841052  0.03183847  1
  Bi  Bi92  1  0.48350783  0.02105536  0.76006588  1
  Bi  Bi93  1  0.69238326  0.77848889  0.21701414  1
  Bi  Bi94  1  0.24914991  0.72797213  0.24347884  1
  Bi  Bi95  1  0.73539966  0.76087511  -0.04149043  1
  Bi  Bi96  1  0.49151479  0.69746823  0.19736760  1
  Bi  Bi97  1  0.01553945  0.75879885  0.70961116  1
  Bi  Bi98  1  -0.04281001  0.50241156  -0.01315966  1
  Bi  Bi99  1  0.26240975  0.71376885  0.00770837  1
  Bi  Bi100  1  0.00848211  0.48148048  0.48123185  1
  Bi  Bi101  1  0.27110972  -0.01340245  0.25253828  1
  Bi  Bi102  1  0.22748639  0.48156180  0.75564176  1
  Bi  Bi103  1  0.52026685  0.75379282  0.49140617  1
  Bi  Bi104  1  0.26491721  0.22522260  0.50686801  1
  Bi  Bi105  1  0.25035043  0.49837794  0.01694967  1
  Bi  Bi106  1  0.02574153  -0.00237054  0.51286255  1
  Bi  Bi107  1  0.49676000  0.24139060  -0.01535944  1
  Bi  Bi108  1  -0.01945881  0.24900725  0.25697962  1
  Bi  Bi109  1  0.24307719  0.24630735  0.78086491  1
  Bi  Bi110  1  0.76770812  0.49342676  0.49085269  1
  Bi  Bi111  1  0.50555799  0.74609685  -0.02938115  1
  Bi  Bi112  1  0.74983244  -0.02987430  0.03222941  1
  Bi  Bi113  1  -0.02843622  0.00497414  0.26993488  1
  Bi  Bi114  1  -0.00610778  0.77363266  0.01072312  1
  Bi  Bi115  1  0.53295569  0.52561739  0.01279226  1
  Bi  Bi116  1  0.75989864  0.76765823  0.73062035  1
  Bi  Bi117  1  0.25833286  0.48007533  0.48008623  1
  Bi  Bi118  1  0.03576404  0.24448585  0.50671361  1
  Bi  Bi119  1  0.01907834  0.75126750  0.23270783  1
  Bi  Bi120  1  0.72861966  0.02756293  0.49722168  1
  Bi  Bi121  1  0.26023186  0.25713020  0.22960336  1
  Bi  Bi122  1  0.75369436  0.52921798  0.25951138  1
  Bi  Bi123  1  0.49553637  0.46655250  0.74438508  1
  Bi  Bi124  1  0.24875094  0.73818024  0.48154074  1
  O  O125  1  0.12904835  0.10986742  -0.01550574  1
  O  O126  1  0.12644311  0.13468555  0.24724430  1
  O  O127  1  0.11103753  0.11430358  0.49605772  1
  O  O128  1  0.11978681  0.16653626  0.74756731  1
  O  O129  1  0.11468141  0.39069670  0.00106104  1
  O  O130  1  0.14575757  0.35547936  0.24995037  1
  O  O131  1  0.10285145  0.38059850  0.49699528  1
  O  O132  1  0.13239924  0.37619681  0.74997420  1
  O  O133  1  0.16026207  0.61181199  -0.00737987  1
  O  O134  1  0.12060374  0.65239336  0.25233194  1
  O  O135  1  0.13835906  0.61353800  0.50855549  1
  O  O136  1  0.10448565  0.65258564  0.75634256  1
  O  O137  1  0.14569196  0.89899353  -0.00839784  1
  O  O138  1  0.10974395  0.85463694  0.26183782  1
  O  O139  1  0.13920780  0.91421561  0.50366076  1
  O  O140  1  0.09853379  0.86564689  0.75439647  1
  O  O141  1  0.37460204  0.14980887  0.00676844  1
  O  O142  1  0.35245151  0.10763133  0.24400387  1
  O  O143  1  0.38601114  0.11328485  0.49651834  1
  O  O144  1  0.40763734  0.14225220  0.73728550  1
  O  O145  1  0.38287913  0.35363353  0.01267176  1
  O  O146  1  0.34412632  0.37528936  0.25808608  1
  O  O147  1  0.38276669  0.39772075  0.49796648  1
  O  O148  1  0.40148697  0.35926366  0.74128084  1
  O  O149  1  0.34370342  0.60545231  -0.01739494  1
  O  O150  1  0.36580498  0.63116828  0.26798561  1
  O  O151  1  0.34408527  0.61065777  0.51041344  1
  O  O152  1  0.38222398  0.65848123  0.74632139  1
  O  O153  1  0.34693135  0.88945837  -0.00211568  1
  O  O154  1  0.37850204  0.88109505  0.24935428  1
  O  O155  1  0.34917528  0.90978446  0.51635596  1
  O  O156  1  0.40560417  0.86696678  0.75706878  1
  O  O157  1  0.61289256  0.14490951  -0.00478496  1
  O  O158  1  0.63669008  0.10024533  0.24382355  1
  O  O159  1  0.63974516  0.14047548  0.48841076  1
  O  O160  1  0.60960490  0.10542685  0.73803535  1
  O  O161  1  0.63616990  0.33656908  -0.01134219  1
  O  O162  1  0.63948242  0.38946410  0.25028285  1
  O  O163  1  0.61993116  0.35922670  0.50108014  1
  O  O164  1  0.63066477  0.39494713  0.73920102  1
  O  O165  1  0.63060419  0.62185940  -0.01086598  1
  O  O166  1  0.60361558  0.59452468  0.26853793  1
  O  O167  1  0.63663406  0.66241650  0.50908674  1
  O  O168  1  0.60371225  0.61289430  0.74709272  1
  O  O169  1  0.64948877  0.88089282  -0.00861806  1
  O  O170  1  0.61110800  0.88699700  0.25808410  1
  O  O171  1  0.64251901  0.85058160  0.50957352  1
  O  O172  1  0.59410288  0.88787152  0.75052783  1
  O  O173  1  0.88722586  0.11435230  0.00269828  1
  O  O174  1  0.89553427  0.13427081  0.25516035  1
  O  O175  1  0.87458808  0.10258489  0.50090828  1
  O  O176  1  0.84942332  0.15016318  0.74154177  1
  O  O177  1  0.87545749  0.39051122  0.00445536  1
  O  O178  1  0.87282341  0.33752352  0.25662737  1
  O  O179  1  0.88871549  0.40266210  0.50324036  1
  O  O180  1  0.86640445  0.37171861  0.74007350  1
  O  O181  1  0.84779385  0.58703325  0.01966330  1
  O  O182  1  0.89751238  0.63954233  0.26010350  1
  O  O183  1  0.84869264  0.61349843  0.50440166  1
  O  O184  1  0.89022693  0.64776753  0.74733848  1
  O  O185  1  0.85119261  0.87555705  -0.00444392  1
  O  O186  1  0.90399963  0.86155338  0.26297207  1
  O  O187  1  0.84775273  0.89007415  0.50453237  1
  O  O188  1  0.88417318  0.85252430  0.75342384  1
  O  O189  1  0.01298418  0.10750736  0.10973672  1
  O  O190  1  0.00587087  0.08894573  0.37375312  1
  O  O191  1  -0.01424359  0.14891664  0.63547369  1
  O  O192  1  0.00369970  0.12272797  0.85402953  1
  O  O193  1  0.00980767  0.39826522  0.15162805  1
  O  O194  1  0.00406154  0.40788475  0.36348320  1
  O  O195  1  -0.00424639  0.35967194  0.63811756  1
  O  O196  1  0.00661709  0.37255565  0.86194665  1
  O  O197  1  -0.00412423  0.58977979  0.11775780  1
  O  O198  1  -0.00506190  0.61055360  0.39883443  1
  O  O199  1  -0.00637191  0.65802073  0.59680140  1
  O  O200  1  -0.00411674  0.62913949  0.90086394  1
  O  O201  1  0.00049975  0.88261365  0.10183015  1
  O  O202  1  0.00218313  0.90535085  0.39549027  1
  O  O203  1  -0.01212127  0.87222815  0.61487681  1
  O  O204  1  -0.00265532  0.87955114  0.89272373  1
  O  O205  1  0.24451861  0.16148415  0.11171719  1
  O  O206  1  0.24192663  0.15116893  0.38178239  1
  O  O207  1  0.26754096  0.12560921  0.61488149  1
  O  O208  1  0.24662615  0.11598749  0.83912472  1
  O  O209  1  0.24370935  0.33508297  0.11300082  1
  O  O210  1  0.24665514  0.35714137  0.40257395  1
  O  O211  1  0.26396399  0.39734946  0.63009982  1
  O  O212  1  0.24556810  0.39605977  0.86843591  1
  O  O213  1  0.24740085  0.65173208  0.13181233  1
  O  O214  1  0.24754439  0.65189658  0.37528847  1
  O  O215  1  0.24499034  0.62064237  0.65137728  1
  O  O216  1  0.25056466  0.63197579  0.84534778  1
  O  O217  1  0.25302008  0.84934374  0.14202370  1
  O  O218  1  0.24145753  0.84774583  0.38532742  1
  O  O219  1  0.26168797  0.92083133  0.67412831  1
  O  O220  1  0.25082303  0.87538836  0.85200330  1
  O  O221  1  0.49484297  0.09856117  0.12235014  1
  O  O222  1  0.50449121  0.09738745  0.38187101  1
  O  O223  1  0.50931369  0.15446903  0.59458187  1
  O  O224  1  0.49937001  0.15628700  0.87327888  1
  O  O225  1  0.49672066  0.39205110  0.15921809  1
  O  O226  1  0.49747721  0.38867936  0.35299933  1
  O  O227  1  0.50914665  0.38610610  0.62123174  1
  O  O228  1  0.50608800  0.34292420  0.87132859  1
  O  O229  1  0.49654251  0.58384357  0.13083860  1
  O  O230  1  0.49659937  0.61413311  0.40989556  1
  O  O231  1  0.49178834  0.66144040  0.60961895  1
  O  O232  1  0.49673005  0.62741574  0.89027160  1
  O  O233  1  0.48337856  0.90879929  0.12651862  1
  O  O234  1  0.49365010  0.90416688  0.39759054  1
  O  O235  1  0.50216608  0.84949048  0.61411798  1
  O  O236  1  0.49930382  0.87694708  0.90533645  1
  O  O237  1  0.74325455  0.16006279  0.11754549  1
  O  O238  1  0.76097083  0.15643493  0.38038513  1
  O  O239  1  0.74569702  0.10571708  0.61996827  1
  O  O240  1  0.74295702  0.12152351  0.86559319  1
  O  O241  1  0.75596696  0.34489241  0.12807968  1
  O  O242  1  0.75061409  0.34597414  0.38730784  1
  O  O243  1  0.75191777  0.39876382  0.61934097  1
  O  O244  1  0.74968661  0.37132318  0.85502957  1
  O  O245  1  0.75893298  0.62872894  0.15600410  1
  O  O246  1  0.74704538  0.64258392  0.35973000  1
  O  O247  1  0.75093885  0.61712389  0.64499232  1
  O  O248  1  0.74736045  0.63292900  0.86042465  1
  O  O249  1  0.74990972  0.88954113  0.15311681  1
  O  O250  1  0.75793883  0.84719683  0.36787606  1
  O  O251  1  0.74211329  0.88943496  0.65800368  1
  O  O252  1  0.74107428  0.85952239  0.85543786  1
  O  O253  1  0.15822702  0.00705154  0.12565473  1
  O  O254  1  0.15913695  0.00102909  0.36335254  1
  O  O255  1  0.09901697  0.00699801  0.64292038  1
  O  O256  1  0.13141729  0.00056337  0.83806924  1
  O  O257  1  0.09386760  0.24993861  0.11229650  1
  O  O258  1  0.09897945  0.25057026  0.38262316  1
  O  O259  1  0.14811951  0.24908646  0.58996159  1
  O  O260  1  0.14679152  0.25474076  0.88552618  1
  O  O261  1  0.16002011  0.49147228  0.13135453  1
  O  O262  1  0.15108504  0.49307060  0.37257706  1
  O  O263  1  0.10831330  0.50908426  0.64717691  1
  O  O264  1  0.11720971  0.50852138  0.85304823  1
  O  O265  1  0.09116950  0.74720143  0.11035602  1
  O  O266  1  0.09919878  0.75630643  0.41675225  1
  O  O267  1  0.13620389  0.75379275  0.62896611  1
  O  O268  1  0.12538813  0.75344461  0.89891308  1
  O  O269  1  0.33933087  0.00676093  0.11645061  1
  O  O270  1  0.34243639  -0.00491799  0.37527264  1
  O  O271  1  0.41608150  0.00690595  0.63622888  1
  O  O272  1  0.36921095  -0.00116533  0.85389012  1
  O  O273  1  0.38403495  0.24800374  0.14878179  1
  O  O274  1  0.40132235  0.25094559  0.39329180  1
  O  O275  1  0.37340366  0.25631095  0.60222177  1
  O  O276  1  0.35159896  0.25195155  0.87276686  1
  O  O277  1  0.34204485  0.48238497  0.12566064  1
  O  O278  1  0.34854139  0.50276917  0.37523701  1
  O  O279  1  0.40026774  0.51283927  0.64494127  1
  O  O280  1  0.38523949  0.50224740  0.84516699  1
  O  O281  1  0.40130526  0.75636955  0.10218316  1
  O  O282  1  0.38329005  0.74374696  0.41607993  1
  O  O283  1  0.34031115  0.76730572  0.62223012  1
  O  O284  1  0.38228230  0.75355857  0.89581531  1
  O  O285  1  0.63887621  0.01324336  0.11007136  1
  O  O286  1  0.65805087  0.00478177  0.37520469  1
  O  O287  1  0.61781942  0.00018889  0.59320465  1
  O  O288  1  0.61390369  0.00654110  0.87640090  1
  O  O289  1  0.59149987  0.24675761  0.15468489  1
  O  O290  1  0.60506024  0.24050477  0.35390454  1
  O  O291  1  0.64872269  0.24924546  0.63346079  1
  O  O292  1  0.64468715  0.24632665  0.83997221  1
  O  O293  1  0.63669287  0.48794178  0.09731609  1
  O  O294  1  0.64102717  0.50997412  0.41484847  1
  O  O295  1  0.61725542  0.51481025  0.60048926  1
  O  O296  1  0.61825955  0.49324830  0.87869784  1
  O  O297  1  0.60010127  0.74671267  0.12756985  1
  O  O298  1  0.60114282  0.74611712  0.36615845  1
  O  O299  1  0.63684479  0.75304087  0.65521746  1
  O  O300  1  0.61473103  0.75129026  0.87588775  1
  O  O301  1  0.87769322  -0.00111389  0.12671256  1
  O  O302  1  0.86108812  -0.00248919  0.35454566  1
  O  O303  1  0.87714823  0.00271391  0.65157934  1
  O  O304  1  0.86575926  -0.00721056  0.85329120  1
  O  O305  1  0.90229437  0.24909222  0.10789555  1
  O  O306  1  0.91772562  0.24040781  0.38799298  1
  O  O307  1  0.85534814  0.25264386  0.59519159  1
  O  O308  1  0.86884042  0.24681399  0.88444697  1
  O  O309  1  0.86886062  0.49976472  0.17789117  1
  O  O310  1  0.84713013  0.50773657  0.37023260  1
  O  O311  1  0.89333530  0.51042088  0.63911661  1
  O  O312  1  0.88334655  0.50809392  0.86342294  1
  O  O313  1  0.89777427  0.74152004  0.11500311  1
  O  O314  1  0.89627931  0.74832660  0.41231623  1
  O  O315  1  0.84452219  0.75857600  0.61503027  1
  O  O316  1  0.86774933  0.74483696  0.89519598  1
