# generated using pymatgen
data_Mg32Ti42(Bi17O64)3
_symmetry_space_group_name_H-M   'P 1'
_cell_length_a   15.96618380
_cell_length_b   15.97972295
_cell_length_c   15.92934813
_cell_angle_alpha   89.94634132
_cell_angle_beta   89.87474542
_cell_angle_gamma   90.05314980
_symmetry_Int_Tables_number   1
_chemical_formula_structural   Mg32Ti42(Bi17O64)3
_chemical_formula_sum   'Mg32 Ti42 Bi51 O192'
_cell_volume   4064.12407055
_cell_formula_units_Z   1
loop_
 _symmetry_equiv_pos_site_id
 _symmetry_equiv_pos_as_xyz
  1  'x, y, z'
loop_
 _atom_site_type_symbol
 _atom_site_label
 _atom_site_symmetry_multiplicity
 _atom_site_fract_x
 _atom_site_fract_y
 _atom_site_fract_z
 _atom_site_occupancy
  Mg  Mg0  1  0.62956219  0.12614191  0.88412995  1
  Mg  Mg1  1  0.88355750  0.63377959  0.87292043  1
  Mg  Mg2  1  0.12827294  0.37249877  0.13453708  1
  Mg  Mg3  1  0.62457214  0.86775650  0.87347562  1
  Mg  Mg4  1  0.36470881  0.89770731  0.35712321  1
  Mg  Mg5  1  0.87945184  0.86618912  0.37361891  1
  Mg  Mg6  1  0.87572731  0.37363898  0.62507378  1
  Mg  Mg7  1  0.62831629  0.62273355  0.88143939  1
  Mg  Mg8  1  0.12608368  0.87810045  0.88040752  1
  Mg  Mg9  1  0.13067685  0.89053808  0.13249146  1
  Mg  Mg10  1  0.87508519  0.38413845  0.37949674  1
  Mg  Mg11  1  0.12576116  0.37000057  0.87407234  1
  Mg  Mg12  1  0.61333504  0.12190704  0.61952658  1
  Mg  Mg13  1  0.11822455  0.88207949  0.61412695  1
  Mg  Mg14  1  0.87788367  0.62945521  0.11479920  1
  Mg  Mg15  1  0.87243990  0.36821674  0.88085351  1
  Mg  Mg16  1  0.37482401  0.38146383  0.37241133  1
  Mg  Mg17  1  0.36581864  0.12878530  0.86881179  1
  Mg  Mg18  1  0.87066068  0.13262882  0.37599383  1
  Mg  Mg19  1  -0.04203763  0.20094262  0.00571349  1
  Mg  Mg20  1  -0.04703028  0.53307502  0.50606269  1
  Mg  Mg21  1  0.27830050  0.22592597  0.22730452  1
  Mg  Mg22  1  0.68162872  0.52804242  0.73116125  1
  Mg  Mg23  1  0.27418214  0.48405437  0.54158623  1
  Mg  Mg24  1  0.47595085  -0.01277880  0.69752148  1
  Mg  Mg25  1  0.26946942  0.00964599  0.20492210  1
  Mg  Mg26  1  0.27183717  0.77693260  0.66990281  1
  Mg  Mg27  1  -0.01743019  -0.00852085  -0.05005797  1
  Mg  Mg28  1  0.08722822  0.76038285  0.75319327  1
  Mg  Mg29  1  0.24227483  0.54781069  0.28145551  1
  Mg  Mg30  1  0.51386512  0.24417885  0.47168355  1
  Mg  Mg31  1  0.68362968  -0.05986114  0.28629000  1
  Ti  Ti32  1  0.86933067  0.88092705  0.12492573  1
  Ti  Ti33  1  0.86214662  0.11921572  0.13073825  1
  Ti  Ti34  1  0.36844399  0.11665607  0.35974760  1
  Ti  Ti35  1  0.87853938  0.62660242  0.64197560  1
  Ti  Ti36  1  0.11785231  0.12999529  0.12908554  1
  Ti  Ti37  1  0.11905009  0.12816382  0.60536814  1
  Ti  Ti38  1  0.38165401  0.88067718  0.11945356  1
  Ti  Ti39  1  0.63706816  0.37721320  0.86051303  1
  Ti  Ti40  1  0.38278238  0.12966811  0.10181600  1
  Ti  Ti41  1  0.87150432  0.88000404  0.63248558  1
  Ti  Ti42  1  0.88063196  0.12400996  0.62257110  1
  Ti  Ti43  1  0.12329218  0.12617495  0.36563218  1
  Ti  Ti44  1  0.88381521  0.37380573  0.11989789  1
  Ti  Ti45  1  0.35850287  0.62558901  0.87344039  1
  Ti  Ti46  1  0.37952583  0.36097527  0.61166066  1
  Ti  Ti47  1  0.86762740  0.12086438  0.87807718  1
  Ti  Ti48  1  0.35963798  0.62676036  0.62956832  1
  Ti  Ti49  1  0.12968315  0.61954990  0.12948660  1
  Ti  Ti50  1  0.36645899  0.63093877  0.13087464  1
  Ti  Ti51  1  0.12686969  0.89768155  0.37437758  1
  Ti  Ti52  1  0.12781102  0.36522399  0.62435588  1
  Ti  Ti53  1  0.12875693  0.61898689  0.62270252  1
  Ti  Ti54  1  0.10922522  0.61403095  0.38607509  1
  Ti  Ti55  1  0.37144528  0.61904795  0.39312790  1
  Ti  Ti56  1  0.61647647  0.87349389  0.12667904  1
  Ti  Ti57  1  0.11279477  0.12395880  0.88471998  1
  Ti  Ti58  1  0.61786985  0.37977513  0.37604939  1
  Ti  Ti59  1  0.62057531  0.61872325  0.37059560  1
  Ti  Ti60  1  0.36762543  0.86079185  0.86460728  1
  Ti  Ti61  1  0.37163908  0.36641858  0.87861812  1
  Ti  Ti62  1  0.37354771  0.37464767  0.12585404  1
  Ti  Ti63  1  0.62949246  0.13769396  0.37557692  1
  Ti  Ti64  1  0.62232603  0.62387699  0.11829741  1
  Ti  Ti65  1  0.86907223  0.63496220  0.38382134  1
  Ti  Ti66  1  0.14495040  0.38851707  0.37565598  1
  Ti  Ti67  1  0.87473389  0.87366994  0.86579827  1
  Ti  Ti68  1  0.62864946  0.38753642  0.13077184  1
  Ti  Ti69  1  0.61685806  0.87358104  0.63732343  1
  Ti  Ti70  1  0.37474330  0.12958928  0.62781147  1
  Ti  Ti71  1  0.11896680  0.62711300  0.86863490  1
  Ti  Ti72  1  0.61939288  0.36446644  0.61585147  1
  Ti  Ti73  1  0.63048833  0.12717950  0.12518040  1
  Bi  Bi74  1  0.70228856  0.75696881  0.48746882  1
  Bi  Bi75  1  0.52532961  -0.01442113  0.45812507  1
  Bi  Bi76  1  0.22186764  0.75061833  0.46436933  1
  Bi  Bi77  1  0.75083965  0.26028816  0.00973180  1
  Bi  Bi78  1  0.73133846  0.72525142  0.73336538  1
  Bi  Bi79  1  0.49791525  0.77563988  0.28462141  1
  Bi  Bi80  1  -0.01249569  0.78565912  0.00166532  1
  Bi  Bi81  1  -0.01841159  0.25304416  0.77316457  1
  Bi  Bi82  1  0.01141885  0.27710873  0.27573892  1
  Bi  Bi83  1  -0.03119386  0.48241670  0.75955640  1
  Bi  Bi84  1  0.72691120  -0.01448064  -0.01642025  1
  Bi  Bi85  1  0.01880958  -0.00592504  0.73506991  1
  Bi  Bi86  1  0.47341927  0.51487113  0.00021687  1
  Bi  Bi87  1  0.75412417  0.73718067  -0.02500269  1
  Bi  Bi88  1  -0.02801559  0.00276073  0.48231837  1
  Bi  Bi89  1  0.75804061  0.50410867  -0.02044782  1
  Bi  Bi90  1  0.50671593  0.71845382  0.74667677  1
  Bi  Bi91  1  0.53131813  0.54095018  0.53549125  1
  Bi  Bi92  1  0.00951438  0.28895604  0.49385903  1
  Bi  Bi93  1  0.24642888  0.46894893  0.74305768  1
  Bi  Bi94  1  0.72919627  0.74091165  0.23207702  1
  Bi  Bi95  1  0.51082085  0.21718855  0.76869232  1
  Bi  Bi96  1  -0.00437384  0.49157292  -0.02924837  1
  Bi  Bi97  1  0.00078908  0.51374908  0.22408711  1
  Bi  Bi98  1  0.76353598  0.51643334  0.51997547  1
  Bi  Bi99  1  0.72355203  -0.00307571  0.73825705  1
  Bi  Bi100  1  0.21869364  0.48768764  0.00114038  1
  Bi  Bi101  1  0.49908125  0.75171272  -0.02445858  1
  Bi  Bi102  1  0.22281809  -0.00157008  -0.00523637  1
  Bi  Bi103  1  0.22997393  0.20917990  0.75450988  1
  Bi  Bi104  1  0.25724651  -0.03796403  0.74389407  1
  Bi  Bi105  1  0.28134730  -0.01722756  0.52383785  1
  Bi  Bi106  1  0.25084827  0.77736028  0.23982088  1
  Bi  Bi107  1  0.00443268  0.77596417  0.23198892  1
  Bi  Bi108  1  0.73840068  0.22550787  0.73449796  1
  Bi  Bi109  1  0.74948855  -0.03142149  0.47521939  1
  Bi  Bi110  1  -0.00385688  0.75407121  0.53880238  1
  Bi  Bi111  1  0.22659092  0.75389399  0.00561372  1
  Bi  Bi112  1  0.27598482  0.24186275  0.46672137  1
  Bi  Bi113  1  0.47983865  0.51753177  0.25898780  1
  Bi  Bi114  1  0.49751835  0.26931762  0.25526765  1
  Bi  Bi115  1  0.47594033  0.47236868  0.75221954  1
  Bi  Bi116  1  -0.03417478  0.00972662  0.26157774  1
  Bi  Bi117  1  0.46225980  0.78777698  0.51819156  1
  Bi  Bi118  1  0.50006301  0.03271229  0.23509179  1
  Bi  Bi119  1  0.48263763  0.00185327  -0.05618048  1
  Bi  Bi120  1  0.22543174  0.26095218  0.00953648  1
  Bi  Bi121  1  0.76831428  0.26642117  0.27186043  1
  Bi  Bi122  1  0.77633506  0.51551679  0.24180254  1
  Bi  Bi123  1  0.76797652  0.26666889  0.50834045  1
  Bi  Bi124  1  0.51766797  0.28182956  0.00163769  1
  O  O125  1  0.15621987  0.13659252  0.00699346  1
  O  O126  1  0.10711501  0.12771116  0.25071564  1
  O  O127  1  0.14487370  0.13026805  0.49677808  1
  O  O128  1  0.09283604  0.11477087  0.76452773  1
  O  O129  1  0.13454551  0.36672621  0.00342434  1
  O  O130  1  0.11949990  0.37794945  0.26100214  1
  O  O131  1  0.13167703  0.36758372  0.50163332  1
  O  O132  1  0.13711471  0.38336685  0.74578756  1
  O  O133  1  0.15685043  0.63039630  0.01067248  1
  O  O134  1  0.11851910  0.60132421  0.25924510  1
  O  O135  1  0.14607030  0.62921983  0.50375738  1
  O  O136  1  0.10111098  0.62944956  0.75293233  1
  O  O137  1  0.14918637  0.87102097  0.00835827  1
  O  O138  1  0.11648038  0.85966874  0.25825758  1
  O  O139  1  0.13101639  0.86076846  0.48919408  1
  O  O140  1  0.12497668  0.88667058  0.75126753  1
  O  O141  1  0.37481632  0.08802769  -0.00826216  1
  O  O142  1  0.40080052  0.15367055  0.25034742  1
  O  O143  1  0.34931989  0.10873855  0.49456626  1
  O  O144  1  0.36494275  0.16455272  0.74234197  1
  O  O145  1  0.40537271  0.38879598  -0.00433922  1
  O  O146  1  0.36313886  0.33027704  0.23502198  1
  O  O147  1  0.37179040  0.40410049  0.50610331  1
  O  O148  1  0.36832671  0.38117887  0.75260180  1
  O  O149  1  0.36461168  0.60052438  0.00140383  1
  O  O150  1  0.40785119  0.64170698  0.24009621  1
  O  O151  1  0.34560737  0.58978405  0.50246219  1
  O  O152  1  0.38782389  0.64553988  0.75041772  1
  O  O153  1  0.37990972  0.89172147  0.00235583  1
  O  O154  1  0.38021403  0.84003129  0.24575771  1
  O  O155  1  0.38416730  0.90306117  0.48382660  1
  O  O156  1  0.33702319  0.84030559  0.75561508  1
  O  O157  1  0.64040229  0.09421366  0.01208011  1
  O  O158  1  0.60229565  0.13387545  0.25071246  1
  O  O159  1  0.59668294  0.13874030  0.49290258  1
  O  O160  1  0.62491911  0.14248173  0.75522846  1
  O  O161  1  0.60470765  0.38938528  0.00115460  1
  O  O162  1  0.64229201  0.35328089  0.24509924  1
  O  O163  1  0.58646704  0.36009013  0.49523900  1
  O  O164  1  0.64954337  0.37145033  0.74533721  1
  O  O165  1  0.65472279  0.60028099  0.00699993  1
  O  O166  1  0.61619976  0.64584218  0.25248749  1
  O  O167  1  0.64260700  0.60922051  0.49438890  1
  O  O168  1  0.61950004  0.64059011  0.75351496  1
  O  O169  1  0.62178184  0.90038282  0.01079179  1
  O  O170  1  0.62849362  0.83892749  0.24585031  1
  O  O171  1  0.63579480  0.88516873  0.50942336  1
  O  O172  1  0.64319098  0.85071143  0.75089219  1
  O  O173  1  0.85844681  0.11535263  0.00499465  1
  O  O174  1  0.89669764  0.13219400  0.24387576  1
  O  O175  1  0.86454659  0.10883501  0.50767244  1
  O  O176  1  0.89554768  0.14448782  0.75937434  1
  O  O177  1  0.88424063  0.39648262  0.00529833  1
  O  O178  1  0.84885275  0.38056940  0.24682009  1
  O  O179  1  0.87879345  0.34732818  0.50098864  1
  O  O180  1  0.88893960  0.36298643  0.75054576  1
  O  O181  1  0.84222470  0.61148041  -0.00393454  1
  O  O182  1  0.89057317  0.59811247  0.26763477  1
  O  O183  1  0.85043294  0.63139369  0.50608061  1
  O  O184  1  0.91076652  0.62193813  0.74872120  1
  O  O185  1  0.90103843  0.89972286  0.00854335  1
  O  O186  1  0.90069501  0.87073069  0.24740503  1
  O  O187  1  0.86988672  0.89145454  0.50603893  1
  O  O188  1  0.86251183  0.86363628  0.75357235  1
  O  O189  1  0.00844367  0.14024755  0.10371692  1
  O  O190  1  0.00763116  0.10268598  0.38737153  1
  O  O191  1  -0.00299678  0.14645919  0.61116113  1
  O  O192  1  -0.00113519  0.11528316  0.91716002  1
  O  O193  1  -0.00437582  0.36987981  0.14415225  1
  O  O194  1  0.00552201  0.37721354  0.38148931  1
  O  O195  1  0.01078345  0.37315520  0.61750517  1
  O  O196  1  0.00285316  0.39225786  0.86917202  1
  O  O197  1  0.00900304  0.62225546  0.13236364  1
  O  O198  1  0.00029488  0.59346771  0.40658722  1
  O  O199  1  0.00312452  0.61932850  0.59463822  1
  O  O200  1  0.00838764  0.62248662  0.90858069  1
  O  O201  1  0.01017703  0.86277892  0.12606837  1
  O  O202  1  0.00722954  0.90616879  0.38294199  1
  O  O203  1  -0.00788850  0.86935827  0.62406453  1
  O  O204  1  -0.00258734  0.88091757  0.88173553  1
  O  O205  1  0.27635804  0.12208837  0.14999846  1
  O  O206  1  0.25470832  0.16869328  0.34711565  1
  O  O207  1  0.23717692  0.11950292  0.64759636  1
  O  O208  1  0.24008117  0.10883777  0.85302500  1
  O  O209  1  0.26336601  0.38388710  0.10436512  1
  O  O210  1  0.25273628  0.35089497  0.37745174  1
  O  O211  1  0.25846103  0.37927128  0.62769391  1
  O  O212  1  0.25801889  0.39141332  0.88382826  1
  O  O213  1  0.25860854  0.59817801  0.16229298  1
  O  O214  1  0.26398481  0.64710440  0.35901591  1
  O  O215  1  0.24523179  0.65213148  0.65232297  1
  O  O216  1  0.24887844  0.61186188  0.86055580  1
  O  O217  1  0.25951819  0.88873686  0.15410426  1
  O  O218  1  0.24637674  0.85101049  0.36487542  1
  O  O219  1  0.24194482  0.88837337  0.62391352  1
  O  O220  1  0.25768452  0.90532228  0.88078545  1
  O  O221  1  0.50491328  0.11482290  0.11801531  1
  O  O222  1  0.48513999  0.09068412  0.37684041  1
  O  O223  1  0.48782134  0.11669829  0.65060735  1
  O  O224  1  0.49709319  0.12639988  0.87365010  1
  O  O225  1  0.50812542  0.35525533  0.13355767  1
  O  O226  1  0.49949309  0.39044516  0.33811329  1
  O  O227  1  0.49521691  0.37106151  0.64511843  1
  O  O228  1  0.50621423  0.38212684  0.85127812  1
  O  O229  1  0.50731687  0.62612369  0.09915327  1
  O  O230  1  0.50167558  0.59080908  0.38513456  1
  O  O231  1  0.48519060  0.64321667  0.61468943  1
  O  O232  1  0.49730635  0.64657524  0.88230786  1
  O  O233  1  0.50089106  0.85411503  0.13004290  1
  O  O234  1  0.49466719  0.89983715  0.35597623  1
  O  O235  1  0.50144917  0.87145365  0.64307101  1
  O  O236  1  0.49367195  0.84931587  0.87500556  1
  O  O237  1  0.74917527  0.12795746  0.14801683  1
  O  O238  1  0.74173881  0.15495421  0.37148127  1
  O  O239  1  0.75249379  0.10888557  0.65406327  1
  O  O240  1  0.75652197  0.14249747  0.86545753  1
  O  O241  1  0.74477730  0.36938346  0.09883395  1
  O  O242  1  0.73748672  0.34546384  0.38551140  1
  O  O243  1  0.73831985  0.37743099  0.58811836  1
  O  O244  1  0.74838024  0.35462485  0.89666005  1
  O  O245  1  0.75323162  0.62318891  0.15451587  1
  O  O246  1  0.75002668  0.64083573  0.35714201  1
  O  O247  1  0.76269822  0.60301910  0.66405247  1
  O  O248  1  0.75454967  0.65831943  0.85834895  1
  O  O249  1  0.75574100  0.87294333  0.12931911  1
  O  O250  1  0.75221584  0.87600374  0.37438451  1
  O  O251  1  0.75318324  0.90639832  0.62741582  1
  O  O252  1  0.75806837  0.86870785  0.90007342  1
  O  O253  1  0.15048111  0.01419130  0.12739637  1
  O  O254  1  0.15416241  0.00660685  0.37435299  1
  O  O255  1  0.09701215  0.00979716  0.62180768  1
  O  O256  1  0.11207428  0.00250227  0.91196955  1
  O  O257  1  0.16658418  0.24613008  0.13764851  1
  O  O258  1  0.10281345  0.24550672  0.37761864  1
  O  O259  1  0.13112259  0.24951379  0.63517685  1
  O  O260  1  0.12723584  0.24241612  0.87427695  1
  O  O261  1  0.12132645  0.50009767  0.10974056  1
  O  O262  1  0.16677075  0.50186388  0.38062097  1
  O  O263  1  0.16092398  0.50611915  0.62135408  1
  O  O264  1  0.12377095  0.50410902  0.89613342  1
  O  O265  1  0.14957321  0.74110190  0.13046286  1
  O  O266  1  0.11450026  0.73137689  0.37821169  1
  O  O267  1  0.11045548  0.74926157  0.63024046  1
  O  O268  1  0.13050277  0.74786650  0.87291461  1
  O  O269  1  0.38526842  -0.00561296  0.14317848  1
  O  O270  1  0.33416917  0.01400479  0.32096318  1
  O  O271  1  0.36421118  0.00955863  0.63664372  1
  O  O272  1  0.40983309  -0.01720828  0.82636784  1
  O  O273  1  0.37854187  0.24435429  0.08833543  1
  O  O274  1  0.40205097  0.24953323  0.40509069  1
  O  O275  1  0.38002337  0.24848732  0.58968933  1
  O  O276  1  0.36944731  0.25586947  0.88982961  1
  O  O277  1  0.40256634  0.49218886  0.13146759  1
  O  O278  1  0.35898561  0.50734077  0.33085161  1
  O  O279  1  0.35990795  0.50991698  0.64465597  1
  O  O280  1  0.39444553  0.50860960  0.86599952  1
  O  O281  1  0.34541168  0.74268863  0.10738954  1
  O  O282  1  0.40440970  0.73464888  0.39974844  1
  O  O283  1  0.35794907  0.74459395  0.58819504  1
  O  O284  1  0.36182336  0.74666383  0.90278994  1
  O  O285  1  0.62704489  -0.01489573  0.16999220  1
  O  O286  1  0.63853316  0.01234772  0.37693361  1
  O  O287  1  0.60834047  -0.00374651  0.65927706  1
  O  O288  1  0.64150179  -0.00324797  0.87215633  1
  O  O289  1  0.62944422  0.24085588  0.09581601  1
  O  O290  1  0.58839007  0.25061734  0.37115311  1
  O  O291  1  0.63722662  0.24928671  0.62775154  1
  O  O292  1  0.60927860  0.25716234  0.88589488  1
  O  O293  1  0.62813212  0.50023394  0.14944205  1
  O  O294  1  0.64166301  0.49263767  0.36780316  1
  O  O295  1  0.61586711  0.48996287  0.63112429  1
  O  O296  1  0.65780161  0.49931391  0.85638164  1
  O  O297  1  0.64466651  0.74318137  0.11339687  1
  O  O298  1  0.59942617  0.73392251  0.40193642  1
  O  O299  1  0.64310831  0.75626303  0.61210884  1
  O  O300  1  0.62432877  0.74832172  0.91546261  1
  O  O301  1  0.88165785  0.00297586  0.14335813  1
  O  O302  1  0.87504930  0.00424553  0.37181083  1
  O  O303  1  0.89670982  0.00251278  0.64852942  1
  O  O304  1  0.87860631  0.00190307  0.86898391  1
  O  O305  1  0.87108453  0.25087912  0.09893391  1
  O  O306  1  0.88540056  0.25579701  0.35625543  1
  O  O307  1  0.84671190  0.24185215  0.62787211  1
  O  O308  1  0.90540250  0.24472048  0.89425584  1
  O  O309  1  0.87476436  0.49936865  0.13944844  1
  O  O310  1  0.85811418  0.50190710  0.41520459  1
  O  O311  1  0.88303066  0.50156675  0.60837032  1
  O  O312  1  0.88433900  0.50186035  0.86954940  1
  O  O313  1  0.88828327  0.75684814  0.11057783  1
  O  O314  1  0.90221398  0.74202799  0.37850364  1
  O  O315  1  0.87721821  0.74956763  0.62289166  1
  O  O316  1  0.88407452  0.75973419  0.90549422  1
