# generated using pymatgen
data_Mg32Ti42(Bi17O64)3
_symmetry_space_group_name_H-M   'P 1'
_cell_length_a   16.01973985
_cell_length_b   15.96167876
_cell_length_c   15.98783270
_cell_angle_alpha   90.04389059
_cell_angle_beta   90.15127742
_cell_angle_gamma   90.01478697
_symmetry_Int_Tables_number   1
_chemical_formula_structural   Mg32Ti42(Bi17O64)3
_chemical_formula_sum   'Mg32 Ti42 Bi51 O192'
_cell_volume   4088.10427176
_cell_formula_units_Z   1
loop_
 _symmetry_equiv_pos_site_id
 _symmetry_equiv_pos_as_xyz
  1  'x, y, z'
loop_
 _atom_site_type_symbol
 _atom_site_label
 _atom_site_symmetry_multiplicity
 _atom_site_fract_x
 _atom_site_fract_y
 _atom_site_fract_z
 _atom_site_occupancy
  Mg  Mg0  1  0.12515452  0.61894807  0.37020101  1
  Mg  Mg1  1  0.37791582  0.61839153  0.62678899  1
  Mg  Mg2  1  0.37171023  0.37631704  0.87387758  1
  Mg  Mg3  1  0.38723957  0.13703387  0.60887248  1
  Mg  Mg4  1  0.61228382  0.36312737  0.37201426  1
  Mg  Mg5  1  0.12108335  0.87858547  0.61913855  1
  Mg  Mg6  1  0.37674546  0.12092692  0.87760688  1
  Mg  Mg7  1  0.12581972  0.62040311  0.62248369  1
  Mg  Mg8  1  0.11869203  0.62802727  0.87710821  1
  Mg  Mg9  1  0.63312556  0.62774179  0.63487314  1
  Mg  Mg10  1  0.12925088  0.12494915  0.85842588  1
  Mg  Mg11  1  0.37114710  0.37942728  0.37327741  1
  Mg  Mg12  1  0.60998700  0.12679023  0.37184518  1
  Mg  Mg13  1  0.37087400  0.63415637  0.86970075  1
  Mg  Mg14  1  0.38363075  0.88258616  0.86806145  1
  Mg  Mg15  1  0.87646552  0.87940781  0.86606862  1
  Mg  Mg16  1  0.12494750  0.36847213  0.12213906  1
  Mg  Mg17  1  0.87161546  0.37366238  0.12220802  1
  Mg  Mg18  1  0.62484665  0.12078253  0.88145996  1
  Mg  Mg19  1  0.00375261  0.82143606  0.00709742  1
  Mg  Mg20  1  0.08377612  0.73897896  0.74062657  1
  Mg  Mg21  1  0.00045923  0.04550677  0.46494486  1
  Mg  Mg22  1  0.27156879  0.78606517  0.69972218  1
  Mg  Mg23  1  0.48706029  0.29658480  0.49002928  1
  Mg  Mg24  1  0.48833560  -0.02674919  0.67636260  1
  Mg  Mg25  1  0.02278909  0.54607331  0.74414622  1
  Mg  Mg26  1  0.05700359  0.26556382  0.49736166  1
  Mg  Mg27  1  0.79247895  0.00636455  0.50732613  1
  Mg  Mg28  1  0.01337647  0.04876781  0.28116453  1
  Mg  Mg29  1  0.46192377  0.26483810  0.27598696  1
  Mg  Mg30  1  0.05022161  0.24263994  0.70415119  1
  Mg  Mg31  1  0.46459500  0.25255620  -0.03960873  1
  Ti  Ti32  1  0.11075542  0.88284022  0.86046583  1
  Ti  Ti33  1  0.87152783  0.13980782  0.37898026  1
  Ti  Ti34  1  0.37772226  0.63456403  0.12291236  1
  Ti  Ti35  1  0.63786241  0.87501205  0.13122731  1
  Ti  Ti36  1  0.61878646  0.11459404  0.61736230  1
  Ti  Ti37  1  0.11005621  0.88226057  0.37312100  1
  Ti  Ti38  1  0.88169439  0.61408695  0.37202544  1
  Ti  Ti39  1  0.89352935  0.62647697  0.63289503  1
  Ti  Ti40  1  0.13561077  0.62881122  0.11936576  1
  Ti  Ti41  1  0.12240329  0.37314153  0.86119171  1
  Ti  Ti42  1  0.12982400  0.38447834  0.62704043  1
  Ti  Ti43  1  0.13446420  0.38204995  0.37287436  1
  Ti  Ti44  1  0.63556261  0.62481608  0.87815974  1
  Ti  Ti45  1  0.62183365  0.38508119  0.12129356  1
  Ti  Ti46  1  0.88315901  0.35575839  0.63355030  1
  Ti  Ti47  1  0.13057752  0.88013521  0.12307860  1
  Ti  Ti48  1  0.88436222  0.36079395  0.87164614  1
  Ti  Ti49  1  0.87965935  0.62293460  0.11220419  1
  Ti  Ti50  1  0.88447404  0.88695889  0.37818074  1
  Ti  Ti51  1  0.35795648  0.61728717  0.37583364  1
  Ti  Ti52  1  0.61347509  0.37682617  0.63273228  1
  Ti  Ti53  1  0.63976352  0.62295955  0.11836798  1
  Ti  Ti54  1  0.38786891  0.36975101  0.12078369  1
  Ti  Ti55  1  0.64118061  0.88127886  0.38028644  1
  Ti  Ti56  1  0.88142325  0.88029074  0.13461050  1
  Ti  Ti57  1  0.88017668  0.86985066  0.61624615  1
  Ti  Ti58  1  0.87468536  0.13259788  0.61870847  1
  Ti  Ti59  1  0.63910253  0.86775952  0.61342946  1
  Ti  Ti60  1  0.88099610  0.12592844  0.13557966  1
  Ti  Ti61  1  0.38642933  0.13841999  0.37123851  1
  Ti  Ti62  1  0.60516385  0.37195085  0.87978307  1
  Ti  Ti63  1  0.11565836  0.11949044  0.12880092  1
  Ti  Ti64  1  0.62351237  0.12466984  0.12882514  1
  Ti  Ti65  1  0.13334983  0.13695461  0.38275180  1
  Ti  Ti66  1  0.37511201  0.86216823  0.11973177  1
  Ti  Ti67  1  0.86511333  0.12753889  0.86069298  1
  Ti  Ti68  1  0.38507055  0.37314963  0.63139278  1
  Ti  Ti69  1  0.88532458  0.63115316  0.87262385  1
  Ti  Ti70  1  0.62837342  0.88018814  0.86257369  1
  Ti  Ti71  1  0.39292720  0.12627342  0.12920366  1
  Ti  Ti72  1  0.13864245  0.12379274  0.61275231  1
  Ti  Ti73  1  0.87143952  0.36764146  0.37475890  1
  Bi  Bi74  1  0.44615894  0.76035462  0.50220125  1
  Bi  Bi75  1  0.25522963  0.24303515  0.22956020  1
  Bi  Bi76  1  0.00285823  0.50178530  0.21866271  1
  Bi  Bi77  1  0.50358547  -0.04049218  0.25362221  1
  Bi  Bi78  1  0.26791280  0.78971212  0.28764128  1
  Bi  Bi79  1  0.48125682  0.50848769  0.26176777  1
  Bi  Bi80  1  0.71759402  0.50522962  0.29404855  1
  Bi  Bi81  1  0.47169336  0.77223399  0.72537873  1
  Bi  Bi82  1  0.50557088  0.54048912  0.75110703  1
  Bi  Bi83  1  0.51861865  -0.01085290  -0.01308393  1
  Bi  Bi84  1  0.76700363  0.75582888  0.74195231  1
  Bi  Bi85  1  0.72489016  0.70925156  0.47542970  1
  Bi  Bi86  1  0.26024637  0.50339428  -0.02191818  1
  Bi  Bi87  1  0.74575052  0.48266137  0.52258735  1
  Bi  Bi88  1  0.21399487  0.74294068  0.50275577  1
  Bi  Bi89  1  0.75754221  -0.00192728  0.71771726  1
  Bi  Bi90  1  -0.00007171  0.26949863  0.22998574  1
  Bi  Bi91  1  0.29786574  -0.00757929  0.70432471  1
  Bi  Bi92  1  0.50557820  0.21457336  0.75692145  1
  Bi  Bi93  1  0.02028127  0.24639956  -0.02107138  1
  Bi  Bi94  1  0.24839385  0.76777146  -0.05964782  1
  Bi  Bi95  1  0.53013831  0.75996157  -0.00648753  1
  Bi  Bi96  1  0.72315160  0.24810125  0.75231381  1
  Bi  Bi97  1  0.24471039  0.53077064  0.74883198  1
  Bi  Bi98  1  0.78705736  0.50176657  0.74307300  1
  Bi  Bi99  1  0.48469698  -0.03700943  0.47933692  1
  Bi  Bi100  1  0.02513143  0.49467457  -0.00595798  1
  Bi  Bi101  1  0.00029702  0.47398468  0.48389054  1
  Bi  Bi102  1  0.26359125  0.48708938  0.21606223  1
  Bi  Bi103  1  0.76993161  0.77444986  -0.01275956  1
  Bi  Bi104  1  0.78238502  0.48667635  -0.01395599  1
  Bi  Bi105  1  0.00657549  0.00429272  0.71443024  1
  Bi  Bi106  1  0.72541167  0.25382318  0.24477904  1
  Bi  Bi107  1  0.52240064  0.54248455  0.47238576  1
  Bi  Bi108  1  -0.00393899  0.02084521  -0.03649451  1
  Bi  Bi109  1  0.49351035  0.52736045  -0.01415632  1
  Bi  Bi110  1  0.70889189  0.24457503  0.49906884  1
  Bi  Bi111  1  0.76235922  0.02728658  0.01264141  1
  Bi  Bi112  1  0.54838236  0.72342591  0.27199490  1
  Bi  Bi113  1  0.27331304  -0.02301115  0.47611205  1
  Bi  Bi114  1  0.26790676  -0.00836531  -0.01606296  1
  Bi  Bi115  1  0.74472346  0.01964750  0.27735765  1
  Bi  Bi116  1  0.27768512  0.24746854  0.75107851  1
  Bi  Bi117  1  0.02724104  0.74103998  0.23141537  1
  Bi  Bi118  1  0.78566186  0.74771859  0.25162464  1
  Bi  Bi119  1  0.72984401  0.26977528  -0.00683483  1
  Bi  Bi120  1  0.25802786  0.23040947  -0.01137116  1
  Bi  Bi121  1  0.27889744  0.24976642  0.49606242  1
  Bi  Bi122  1  0.26544500  0.00010838  0.22772120  1
  Bi  Bi123  1  -0.00934674  0.73323286  0.48454317  1
  Bi  Bi124  1  0.28105147  0.49359725  0.51530005  1
  O  O125  1  0.09201453  0.12063817  0.01448514  1
  O  O126  1  0.12857144  0.11842005  0.26534614  1
  O  O127  1  0.08730852  0.13086844  0.49771950  1
  O  O128  1  0.13119578  0.14216753  0.73346320  1
  O  O129  1  0.10247680  0.38070242  -0.00572770  1
  O  O130  1  0.11634450  0.36030757  0.26018985  1
  O  O131  1  0.11697391  0.38307486  0.50673021  1
  O  O132  1  0.12287123  0.34366106  0.74656917  1
  O  O133  1  0.11400532  0.60437847  0.00123398  1
  O  O134  1  0.12025502  0.63003479  0.24266393  1
  O  O135  1  0.10715303  0.65367215  0.50088102  1
  O  O136  1  0.13579250  0.61749046  0.75122045  1
  O  O137  1  0.12228553  0.87056329  0.00640417  1
  O  O138  1  0.11746989  0.86031557  0.25188195  1
  O  O139  1  0.13191594  0.85640484  0.49240272  1
  O  O140  1  0.10300925  0.87239588  0.74863435  1
  O  O141  1  0.38710949  0.16372588  0.01876027  1
  O  O142  1  0.34718011  0.11331049  0.25031253  1
  O  O143  1  0.40145892  0.18086243  0.48670948  1
  O  O144  1  0.37303395  0.14612694  0.74977617  1
  O  O145  1  0.38690715  0.34303392  0.01081524  1
  O  O146  1  0.37269903  0.40760104  0.24863789  1
  O  O147  1  0.36883124  0.35639397  0.50109445  1
  O  O148  1  0.36334411  0.36366173  0.74644130  1
  O  O149  1  0.39381141  0.64008788  0.00811964  1
  O  O150  1  0.35711664  0.59287234  0.25368813  1
  O  O151  1  0.39416662  0.62878673  0.49990072  1
  O  O152  1  0.36725210  0.59377690  0.75060353  1
  O  O153  1  0.36166399  0.85704191  0.00363589  1
  O  O154  1  0.36932163  0.90516366  0.24227834  1
  O  O155  1  0.37713320  0.87866331  0.49278976  1
  O  O156  1  0.40181454  0.91086547  0.74720804  1
  O  O157  1  0.61895938  0.09601688  0.01168333  1
  O  O158  1  0.65848980  0.12651024  0.24927993  1
  O  O159  1  0.61256712  0.14051001  0.50144679  1
  O  O160  1  0.63578529  0.13678932  0.75110759  1
  O  O161  1  0.60755290  0.34953584  0.00295362  1
  O  O162  1  0.65021441  0.37701974  0.24166293  1
  O  O163  1  0.61266144  0.34693285  0.50451922  1
  O  O164  1  0.62067887  0.35998430  0.75370494  1
  O  O165  1  0.59693264  0.62669885  0.00204008  1
  O  O166  1  0.64332390  0.62952985  0.23944740  1
  O  O167  1  0.61456990  0.63564514  0.50954754  1
  O  O168  1  0.63668616  0.60805429  0.76243548  1
  O  O169  1  0.61246485  0.87638718  0.01089845  1
  O  O170  1  0.61542551  0.86238984  0.25051304  1
  O  O171  1  0.62289665  0.87408031  0.49601944  1
  O  O172  1  0.64421900  0.87443958  0.75049901  1
  O  O173  1  0.88577990  0.10471141  0.01610061  1
  O  O174  1  0.84632438  0.12969465  0.26102777  1
  O  O175  1  0.89297116  0.09823519  0.50589156  1
  O  O176  1  0.83999944  0.13285422  0.74976268  1
  O  O177  1  0.88906244  0.38887364  -0.00919752  1
  O  O178  1  0.87590111  0.35744745  0.26342095  1
  O  O179  1  0.86747565  0.41253851  0.52861791  1
  O  O180  1  0.85624265  0.36955193  0.75145318  1
  O  O181  1  0.89096607  0.62143083  -0.00265169  1
  O  O182  1  0.85570957  0.62232136  0.25969570  1
  O  O183  1  0.90625538  0.62109938  0.51412674  1
  O  O184  1  0.84446743  0.63706533  0.75495431  1
  O  O185  1  0.87889719  0.85832712  0.01161059  1
  O  O186  1  0.86954566  0.85902961  0.25699248  1
  O  O187  1  0.87698370  0.90155745  0.49853818  1
  O  O188  1  0.84447031  0.87307969  0.74134714  1
  O  O189  1  -0.00683665  0.10179484  0.16780922  1
  O  O190  1  -0.01090350  0.14006223  0.36581831  1
  O  O191  1  -0.01655920  0.14085440  0.65648357  1
  O  O192  1  -0.01030282  0.14048726  0.88201671  1
  O  O193  1  -0.00353732  0.37840559  0.14690176  1
  O  O194  1  -0.01319466  0.35132835  0.41605542  1
  O  O195  1  -0.00699705  0.33443801  0.62977067  1
  O  O196  1  -0.00511679  0.33810297  0.86353110  1
  O  O197  1  -0.00424613  0.62445728  0.14045950  1
  O  O198  1  -0.00438024  0.65521890  0.37034213  1
  O  O199  1  0.00108905  0.65669141  0.66198064  1
  O  O200  1  -0.00739804  0.63114932  0.84589098  1
  O  O201  1  -0.00166382  0.86880626  0.12520734  1
  O  O202  1  -0.00285893  0.84059130  0.37850306  1
  O  O203  1  -0.00954279  0.86818559  0.62909856  1
  O  O204  1  -0.00092385  0.86563548  0.89104088  1
  O  O205  1  0.23464910  0.14464674  0.12257869  1
  O  O206  1  0.24268697  0.11072502  0.40515585  1
  O  O207  1  0.24857683  0.10687131  0.59638808  1
  O  O208  1  0.24849428  0.11266964  0.91232281  1
  O  O209  1  0.25371271  0.35688009  0.13619296  1
  O  O210  1  0.24355941  0.40106098  0.37510738  1
  O  O211  1  0.24386937  0.40166230  0.62266085  1
  O  O212  1  0.23608826  0.40183274  0.88050970  1
  O  O213  1  0.25035724  0.61872819  0.11971371  1
  O  O214  1  0.24897757  0.60273937  0.40220660  1
  O  O215  1  0.25025888  0.58775227  0.61543542  1
  O  O216  1  0.24640421  0.60262714  0.88407627  1
  O  O217  1  0.24820445  0.87471154  0.13560924  1
  O  O218  1  0.23691587  0.90833800  0.35907328  1
  O  O219  1  0.24762335  0.89334805  0.63701625  1
  O  O220  1  0.24036673  0.89359693  0.88119114  1
  O  O221  1  0.50326360  0.10809923  0.14357008  1
  O  O222  1  0.49101212  0.15327096  0.33501457  1
  O  O223  1  0.50650905  0.12918739  0.64514922  1
  O  O224  1  0.49917478  0.15559672  0.88080898  1
  O  O225  1  0.50251693  0.37978075  0.14365483  1
  O  O226  1  0.49194698  0.33789445  0.37003492  1
  O  O227  1  0.49392512  0.33571795  0.61879541  1
  O  O228  1  0.49534162  0.34366714  0.87596657  1
  O  O229  1  0.48914670  0.61165054  0.15303401  1
  O  O230  1  0.49405231  0.62530511  0.35783939  1
  O  O231  1  0.50477368  0.64515062  0.66101406  1
  O  O232  1  0.49815927  0.62070212  0.86919365  1
  O  O233  1  0.48995633  0.88812620  0.12645991  1
  O  O234  1  0.50737850  0.87717301  0.37118468  1
  O  O235  1  0.51589745  0.85512543  0.62491664  1
  O  O236  1  0.50786110  0.85773938  0.88581715  1
  O  O237  1  0.75214255  0.12496101  0.10832427  1
  O  O238  1  0.76654179  0.08123698  0.40172794  1
  O  O239  1  0.75028192  0.09018188  0.60594317  1
  O  O240  1  0.75449054  0.10942732  0.90154557  1
  O  O241  1  0.74596959  0.37263660  0.09559698  1
  O  O242  1  0.75646862  0.40203121  0.38562151  1
  O  O243  1  0.73670754  0.39476926  0.63059207  1
  O  O244  1  0.74311276  0.38377136  0.90315129  1
  O  O245  1  0.75050457  0.62851791  0.10117639  1
  O  O246  1  0.76325517  0.59401982  0.40463188  1
  O  O247  1  0.76218051  0.58654029  0.61714301  1
  O  O248  1  0.74417920  0.60702859  0.90032025  1
  O  O249  1  0.74962062  0.85490927  0.12498772  1
  O  O250  1  0.75652798  0.89995209  0.37904969  1
  O  O251  1  0.75062072  0.91349926  0.60534893  1
  O  O252  1  0.74393131  0.88055669  0.90011457  1
  O  O253  1  0.13284849  -0.00211310  0.13297164  1
  O  O254  1  0.08674198  -0.00338961  0.38212752  1
  O  O255  1  0.09477719  0.00856843  0.61226862  1
  O  O256  1  0.10092552  0.00296604  0.86942381  1
  O  O257  1  0.09475990  0.24156143  0.12980015  1
  O  O258  1  0.13530890  0.25289802  0.39403617  1
  O  O259  1  0.13027536  0.24724954  0.60303263  1
  O  O260  1  0.13528540  0.24895937  0.89877424  1
  O  O261  1  0.11180612  0.49908126  0.12843523  1
  O  O262  1  0.09181776  0.49347608  0.37679016  1
  O  O263  1  0.09118815  0.49107804  0.64437272  1
  O  O264  1  0.08206676  0.48586120  0.85995629  1
  O  O265  1  0.11423986  0.74616100  0.12000358  1
  O  O266  1  0.16246467  0.75300892  0.37002439  1
  O  O267  1  0.16322614  0.74947584  0.64103288  1
  O  O268  1  0.13410969  0.75529959  0.86318352  1
  O  O269  1  0.35420928  0.01368039  0.11049704  1
  O  O270  1  0.38518242  0.02136655  0.40353574  1
  O  O271  1  0.39125770  0.01264576  0.60631517  1
  O  O272  1  0.38563906  0.00219792  0.91364040  1
  O  O273  1  0.38604310  0.25127703  0.17255420  1
  O  O274  1  0.34334395  0.25090000  0.34780102  1
  O  O275  1  0.33715724  0.25463466  0.62464230  1
  O  O276  1  0.34204261  0.25092129  0.87873095  1
  O  O277  1  0.35720117  0.49163333  0.10754086  1
  O  O278  1  0.39803679  0.50216818  0.39107723  1
  O  O279  1  0.39356665  0.48756772  0.60597095  1
  O  O280  1  0.37867457  0.49705599  0.90838599  1
  O  O281  1  0.37738903  0.74909161  0.14851686  1
  O  O282  1  0.36073666  0.74003772  0.37958155  1
  O  O283  1  0.37179166  0.74758808  0.63324592  1
  O  O284  1  0.33557791  0.75902815  0.83240588  1
  O  O285  1  0.63552583  -0.00871209  0.14615074  1
  O  O286  1  0.61812051  -0.00107575  0.35473521  1
  O  O287  1  0.60485185  -0.00279990  0.63353373  1
  O  O288  1  0.60310971  -0.00636020  0.87696234  1
  O  O289  1  0.63076065  0.24148504  0.13417962  1
  O  O290  1  0.65806758  0.24535975  0.36617994  1
  O  O291  1  0.65023666  0.24172870  0.63078814  1
  O  O292  1  0.64930487  0.25016431  0.87647947  1
  O  O293  1  0.62487086  0.50071124  0.11506833  1
  O  O294  1  0.60386798  0.48999578  0.36611407  1
  O  O295  1  0.59526172  0.48876512  0.62434359  1
  O  O296  1  0.59831161  0.49072691  0.88965325  1
  O  O297  1  0.60794209  0.74540523  0.11955714  1
  O  O298  1  0.64839579  0.75713723  0.36990080  1
  O  O299  1  0.66570689  0.75645426  0.62893544  1
  O  O300  1  0.63374080  0.74569672  0.89253116  1
  O  O301  1  0.85926810  -0.00906549  0.13786547  1
  O  O302  1  0.91651950  -0.00612657  0.35851297  1
  O  O303  1  0.88438520  0.00236302  0.64717317  1
  O  O304  1  0.89127081  0.00841908  0.86624444  1
  O  O305  1  0.89348055  0.24098130  0.13033028  1
  O  O306  1  0.84769196  0.24999898  0.39796338  1
  O  O307  1  0.84627105  0.24739827  0.61292695  1
  O  O308  1  0.85066166  0.24934575  0.88770226  1
  O  O309  1  0.88335779  0.50504476  0.13387324  1
  O  O310  1  0.90579056  0.49669911  0.37581273  1
  O  O311  1  0.90894103  0.51223404  0.67369881  1
  O  O312  1  0.86957392  0.50051594  0.86727438  1
  O  O313  1  0.87476507  0.74167042  0.14252230  1
  O  O314  1  0.84736001  0.74155507  0.38605705  1
  O  O315  1  0.85073392  0.75214677  0.62480631  1
  O  O316  1  0.85179710  0.74753386  0.87762100  1
