# generated using pymatgen
data_Mg32Ti42(Bi17O64)3
_symmetry_space_group_name_H-M   'P 1'
_cell_length_a   15.92923161
_cell_length_b   15.95724779
_cell_length_c   15.96931148
_cell_angle_alpha   89.84474146
_cell_angle_beta   90.02121642
_cell_angle_gamma   90.02293108
_symmetry_Int_Tables_number   1
_chemical_formula_structural   Mg32Ti42(Bi17O64)3
_chemical_formula_sum   'Mg32 Ti42 Bi51 O192'
_cell_volume   4059.17101633
_cell_formula_units_Z   1
loop_
 _symmetry_equiv_pos_site_id
 _symmetry_equiv_pos_as_xyz
  1  'x, y, z'
loop_
 _atom_site_type_symbol
 _atom_site_label
 _atom_site_symmetry_multiplicity
 _atom_site_fract_x
 _atom_site_fract_y
 _atom_site_fract_z
 _atom_site_occupancy
  Mg  Mg0  1  0.86870907  0.37973478  0.88425197  1
  Mg  Mg1  1  0.62392178  0.39052271  0.37049171  1
  Mg  Mg2  1  0.12512324  0.11797298  0.62316116  1
  Mg  Mg3  1  0.12806797  0.87533834  0.87217006  1
  Mg  Mg4  1  0.63045389  0.87818978  0.62561599  1
  Mg  Mg5  1  0.38001115  0.86000199  0.37126737  1
  Mg  Mg6  1  0.88465474  0.62134143  0.12755333  1
  Mg  Mg7  1  0.87585247  0.36901823  0.62202497  1
  Mg  Mg8  1  0.61949721  0.12303975  0.37512140  1
  Mg  Mg9  1  0.62807352  0.86311920  0.37143129  1
  Mg  Mg10  1  0.36446080  0.38810555  0.37996458  1
  Mg  Mg11  1  0.61591205  0.36885931  0.12564022  1
  Mg  Mg12  1  0.37110127  0.13603315  0.87714116  1
  Mg  Mg13  1  0.13196846  0.37357184  0.86368290  1
  Mg  Mg14  1  0.37020799  0.87499390  0.62877150  1
  Mg  Mg15  1  0.38176618  0.12628957  0.61670501  1
  Mg  Mg16  1  0.12196537  0.88256767  0.37184425  1
  Mg  Mg17  1  0.87460200  0.62249132  0.61916772  1
  Mg  Mg18  1  0.87826691  0.87868989  0.87698167  1
  Mg  Mg19  1  0.73217047  0.70078682  0.19463195  1
  Mg  Mg20  1  0.23261393  0.48061577  0.24220503  1
  Mg  Mg21  1  0.27090871  0.71482275  0.68450359  1
  Mg  Mg22  1  -0.02812617  0.28241591  0.77451340  1
  Mg  Mg23  1  0.27403018  -0.05599643  0.26101751  1
  Mg  Mg24  1  -0.05448067  0.21500955  0.28651616  1
  Mg  Mg25  1  0.48362365  0.48214568  0.49539360  1
  Mg  Mg26  1  0.56397005  0.55864871  0.22214618  1
  Mg  Mg27  1  0.31727741  0.55979565  0.52310277  1
  Mg  Mg28  1  0.25428383  0.21495539  0.70293146  1
  Mg  Mg29  1  0.01054562  0.50014404  0.23039898  1
  Mg  Mg30  1  0.21990402  0.49191750  0.00033941  1
  Mg  Mg31  1  0.22278431  0.75525927  0.27561374  1
  Ti  Ti32  1  0.61511148  0.61628318  0.38914650  1
  Ti  Ti33  1  0.61199579  0.12627904  0.87425846  1
  Ti  Ti34  1  0.62296595  0.38598556  0.87015391  1
  Ti  Ti35  1  0.12095634  0.37910632  0.13074503  1
  Ti  Ti36  1  0.35779122  0.61385505  0.13990047  1
  Ti  Ti37  1  0.88495031  0.62483316  0.36763163  1
  Ti  Ti38  1  0.11037271  0.62092820  0.60624016  1
  Ti  Ti39  1  0.37149639  0.61531310  0.36138572  1
  Ti  Ti40  1  0.86444822  0.62055503  0.87602516  1
  Ti  Ti41  1  0.87742605  0.14514341  0.11301520  1
  Ti  Ti42  1  0.62785562  0.12365234  0.61290617  1
  Ti  Ti43  1  0.13733473  0.87184000  0.63192321  1
  Ti  Ti44  1  0.13151161  0.36879397  0.36498512  1
  Ti  Ti45  1  0.64341689  0.87240660  0.12660818  1
  Ti  Ti46  1  0.12726529  0.13973281  0.12069786  1
  Ti  Ti47  1  0.38682389  0.13185285  0.12635383  1
  Ti  Ti48  1  0.36789966  0.85585051  0.13063133  1
  Ti  Ti49  1  0.87771183  0.86517673  0.12910685  1
  Ti  Ti50  1  0.62717468  0.86290523  0.87788066  1
  Ti  Ti51  1  0.13655488  0.60725117  0.37550514  1
  Ti  Ti52  1  0.62787815  0.37230135  0.62246997  1
  Ti  Ti53  1  0.13035100  0.61453222  0.11668241  1
  Ti  Ti54  1  0.61749245  0.13797405  0.11636224  1
  Ti  Ti55  1  0.13109804  0.62327545  0.86590292  1
  Ti  Ti56  1  0.87933349  0.13064883  0.87218417  1
  Ti  Ti57  1  0.12269989  0.12453666  0.35665337  1
  Ti  Ti58  1  0.36597501  0.38729222  0.86648412  1
  Ti  Ti59  1  0.38477719  0.12143658  0.36257191  1
  Ti  Ti60  1  0.36077525  0.62367789  0.88829820  1
  Ti  Ti61  1  0.88645387  0.38091772  0.35969955  1
  Ti  Ti62  1  0.13403344  0.13379204  0.86716507  1
  Ti  Ti63  1  0.11753999  0.88171333  0.13109371  1
  Ti  Ti64  1  0.36571823  0.87435045  0.87654816  1
  Ti  Ti65  1  0.63266116  0.61421218  0.63887669  1
  Ti  Ti66  1  0.37511659  0.38258198  0.13929167  1
  Ti  Ti67  1  0.87238493  0.88728648  0.61877102  1
  Ti  Ti68  1  0.62082099  0.62420397  0.86757721  1
  Ti  Ti69  1  0.89750999  0.12709322  0.63819608  1
  Ti  Ti70  1  0.13076333  0.36853330  0.62197767  1
  Ti  Ti71  1  0.36624165  0.37202217  0.61792489  1
  Ti  Ti72  1  0.87197782  0.85857432  0.36434789  1
  Ti  Ti73  1  0.88055380  0.37978383  0.12672292  1
  Bi  Bi74  1  0.50620661  0.27795209  0.47974662  1
  Bi  Bi75  1  0.73678385  0.01133976  -0.00484092  1
  Bi  Bi76  1  0.77677174  0.50478829  0.49754145  1
  Bi  Bi77  1  0.78130740  0.74220915  -0.00225615  1
  Bi  Bi78  1  0.73871752  0.25572555  0.26806683  1
  Bi  Bi79  1  0.50691924  -0.03225381  0.49181853  1
  Bi  Bi80  1  0.76758318  0.50836077  0.23793161  1
  Bi  Bi81  1  0.45732832  0.73828800  0.75970872  1
  Bi  Bi82  1  0.72766453  -0.01498871  0.75922343  1
  Bi  Bi83  1  0.52010502  0.24983341  0.73526329  1
  Bi  Bi84  1  0.78201607  0.49341076  0.74786940  1
  Bi  Bi85  1  0.74371054  -0.01310484  0.45860674  1
  Bi  Bi86  1  0.00070607  0.47299234  0.49530211  1
  Bi  Bi87  1  0.00824159  0.23213665  0.48142413  1
  Bi  Bi88  1  0.70681449  0.51083805  0.03088281  1
  Bi  Bi89  1  0.00533084  0.00018591  -0.02013486  1
  Bi  Bi90  1  0.76425216  0.23685918  0.73351859  1
  Bi  Bi91  1  0.02786096  0.73191170  0.24429631  1
  Bi  Bi92  1  -0.01656844  0.02648980  0.22610594  1
  Bi  Bi93  1  0.73909279  0.02829501  0.23456048  1
  Bi  Bi94  1  0.75100521  0.75734306  0.72940561  1
  Bi  Bi95  1  0.73610052  0.73985291  0.49442287  1
  Bi  Bi96  1  -0.00138350  0.74538464  -0.03167482  1
  Bi  Bi97  1  0.25536718  0.75280796  0.46659185  1
  Bi  Bi98  1  0.51620293  0.74414265  0.25519473  1
  Bi  Bi99  1  0.50449697  -0.03086101  0.23411112  1
  Bi  Bi100  1  0.78327320  0.23725641  0.47578042  1
  Bi  Bi101  1  0.01020742  0.48055511  0.73583830  1
  Bi  Bi102  1  0.26415090  0.02840202  0.73153502  1
  Bi  Bi103  1  0.49528682  -0.00779847  0.72281522  1
  Bi  Bi104  1  0.26913338  -0.00944208  0.46949069  1
  Bi  Bi105  1  0.49144717  -0.03602484  -0.00021252  1
  Bi  Bi106  1  0.48714785  0.71711691  0.53970320  1
  Bi  Bi107  1  0.24835493  0.21906130  0.49674181  1
  Bi  Bi108  1  0.00527075  0.48281418  -0.03164049  1
  Bi  Bi109  1  0.74627916  0.25791030  -0.02145397  1
  Bi  Bi110  1  -0.01261910  0.76242063  0.72530805  1
  Bi  Bi111  1  0.49296682  0.27190114  -0.02688817  1
  Bi  Bi112  1  0.24705537  0.52252270  0.71876742  1
  Bi  Bi113  1  0.01720823  0.24706285  -0.02459422  1
  Bi  Bi114  1  0.51105762  0.27393442  0.26883737  1
  Bi  Bi115  1  0.02456169  0.77475762  0.49490644  1
  Bi  Bi116  1  0.26001618  0.28351327  0.00382410  1
  Bi  Bi117  1  0.52057787  0.71475311  0.03187407  1
  Bi  Bi118  1  0.27489071  0.02133428  0.00451732  1
  Bi  Bi119  1  0.23130210  0.77143808  0.00349973  1
  Bi  Bi120  1  0.48337473  0.49662535  0.00847081  1
  Bi  Bi121  1  0.00690027  -0.01486532  0.74840797  1
  Bi  Bi122  1  0.48069423  0.50038554  0.71824486  1
  Bi  Bi123  1  0.27248908  0.25401824  0.26410743  1
  Bi  Bi124  1  -0.02136206  0.01083569  0.45479847  1
  O  O125  1  0.09367283  0.11873011  0.00312973  1
  O  O126  1  0.12813108  0.13155258  0.24377232  1
  O  O127  1  0.12295599  0.14364186  0.49386222  1
  O  O128  1  0.16063085  0.14268754  0.75691043  1
  O  O129  1  0.11364901  0.40634457  0.00954467  1
  O  O130  1  0.15884983  0.36416753  0.24677217  1
  O  O131  1  0.10782434  0.37987046  0.49466417  1
  O  O132  1  0.09366220  0.35982239  0.74045453  1
  O  O133  1  0.11335982  0.58671812  0.00772195  1
  O  O134  1  0.14801596  0.65470482  0.26024815  1
  O  O135  1  0.09325728  0.60559829  0.49325690  1
  O  O136  1  0.16704551  0.64207945  0.75920104  1
  O  O137  1  0.14825726  0.88278178  0.01446225  1
  O  O138  1  0.13631749  0.84640290  0.24717988  1
  O  O139  1  0.12986690  0.86854964  0.51022585  1
  O  O140  1  0.09109008  0.85996326  0.74983364  1
  O  O141  1  0.36828833  0.12936458  0.00852413  1
  O  O142  1  0.36161012  0.13730701  0.24275807  1
  O  O143  1  0.35973976  0.11221339  0.48635333  1
  O  O144  1  0.34354610  0.13606965  0.75527462  1
  O  O145  1  0.40279490  0.38013859  0.00742732  1
  O  O146  1  0.33317629  0.39428087  0.25103836  1
  O  O147  1  0.39265182  0.36889585  0.50612258  1
  O  O148  1  0.35754622  0.40216316  0.75365577  1
  O  O149  1  0.40789000  0.63041238  0.00574599  1
  O  O150  1  0.32610441  0.58720810  0.25233931  1
  O  O151  1  0.38028786  0.66217794  0.48347667  1
  O  O152  1  0.35295445  0.63836759  0.76548117  1
  O  O153  1  0.37674201  0.87411928  0.01109779  1
  O  O154  1  0.38802802  0.88073003  0.24722798  1
  O  O155  1  0.36840449  0.89831785  0.49714575  1
  O  O156  1  0.39510444  0.87472384  0.76363701  1
  O  O157  1  0.62067737  0.09424977  0.00185753  1
  O  O158  1  0.64828947  0.14117515  0.23624911  1
  O  O159  1  0.62193372  0.09788106  0.50401210  1
  O  O160  1  0.63826392  0.15712226  0.76120283  1
  O  O161  1  0.59108645  0.38507587  -0.00781571  1
  O  O162  1  0.63067177  0.34337813  0.24901835  1
  O  O163  1  0.58358949  0.39394697  0.50824564  1
  O  O164  1  0.63057107  0.34821262  0.75134549  1
  O  O165  1  0.60523588  0.61465460  -0.01101285  1
  O  O166  1  0.62834684  0.66494850  0.26234219  1
  O  O167  1  0.56237672  0.58978236  0.49317007  1
  O  O168  1  0.66331698  0.63173432  0.74833640  1
  O  O169  1  0.63512823  0.89896323  0.00516188  1
  O  O170  1  0.61048367  0.86127201  0.24429916  1
  O  O171  1  0.63559849  0.90633615  0.50042163  1
  O  O172  1  0.62845928  0.87272659  0.75914329  1
  O  O173  1  0.90999169  0.12374723  -0.00406232  1
  O  O174  1  0.86707758  0.12890463  0.23418248  1
  O  O175  1  0.89569719  0.14085790  0.52003024  1
  O  O176  1  0.84724431  0.12005455  0.75700727  1
  O  O177  1  0.89719830  0.39348401  0.01382611  1
  O  O178  1  0.88099695  0.33171924  0.25218854  1
  O  O179  1  0.88648045  0.39234441  0.48995364  1
  O  O180  1  0.87418030  0.38810883  0.75334893  1
  O  O181  1  0.88727723  0.63681292  -0.00003870  1
  O  O182  1  0.82714488  0.63597349  0.26418265  1
  O  O183  1  0.88383650  0.59218596  0.48848490  1
  O  O184  1  0.84760169  0.61869652  0.75335539  1
  O  O185  1  0.86456411  0.85960282  0.01026027  1
  O  O186  1  0.88905798  0.85443412  0.25330438  1
  O  O187  1  0.85771206  0.88139281  0.50674515  1
  O  O188  1  0.90674475  0.87424689  0.75088905  1
  O  O189  1  -0.00246021  0.14032374  0.14807570  1
  O  O190  1  -0.00298970  0.12852440  0.37606838  1
  O  O191  1  0.00697398  0.11908311  0.65731225  1
  O  O192  1  -0.00077894  0.17512186  0.85281596  1
  O  O193  1  0.00914906  0.38623816  0.14938024  1
  O  O194  1  0.00076152  0.41679464  0.35202758  1
  O  O195  1  0.00286089  0.39851876  0.61627497  1
  O  O196  1  -0.00003003  0.36062172  0.88139317  1
  O  O197  1  0.01119298  0.62762031  0.15371941  1
  O  O198  1  -0.00404900  0.60878507  0.33364011  1
  O  O199  1  0.00003481  0.61061124  0.64484084  1
  O  O200  1  0.01117900  0.64721515  0.86631284  1
  O  O201  1  0.00482424  0.84055796  0.12665164  1
  O  O202  1  -0.00346692  0.87464663  0.39781044  1
  O  O203  1  -0.00505068  0.85218802  0.61303378  1
  O  O204  1  0.00513593  0.86796098  0.90495894  1
  O  O205  1  0.23854296  0.11188975  0.10967057  1
  O  O206  1  0.23719054  0.15388966  0.37279834  1
  O  O207  1  0.25051486  0.11281873  0.61834339  1
  O  O208  1  0.24132885  0.10494068  0.90090984  1
  O  O209  1  0.25224437  0.40145913  0.09258160  1
  O  O210  1  0.24008571  0.34040435  0.39237972  1
  O  O211  1  0.24872229  0.40698200  0.62030469  1
  O  O212  1  0.25366534  0.40003453  0.90620417  1
  O  O213  1  0.25340569  0.59519727  0.09711677  1
  O  O214  1  0.24392577  0.61706359  0.42100841  1
  O  O215  1  0.24312750  0.61281373  0.61123024  1
  O  O216  1  0.25122081  0.59770695  0.90993927  1
  O  O217  1  0.25784203  0.89831083  0.14453375  1
  O  O218  1  0.24784094  0.87846073  0.37251951  1
  O  O219  1  0.24556808  0.84145172  0.65069399  1
  O  O220  1  0.25293670  0.88193386  0.87692774  1
  O  O221  1  0.50229075  0.15766661  0.12490735  1
  O  O222  1  0.49400979  0.09781813  0.36122355  1
  O  O223  1  0.50437790  0.11885866  0.64909066  1
  O  O224  1  0.49998790  0.14697382  0.87055269  1
  O  O225  1  0.48796775  0.35871490  0.15667612  1
  O  O226  1  0.49284720  0.37083477  0.36637708  1
  O  O227  1  0.48915491  0.37273712  0.65756196  1
  O  O228  1  0.49734817  0.35266785  0.85864139  1
  O  O229  1  0.49103844  0.64760253  0.15338603  1
  O  O230  1  0.48291697  0.63099388  0.33542225  1
  O  O231  1  0.51568612  0.63864633  0.65350557  1
  O  O232  1  0.50855800  0.63454485  0.84975451  1
  O  O233  1  0.50121467  0.87322958  0.12173260  1
  O  O234  1  0.50219790  0.88548287  0.38125299  1
  O  O235  1  0.50381086  0.89610228  0.61678454  1
  O  O236  1  0.50950145  0.86840404  0.89868077  1
  O  O237  1  0.76071814  0.10470196  0.10227780  1
  O  O238  1  0.74765474  0.15562973  0.37818177  1
  O  O239  1  0.74503362  0.15252791  0.62239538  1
  O  O240  1  0.75871251  0.12033663  0.90595362  1
  O  O241  1  0.76185172  0.40184572  0.12330481  1
  O  O242  1  0.75331370  0.34909614  0.37969417  1
  O  O243  1  0.73944686  0.35795074  0.60985630  1
  O  O244  1  0.73906243  0.38181387  0.89981834  1
  O  O245  1  0.75547279  0.59642275  0.12254349  1
  O  O246  1  0.73068349  0.61910332  0.41329730  1
  O  O247  1  0.73764197  0.61671100  0.58211395  1
  O  O248  1  0.75097601  0.61312472  0.89910230  1
  O  O249  1  0.75543598  0.90014164  0.14191162  1
  O  O250  1  0.75509114  0.86223675  0.38088998  1
  O  O251  1  0.75737197  0.88351958  0.65676900  1
  O  O252  1  0.75090125  0.89520704  0.87027651  1
  O  O253  1  0.09428818  -0.00623942  0.14007808  1
  O  O254  1  0.11070048  0.00890881  0.37584850  1
  O  O255  1  0.12906070  -0.01282934  0.64703903  1
  O  O256  1  0.09255188  0.01395884  0.86620498  1
  O  O257  1  0.13436265  0.25663068  0.10547736  1
  O  O258  1  0.08369023  0.25930787  0.36279920  1
  O  O259  1  0.15924017  0.25871962  0.62077150  1
  O  O260  1  0.14113538  0.25124014  0.90532180  1
  O  O261  1  0.12774038  0.50325985  0.16801403  1
  O  O262  1  0.15238547  0.49744188  0.34717732  1
  O  O263  1  0.12431822  0.50418773  0.65431612  1
  O  O264  1  0.10492962  0.50346710  0.85480682  1
  O  O265  1  0.14565284  0.73559934  0.10766437  1
  O  O266  1  0.13200038  0.74315333  0.39286383  1
  O  O267  1  0.11423196  0.73644443  0.61629000  1
  O  O268  1  0.13712624  0.74182514  0.90916755  1
  O  O269  1  0.40314887  0.01388285  0.12871307  1
  O  O270  1  0.33484172  0.01061064  0.35105562  1
  O  O271  1  0.37436514  0.00064723  0.64937918  1
  O  O272  1  0.38521819  -0.00455268  0.89975062  1
  O  O273  1  0.34674630  0.26110133  0.12971953  1
  O  O274  1  0.38161287  0.24540138  0.36349518  1
  O  O275  1  0.35225655  0.25725903  0.63133884  1
  O  O276  1  0.36179752  0.26708508  0.89462788  1
  O  O277  1  0.40005056  0.50380632  0.12369149  1
  O  O278  1  0.37937252  0.51157907  0.41734676  1
  O  O279  1  0.40268843  0.50263379  0.60273490  1
  O  O280  1  0.39939472  0.50549043  0.88617478  1
  O  O281  1  0.35150860  0.74318839  0.13889973  1
  O  O282  1  0.32870305  0.73882227  0.34635041  1
  O  O283  1  0.38571127  0.75002037  0.63391389  1
  O  O284  1  0.37164893  0.74797487  0.88341342  1
  O  O285  1  0.62008863  0.00520455  0.14951995  1
  O  O286  1  0.65693274  0.00131114  0.35202277  1
  O  O287  1  0.63085527  0.01053758  0.65647505  1
  O  O288  1  0.62368987  0.00881183  0.85725835  1
  O  O289  1  0.64808767  0.24602433  0.09375311  1
  O  O290  1  0.60182244  0.24869907  0.38483671  1
  O  O291  1  0.59739846  0.25213297  0.61166914  1
  O  O292  1  0.63233381  0.24745114  0.90433844  1
  O  O293  1  0.60878208  0.49557783  0.12599092  1
  O  O294  1  0.61359010  0.51251152  0.33393521  1
  O  O295  1  0.61506092  0.49585224  0.65016803  1
  O  O296  1  0.61657246  0.49964141  0.85461756  1
  O  O297  1  0.65039838  0.75768631  0.10882675  1
  O  O298  1  0.61940873  0.74094280  0.41966097  1
  O  O299  1  0.65284957  0.74758875  0.61936875  1
  O  O300  1  0.64182965  0.74830121  0.88398778  1
  O  O301  1  0.90207748  -0.01360277  0.12667062  1
  O  O302  1  0.87389769  -0.01384774  0.37123147  1
  O  O303  1  0.88714487  0.00223234  0.63250704  1
  O  O304  1  0.91172714  0.01098088  0.87233248  1
  O  O305  1  0.86493060  0.25604216  0.10383274  1
  O  O306  1  0.89857385  0.26144951  0.39441173  1
  O  O307  1  0.89543683  0.24889515  0.66475655  1
  O  O308  1  0.85446512  0.25175414  0.86980593  1
  O  O309  1  0.89230891  0.49612372  0.17563084  1
  O  O310  1  0.84816028  0.49611761  0.35736968  1
  O  O311  1  0.84573730  0.49667003  0.62707552  1
  O  O312  1  0.88927518  0.50624172  0.87143603  1
  O  O313  1  0.83785608  0.74679566  0.12923413  1
  O  O314  1  0.88673341  0.73907440  0.39398684  1
  O  O315  1  0.86002748  0.74941184  0.63731220  1
  O  O316  1  0.87280970  0.74709753  0.88036519  1
