# generated using pymatgen
data_Mg32Ti42(Bi17O64)3
_symmetry_space_group_name_H-M   'P 1'
_cell_length_a   15.94206896
_cell_length_b   15.93202850
_cell_length_c   15.90423952
_cell_angle_alpha   89.94657306
_cell_angle_beta   89.87757797
_cell_angle_gamma   89.95909959
_symmetry_Int_Tables_number   1
_chemical_formula_structural   Mg32Ti42(Bi17O64)3
_chemical_formula_sum   'Mg32 Ti42 Bi51 O192'
_cell_volume   4039.49779553
_cell_formula_units_Z   1
loop_
 _symmetry_equiv_pos_site_id
 _symmetry_equiv_pos_as_xyz
  1  'x, y, z'
loop_
 _atom_site_type_symbol
 _atom_site_label
 _atom_site_symmetry_multiplicity
 _atom_site_fract_x
 _atom_site_fract_y
 _atom_site_fract_z
 _atom_site_occupancy
  Mg  Mg0  1  0.12528497  0.62965837  0.63240364  1
  Mg  Mg1  1  0.62547127  0.12445920  0.63342458  1
  Mg  Mg2  1  0.12768216  0.11440045  0.63316581  1
  Mg  Mg3  1  0.62326486  0.62333432  0.87313886  1
  Mg  Mg4  1  0.63099985  0.37980691  0.12146283  1
  Mg  Mg5  1  0.62857718  0.37536664  0.62063862  1
  Mg  Mg6  1  0.88390859  0.87805219  0.37704297  1
  Mg  Mg7  1  0.63335392  0.62580773  0.12530766  1
  Mg  Mg8  1  0.87201847  0.62471922  0.62632296  1
  Mg  Mg9  1  0.62758072  0.12724354  0.13717488  1
  Mg  Mg10  1  0.62382553  0.87415493  0.88415683  1
  Mg  Mg11  1  0.38515690  0.37853440  0.62976761  1
  Mg  Mg12  1  0.12435083  0.63244241  0.37179522  1
  Mg  Mg13  1  0.62220882  0.36842806  0.87759987  1
  Mg  Mg14  1  0.37886236  0.12327608  0.37886348  1
  Mg  Mg15  1  0.87232201  0.87841576  0.62269109  1
  Mg  Mg16  1  0.12612497  0.36484629  0.87784234  1
  Mg  Mg17  1  0.86590825  0.13071505  0.88618362  1
  Mg  Mg18  1  0.62021690  0.86401618  0.37271974  1
  Mg  Mg19  1  -0.00570930  0.03434835  0.80376513  1
  Mg  Mg20  1  0.76209717  -0.00082465  0.51837407  1
  Mg  Mg21  1  0.53676295  -0.00105948  0.03259325  1
  Mg  Mg22  1  0.78903532  0.77305517  0.25756602  1
  Mg  Mg23  1  0.31164498  0.30232440  0.47666056  1
  Mg  Mg24  1  0.50873508  0.28515083  0.72562280  1
  Mg  Mg25  1  0.78244560  0.23079470  0.26807222  1
  Mg  Mg26  1  0.25910926  0.69460157  -0.01373526  1
  Mg  Mg27  1  0.71991463  0.49196361  -0.01760844  1
  Mg  Mg28  1  0.72442977  0.71786720  -0.01574679  1
  Mg  Mg29  1  0.25380439  0.26449146  0.31147300  1
  Mg  Mg30  1  0.24101143  0.49737671  -0.08017672  1
  Mg  Mg31  1  0.23320678  0.45886687  0.68225862  1
  Ti  Ti32  1  0.63726380  0.36665533  0.36913785  1
  Ti  Ti33  1  0.37030135  0.61497905  0.11775907  1
  Ti  Ti34  1  0.86827752  0.36838191  0.63185254  1
  Ti  Ti35  1  0.63754811  0.13244987  0.37563298  1
  Ti  Ti36  1  0.13616910  0.13215909  0.37981578  1
  Ti  Ti37  1  0.86069939  0.63198031  0.12132038  1
  Ti  Ti38  1  0.86478045  0.86842624  0.89376682  1
  Ti  Ti39  1  0.63158007  0.86940190  0.62296327  1
  Ti  Ti40  1  0.36761846  0.38469773  0.11940515  1
  Ti  Ti41  1  0.13125176  0.12199589  0.87579122  1
  Ti  Ti42  1  0.88145125  0.11340459  0.62775815  1
  Ti  Ti43  1  0.37972389  0.87226833  0.37086676  1
  Ti  Ti44  1  0.63418696  0.62387445  0.37349713  1
  Ti  Ti45  1  0.38834383  0.11741216  0.12448522  1
  Ti  Ti46  1  0.37058401  0.61499826  0.62186348  1
  Ti  Ti47  1  0.38268155  0.13076676  0.87324243  1
  Ti  Ti48  1  0.12132315  0.87919957  0.64334949  1
  Ti  Ti49  1  0.86852541  0.37536390  0.12132191  1
  Ti  Ti50  1  0.12830039  0.86952816  0.37305495  1
  Ti  Ti51  1  0.13239170  0.61713985  0.12148395  1
  Ti  Ti52  1  0.87499006  0.87190885  0.13057903  1
  Ti  Ti53  1  0.63787221  0.62230645  0.62537890  1
  Ti  Ti54  1  0.88125512  0.11850346  0.37637494  1
  Ti  Ti55  1  0.37891279  0.87359763  0.61669253  1
  Ti  Ti56  1  0.87070240  0.61754248  0.88870223  1
  Ti  Ti57  1  0.86948406  0.11909933  0.13365182  1
  Ti  Ti58  1  0.37842147  0.86070286  0.88542800  1
  Ti  Ti59  1  0.38769482  0.87340636  0.12807588  1
  Ti  Ti60  1  0.61674064  0.11853513  0.87723432  1
  Ti  Ti61  1  0.37853941  0.62228504  0.86749537  1
  Ti  Ti62  1  0.14067556  0.87574595  0.12526605  1
  Ti  Ti63  1  0.36642795  0.62509696  0.37697735  1
  Ti  Ti64  1  0.12362428  0.87148734  0.87747029  1
  Ti  Ti65  1  0.63781259  0.86820661  0.13629461  1
  Ti  Ti66  1  0.87518237  0.37118638  0.88448415  1
  Ti  Ti67  1  0.87478632  0.36975140  0.37795161  1
  Ti  Ti68  1  0.13322478  0.37087223  0.11768313  1
  Ti  Ti69  1  0.36855937  0.37951828  0.85468736  1
  Ti  Ti70  1  0.14129558  0.12436493  0.12200775  1
  Ti  Ti71  1  0.37884337  0.13474889  0.63186468  1
  Ti  Ti72  1  0.12291381  0.63041753  0.86817268  1
  Ti  Ti73  1  0.88085113  0.62593689  0.37744437  1
  Bi  Bi74  1  0.52052423  0.49114333  0.25915733  1
  Bi  Bi75  1  0.72868090  0.23961861  0.75560380  1
  Bi  Bi76  1  0.24300903  0.73298314  0.50350722  1
  Bi  Bi77  1  0.24960362  0.00102355  0.27598884  1
  Bi  Bi78  1  0.27667493  0.00799625  0.50641421  1
  Bi  Bi79  1  0.00987920  0.22949560  0.76721657  1
  Bi  Bi80  1  0.45211367  0.26885574  0.25518584  1
  Bi  Bi81  1  0.22694642  0.26913809  0.70398226  1
  Bi  Bi82  1  -0.00482142  0.73138931  0.24080312  1
  Bi  Bi83  1  0.50369301  -0.00298188  0.73860857  1
  Bi  Bi84  1  0.00313468  -0.01274109  0.25305505  1
  Bi  Bi85  1  0.28235979  -0.00527619  -0.00447157  1
  Bi  Bi86  1  0.50281940  0.00340188  0.27237855  1
  Bi  Bi87  1  0.74582933  0.23766090  0.03007441  1
  Bi  Bi88  1  0.01393303  0.48564904  0.01488635  1
  Bi  Bi89  1  0.02533003  0.47696289  0.27023139  1
  Bi  Bi90  1  0.00774342  0.73792181  0.53003811  1
  Bi  Bi91  1  0.52165474  0.73351443  0.49583563  1
  Bi  Bi92  1  0.03443582  0.47684567  0.75655666  1
  Bi  Bi93  1  0.20948904  0.45967583  0.49038991  1
  Bi  Bi94  1  0.49160950  0.50236497  0.48643177  1
  Bi  Bi95  1  0.27705853  -0.00646481  0.76477458  1
  Bi  Bi96  1  0.52305030  0.75758626  0.01587743  1
  Bi  Bi97  1  0.76269125  0.23096365  0.51647037  1
  Bi  Bi98  1  0.52520306  0.50522274  0.00521087  1
  Bi  Bi99  1  0.73607732  0.00508867  -0.00321321  1
  Bi  Bi100  1  0.02154844  0.23733002  0.25545255  1
  Bi  Bi101  1  0.01307364  0.49046782  0.53366689  1
  Bi  Bi102  1  0.73671108  -0.00573350  0.28359032  1
  Bi  Bi103  1  0.76132320  0.48734407  0.76830393  1
  Bi  Bi104  1  0.25232899  0.46301532  0.28889035  1
  Bi  Bi105  1  0.00665990  0.73914362  -0.00261853  1
  Bi  Bi106  1  0.01249823  -0.01031143  0.01368125  1
  Bi  Bi107  1  0.52397224  0.75250446  0.76325887  1
  Bi  Bi108  1  0.76381390  0.49037852  0.51483732  1
  Bi  Bi109  1  0.76328949  0.77573978  0.47883482  1
  Bi  Bi110  1  0.23927959  0.72961451  0.24512669  1
  Bi  Bi111  1  0.04067543  0.25576412  0.52142242  1
  Bi  Bi112  1  -0.02225925  0.75483186  0.75397069  1
  Bi  Bi113  1  0.49890008  0.27004618  0.47048469  1
  Bi  Bi114  1  0.77199919  -0.00093067  0.76764511  1
  Bi  Bi115  1  0.76007888  0.75090636  0.75324914  1
  Bi  Bi116  1  0.02860413  -0.00769515  0.51030841  1
  Bi  Bi117  1  0.00647240  0.23210742  0.00993595  1
  Bi  Bi118  1  0.52625059  0.48589484  0.75647286  1
  Bi  Bi119  1  0.27363565  0.75037559  0.73552777  1
  Bi  Bi120  1  0.49517739  0.71663526  0.24171516  1
  Bi  Bi121  1  0.53677604  0.00591061  0.50454388  1
  Bi  Bi122  1  0.76965322  0.49031145  0.25539207  1
  Bi  Bi123  1  0.50896400  0.25244323  0.01881958  1
  Bi  Bi124  1  0.27891187  0.26313074  -0.00889914  1
  O  O125  1  0.13022145  0.15330213  -0.00336322  1
  O  O126  1  0.09847460  0.11074912  0.23596910  1
  O  O127  1  0.13823844  0.15532065  0.49365545  1
  O  O128  1  0.08875574  0.10644546  0.75701330  1
  O  O129  1  0.08885578  0.36672215  0.00240596  1
  O  O130  1  0.13905623  0.39381736  0.23427441  1
  O  O131  1  0.10010341  0.37688841  0.49986538  1
  O  O132  1  0.14826517  0.40263112  0.75581235  1
  O  O133  1  0.12798082  0.65963385  0.00431718  1
  O  O134  1  0.15797259  0.61612872  0.23966289  1
  O  O135  1  0.12777847  0.65762326  0.49882157  1
  O  O136  1  0.11890429  0.61156781  0.75740534  1
  O  O137  1  0.10722932  0.86996030  0.00210281  1
  O  O138  1  0.12454010  0.91722424  0.24021783  1
  O  O139  1  0.12685084  0.85703049  0.48670236  1
  O  O140  1  0.10391373  0.89652661  0.75462881  1
  O  O141  1  0.35592535  0.12199271  -0.00750043  1
  O  O142  1  0.40087039  0.12262280  0.24074614  1
  O  O143  1  0.36745531  0.11894753  0.51223730  1
  O  O144  1  0.38166704  0.09714565  0.75516226  1
  O  O145  1  0.38878248  0.35811539  0.00217238  1
  O  O146  1  0.33361105  0.34134587  0.23493486  1
  O  O147  1  0.41403770  0.36490115  0.50825147  1
  O  O148  1  0.33027715  0.38764365  0.74835603  1
  O  O149  1  0.37579585  0.62692058  0.00225465  1
  O  O150  1  0.36513653  0.63446878  0.25425579  1
  O  O151  1  0.35350010  0.64111755  0.50374620  1
  O  O152  1  0.36712133  0.63324557  0.74938448  1
  O  O153  1  0.35900053  0.87263426  0.00138393  1
  O  O154  1  0.39569100  0.88702049  0.24747075  1
  O  O155  1  0.35377440  0.88156845  0.49976744  1
  O  O156  1  0.36622829  0.87669416  0.75594362  1
  O  O157  1  0.65724376  0.12983751  -0.00340907  1
  O  O158  1  0.62078260  0.08486140  0.25727999  1
  O  O159  1  0.63677814  0.14782141  0.49477421  1
  O  O160  1  0.61347600  0.07590306  0.76064047  1
  O  O161  1  0.57745321  0.37227015  -0.00159558  1
  O  O162  1  0.63295655  0.40929562  0.24791934  1
  O  O163  1  0.61114850  0.35229153  0.48828245  1
  O  O164  1  0.64436371  0.40787523  0.75215895  1
  O  O165  1  0.60861276  0.65099272  -0.00083038  1
  O  O166  1  0.61086150  0.60434592  0.25441390  1
  O  O167  1  0.63054849  0.64715740  0.49851273  1
  O  O168  1  0.62005792  0.60567013  0.74203233  1
  O  O169  1  0.64397712  0.82851948  0.00786973  1
  O  O170  1  0.60949888  0.90034990  0.24783338  1
  O  O171  1  0.62347905  0.84308677  0.50281868  1
  O  O172  1  0.59670453  0.88289658  0.74231049  1
  O  O173  1  0.83495762  0.12098549  0.01158795  1
  O  O174  1  0.89133558  0.15310891  0.24922511  1
  O  O175  1  0.83954219  0.10970453  0.49108725  1
  O  O176  1  0.90208154  0.11939396  0.74136426  1
  O  O177  1  0.90440090  0.39341253  -0.00430124  1
  O  O178  1  0.83244716  0.36065450  0.23829127  1
  O  O179  1  0.88695839  0.39586093  0.49117504  1
  O  O180  1  0.84285603  0.37138073  0.74688389  1
  O  O181  1  0.90356882  0.62540155  0.00585009  1
  O  O182  1  0.86042081  0.66690250  0.24268976  1
  O  O183  1  0.86993706  0.59765723  0.48908577  1
  O  O184  1  0.86983439  0.65713494  0.76783149  1
  O  O185  1  0.86435993  0.90126178  0.00930411  1
  O  O186  1  0.88708912  0.85579067  0.24950823  1
  O  O187  1  0.83234898  0.89204981  0.49654891  1
  O  O188  1  0.86884251  0.84978501  0.76037880  1
  O  O189  1  -0.01287773  0.11744146  0.09499991  1
  O  O190  1  -0.00114189  0.13069262  0.38456109  1
  O  O191  1  -0.00578970  0.10331399  0.59148883  1
  O  O192  1  -0.00802491  0.14308187  0.88935769  1
  O  O193  1  -0.00601232  0.40892704  0.14173790  1
  O  O194  1  -0.01477160  0.36360070  0.33731213  1
  O  O195  1  -0.01635474  0.40446248  0.63919732  1
  O  O196  1  -0.00601790  0.36787158  0.84235753  1
  O  O197  1  0.01426090  0.62657642  0.14311146  1
  O  O198  1  -0.00352192  0.62924861  0.34957840  1
  O  O199  1  -0.00187940  0.61462821  0.61008476  1
  O  O200  1  -0.00076647  0.65698205  0.87915649  1
  O  O201  1  -0.00528854  0.90698245  0.13076123  1
  O  O202  1  0.01062630  0.89916199  0.36682569  1
  O  O203  1  -0.00038784  0.89855847  0.60306373  1
  O  O204  1  -0.01646967  0.84394755  0.88803488  1
  O  O205  1  0.25100850  0.13064000  0.13599981  1
  O  O206  1  0.24931844  0.13655174  0.34558151  1
  O  O207  1  0.25626897  0.14413088  0.64541516  1
  O  O208  1  0.24327486  0.10241841  0.86425401  1
  O  O209  1  0.24432986  0.35824335  0.09491311  1
  O  O210  1  0.24936716  0.36549543  0.38819748  1
  O  O211  1  0.26201324  0.34464273  0.59214881  1
  O  O212  1  0.25119588  0.37489150  0.90713037  1
  O  O213  1  0.25535424  0.65869502  0.11137653  1
  O  O214  1  0.25198059  0.66090417  0.37683106  1
  O  O215  1  0.24857133  0.66190435  0.62990091  1
  O  O216  1  0.24348771  0.61576369  0.88921048  1
  O  O217  1  0.25325079  0.87333173  0.13239361  1
  O  O218  1  0.25385139  0.87172107  0.34800388  1
  O  O219  1  0.23871524  0.85336378  0.63873531  1
  O  O220  1  0.23610738  0.89704542  0.87569958  1
  O  O221  1  0.50335619  0.10308938  0.09568467  1
  O  O222  1  0.51450448  0.10590651  0.38252114  1
  O  O223  1  0.50041831  0.08611917  0.62583866  1
  O  O224  1  0.49731032  0.13091969  0.88418086  1
  O  O225  1  0.48137438  0.38977549  0.15753836  1
  O  O226  1  0.51166911  0.35583424  0.35577266  1
  O  O227  1  0.50665029  0.39446572  0.65517123  1
  O  O228  1  0.48652264  0.36319749  0.82922421  1
  O  O229  1  0.48940594  0.60428741  0.14169983  1
  O  O230  1  0.48938223  0.61754583  0.40181648  1
  O  O231  1  0.48846443  0.60338411  0.59852824  1
  O  O232  1  0.49108823  0.63601547  0.86416107  1
  O  O233  1  0.50196324  0.89455422  0.09652920  1
  O  O234  1  0.49707915  0.91042244  0.38603576  1
  O  O235  1  0.49260630  0.90273047  0.61060646  1
  O  O236  1  0.49239499  0.84676800  0.88364020  1
  O  O237  1  0.75351369  0.16996840  0.15347542  1
  O  O238  1  0.75547451  0.12480745  0.34077343  1
  O  O239  1  0.75438763  0.15269312  0.63759525  1
  O  O240  1  0.74488812  0.11570902  0.84290794  1
  O  O241  1  0.75648346  0.38113250  0.08419219  1
  O  O242  1  0.74984411  0.40186126  0.38025585  1
  O  O243  1  0.75289306  0.36112694  0.59246152  1
  O  O244  1  0.75533519  0.40710565  0.89145857  1
  O  O245  1  0.75434481  0.65967271  0.09764819  1
  O  O246  1  0.74762280  0.62061005  0.36534117  1
  O  O247  1  0.74710089  0.65525486  0.63385785  1
  O  O248  1  0.75358492  0.60206641  0.91204650  1
  O  O249  1  0.75103203  0.84874950  0.15555920  1
  O  O250  1  0.74447134  0.83823587  0.35543220  1
  O  O251  1  0.74104217  0.84722008  0.64143980  1
  O  O252  1  0.74585421  0.90754934  0.86971389  1
  O  O253  1  0.12926814  0.00904348  0.09105203  1
  O  O254  1  0.15078132  0.00697378  0.38097678  1
  O  O255  1  0.13932384  -0.00593193  0.59717751  1
  O  O256  1  0.08982967  0.00218680  0.88859954  1
  O  O257  1  0.10149139  0.25230125  0.13081566  1
  O  O258  1  0.12812316  0.24278392  0.34042314  1
  O  O259  1  0.10054443  0.24187230  0.64521791  1
  O  O260  1  0.12725122  0.24128850  0.84619602  1
  O  O261  1  0.13615981  0.50386908  0.09621144  1
  O  O262  1  0.14063000  0.50584559  0.37519655  1
  O  O263  1  0.13566142  0.50543391  0.60998634  1
  O  O264  1  0.11252979  0.50830263  0.89765380  1
  O  O265  1  0.11818675  0.76456850  0.14988460  1
  O  O266  1  0.11893496  0.76017899  0.33485622  1
  O  O267  1  0.09035573  0.76067963  0.63938734  1
  O  O268  1  0.13685935  0.75710303  0.86053400  1
  O  O269  1  0.36542989  -0.00015222  0.11291627  1
  O  O270  1  0.35244365  0.00091821  0.37607814  1
  O  O271  1  0.34448286  -0.00738981  0.62928321  1
  O  O272  1  0.37065238  -0.00827232  0.88079252  1
  O  O273  1  0.39577085  0.24152313  0.11128910  1
  O  O274  1  0.37613139  0.24675114  0.37896528  1
  O  O275  1  0.41101220  0.24219135  0.65353276  1
  O  O276  1  0.35920397  0.24615426  0.86859456  1
  O  O277  1  0.34708427  0.49873938  0.12742903  1
  O  O278  1  0.36615729  0.50977175  0.38385968  1
  O  O279  1  0.33846322  0.50580509  0.62325890  1
  O  O280  1  0.36781970  0.49825136  0.87938472  1
  O  O281  1  0.40237643  0.75518025  0.13236141  1
  O  O282  1  0.39758155  0.75999299  0.37564763  1
  O  O283  1  0.38587375  0.75825228  0.63887076  1
  O  O284  1  0.34448942  0.74612978  0.88466904  1
  O  O285  1  0.64553348  -0.01272229  0.10230171  1
  O  O286  1  0.66707763  0.00060152  0.40691485  1
  O  O287  1  0.65043941  -0.01097807  0.59269168  1
  O  O288  1  0.60515197  -0.00167463  0.92304534  1
  O  O289  1  0.60961719  0.25304445  0.11320216  1
  O  O290  1  0.65480946  0.25096295  0.34410175  1
  O  O291  1  0.61571992  0.24728624  0.67277673  1
  O  O292  1  0.62869456  0.23961669  0.85857895  1
  O  O293  1  0.63745856  0.50504757  0.08274585  1
  O  O294  1  0.60345209  0.49997791  0.39181392  1
  O  O295  1  0.64619243  0.50744421  0.59732688  1
  O  O296  1  0.60817259  0.49930969  0.89664337  1
  O  O297  1  0.59222070  0.75238532  0.14537703  1
  O  O298  1  0.59452568  0.73822585  0.36454488  1
  O  O299  1  0.59204701  0.74568400  0.63650507  1
  O  O300  1  0.63496470  0.74834712  0.84493895  1
  O  O301  1  0.85248902  0.00780988  0.15014348  1
  O  O302  1  0.87165595  0.00545311  0.35170839  1
  O  O303  1  0.84371363  0.00415396  0.62505682  1
  O  O304  1  0.88423378  -0.00298934  0.85579055  1
  O  O305  1  0.88946576  0.26210591  0.10472422  1
  O  O306  1  0.85277135  0.25480204  0.38180891  1
  O  O307  1  0.88816232  0.25240580  0.60287533  1
  O  O308  1  0.85625620  0.25977895  0.88779266  1
  O  O309  1  0.85591841  0.51623507  0.14221333  1
  O  O310  1  0.88181157  0.50043357  0.33715520  1
  O  O311  1  0.83821262  0.49761316  0.63296035  1
  O  O312  1  0.89021650  0.50919425  0.85684592  1
  O  O313  1  0.90304578  0.76097515  0.11077655  1
  O  O314  1  0.87980860  0.74533933  0.39984642  1
  O  O315  1  0.90297236  0.75242720  0.62458035  1
  O  O316  1  0.82412446  0.75753982  0.90628737  1
