# generated using pymatgen
data_Mg32Ti42(Bi17O64)3
_symmetry_space_group_name_H-M   'P 1'
_cell_length_a   16.00579804
_cell_length_b   15.95883700
_cell_length_c   15.95177004
_cell_angle_alpha   90.02263962
_cell_angle_beta   89.87492239
_cell_angle_gamma   90.12435334
_symmetry_Int_Tables_number   1
_chemical_formula_structural   Mg32Ti42(Bi17O64)3
_chemical_formula_sum   'Mg32 Ti42 Bi51 O192'
_cell_volume   4074.60356770
_cell_formula_units_Z   1
loop_
 _symmetry_equiv_pos_site_id
 _symmetry_equiv_pos_as_xyz
  1  'x, y, z'
loop_
 _atom_site_type_symbol
 _atom_site_label
 _atom_site_symmetry_multiplicity
 _atom_site_fract_x
 _atom_site_fract_y
 _atom_site_fract_z
 _atom_site_occupancy
  Mg  Mg0  1  0.62744787  0.38056254  0.37791877  1
  Mg  Mg1  1  0.62667966  0.62885534  0.37657458  1
  Mg  Mg2  1  0.89232395  0.63329005  0.88119974  1
  Mg  Mg3  1  0.62649741  0.37239797  0.87778721  1
  Mg  Mg4  1  0.38171513  0.87720677  0.61879370  1
  Mg  Mg5  1  0.62578019  0.87739459  0.12565093  1
  Mg  Mg6  1  0.13531998  0.61110949  0.60884302  1
  Mg  Mg7  1  0.13533068  0.38020490  0.86857764  1
  Mg  Mg8  1  0.86931770  0.86788311  0.38726170  1
  Mg  Mg9  1  0.87230136  0.36322878  0.63155874  1
  Mg  Mg10  1  0.63178482  0.12341185  0.37615806  1
  Mg  Mg11  1  0.88886445  0.87438869  0.88087071  1
  Mg  Mg12  1  0.63820609  0.61839025  0.11649718  1
  Mg  Mg13  1  0.13646452  0.13366557  0.63499921  1
  Mg  Mg14  1  0.63871269  0.12361956  0.12550412  1
  Mg  Mg15  1  0.63780702  0.11470580  0.87182269  1
  Mg  Mg16  1  0.88677736  0.36941070  0.86461744  1
  Mg  Mg17  1  0.12099858  0.37448095  0.13332534  1
  Mg  Mg18  1  0.63287662  0.12481980  0.62422563  1
  Mg  Mg19  1  -0.02224664  0.26196822  0.31524684  1
  Mg  Mg20  1  0.02283271  -0.01927326  0.17532185  1
  Mg  Mg21  1  0.27085363  0.46383961  0.50609255  1
  Mg  Mg22  1  0.49495485  0.52471473  0.45372973  1
  Mg  Mg23  1  0.01134926  0.50589565  0.32249067  1
  Mg  Mg24  1  -0.02732106  0.69284021  0.70827986  1
  Mg  Mg25  1  0.80780098  0.20375270  0.49581952  1
  Mg  Mg26  1  0.18316081  0.81646016  0.21931466  1
  Mg  Mg27  1  0.02850456  0.26400454  -0.05363912  1
  Mg  Mg28  1  0.77288725  -0.02508084  0.77108105  1
  Mg  Mg29  1  0.81357359  0.71663146  0.54524320  1
  Mg  Mg30  1  0.02182688  0.00584520  -0.02389488  1
  Mg  Mg31  1  0.02639924  0.30135063  0.75108322  1
  Ti  Ti32  1  0.88994839  0.11680862  0.87635526  1
  Ti  Ti33  1  0.12478991  0.63427194  0.88328634  1
  Ti  Ti34  1  0.11385367  0.12916832  0.37414906  1
  Ti  Ti35  1  0.87296920  0.38487046  0.39465166  1
  Ti  Ti36  1  0.64501368  0.37463227  0.12596194  1
  Ti  Ti37  1  0.37397245  0.13013124  0.12140288  1
  Ti  Ti38  1  0.87222741  0.87452912  0.62989958  1
  Ti  Ti39  1  0.62202128  0.88250403  0.88510884  1
  Ti  Ti40  1  0.88446601  0.12623820  0.12479124  1
  Ti  Ti41  1  0.60822199  0.61857403  0.62497349  1
  Ti  Ti42  1  0.88695577  0.36582032  0.13818103  1
  Ti  Ti43  1  0.88136301  0.10171272  0.36979780  1
  Ti  Ti44  1  0.63212608  0.37357687  0.62183638  1
  Ti  Ti45  1  0.37248069  0.62238521  0.61867803  1
  Ti  Ti46  1  0.11637168  0.89123864  0.36958188  1
  Ti  Ti47  1  0.63700291  0.86691067  0.37293773  1
  Ti  Ti48  1  0.36603778  0.62292890  0.14179953  1
  Ti  Ti49  1  0.10994391  0.61927087  0.13827912  1
  Ti  Ti50  1  0.87404406  0.88167896  0.12033635  1
  Ti  Ti51  1  0.38083483  0.37898430  0.37726902  1
  Ti  Ti52  1  0.37289599  0.86565772  0.12458340  1
  Ti  Ti53  1  0.38751656  0.37122599  0.62452410  1
  Ti  Ti54  1  0.36520558  0.37164559  0.13944132  1
  Ti  Ti55  1  0.12825428  0.12490058  0.87030819  1
  Ti  Ti56  1  0.38203654  0.11367902  0.88064639  1
  Ti  Ti57  1  0.36052763  0.62146446  0.37414566  1
  Ti  Ti58  1  0.37067324  0.86861329  0.36941805  1
  Ti  Ti59  1  0.37557229  0.87502792  0.87692351  1
  Ti  Ti60  1  0.11152219  0.13321436  0.12031161  1
  Ti  Ti61  1  0.12314171  0.87130123  0.87661206  1
  Ti  Ti62  1  0.87767052  0.59913585  0.12491952  1
  Ti  Ti63  1  0.37401667  0.62522129  0.87182042  1
  Ti  Ti64  1  0.37841967  0.37255190  0.87946756  1
  Ti  Ti65  1  0.12052834  0.37109004  0.38521755  1
  Ti  Ti66  1  0.86504188  0.12315680  0.64475367  1
  Ti  Ti67  1  0.12662856  0.64563404  0.37931816  1
  Ti  Ti68  1  0.13789505  0.38164933  0.61775792  1
  Ti  Ti69  1  0.38284899  0.13481586  0.36234181  1
  Ti  Ti70  1  0.62642143  0.61813123  0.87565510  1
  Ti  Ti71  1  0.63052505  0.85360882  0.61454533  1
  Ti  Ti72  1  0.88069549  0.63718829  0.38460987  1
  Ti  Ti73  1  0.37780568  0.12292386  0.63784828  1
  Bi  Bi74  1  0.27993083  0.24733304  0.50872320  1
  Bi  Bi75  1  0.03231127  0.78012098  0.53412973  1
  Bi  Bi76  1  0.76135097  0.00509614  0.52217110  1
  Bi  Bi77  1  0.23114959  0.24694942  0.02083753  1
  Bi  Bi78  1  0.51900667  0.47332346  0.75200300  1
  Bi  Bi79  1  0.01964313  0.46109776  -0.00418362  1
  Bi  Bi80  1  0.78414193  0.25732497  -0.01216001  1
  Bi  Bi81  1  0.03539175  0.51380751  0.76154553  1
  Bi  Bi82  1  0.49916425  0.46536198  0.01733836  1
  Bi  Bi83  1  0.01005544  0.25471716  0.53729156  1
  Bi  Bi84  1  0.22692954  0.23531626  0.25899263  1
  Bi  Bi85  1  0.76468502  0.26639581  0.75597457  1
  Bi  Bi86  1  -0.03503994  0.50840521  0.54747153  1
  Bi  Bi87  1  0.01868280  0.01381581  0.52074331  1
  Bi  Bi88  1  0.27347301  0.02174837  0.49456199  1
  Bi  Bi89  1  0.22782476  0.48783939  0.28733641  1
  Bi  Bi90  1  0.03467766  0.77956964  0.02666618  1
  Bi  Bi91  1  0.53202577  0.73842725  0.24226898  1
  Bi  Bi92  1  0.25819482  -0.03773149  0.73644159  1
  Bi  Bi93  1  0.53222518  0.22600857  0.76034472  1
  Bi  Bi94  1  0.76905831  0.01465642  -0.01105278  1
  Bi  Bi95  1  0.49001781  0.73716985  0.49152049  1
  Bi  Bi96  1  0.03674805  -0.00616895  0.72658449  1
  Bi  Bi97  1  0.26323947  0.73475093  0.00676143  1
  Bi  Bi98  1  0.27195062  0.50308815  0.74835599  1
  Bi  Bi99  1  0.75367395  0.75826928  0.75997409  1
  Bi  Bi100  1  0.51747777  -0.02518895  0.74199380  1
  Bi  Bi101  1  0.51098664  -0.00090620  0.03043662  1
  Bi  Bi102  1  0.20750503  0.74420055  0.72928012  1
  Bi  Bi103  1  0.27171525  -0.00674448  0.24540678  1
  Bi  Bi104  1  0.78501899  0.53910690  0.73627327  1
  Bi  Bi105  1  0.51638327  -0.01616705  0.26482946  1
  Bi  Bi106  1  0.52763363  0.23070673  0.00408436  1
  Bi  Bi107  1  0.25628409  0.77312674  0.51782264  1
  Bi  Bi108  1  0.22923193  -0.01680115  0.02065637  1
  Bi  Bi109  1  0.75965993  0.50869614  0.27901591  1
  Bi  Bi110  1  0.78168571  0.48880723  -0.02736653  1
  Bi  Bi111  1  0.51100684  0.72807579  0.01600761  1
  Bi  Bi112  1  0.77555617  0.74862452  0.22100929  1
  Bi  Bi113  1  0.77545755  0.75646705  -0.01064137  1
  Bi  Bi114  1  0.54186906  0.24214139  0.24591875  1
  Bi  Bi115  1  0.52991309  0.51360123  0.25105678  1
  Bi  Bi116  1  0.53268532  -0.00611655  0.51082545  1
  Bi  Bi117  1  -0.00013018  0.77353693  0.26411808  1
  Bi  Bi118  1  0.76659714  0.00174125  0.23800446  1
  Bi  Bi119  1  0.26300136  0.24535949  0.78043628  1
  Bi  Bi120  1  0.50926918  0.73813795  0.76762726  1
  Bi  Bi121  1  0.76525324  0.24379972  0.28687006  1
  Bi  Bi122  1  0.24785503  0.50065283  0.02444487  1
  Bi  Bi123  1  0.53282835  0.24927860  0.49844223  1
  Bi  Bi124  1  0.73705352  0.52938631  0.50854835  1
  O  O125  1  0.10352653  0.17129172  -0.00080410  1
  O  O126  1  0.14834582  0.11935314  0.24054360  1
  O  O127  1  0.09503476  0.13454961  0.49319685  1
  O  O128  1  0.14062632  0.09430978  0.75848972  1
  O  O129  1  0.10953663  0.35682275  -0.00504150  1
  O  O130  1  0.13799153  0.38920062  0.25857286  1
  O  O131  1  0.12358575  0.33254333  0.49937779  1
  O  O132  1  0.12657382  0.39201192  0.73699445  1
  O  O133  1  0.10944894  0.65185084  -0.00572517  1
  O  O134  1  0.12126672  0.59229236  0.24929980  1
  O  O135  1  0.11090234  0.66771161  0.49327117  1
  O  O136  1  0.15274664  0.59218813  0.74368285  1
  O  O137  1  0.15222014  0.85096889  -0.00708890  1
  O  O138  1  0.08077616  0.89033063  0.24489571  1
  O  O139  1  0.13830423  0.86058146  0.48398986  1
  O  O140  1  0.13034443  0.90037093  0.75893726  1
  O  O141  1  0.39607230  0.14069534  -0.00448877  1
  O  O142  1  0.34224589  0.13479269  0.24458265  1
  O  O143  1  0.37394929  0.12745569  0.48584596  1
  O  O144  1  0.34796472  0.12425703  0.74965849  1
  O  O145  1  0.38467403  0.37677708  -0.00464829  1
  O  O146  1  0.35256359  0.38776291  0.25502839  1
  O  O147  1  0.36873283  0.37687710  0.50176763  1
  O  O148  1  0.38162442  0.39626099  0.74424963  1
  O  O149  1  0.37895842  0.64762254  -0.00978472  1
  O  O150  1  0.35049142  0.61691446  0.25398396  1
  O  O151  1  0.40848573  0.61706343  0.49657649  1
  O  O152  1  0.34884897  0.61986922  0.74381083  1
  O  O153  1  0.35663329  0.86243011  -0.00264146  1
  O  O154  1  0.38095561  0.89264675  0.24719593  1
  O  O155  1  0.33479827  0.89007213  0.48536889  1
  O  O156  1  0.39089900  0.90491441  0.74894947  1
  O  O157  1  0.60055622  0.11067641  -0.00066978  1
  O  O158  1  0.64586871  0.15255088  0.25034842  1
  O  O159  1  0.59575720  0.12641628  0.49841802  1
  O  O160  1  0.63889716  0.14423937  0.74814828  1
  O  O161  1  0.61067783  0.38243257  0.00486262  1
  O  O162  1  0.62551984  0.35591211  0.24381670  1
  O  O163  1  0.62682382  0.37976401  0.50648656  1
  O  O164  1  0.60153796  0.36158839  0.75057668  1
  O  O165  1  0.59552561  0.61916259  -0.00740593  1
  O  O166  1  0.61823116  0.63207076  0.24436929  1
  O  O167  1  0.59719665  0.59239669  0.50105936  1
  O  O168  1  0.62679879  0.65015976  0.74739525  1
  O  O169  1  0.62189336  0.90673054  -0.00226493  1
  O  O170  1  0.59626476  0.86727231  0.25256480  1
  O  O171  1  0.62376413  0.88066072  0.49226233  1
  O  O172  1  0.61264756  0.85650456  0.73611787  1
  O  O173  1  0.89675491  0.07599864  0.01115859  1
  O  O174  1  0.85132675  0.14125684  0.25038835  1
  O  O175  1  0.88474415  0.09473557  0.48927811  1
  O  O176  1  0.86040531  0.13785320  0.75952533  1
  O  O177  1  0.87112060  0.38977718  -0.00288671  1
  O  O178  1  0.88979497  0.32822631  0.24690063  1
  O  O179  1  0.86427932  0.40308587  0.50493940  1
  O  O180  1  0.89208260  0.32147429  0.74972800  1
  O  O181  1  0.87915529  0.58228066  0.00569519  1
  O  O182  1  0.86220224  0.64804037  0.26131670  1
  O  O183  1  0.86486916  0.59792753  0.50340931  1
  O  O184  1  0.85720959  0.65481879  0.75689351  1
  O  O185  1  0.84040022  0.89016201  0.00695303  1
  O  O186  1  0.88079516  0.84194178  0.25018425  1
  O  O187  1  0.86094799  0.90133883  0.51463721  1
  O  O188  1  0.84566605  0.86669264  0.75344324  1
  O  O189  1  0.00105106  0.11749352  0.15043487  1
  O  O190  1  -0.00771933  0.13613247  0.35035120  1
  O  O191  1  -0.02163842  0.09445282  0.62993842  1
  O  O192  1  0.00350035  0.09406803  0.87673746  1
  O  O193  1  -0.00362798  0.38027913  0.11770399  1
  O  O194  1  -0.00163916  0.38129965  0.37327736  1
  O  O195  1  0.00517374  0.38030496  0.61299167  1
  O  O196  1  0.00768185  0.37647798  0.87002672  1
  O  O197  1  -0.00637357  0.62348845  0.13357913  1
  O  O198  1  -0.00148748  0.62506074  0.36956772  1
  O  O199  1  0.01373655  0.59207770  0.64389124  1
  O  O200  1  0.00998257  0.63175842  0.83167753  1
  O  O201  1  -0.01207143  0.89438209  0.09054508  1
  O  O202  1  0.00070760  0.85210949  0.38293176  1
  O  O203  1  -0.01508524  0.90579922  0.62656755  1
  O  O204  1  0.01141555  0.89773417  0.90338061  1
  O  O205  1  0.24458076  0.11963456  0.08660385  1
  O  O206  1  0.23165611  0.15127564  0.38508868  1
  O  O207  1  0.25460970  0.14648567  0.60094318  1
  O  O208  1  0.24709672  0.15672327  0.88671988  1
  O  O209  1  0.24836474  0.39008018  0.10512459  1
  O  O210  1  0.24213399  0.38292904  0.39372987  1
  O  O211  1  0.25019946  0.34805805  0.61790181  1
  O  O212  1  0.25724633  0.35910579  0.86818519  1
  O  O213  1  0.24308981  0.62344173  0.10167110  1
  O  O214  1  0.24355768  0.63300848  0.39135198  1
  O  O215  1  0.25350995  0.66050274  0.61137264  1
  O  O216  1  0.24676086  0.65154327  0.88584683  1
  O  O217  1  0.25062541  0.89098080  0.14127647  1
  O  O218  1  0.23301310  0.88073119  0.32704332  1
  O  O219  1  0.25633440  0.84848218  0.64120258  1
  O  O220  1  0.25840339  0.87344378  0.84999395  1
  O  O221  1  0.48741308  0.14481400  0.13596618  1
  O  O222  1  0.49210957  0.12075401  0.34235761  1
  O  O223  1  0.49104981  0.10209465  0.64149171  1
  O  O224  1  0.49263913  0.10719235  0.84728225  1
  O  O225  1  0.48348463  0.38067210  0.13037577  1
  O  O226  1  0.49014964  0.41434388  0.38118374  1
  O  O227  1  0.49647381  0.39882600  0.62244676  1
  O  O228  1  0.49493021  0.40724845  0.87821086  1
  O  O229  1  0.48280967  0.63353118  0.13291549  1
  O  O230  1  0.48767061  0.60778966  0.35482229  1
  O  O231  1  0.48906607  0.61349754  0.64715864  1
  O  O232  1  0.49101585  0.61946130  0.84890287  1
  O  O233  1  0.48793324  0.87257240  0.10705058  1
  O  O234  1  0.48008324  0.89109735  0.38761255  1
  O  O235  1  0.50339172  0.89887916  0.61311163  1
  O  O236  1  0.50166967  0.90694074  0.87274465  1
  O  O237  1  0.76278438  0.09407158  0.11505657  1
  O  O238  1  0.75943652  0.14293176  0.39163531  1
  O  O239  1  0.75507256  0.13361663  0.58891439  1
  O  O240  1  0.76413002  0.14000914  0.90918493  1
  O  O241  1  0.75631192  0.36956804  0.11987226  1
  O  O242  1  0.75841793  0.39107605  0.36172767  1
  O  O243  1  0.74433905  0.36030415  0.65128249  1
  O  O244  1  0.75595560  0.34652144  0.87273620  1
  O  O245  1  0.76168792  0.62993523  0.12504793  1
  O  O246  1  0.75169537  0.60379552  0.38715134  1
  O  O247  1  0.73096439  0.63433741  0.60067323  1
  O  O248  1  0.73789675  0.65015090  0.88792984  1
  O  O249  1  0.75004473  0.89132207  0.14955703  1
  O  O250  1  0.74474017  0.86452164  0.35552294  1
  O  O251  1  0.74449544  0.82425681  0.61672139  1
  O  O252  1  0.73585581  0.83729406  0.87890521  1
  O  O253  1  0.10722588  0.01671812  0.08339259  1
  O  O254  1  0.11509267  0.00634227  0.38352590  1
  O  O255  1  0.12018552  0.00949438  0.61508159  1
  O  O256  1  0.14018321  0.00806500  0.91246186  1
  O  O257  1  0.14738348  0.24995401  0.13789017  1
  O  O258  1  0.10462606  0.25301530  0.34563170  1
  O  O259  1  0.08555963  0.24548608  0.64886327  1
  O  O260  1  0.10359781  0.24160006  0.84213137  1
  O  O261  1  0.12247089  0.50535881  0.09204020  1
  O  O262  1  0.12119634  0.49725996  0.38536272  1
  O  O263  1  0.15992190  0.48715135  0.57704449  1
  O  O264  1  0.12190217  0.51069475  0.89075415  1
  O  O265  1  0.11542073  0.74276782  0.14067058  1
  O  O266  1  0.13030065  0.75014163  0.33235067  1
  O  O267  1  0.09011269  0.74053032  0.65518597  1
  O  O268  1  0.11708121  0.75755247  0.85388169  1
  O  O269  1  0.37542466  0.01039596  0.12098777  1
  O  O270  1  0.34858979  0.01262549  0.36719358  1
  O  O271  1  0.34918254  0.00693881  0.61109738  1
  O  O272  1  0.35606723  0.00508702  0.89211835  1
  O  O273  1  0.34529046  0.25653557  0.12614508  1
  O  O274  1  0.38328483  0.25948794  0.37300818  1
  O  O275  1  0.39046369  0.25106812  0.61736468  1
  O  O276  1  0.38559589  0.25707178  0.85257885  1
  O  O277  1  0.36447621  0.50707995  0.11069483  1
  O  O278  1  0.34818354  0.50470500  0.39410129  1
  O  O279  1  0.33907515  0.50547770  0.61281128  1
  O  O280  1  0.35067339  0.50958455  0.87402230  1
  O  O281  1  0.35607604  0.75072801  0.12956484  1
  O  O282  1  0.37494320  0.75197145  0.38391009  1
  O  O283  1  0.39042063  0.75111032  0.58954989  1
  O  O284  1  0.39388227  0.75991315  0.85788305  1
  O  O285  1  0.59421541  0.00387596  0.14228513  1
  O  O286  1  0.61848917  -0.00515200  0.36167640  1
  O  O287  1  0.63924256  -0.00871460  0.60894170  1
  O  O288  1  0.66301534  -0.01318466  0.84154070  1
  O  O289  1  0.61878526  0.25182152  0.11053805  1
  O  O290  1  0.60474911  0.25519471  0.38113039  1
  O  O291  1  0.60312485  0.25505524  0.61771654  1
  O  O292  1  0.60037712  0.24462407  0.88338406  1
  O  O293  1  0.62065374  0.49344825  0.13528678  1
  O  O294  1  0.62830986  0.50209082  0.34513546  1
  O  O295  1  0.63129360  0.50155273  0.64708175  1
  O  O296  1  0.63996964  0.50653025  0.85682136  1
  O  O297  1  0.61209314  0.74901651  0.11679204  1
  O  O298  1  0.60166101  0.75122375  0.37217389  1
  O  O299  1  0.58902132  0.74340883  0.59993894  1
  O  O300  1  0.58554398  0.75738039  0.88377376  1
  O  O301  1  0.88849461  -0.00652926  0.16938790  1
  O  O302  1  0.86543933  -0.00654069  0.34979120  1
  O  O303  1  0.82388678  -0.00141852  0.65095879  1
  O  O304  1  0.85037172  0.00064963  0.86684922  1
  O  O305  1  0.87732044  0.23929144  0.10090149  1
  O  O306  1  0.87427505  0.26149524  0.39913555  1
  O  O307  1  0.87673943  0.23519673  0.59985354  1
  O  O308  1  0.90326282  0.23325466  0.91659566  1
  O  O309  1  0.87040214  0.48996513  0.15558239  1
  O  O310  1  0.88598203  0.49915417  0.34877042  1
  O  O311  1  0.87641757  0.48916814  0.65340456  1
  O  O312  1  0.85428873  0.50165304  0.85423608  1
  O  O313  1  0.86725851  0.75766418  0.11262573  1
  O  O314  1  0.86327562  0.74125279  0.42551969  1
  O  O315  1  0.90291384  0.75874553  0.62115401  1
  O  O316  1  0.88830343  0.75193794  0.91926373  1
