# generated using pymatgen
data_Mg32Ti42(Bi17O64)3
_symmetry_space_group_name_H-M   'P 1'
_cell_length_a   15.93550237
_cell_length_b   15.90859160
_cell_length_c   15.94678942
_cell_angle_alpha   89.97096904
_cell_angle_beta   90.04404648
_cell_angle_gamma   90.13209507
_symmetry_Int_Tables_number   1
_chemical_formula_structural   Mg32Ti42(Bi17O64)3
_chemical_formula_sum   'Mg32 Ti42 Bi51 O192'
_cell_volume   4042.68044552
_cell_formula_units_Z   1
loop_
 _symmetry_equiv_pos_site_id
 _symmetry_equiv_pos_as_xyz
  1  'x, y, z'
loop_
 _atom_site_type_symbol
 _atom_site_label
 _atom_site_symmetry_multiplicity
 _atom_site_fract_x
 _atom_site_fract_y
 _atom_site_fract_z
 _atom_site_occupancy
  Mg  Mg0  1  0.63082381  0.62490860  0.86362103  1
  Mg  Mg1  1  0.87387664  0.12345329  0.12242369  1
  Mg  Mg2  1  0.37493486  0.37453551  0.61651337  1
  Mg  Mg3  1  0.62828835  0.12412958  0.38203265  1
  Mg  Mg4  1  0.37559561  0.62329985  0.86061124  1
  Mg  Mg5  1  0.36681506  0.37187805  0.36881163  1
  Mg  Mg6  1  0.87676904  0.86146326  0.11000621  1
  Mg  Mg7  1  0.37934089  0.88657205  0.62170620  1
  Mg  Mg8  1  0.37653940  0.88840105  0.88594232  1
  Mg  Mg9  1  0.87085469  0.38054771  0.87923249  1
  Mg  Mg10  1  0.38620452  0.62352198  0.12333076  1
  Mg  Mg11  1  0.63360220  0.87949668  0.11953716  1
  Mg  Mg12  1  0.12886571  0.62200120  0.12523054  1
  Mg  Mg13  1  0.62614599  0.86990692  0.63204264  1
  Mg  Mg14  1  0.38829272  0.13086997  0.14117772  1
  Mg  Mg15  1  0.87490106  0.12778655  0.62982505  1
  Mg  Mg16  1  0.11185672  0.12531266  0.88212200  1
  Mg  Mg17  1  0.38679706  0.88230825  0.11946887  1
  Mg  Mg18  1  0.87958722  0.36899222  0.61682110  1
  Mg  Mg19  1  0.46713691  0.48349198  0.48561463  1
  Mg  Mg20  1  -0.03275180  0.25485631  0.44745906  1
  Mg  Mg21  1  0.01554007  0.22920019  0.23768254  1
  Mg  Mg22  1  0.70548381  0.77247565  0.49068026  1
  Mg  Mg23  1  0.68117421  0.74439358  0.00969760  1
  Mg  Mg24  1  0.77353265  -0.01828419  0.20245795  1
  Mg  Mg25  1  -0.05704396  -0.00962921  0.01131703  1
  Mg  Mg26  1  0.45339831  0.26892599  0.49661802  1
  Mg  Mg27  1  0.00897906  0.54574733  -0.02069020  1
  Mg  Mg28  1  0.28483978  0.25662930  0.06737324  1
  Mg  Mg29  1  0.48178571  0.81613037  0.75652650  1
  Mg  Mg30  1  0.42374405  0.27386609  -0.04903360  1
  Mg  Mg31  1  0.48417148  0.08768049  -0.01378313  1
  Ti  Ti32  1  0.11577638  0.37543729  0.89200919  1
  Ti  Ti33  1  0.12140061  0.88011565  0.12037193  1
  Ti  Ti34  1  0.63302185  0.63194490  0.37847804  1
  Ti  Ti35  1  0.61021230  0.37700580  0.61360945  1
  Ti  Ti36  1  0.62774056  0.36933074  0.13480519  1
  Ti  Ti37  1  0.13061500  0.62768109  0.36882439  1
  Ti  Ti38  1  0.11212303  0.37476990  0.62295851  1
  Ti  Ti39  1  0.87880705  0.62341364  0.61205768  1
  Ti  Ti40  1  0.38440023  0.61748481  0.62653558  1
  Ti  Ti41  1  0.38666086  0.62429030  0.37266827  1
  Ti  Ti42  1  0.87400353  0.63372351  0.12144279  1
  Ti  Ti43  1  0.62097238  0.86473132  0.86795726  1
  Ti  Ti44  1  0.38789226  0.12421783  0.37384377  1
  Ti  Ti45  1  0.64111817  0.12959490  0.88327826  1
  Ti  Ti46  1  0.87153762  0.38113286  0.36539820  1
  Ti  Ti47  1  0.86791024  0.87572773  0.61963953  1
  Ti  Ti48  1  0.10859336  0.37099240  0.36428468  1
  Ti  Ti49  1  0.87496941  0.62862710  0.86380743  1
  Ti  Ti50  1  0.62209277  0.61822194  0.13037487  1
  Ti  Ti51  1  0.62604377  0.13695472  0.63315815  1
  Ti  Ti52  1  0.36337005  0.13546896  0.61952140  1
  Ti  Ti53  1  0.62116788  0.37522689  0.38130227  1
  Ti  Ti54  1  0.13515399  0.89022377  0.36679626  1
  Ti  Ti55  1  0.12479039  0.12966128  0.37775111  1
  Ti  Ti56  1  0.63026115  0.36617246  0.89152689  1
  Ti  Ti57  1  0.14072927  0.62177487  0.87890726  1
  Ti  Ti58  1  0.63021991  0.13306646  0.11732098  1
  Ti  Ti59  1  0.87685208  0.11536013  0.36642287  1
  Ti  Ti60  1  0.62842203  0.88891191  0.38085976  1
  Ti  Ti61  1  0.88050143  0.11123050  0.86904460  1
  Ti  Ti62  1  0.38578682  0.89130151  0.37790395  1
  Ti  Ti63  1  0.87867627  0.38282222  0.12084453  1
  Ti  Ti64  1  0.13163112  0.62160755  0.62884921  1
  Ti  Ti65  1  0.87698599  0.63408620  0.37570459  1
  Ti  Ti66  1  0.39524031  0.37600855  0.13665986  1
  Ti  Ti67  1  0.11819739  0.13649748  0.62523868  1
  Ti  Ti68  1  0.88463067  0.86809202  0.86666265  1
  Ti  Ti69  1  0.11744424  0.12284752  0.12244415  1
  Ti  Ti70  1  0.62690565  0.62325308  0.62542219  1
  Ti  Ti71  1  0.12042309  0.36992477  0.12688926  1
  Ti  Ti72  1  0.87040320  0.88094404  0.39052346  1
  Ti  Ti73  1  0.12940271  0.88312073  0.88240889  1
  Bi  Bi74  1  0.02492614  -0.02895018  0.72065443  1
  Bi  Bi75  1  0.23741583  0.02865001  0.76789613  1
  Bi  Bi76  1  0.50577028  0.49428197  0.76582934  1
  Bi  Bi77  1  0.26086615  0.80019598  0.74934947  1
  Bi  Bi78  1  0.22700249  -0.01771638  0.53560580  1
  Bi  Bi79  1  0.02306352  0.50997534  0.49007507  1
  Bi  Bi80  1  -0.00692169  0.23404056  0.00730276  1
  Bi  Bi81  1  0.51437054  0.50186460  0.27462415  1
  Bi  Bi82  1  0.23745521  0.46698135  0.74065210  1
  Bi  Bi83  1  0.76347152  0.25588299  0.75188681  1
  Bi  Bi84  1  0.24468848  0.24871528  0.79350242  1
  Bi  Bi85  1  0.00795723  0.50800123  0.22391220  1
  Bi  Bi86  1  0.23100661  0.27196829  0.49066714  1
  Bi  Bi87  1  0.28603404  0.46851107  -0.02397469  1
  Bi  Bi88  1  0.51221353  0.51230512  -0.01415612  1
  Bi  Bi89  1  0.76446844  0.52266109  -0.01361858  1
  Bi  Bi90  1  0.02086006  0.74761054  0.73993007  1
  Bi  Bi91  1  0.02447376  0.79020927  0.50788451  1
  Bi  Bi92  1  0.73796767  0.00300056  0.75165420  1
  Bi  Bi93  1  -0.00818526  0.49214565  0.77334514  1
  Bi  Bi94  1  0.01868294  0.75153414  0.25154305  1
  Bi  Bi95  1  0.74720459  0.50755392  0.50068804  1
  Bi  Bi96  1  0.76267363  0.52084399  0.24237604  1
  Bi  Bi97  1  0.73049966  0.01381349  0.52283556  1
  Bi  Bi98  1  0.52238035  0.23821396  0.27048361  1
  Bi  Bi99  1  0.75955470  0.74468124  0.73641249  1
  Bi  Bi100  1  0.25631830  0.23246447  0.25804970  1
  Bi  Bi101  1  0.28999296  0.05652238  -0.01078695  1
  Bi  Bi102  1  0.47369904  0.03693662  0.78150007  1
  Bi  Bi103  1  0.49802492  0.75852495  0.53070307  1
  Bi  Bi104  1  0.76084972  0.47813315  0.72802045  1
  Bi  Bi105  1  0.74941469  -0.03116024  -0.02448777  1
  Bi  Bi106  1  -0.01377440  0.03038617  0.49798712  1
  Bi  Bi107  1  -0.01436458  0.25874761  0.76593239  1
  Bi  Bi108  1  0.53799404  -0.00024951  0.23141132  1
  Bi  Bi109  1  0.28563029  0.76073736  0.24831162  1
  Bi  Bi110  1  0.26993945  0.51526207  0.22606666  1
  Bi  Bi111  1  0.26521126  0.74624960  0.02399980  1
  Bi  Bi112  1  0.02979193  0.74693289  -0.01401701  1
  Bi  Bi113  1  0.51777319  0.76796421  0.22794016  1
  Bi  Bi114  1  0.76111325  0.26199326  0.02327948  1
  Bi  Bi115  1  0.74898013  0.25726186  0.49456243  1
  Bi  Bi116  1  0.47559823  0.27602992  0.76313590  1
  Bi  Bi117  1  -0.02484524  -0.00939780  0.22418797  1
  Bi  Bi118  1  0.26554830  -0.01055022  0.22525437  1
  Bi  Bi119  1  0.47762818  0.74573057  -0.03839620  1
  Bi  Bi120  1  0.26607277  0.75534832  0.52517459  1
  Bi  Bi121  1  0.76471697  0.22781429  0.25915938  1
  Bi  Bi122  1  0.26428060  0.51040502  0.49440824  1
  Bi  Bi123  1  0.75923034  0.78184767  0.25264690  1
  Bi  Bi124  1  0.49250756  0.02319174  0.52445908  1
  O  O125  1  0.09302047  0.12374514  0.00949353  1
  O  O126  1  0.12775135  0.16030736  0.26083849  1
  O  O127  1  0.11303543  0.10002032  0.50414545  1
  O  O128  1  0.14776862  0.13287156  0.74293578  1
  O  O129  1  0.12950429  0.37703846  0.00769832  1
  O  O130  1  0.08262773  0.34759879  0.25477975  1
  O  O131  1  0.14027970  0.38472756  0.50482015  1
  O  O132  1  0.11631694  0.39218378  0.75101168  1
  O  O133  1  0.12131979  0.62515837  0.00051620  1
  O  O134  1  0.09038275  0.62605598  0.25078799  1
  O  O135  1  0.13175946  0.61032117  0.49359952  1
  O  O136  1  0.10882804  0.63147371  0.75156000  1
  O  O137  1  0.13493692  0.87439667  0.00370535  1
  O  O138  1  0.09303801  0.87534994  0.25160489  1
  O  O139  1  0.13239177  0.87348559  0.48781087  1
  O  O140  1  0.11830779  0.85429734  0.75756416  1
  O  O141  1  0.38008507  0.16313522  0.01304361  1
  O  O142  1  0.34738606  0.11093565  0.26097265  1
  O  O143  1  0.41673225  0.14073058  0.49932584  1
  O  O144  1  0.36160840  0.10472777  0.73723667  1
  O  O145  1  0.35097005  0.35043570  0.01665735  1
  O  O146  1  0.38294025  0.40726205  0.24913062  1
  O  O147  1  0.34944018  0.34720485  0.49339229  1
  O  O148  1  0.41209075  0.39407653  0.73587273  1
  O  O149  1  0.36603083  0.65885086  -0.00144892  1
  O  O150  1  0.39179051  0.58970157  0.25524707  1
  O  O151  1  0.34303843  0.63694943  0.48696562  1
  O  O152  1  0.38693080  0.59418374  0.73547635  1
  O  O153  1  0.36477763  0.83868948  0.00214986  1
  O  O154  1  0.36969767  0.89184234  0.25626688  1
  O  O155  1  0.36938022  0.84859141  0.48927202  1
  O  O156  1  0.37336645  0.88763982  0.74993378  1
  O  O157  1  0.61073893  0.11001987  -0.00001954  1
  O  O158  1  0.63728230  0.15586528  0.25174888  1
  O  O159  1  0.61048178  0.10384570  0.50933815  1
  O  O160  1  0.65356936  0.12432392  0.75249578  1
  O  O161  1  0.65358471  0.37672103  0.00315034  1
  O  O162  1  0.60885956  0.35680348  0.25289397  1
  O  O163  1  0.66105564  0.37780810  0.49465423  1
  O  O164  1  0.58915331  0.38514425  0.73120790  1
  O  O165  1  0.65703901  0.61438226  0.01194988  1
  O  O166  1  0.59651469  0.62894294  0.25426763  1
  O  O167  1  0.65713157  0.61497118  0.49296177  1
  O  O168  1  0.60743692  0.61985370  0.73747733  1
  O  O169  1  0.65294676  0.87094265  -0.00354849  1
  O  O170  1  0.63334923  0.85344626  0.25988297  1
  O  O171  1  0.63904606  0.88629780  0.50065726  1
  O  O172  1  0.61265415  0.84240102  0.75507146  1
  O  O173  1  0.91027554  0.11980420  -0.00223233  1
  O  O174  1  0.83876057  0.08685513  0.25725943  1
  O  O175  1  0.90884615  0.14668598  0.49278388  1
  O  O176  1  0.84475392  0.10298765  0.75547804  1
  O  O177  1  0.85026589  0.37105070  0.00269650  1
  O  O178  1  0.87535411  0.38947868  0.24822474  1
  O  O179  1  0.86750312  0.32812577  0.48906795  1
  O  O180  1  0.88353043  0.40779496  0.75026246  1
  O  O181  1  0.84818852  0.63416639  0.00550523  1
  O  O182  1  0.88938676  0.60009981  0.25136585  1
  O  O183  1  0.85199831  0.63096036  0.49735260  1
  O  O184  1  0.89300117  0.60202107  0.75106376  1
  O  O185  1  0.87035758  0.87891872  -0.01241366  1
  O  O186  1  0.85692639  0.89330968  0.26805301  1
  O  O187  1  0.85418228  0.84125651  0.50825175  1
  O  O188  1  0.90314782  0.88970808  0.74758242  1
  O  O189  1  -0.00230269  0.11536623  0.16616177  1
  O  O190  1  -0.00239584  0.08667405  0.36434092  1
  O  O191  1  0.00482076  0.09766806  0.63736857  1
  O  O192  1  -0.00654911  0.14341408  0.84454672  1
  O  O193  1  -0.01031044  0.40439375  0.11493351  1
  O  O194  1  -0.01110791  0.37966069  0.39656911  1
  O  O195  1  0.00249324  0.39554154  0.61381527  1
  O  O196  1  -0.00134736  0.36459290  0.87134334  1
  O  O197  1  -0.01252177  0.58689441  0.10467922  1
  O  O198  1  -0.00837176  0.60563985  0.39289038  1
  O  O199  1  -0.00612657  0.60263274  0.60302792  1
  O  O200  1  -0.00495297  0.64752653  0.89480964  1
  O  O201  1  0.00251577  0.90970021  0.10683817  1
  O  O202  1  -0.01045868  0.88372564  0.39697678  1
  O  O203  1  -0.00712631  0.88677010  0.60798741  1
  O  O204  1  0.00714910  0.84975324  0.88504067  1
  O  O205  1  0.23304199  0.15696330  0.12137273  1
  O  O206  1  0.24202472  0.15554938  0.39031196  1
  O  O207  1  0.25123312  0.14223513  0.60014976  1
  O  O208  1  0.24228385  0.12469832  0.87261585  1
  O  O209  1  0.22949540  0.34141152  0.14774077  1
  O  O210  1  0.22903628  0.34063987  0.36346215  1
  O  O211  1  0.25027138  0.36778854  0.65115140  1
  O  O212  1  0.23811798  0.38977581  0.86171270  1
  O  O213  1  0.25430284  0.63882954  0.14908389  1
  O  O214  1  0.24357634  0.62423379  0.34581331  1
  O  O215  1  0.24555273  0.64074529  0.62683953  1
  O  O216  1  0.24949983  0.60061584  0.86887508  1
  O  O217  1  0.24214757  0.86293375  0.14585224  1
  O  O218  1  0.24698995  0.86433782  0.35918041  1
  O  O219  1  0.25428111  0.86350912  0.62049654  1
  O  O220  1  0.24860543  0.88203062  0.86404355  1
  O  O221  1  0.50854768  0.09621151  0.13247411  1
  O  O222  1  0.49875294  0.10889017  0.34653543  1
  O  O223  1  0.50785448  0.09431544  0.64674680  1
  O  O224  1  0.51627744  0.13330985  0.86674565  1
  O  O225  1  0.50506665  0.39041290  0.11542828  1
  O  O226  1  0.50521883  0.40351484  0.38991518  1
  O  O227  1  0.50457389  0.38217342  0.56549762  1
  O  O228  1  0.51446115  0.33775843  0.89088370  1
  O  O229  1  0.50907212  0.60147144  0.10499343  1
  O  O230  1  0.49981826  0.58938765  0.39511288  1
  O  O231  1  0.50026949  0.62446456  0.59402249  1
  O  O232  1  0.50721231  0.61999304  0.90081460  1
  O  O233  1  0.51015490  0.88774924  0.14582045  1
  O  O234  1  0.50288772  0.89007827  0.37615977  1
  O  O235  1  0.49969386  0.85842269  0.62736495  1
  O  O236  1  0.50585378  0.87482144  0.87612520  1
  O  O237  1  0.74852358  0.14732192  0.11312061  1
  O  O238  1  0.75939497  0.15623620  0.39035715  1
  O  O239  1  0.74634611  0.13493008  0.60112429  1
  O  O240  1  0.75941457  0.10907545  0.90244926  1
  O  O241  1  0.74552662  0.33980029  0.13994276  1
  O  O242  1  0.75257410  0.33289950  0.36332947  1
  O  O243  1  0.74593865  0.36272914  0.64897396  1
  O  O244  1  0.74277503  0.38168530  0.83928058  1
  O  O245  1  0.75147695  0.63588697  0.15748680  1
  O  O246  1  0.74894253  0.63184182  0.34884106  1
  O  O247  1  0.74998464  0.63765584  0.64485381  1
  O  O248  1  0.75812799  0.60352932  0.86292125  1
  O  O249  1  0.75577174  0.86191296  0.13893105  1
  O  O250  1  0.74659938  0.84230935  0.38422951  1
  O  O251  1  0.75500882  0.85528114  0.65295070  1
  O  O252  1  0.76220906  0.88736656  0.85953853  1
  O  O253  1  0.14079637  0.00641818  0.14033569  1
  O  O254  1  0.14543659  0.00380662  0.36451161  1
  O  O255  1  0.15003640  0.00623325  0.64440740  1
  O  O256  1  0.11660547  -0.00392410  0.85752796  1
  O  O257  1  0.07527384  0.25104756  0.12069644  1
  O  O258  1  0.08762523  0.24187844  0.40724732  1
  O  O259  1  0.10778517  0.25266790  0.62336229  1
  O  O260  1  0.13045847  0.25772790  0.87793565  1
  O  O261  1  0.13388455  0.48947533  0.15169040  1
  O  O262  1  0.11994002  0.48992054  0.36664126  1
  O  O263  1  0.14094482  0.50258125  0.63025709  1
  O  O264  1  0.09607137  0.50502146  0.88808002  1
  O  O265  1  0.10125235  0.75796825  0.13087593  1
  O  O266  1  0.10738751  0.74391956  0.37015487  1
  O  O267  1  0.09736616  0.73870541  0.62200419  1
  O  O268  1  0.13947444  0.74522338  0.89320294  1
  O  O269  1  0.34836649  0.00703139  0.11687479  1
  O  O270  1  0.36814581  0.00240451  0.40278746  1
  O  O271  1  0.36400381  0.00856450  0.59295596  1
  O  O272  1  0.39895531  0.01132862  0.92054885  1
  O  O273  1  0.37971849  0.25866776  0.15765892  1
  O  O274  1  0.39837761  0.24466835  0.36558495  1
  O  O275  1  0.40245018  0.24557765  0.62736373  1
  O  O276  1  0.36881366  0.25414464  0.84504361  1
  O  O277  1  0.34889920  0.49263176  0.10897985  1
  O  O278  1  0.36143758  0.49689026  0.40115271  1
  O  O279  1  0.37443652  0.50287196  0.58155698  1
  O  O280  1  0.39619242  0.49947390  0.90608471  1
  O  O281  1  0.38984488  0.75104294  0.15420770  1
  O  O282  1  0.39212976  0.73896526  0.34780159  1
  O  O283  1  0.37625422  0.74076232  0.61782401  1
  O  O284  1  0.40350891  0.74841008  0.84473780  1
  O  O285  1  0.65457972  0.00769349  0.15560361  1
  O  O286  1  0.64675388  -0.00205373  0.36056677  1
  O  O287  1  0.65183589  -0.00276268  0.63690011  1
  O  O288  1  0.64096157  -0.00502549  0.86494430  1
  O  O289  1  0.60680094  0.24870120  0.11343403  1
  O  O290  1  0.58802188  0.25422859  0.39168711  1
  O  O291  1  0.61296491  0.25066092  0.62034596  1
  O  O292  1  0.65714517  0.24437955  0.88050155  1
  O  O293  1  0.64365038  0.49315781  0.14807618  1
  O  O294  1  0.64394133  0.49157428  0.35764726  1
  O  O295  1  0.64355326  0.49849409  0.61331921  1
  O  O296  1  0.60668870  0.48690718  0.87600528  1
  O  O297  1  0.61163436  0.74133124  0.11850545  1
  O  O298  1  0.61220111  0.74255606  0.39819821  1
  O  O299  1  0.62726209  0.74248824  0.59202620  1
  O  O300  1  0.63538092  0.74762257  0.89366397  1
  O  O301  1  0.86860779  -0.00384143  0.11931720  1
  O  O302  1  0.85813533  -0.00355801  0.41098340  1
  O  O303  1  0.85351970  -0.00737015  0.60465475  1
  O  O304  1  0.90129999  -0.00301589  0.88621069  1
  O  O305  1  0.88927803  0.25336170  0.11136750  1
  O  O306  1  0.91142803  0.22934485  0.33002902  1
  O  O307  1  0.88153585  0.24983819  0.66777375  1
  O  O308  1  0.86860301  0.25006962  0.85030247  1
  O  O309  1  0.83620875  0.49692144  0.11718577  1
  O  O310  1  0.85071623  0.49031595  0.38787632  1
  O  O311  1  0.84533293  0.50182665  0.60809076  1
  O  O312  1  0.90692726  0.51056940  0.89830721  1
  O  O313  1  0.90357655  0.74239149  0.13846740  1
  O  O314  1  0.88983415  0.74482992  0.35795485  1
  O  O315  1  0.88460743  0.74132892  0.65391334  1
  O  O316  1  0.86668281  0.74928489  0.84843711  1
