# generated using pymatgen
data_Mg32Ti42(Bi17O64)3
_symmetry_space_group_name_H-M   'P 1'
_cell_length_a   15.93967043
_cell_length_b   15.94385114
_cell_length_c   15.95335566
_cell_angle_alpha   89.93887207
_cell_angle_beta   90.06049193
_cell_angle_gamma   90.06947382
_symmetry_Int_Tables_number   1
_chemical_formula_structural   Mg32Ti42(Bi17O64)3
_chemical_formula_sum   'Mg32 Ti42 Bi51 O192'
_cell_volume   4054.37399994
_cell_formula_units_Z   1
loop_
 _symmetry_equiv_pos_site_id
 _symmetry_equiv_pos_as_xyz
  1  'x, y, z'
loop_
 _atom_site_type_symbol
 _atom_site_label
 _atom_site_symmetry_multiplicity
 _atom_site_fract_x
 _atom_site_fract_y
 _atom_site_fract_z
 _atom_site_occupancy
  Mg  Mg0  1  0.87425800  0.36609504  0.13319714  1
  Mg  Mg1  1  0.36755190  0.12151245  0.36675422  1
  Mg  Mg2  1  0.11963749  0.87624256  0.61048591  1
  Mg  Mg3  1  0.62841018  0.12385803  0.11655419  1
  Mg  Mg4  1  0.62415555  0.61625533  0.63725427  1
  Mg  Mg5  1  0.12607872  0.87843887  0.88264750  1
  Mg  Mg6  1  0.87500631  0.37601898  0.87973528  1
  Mg  Mg7  1  0.86277207  0.87595127  0.62971094  1
  Mg  Mg8  1  0.12163902  0.62565624  0.86672145  1
  Mg  Mg9  1  0.12202142  0.86593028  0.13857034  1
  Mg  Mg10  1  0.37549851  0.62086440  0.87481947  1
  Mg  Mg11  1  0.61145058  0.87561990  0.38246896  1
  Mg  Mg12  1  0.62494668  0.37763508  0.38494328  1
  Mg  Mg13  1  0.12464718  0.37296168  0.87545786  1
  Mg  Mg14  1  0.62031320  0.62269399  0.12898236  1
  Mg  Mg15  1  0.13102386  0.36591995  0.61586510  1
  Mg  Mg16  1  0.62495302  0.62221641  0.38444426  1
  Mg  Mg17  1  0.87322375  0.61810764  0.38855579  1
  Mg  Mg18  1  0.63728581  0.13186736  0.37577078  1
  Mg  Mg19  1  0.74479621  0.20889252  0.72823730  1
  Mg  Mg20  1  -0.01047594  -0.01133102  0.67521958  1
  Mg  Mg21  1  0.73531136  0.27433173  0.29230762  1
  Mg  Mg22  1  -0.06063831  0.78635885  0.46214845  1
  Mg  Mg23  1  0.22838908  -0.05453575  0.27487089  1
  Mg  Mg24  1  0.45968560  0.53134377  0.28276060  1
  Mg  Mg25  1  0.50582518  0.03397092  0.46414585  1
  Mg  Mg26  1  -0.02637331  0.47693619  0.70072404  1
  Mg  Mg27  1  0.78097900  0.31701311  0.53534309  1
  Mg  Mg28  1  -0.05505960  -0.04318346  0.49955406  1
  Mg  Mg29  1  -0.00313515  0.69950076  0.29012486  1
  Mg  Mg30  1  0.50410681  0.19642461  0.75976619  1
  Mg  Mg31  1  0.49314117  0.52521726  0.46897299  1
  Ti  Ti32  1  0.12523379  0.37512876  0.11869050  1
  Ti  Ti33  1  0.62709209  0.36388743  0.87198280  1
  Ti  Ti34  1  0.37198759  0.12573521  0.87188204  1
  Ti  Ti35  1  0.61950129  0.36447644  0.62592639  1
  Ti  Ti36  1  0.37818178  0.86439434  0.13963246  1
  Ti  Ti37  1  0.11323322  0.61517676  0.39763238  1
  Ti  Ti38  1  0.88274704  0.88491534  0.87990199  1
  Ti  Ti39  1  0.37461232  0.87854262  0.62738073  1
  Ti  Ti40  1  0.10571615  0.12012734  0.87135385  1
  Ti  Ti41  1  0.36794179  0.87659844  0.88590061  1
  Ti  Ti42  1  0.86251477  0.37809485  0.36533495  1
  Ti  Ti43  1  0.87017172  0.13069048  0.37115809  1
  Ti  Ti44  1  0.63006548  0.37499699  0.14072151  1
  Ti  Ti45  1  0.11698130  0.84932027  0.37916775  1
  Ti  Ti46  1  0.38217787  0.36765826  0.12147193  1
  Ti  Ti47  1  0.39354536  0.37805836  0.36538924  1
  Ti  Ti48  1  0.87562708  0.63976851  0.61545908  1
  Ti  Ti49  1  0.86215197  0.12286345  0.61315786  1
  Ti  Ti50  1  0.87885684  0.87366501  0.11988507  1
  Ti  Ti51  1  0.87056584  0.61889539  0.86686592  1
  Ti  Ti52  1  0.63168366  0.61215601  0.87542269  1
  Ti  Ti53  1  0.62259343  0.87420495  0.87937521  1
  Ti  Ti54  1  0.12996553  0.37582351  0.37737335  1
  Ti  Ti55  1  0.62066392  0.11853536  0.62023456  1
  Ti  Ti56  1  0.87552293  0.11743923  0.13516655  1
  Ti  Ti57  1  0.37798377  0.88432810  0.38290975  1
  Ti  Ti58  1  0.11431158  0.12834470  0.13030041  1
  Ti  Ti59  1  0.87312575  0.13171242  0.87320715  1
  Ti  Ti60  1  0.10845782  0.63451452  0.63261564  1
  Ti  Ti61  1  0.37640720  0.36949044  0.86433739  1
  Ti  Ti62  1  0.63432751  0.12623990  0.86740245  1
  Ti  Ti63  1  0.61758257  0.86791911  0.12467192  1
  Ti  Ti64  1  0.61536811  0.88102798  0.63129240  1
  Ti  Ti65  1  0.38266874  0.62192463  0.12254721  1
  Ti  Ti66  1  0.88332983  0.62210349  0.12402364  1
  Ti  Ti67  1  0.12155400  0.12166408  0.37790119  1
  Ti  Ti68  1  0.37788783  0.12648391  0.12843246  1
  Ti  Ti69  1  0.37273887  0.61771125  0.63852168  1
  Ti  Ti70  1  0.37259107  0.11118535  0.63051680  1
  Ti  Ti71  1  0.12998959  0.63280337  0.13060568  1
  Ti  Ti72  1  0.37385924  0.38218552  0.61469748  1
  Ti  Ti73  1  0.11578052  0.12635620  0.61660286  1
  Bi  Bi74  1  0.74964076  0.75355225  0.75156782  1
  Bi  Bi75  1  0.74610719  -0.00806929  0.02238254  1
  Bi  Bi76  1  0.28976609  0.52031766  0.47490327  1
  Bi  Bi77  1  0.72564239  0.75055894  0.50583517  1
  Bi  Bi78  1  0.72800910  0.52222148  0.26940616  1
  Bi  Bi79  1  0.50044290  0.73238913  0.52858517  1
  Bi  Bi80  1  0.24480203  -0.01355338  0.04081584  1
  Bi  Bi81  1  0.01223538  0.26604755  0.26637622  1
  Bi  Bi82  1  -0.02362072  -0.02320729  0.29535610  1
  Bi  Bi83  1  0.75680966  -0.01205549  0.76164261  1
  Bi  Bi84  1  -0.00621976  0.73480901  -0.01294848  1
  Bi  Bi85  1  0.49561372  0.47412368  0.74664823  1
  Bi  Bi86  1  0.78985463  0.75978879  0.27925506  1
  Bi  Bi87  1  -0.01306842  0.46819431  0.51351626  1
  Bi  Bi88  1  -0.00876073  0.50392323  -0.01160828  1
  Bi  Bi89  1  -0.02330004  0.24890629  0.50349218  1
  Bi  Bi90  1  0.74981923  0.49775686  0.02377010  1
  Bi  Bi91  1  0.49990222  0.72124172  0.29669394  1
  Bi  Bi92  1  -0.01345568  0.78229248  0.73822562  1
  Bi  Bi93  1  0.48810699  0.74056105  0.76504241  1
  Bi  Bi94  1  0.01657332  0.50890822  0.25829936  1
  Bi  Bi95  1  0.28178073  0.72196368  0.28423239  1
  Bi  Bi96  1  0.74934655  0.73222371  0.01859944  1
  Bi  Bi97  1  0.25411507  0.74345729  0.51657045  1
  Bi  Bi98  1  0.25109786  0.51013473  -0.03425592  1
  Bi  Bi99  1  0.52867361  0.22680572  0.24519818  1
  Bi  Bi100  1  0.21447576  0.48893257  0.73876838  1
  Bi  Bi101  1  0.51386878  0.47106355  0.00472737  1
  Bi  Bi102  1  0.25964938  0.48944763  0.22948193  1
  Bi  Bi103  1  0.23548226  0.23225600  0.00413428  1
  Bi  Bi104  1  0.21521225  0.00476925  0.74225228  1
  Bi  Bi105  1  0.72233516  0.51172279  0.51288017  1
  Bi  Bi106  1  0.51438918  0.72515672  -0.01058097  1
  Bi  Bi107  1  -0.00768318  0.26901354  -0.01319025  1
  Bi  Bi108  1  0.51972848  0.00718170  0.26847283  1
  Bi  Bi109  1  0.48862237  -0.01389461  0.76835686  1
  Bi  Bi110  1  0.22183615  0.24729044  0.76508186  1
  Bi  Bi111  1  0.01963712  -0.01558556  0.01718961  1
  Bi  Bi112  1  0.76882172  0.24702234  0.02551814  1
  Bi  Bi113  1  0.73959491  -0.02323801  0.25684375  1
  Bi  Bi114  1  0.23119404  0.72947146  -0.01361496  1
  Bi  Bi115  1  0.22610818  0.76764962  0.74247703  1
  Bi  Bi116  1  0.75982996  0.44342325  0.73927723  1
  Bi  Bi117  1  0.49272166  0.22332321  0.51700676  1
  Bi  Bi118  1  0.48876130  -0.00218189  0.02203790  1
  Bi  Bi119  1  -0.04242131  0.26832342  0.72813662  1
  Bi  Bi120  1  0.26463134  0.25611486  0.48276356  1
  Bi  Bi121  1  0.24124701  -0.00444544  0.47866511  1
  Bi  Bi122  1  0.24443601  0.24039271  0.24250919  1
  Bi  Bi123  1  0.75522851  -0.03298838  0.47069150  1
  Bi  Bi124  1  0.50996615  0.23943809  -0.01301392  1
  O  O125  1  0.12348993  0.13685532  -0.00619756  1
  O  O126  1  0.13543617  0.14767591  0.24744651  1
  O  O127  1  0.12682979  0.11070843  0.49689703  1
  O  O128  1  0.13824432  0.12684851  0.74674507  1
  O  O129  1  0.14347507  0.36601760  0.00438558  1
  O  O130  1  0.13650996  0.34977395  0.24913840  1
  O  O131  1  0.11014024  0.38775027  0.48958206  1
  O  O132  1  0.14624646  0.37022098  0.74523125  1
  O  O133  1  0.15177534  0.60910796  0.01155129  1
  O  O134  1  0.09261273  0.63372157  0.24542444  1
  O  O135  1  0.11332627  0.60242907  0.50826105  1
  O  O136  1  0.13375640  0.65965401  0.74667130  1
  O  O137  1  0.13844167  0.90001088  0.01061073  1
  O  O138  1  0.10855730  0.87701034  0.26540689  1
  O  O139  1  0.16257419  0.88171731  0.48936229  1
  O  O140  1  0.12243574  0.85715983  0.75322053  1
  O  O141  1  0.38572163  0.11290608  -0.01284875  1
  O  O142  1  0.36462312  0.14584114  0.24080470  1
  O  O143  1  0.40299583  0.10753273  0.50471615  1
  O  O144  1  0.37866082  0.14704617  0.74445800  1
  O  O145  1  0.39085522  0.39127836  0.00463396  1
  O  O146  1  0.37721221  0.35196369  0.25499149  1
  O  O147  1  0.38955072  0.42107369  0.50030785  1
  O  O148  1  0.39624336  0.36864337  0.74737672  1
  O  O149  1  0.35055376  0.60776668  0.01064346  1
  O  O150  1  0.39654435  0.64269930  0.24663100  1
  O  O151  1  0.39472068  0.59815270  0.51229750  1
  O  O152  1  0.37358420  0.65601006  0.75160257  1
  O  O153  1  0.36191133  0.89744967  0.00037853  1
  O  O154  1  0.39998985  0.86568509  0.25136445  1
  O  O155  1  0.34849882  0.89146392  0.49744736  1
  O  O156  1  0.40520857  0.85967385  0.74585784  1
  O  O157  1  0.62145398  0.14476801  -0.01536961  1
  O  O158  1  0.60837799  0.11190924  0.24204811  1
  O  O159  1  0.59850211  0.11415922  0.50118825  1
  O  O160  1  0.63224173  0.14698499  0.74168905  1
  O  O161  1  0.60301524  0.35689427  -0.00519789  1
  O  O162  1  0.66020338  0.39237621  0.25042634  1
  O  O163  1  0.66051492  0.38269194  0.51483190  1
  O  O164  1  0.61582464  0.39081608  0.75433662  1
  O  O165  1  0.63507296  0.64707673  -0.00224271  1
  O  O166  1  0.61312333  0.60129997  0.25141553  1
  O  O167  1  0.60497684  0.58749463  0.51054729  1
  O  O168  1  0.62085292  0.62354112  0.76202287  1
  O  O169  1  0.64836408  0.87077336  -0.00778132  1
  O  O170  1  0.61711790  0.89310783  0.24150265  1
  O  O171  1  0.65551733  0.88000501  0.50782960  1
  O  O172  1  0.59322161  0.87113553  0.74736778  1
  O  O173  1  0.87130843  0.14799555  -0.01218883  1
  O  O174  1  0.88417456  0.09100093  0.24702411  1
  O  O175  1  0.88073851  0.14051433  0.49144719  1
  O  O176  1  0.86225479  0.14569692  0.73489233  1
  O  O177  1  0.87236585  0.33639868  0.00266458  1
  O  O178  1  0.84254254  0.35320443  0.25404238  1
  O  O179  1  0.89593595  0.36654405  0.48927733  1
  O  O180  1  0.89907154  0.39146333  0.75580390  1
  O  O181  1  0.86962720  0.65728639  -0.00296540  1
  O  O182  1  0.89906266  0.62342124  0.23759320  1
  O  O183  1  0.88669846  0.67592036  0.50563719  1
  O  O184  1  0.87845770  0.60160140  0.75652442  1
  O  O185  1  0.84633127  0.86673136  -0.00805987  1
  O  O186  1  0.86952496  0.89909371  0.23643132  1
  O  O187  1  0.84496269  0.86358916  0.50466188  1
  O  O188  1  0.91342164  0.90669855  0.75128839  1
  O  O189  1  0.00032620  0.14099149  0.12342099  1
  O  O190  1  0.00904298  0.10437454  0.36116225  1
  O  O191  1  -0.00052979  0.11927905  0.62735867  1
  O  O192  1  -0.00570830  0.10293638  0.86855023  1
  O  O193  1  0.00742023  0.35153221  0.11980530  1
  O  O194  1  -0.00218418  0.38681299  0.34144028  1
  O  O195  1  0.00683956  0.38376476  0.61889733  1
  O  O196  1  0.00256407  0.38634844  0.90942235  1
  O  O197  1  0.00311702  0.63447206  0.09411690  1
  O  O198  1  -0.00337349  0.59355101  0.37433948  1
  O  O199  1  0.00045915  0.66498855  0.63589890  1
  O  O200  1  -0.00348489  0.62271003  0.89871578  1
  O  O201  1  -0.00422904  0.87616836  0.10488530  1
  O  O202  1  0.00755323  0.89097979  0.41147611  1
  O  O203  1  -0.00694069  0.87974386  0.60014350  1
  O  O204  1  -0.00548031  0.89286454  0.90856870  1
  O  O205  1  0.25545797  0.12350187  0.10561865  1
  O  O206  1  0.24732600  0.16580617  0.37802395  1
  O  O207  1  0.25702211  0.10595147  0.62058792  1
  O  O208  1  0.25851303  0.14891669  0.87393316  1
  O  O209  1  0.26119845  0.39076773  0.12990382  1
  O  O210  1  0.24780126  0.36123076  0.38944161  1
  O  O211  1  0.25865774  0.39371122  0.61160705  1
  O  O212  1  0.26370421  0.34047419  0.87232156  1
  O  O213  1  0.24792596  0.61271812  0.16108104  1
  O  O214  1  0.23347867  0.64122741  0.38610778  1
  O  O215  1  0.25518674  0.62294361  0.60376202  1
  O  O216  1  0.25035821  0.63521336  0.88478112  1
  O  O217  1  0.25810378  0.90389815  0.15446208  1
  O  O218  1  0.24485329  0.84302130  0.35300834  1
  O  O219  1  0.25992843  0.88253422  0.64864283  1
  O  O220  1  0.25816304  0.85339572  0.86772388  1
  O  O221  1  0.49689725  0.14151094  0.11215354  1
  O  O222  1  0.49233445  0.10622765  0.35976005  1
  O  O223  1  0.49960426  0.14127057  0.63829431  1
  O  O224  1  0.50861214  0.10581151  0.85212162  1
  O  O225  1  0.50594724  0.37717617  0.12966537  1
  O  O226  1  0.50137685  0.42254716  0.36810677  1
  O  O227  1  0.50665588  0.39855245  0.62483296  1
  O  O228  1  0.50076313  0.40587612  0.87488736  1
  O  O229  1  0.49508868  0.62927477  0.09884517  1
  O  O230  1  0.50038330  0.60895423  0.37362734  1
  O  O231  1  0.49508650  0.64636948  0.63930803  1
  O  O232  1  0.50501974  0.62094243  0.89599712  1
  O  O233  1  0.49892614  0.87135312  0.10078070  1
  O  O234  1  0.48910796  0.92363309  0.39728302  1
  O  O235  1  0.50061768  0.86084552  0.59703620  1
  O  O236  1  0.50813080  0.91015426  0.89003955  1
  O  O237  1  0.75468977  0.09893024  0.11594406  1
  O  O238  1  0.76179020  0.15319498  0.34808215  1
  O  O239  1  0.74439372  0.13211456  0.61742648  1
  O  O240  1  0.75076850  0.15667439  0.85760440  1
  O  O241  1  0.74596667  0.37615150  0.09630871  1
  O  O242  1  0.76321568  0.33141702  0.40216677  1
  O  O243  1  0.74372187  0.33092389  0.66346341  1
  O  O244  1  0.74425574  0.36318408  0.86304951  1
  O  O245  1  0.75831973  0.61653339  0.11386719  1
  O  O246  1  0.75256929  0.65172707  0.36348023  1
  O  O247  1  0.75610254  0.64002926  0.60964877  1
  O  O248  1  0.75243651  0.65003974  0.87682765  1
  O  O249  1  0.74596962  0.90084254  0.12962377  1
  O  O250  1  0.74382100  0.87605101  0.35763139  1
  O  O251  1  0.73938910  0.87282765  0.66487305  1
  O  O252  1  0.74847940  0.86863351  0.83757875  1
  O  O253  1  0.12144046  0.01204969  0.12854289  1
  O  O254  1  0.15745321  0.00904205  0.36253628  1
  O  O255  1  0.11592391  -0.00140325  0.64602865  1
  O  O256  1  0.14240639  0.00663465  0.86400710  1
  O  O257  1  0.15486245  0.24915765  0.12043639  1
  O  O258  1  0.09902044  0.25313887  0.37993523  1
  O  O259  1  0.13432395  0.24028526  0.61428742  1
  O  O260  1  0.11627534  0.24432198  0.85904726  1
  O  O261  1  0.11673865  0.49196151  0.14388513  1
  O  O262  1  0.13055941  0.49849629  0.35057120  1
  O  O263  1  0.09815943  0.51825986  0.66636619  1
  O  O264  1  0.14804212  0.49909841  0.86233937  1
  O  O265  1  0.14110786  0.74489573  0.11205567  1
  O  O266  1  0.08322320  0.73809480  0.38670949  1
  O  O267  1  0.15306544  0.75275000  0.61097707  1
  O  O268  1  0.11737121  0.74987997  0.91036144  1
  O  O269  1  0.39451732  0.00607332  0.12857216  1
  O  O270  1  0.32741923  -0.00864803  0.35614573  1
  O  O271  1  0.39245702  -0.00287240  0.64431684  1
  O  O272  1  0.36880967  -0.00045701  0.84636760  1
  O  O273  1  0.36528518  0.25414482  0.10358010  1
  O  O274  1  0.38489473  0.26459614  0.41104539  1
  O  O275  1  0.37716865  0.26395196  0.59395970  1
  O  O276  1  0.41179489  0.24682174  0.87807352  1
  O  O277  1  0.38705473  0.50384306  0.16450691  1
  O  O278  1  0.35259998  0.49441753  0.35128935  1
  O  O279  1  0.37843599  0.50561322  0.65914721  1
  O  O280  1  0.35085626  0.49105072  0.86320027  1
  O  O281  1  0.36055630  0.75278800  0.11868472  1
  O  O282  1  0.38987402  0.76017967  0.37843151  1
  O  O283  1  0.36713784  0.75510051  0.60041869  1
  O  O284  1  0.40802569  0.76225295  0.88838094  1
  O  O285  1  0.61350770  -0.00272344  0.09466148  1
  O  O286  1  0.63666344  0.00335606  0.36739223  1
  O  O287  1  0.61773307  0.00152318  0.63549790  1
  O  O288  1  0.65402234  0.00684192  0.85949127  1
  O  O289  1  0.63382167  0.25426288  0.15271348  1
  O  O290  1  0.61482204  0.25495976  0.34744919  1
  O  O291  1  0.60782502  0.25187859  0.60937448  1
  O  O292  1  0.58895677  0.25279526  0.86092111  1
  O  O293  1  0.63028647  0.49421301  0.10001023  1
  O  O294  1  0.66363619  0.49824985  0.38392153  1
  O  O295  1  0.66582477  0.49032336  0.63822262  1
  O  O296  1  0.64121966  0.49974089  0.89923694  1
  O  O297  1  0.63849053  0.75618208  0.12748397  1
  O  O298  1  0.60215510  0.75090443  0.40313122  1
  O  O299  1  0.62648919  0.75059045  0.60597266  1
  O  O300  1  0.60448126  0.75953614  0.87285002  1
  O  O301  1  0.88504629  0.00079118  0.08717902  1
  O  O302  1  0.87818604  0.00570021  0.39404915  1
  O  O303  1  0.87919032  0.00528155  0.60381033  1
  O  O304  1  0.84652242  0.00586591  0.87204837  1
  O  O305  1  0.85180673  0.23288129  0.13407300  1
  O  O306  1  0.91497513  0.24370815  0.36965892  1
  O  O307  1  0.88021994  0.24880724  0.60705053  1
  O  O308  1  0.90803180  0.24879221  0.86024103  1
  O  O309  1  0.88461723  0.50210825  0.09879229  1
  O  O310  1  0.84580013  0.49294461  0.37437349  1
  O  O311  1  0.89772948  0.52281385  0.60866119  1
  O  O312  1  0.87231776  0.50619146  0.90933344  1
  O  O313  1  0.86182373  0.75764422  0.13199497  1
  O  O314  1  0.90178737  0.74915980  0.34994244  1
  O  O315  1  0.86461551  0.75507507  0.67021807  1
  O  O316  1  0.89012496  0.76354868  0.84978128  1
