# generated using pymatgen
data_Mg32Ti42(Bi17O64)3
_symmetry_space_group_name_H-M   'P 1'
_cell_length_a   15.95477813
_cell_length_b   15.94796823
_cell_length_c   15.98091108
_cell_angle_alpha   89.94410820
_cell_angle_beta   90.05525523
_cell_angle_gamma   89.97965998
_symmetry_Int_Tables_number   1
_chemical_formula_structural   Mg32Ti42(Bi17O64)3
_chemical_formula_sum   'Mg32 Ti42 Bi51 O192'
_cell_volume   4066.27952787
_cell_formula_units_Z   1
loop_
 _symmetry_equiv_pos_site_id
 _symmetry_equiv_pos_as_xyz
  1  'x, y, z'
loop_
 _atom_site_type_symbol
 _atom_site_label
 _atom_site_symmetry_multiplicity
 _atom_site_fract_x
 _atom_site_fract_y
 _atom_site_fract_z
 _atom_site_occupancy
  Mg  Mg0  1  0.12652538  0.62006495  0.38025562  1
  Mg  Mg1  1  0.36803225  0.86888217  0.64214169  1
  Mg  Mg2  1  0.38607055  0.12240470  0.37336211  1
  Mg  Mg3  1  0.11830630  0.12848108  0.37121759  1
  Mg  Mg4  1  0.62215062  0.87074064  0.63375215  1
  Mg  Mg5  1  0.37755542  0.37638026  0.38165567  1
  Mg  Mg6  1  0.37437119  0.62601537  0.62756587  1
  Mg  Mg7  1  0.12500856  0.11853551  0.62917737  1
  Mg  Mg8  1  0.12740137  0.62072604  0.12903874  1
  Mg  Mg9  1  0.62286551  0.61749029  0.87293629  1
  Mg  Mg10  1  0.37135188  0.36212874  0.12624702  1
  Mg  Mg11  1  0.87208531  0.63168836  0.86893488  1
  Mg  Mg12  1  0.88047482  0.87201448  0.13042681  1
  Mg  Mg13  1  0.13596387  0.88206203  0.36956492  1
  Mg  Mg14  1  0.12779211  0.63812262  0.62768274  1
  Mg  Mg15  1  0.39344011  0.12423448  0.62964981  1
  Mg  Mg16  1  0.86592577  0.11961728  0.61764945  1
  Mg  Mg17  1  0.86983566  0.63614947  0.62254649  1
  Mg  Mg18  1  0.38645529  0.62978586  0.14253957  1
  Mg  Mg19  1  0.06522883  0.28818128  -0.05746627  1
  Mg  Mg20  1  0.30786578  0.00229784  0.53880706  1
  Mg  Mg21  1  0.78904633  0.78136353  0.48232730  1
  Mg  Mg22  1  0.49223360  -0.04011884  0.55205048  1
  Mg  Mg23  1  0.53648791  0.43105636  0.47904143  1
  Mg  Mg24  1  0.01210342  0.49068921  0.30769986  1
  Mg  Mg25  1  0.74723020  0.29132463  0.78170837  1
  Mg  Mg26  1  0.46516218  0.78380135  0.23514035  1
  Mg  Mg27  1  0.77946313  -0.00470462  0.70317967  1
  Mg  Mg28  1  0.02974909  0.56259575  0.78795741  1
  Mg  Mg29  1  0.73813099  0.31112547  0.30369484  1
  Mg  Mg30  1  0.44992933  0.50098227  0.04692550  1
  Mg  Mg31  1  0.25269815  0.02095711  0.03521389  1
  Ti  Ti32  1  0.12948661  0.37822170  0.38249239  1
  Ti  Ti33  1  0.36169203  0.88487220  0.11922243  1
  Ti  Ti34  1  0.86528208  0.37328067  0.13770115  1
  Ti  Ti35  1  0.87973499  0.38183761  0.39003317  1
  Ti  Ti36  1  0.37678123  0.88845871  0.37898400  1
  Ti  Ti37  1  0.37792547  0.38021189  0.88777168  1
  Ti  Ti38  1  0.87844511  0.62273401  0.38182719  1
  Ti  Ti39  1  0.61702727  0.85821970  0.13575160  1
  Ti  Ti40  1  0.62666170  0.12151526  0.64050572  1
  Ti  Ti41  1  0.12357277  0.13019589  0.11547828  1
  Ti  Ti42  1  0.85046827  0.10488546  0.87381289  1
  Ti  Ti43  1  0.87412107  0.87512886  0.87805397  1
  Ti  Ti44  1  0.62432516  0.85958761  0.37508291  1
  Ti  Ti45  1  0.87545200  0.62811393  0.12311623  1
  Ti  Ti46  1  0.12362333  0.37130668  0.13675024  1
  Ti  Ti47  1  0.37197805  0.37218492  0.61864249  1
  Ti  Ti48  1  0.13714451  0.89009834  0.87453751  1
  Ti  Ti49  1  0.62764242  0.37113911  0.11829640  1
  Ti  Ti50  1  0.87912905  0.88629865  0.36810479  1
  Ti  Ti51  1  0.63279627  0.12583112  0.38321651  1
  Ti  Ti52  1  0.13838881  0.88098495  0.62421687  1
  Ti  Ti53  1  0.11476508  0.12228436  0.87275361  1
  Ti  Ti54  1  0.62697342  0.63919184  0.61708841  1
  Ti  Ti55  1  0.62496406  0.35969756  0.63901100  1
  Ti  Ti56  1  0.38475465  0.61751140  0.37036295  1
  Ti  Ti57  1  0.38197038  0.11236313  0.88215253  1
  Ti  Ti58  1  0.62103458  0.37963132  0.87658914  1
  Ti  Ti59  1  0.62099579  0.61467709  0.12902579  1
  Ti  Ti60  1  0.87998169  0.12831511  0.12284038  1
  Ti  Ti61  1  0.87338701  0.38219294  0.62471276  1
  Ti  Ti62  1  0.61249168  0.62675478  0.38060468  1
  Ti  Ti63  1  0.38829633  0.60453326  0.87835756  1
  Ti  Ti64  1  0.63005386  0.12657392  0.12753303  1
  Ti  Ti65  1  0.87425521  0.86886150  0.61312404  1
  Ti  Ti66  1  0.38646872  0.12891316  0.12955506  1
  Ti  Ti67  1  0.62903382  0.86929213  0.87586451  1
  Ti  Ti68  1  0.88550291  0.40268511  0.86297442  1
  Ti  Ti69  1  0.12656700  0.87372827  0.11774400  1
  Ti  Ti70  1  0.87141288  0.14143566  0.37474027  1
  Ti  Ti71  1  0.11854392  0.36458005  0.61556794  1
  Ti  Ti72  1  0.36811659  0.87440548  0.88407830  1
  Ti  Ti73  1  0.62887644  0.12961438  0.87436230  1
  Bi  Bi74  1  0.02139086  0.00326672  0.49533641  1
  Bi  Bi75  1  0.53462991  0.26520759  0.27674635  1
  Bi  Bi76  1  -0.00641301  0.22848658  0.53178117  1
  Bi  Bi77  1  0.46987437  0.25670436  0.75790067  1
  Bi  Bi78  1  0.21813324  0.49124076  0.77134635  1
  Bi  Bi79  1  0.74474127  0.72403593  -0.01423206  1
  Bi  Bi80  1  0.00606402  0.53076765  0.54038421  1
  Bi  Bi81  1  0.48007896  0.75144423  0.75992686  1
  Bi  Bi82  1  -0.01728896  0.01436667  0.72864560  1
  Bi  Bi83  1  -0.01344022  0.48717750  0.03756540  1
  Bi  Bi84  1  0.50886794  0.50786926  0.70548237  1
  Bi  Bi85  1  0.71035173  -0.00664167  0.51074463  1
  Bi  Bi86  1  0.74387730  0.48757289  -0.01013505  1
  Bi  Bi87  1  0.02865876  0.76829424  0.74932898  1
  Bi  Bi88  1  0.77963309  0.24585589  0.00470394  1
  Bi  Bi89  1  0.24086939  0.48475518  0.22965195  1
  Bi  Bi90  1  0.75914422  0.76402341  0.75117737  1
  Bi  Bi91  1  0.19058252  0.49770383  -0.02788569  1
  Bi  Bi92  1  0.26989972  0.02359038  0.73425134  1
  Bi  Bi93  1  0.00378949  -0.01712758  0.00758028  1
  Bi  Bi94  1  0.00831011  0.25617321  0.26016135  1
  Bi  Bi95  1  0.26917531  0.20675581  0.50972531  1
  Bi  Bi96  1  0.02567007  -0.00017126  0.25201881  1
  Bi  Bi97  1  0.77229472  0.74790162  0.24238651  1
  Bi  Bi98  1  -0.04775382  0.24383560  0.76249276  1
  Bi  Bi99  1  0.01891930  0.72087996  0.24285410  1
  Bi  Bi100  1  0.52086392  0.00023747  0.76982555  1
  Bi  Bi101  1  0.49017249  0.75917019  0.51626126  1
  Bi  Bi102  1  0.25745771  0.50369847  0.52919866  1
  Bi  Bi103  1  0.72086262  0.49644802  0.48801098  1
  Bi  Bi104  1  0.50675071  0.24583035  0.00480236  1
  Bi  Bi105  1  0.27447574  0.71321920  0.01668306  1
  Bi  Bi106  1  0.03265936  0.72213879  -0.03387113  1
  Bi  Bi107  1  0.74058567  0.25547409  0.52642364  1
  Bi  Bi108  1  0.23993705  0.71226725  0.78789215  1
  Bi  Bi109  1  0.50541810  0.74691961  -0.00671142  1
  Bi  Bi110  1  0.51346847  -0.00527497  0.01849508  1
  Bi  Bi111  1  0.48214207  0.47406314  0.23915357  1
  Bi  Bi112  1  0.52205430  -0.00908732  0.26345190  1
  Bi  Bi113  1  0.02589857  0.76278157  0.47457713  1
  Bi  Bi114  1  0.26270973  0.00968086  0.26939806  1
  Bi  Bi115  1  0.76845828  0.01740115  0.25756038  1
  Bi  Bi116  1  0.75601701  -0.02924435  0.02195058  1
  Bi  Bi117  1  0.26368136  0.24504825  0.28423876  1
  Bi  Bi118  1  0.24928668  0.72428455  0.25621330  1
  Bi  Bi119  1  0.23014772  0.25974283  0.74761096  1
  Bi  Bi120  1  0.75767710  0.52353248  0.72943137  1
  Bi  Bi121  1  0.27121383  0.72455085  0.49675781  1
  Bi  Bi122  1  0.75012759  0.51559708  0.26611436  1
  Bi  Bi123  1  0.49986348  0.24477902  0.49114413  1
  Bi  Bi124  1  0.25006843  0.22839881  -0.01528218  1
  O  O125  1  0.10840415  0.17302147  -0.00600642  1
  O  O126  1  0.12644462  0.09831187  0.23108261  1
  O  O127  1  0.09175601  0.12699883  0.49881064  1
  O  O128  1  0.15798353  0.11217708  0.76148027  1
  O  O129  1  0.10274364  0.38363941  0.01363794  1
  O  O130  1  0.11104342  0.41202555  0.25047928  1
  O  O131  1  0.11752514  0.34503078  0.49216709  1
  O  O132  1  0.15335859  0.37514090  0.72992410  1
  O  O133  1  0.11561399  0.61804000  0.00305966  1
  O  O134  1  0.13228851  0.63725994  0.25372528  1
  O  O135  1  0.09231974  0.63858072  0.50357156  1
  O  O136  1  0.14397652  0.61860840  0.74970659  1
  O  O137  1  0.09400432  0.87505479  -0.00739540  1
  O  O138  1  0.13496491  0.90856770  0.23482461  1
  O  O139  1  0.10306819  0.87770539  0.50543189  1
  O  O140  1  0.12127703  0.88830089  0.75366093  1
  O  O141  1  0.41165586  0.11045180  -0.00622548  1
  O  O142  1  0.36507909  0.14654156  0.24081334  1
  O  O143  1  0.36758138  0.11035263  0.49871305  1
  O  O144  1  0.34930777  0.13428355  0.75852942  1
  O  O145  1  0.38993533  0.39894721  -0.00081464  1
  O  O146  1  0.40754337  0.35795076  0.25029392  1
  O  O147  1  0.41979221  0.38715401  0.50982551  1
  O  O148  1  0.36470719  0.35085752  0.74314924  1
  O  O149  1  0.37937164  0.60701922  0.00148195  1
  O  O150  1  0.38779221  0.67913669  0.25940529  1
  O  O151  1  0.36878206  0.61960547  0.48835336  1
  O  O152  1  0.37597583  0.64854343  0.75872234  1
  O  O153  1  0.39392249  0.89949619  -0.00377211  1
  O  O154  1  0.35638215  0.85918938  0.23224931  1
  O  O155  1  0.39387024  0.92531014  0.48524349  1
  O  O156  1  0.36971516  0.84163172  0.76348399  1
  O  O157  1  0.59744383  0.13567457  -0.01000939  1
  O  O158  1  0.64149281  0.10927072  0.23974469  1
  O  O159  1  0.62882962  0.14726277  0.49948824  1
  O  O160  1  0.63800193  0.08533949  0.75173357  1
  O  O161  1  0.62293234  0.34567526  -0.01115754  1
  O  O162  1  0.64378512  0.36737095  0.23317259  1
  O  O163  1  0.61138414  0.32987830  0.51946086  1
  O  O164  1  0.65335854  0.37919832  0.75300710  1
  O  O165  1  0.61800738  0.65720838  0.01188385  1
  O  O166  1  0.64048531  0.60531159  0.25489389  1
  O  O167  1  0.62404227  0.64572564  0.50021636  1
  O  O168  1  0.62949840  0.58818551  0.74200839  1
  O  O169  1  0.59683923  0.85818167  0.00649885  1
  O  O170  1  0.63782735  0.89416509  0.24887247  1
  O  O171  1  0.58433202  0.87108533  0.48682044  1
  O  O172  1  0.62253470  0.89086857  0.76039020  1
  O  O173  1  0.87139151  0.13121187  -0.00710470  1
  O  O174  1  0.85277759  0.13010362  0.24005448  1
  O  O175  1  0.89838324  0.12818002  0.48884303  1
  O  O176  1  0.85894995  0.08812896  0.74989339  1
  O  O177  1  0.88901164  0.40833875  -0.01587816  1
  O  O178  1  0.84040364  0.36584429  0.24560093  1
  O  O179  1  0.89822504  0.38275006  0.50071769  1
  O  O180  1  0.85390514  0.36182395  0.74406928  1
  O  O181  1  0.89104209  0.64474994  0.00913793  1
  O  O182  1  0.84051835  0.62071831  0.25288589  1
  O  O183  1  0.89912100  0.62488312  0.49603109  1
  O  O184  1  0.82939552  0.63934040  0.74619165  1
  O  O185  1  0.87957122  0.88114271  -0.00007178  1
  O  O186  1  0.83952522  0.87660423  0.25627611  1
  O  O187  1  0.88302403  0.87193268  0.49341806  1
  O  O188  1  0.84165763  0.88598618  0.74901546  1
  O  O189  1  -0.00700594  0.11219542  0.12640569  1
  O  O190  1  -0.01136524  0.14618039  0.34347599  1
  O  O191  1  -0.00469683  0.13728995  0.64591271  1
  O  O192  1  0.00386113  0.14252747  0.84917478  1
  O  O193  1  -0.01287584  0.39222228  0.13733179  1
  O  O194  1  -0.00557925  0.36291730  0.35223313  1
  O  O195  1  0.00275192  0.35994920  0.63132425  1
  O  O196  1  -0.01914553  0.33264670  0.86458759  1
  O  O197  1  -0.00606303  0.61762783  0.15193631  1
  O  O198  1  -0.00758204  0.62562999  0.34402691  1
  O  O199  1  0.00014142  0.61148651  0.65292906  1
  O  O200  1  -0.00721973  0.66036476  0.85394781  1
  O  O201  1  0.00483692  0.90693770  0.13099445  1
  O  O202  1  -0.01019430  0.86158621  0.35542684  1
  O  O203  1  -0.01551379  0.84648105  0.63943643  1
  O  O204  1  -0.01255467  0.85224195  0.85646941  1
  O  O205  1  0.24449884  0.13844965  0.09827556  1
  O  O206  1  0.24582640  0.12128375  0.35955845  1
  O  O207  1  0.24842915  0.08991779  0.61332360  1
  O  O208  1  0.26027887  0.10466577  0.92329371  1
  O  O209  1  0.24434278  0.36579697  0.15191518  1
  O  O210  1  0.24506998  0.38427836  0.35959553  1
  O  O211  1  0.25887888  0.37698718  0.59218624  1
  O  O212  1  0.26516662  0.40035938  0.87752402  1
  O  O213  1  0.25889427  0.64041626  0.14398312  1
  O  O214  1  0.25910851  0.63673669  0.36730873  1
  O  O215  1  0.24924905  0.61961913  0.60143437  1
  O  O216  1  0.26384919  0.60595778  0.87646028  1
  O  O217  1  0.24467053  0.88234600  0.08964676  1
  O  O218  1  0.25935948  0.90770858  0.37156371  1
  O  O219  1  0.24793265  0.90691283  0.60905630  1
  O  O220  1  0.24912752  0.90387591  0.88338212  1
  O  O221  1  0.50000336  0.10435503  0.13552523  1
  O  O222  1  0.50964219  0.15644135  0.37141314  1
  O  O223  1  0.51513699  0.15280784  0.64184110  1
  O  O224  1  0.50180044  0.12905287  0.84588392  1
  O  O225  1  0.51394748  0.40611276  0.11498508  1
  O  O226  1  0.50676681  0.34157518  0.38567355  1
  O  O227  1  0.50840204  0.34899430  0.65826095  1
  O  O228  1  0.50713734  0.35341829  0.85743173  1
  O  O229  1  0.50686259  0.59131455  0.12560911  1
  O  O230  1  0.50158933  0.64109130  0.37458538  1
  O  O231  1  0.50351044  0.62623971  0.63192064  1
  O  O232  1  0.49878560  0.65500966  0.87448697  1
  O  O233  1  0.49468433  0.89833148  0.14108832  1
  O  O234  1  0.49657125  0.86525634  0.33150381  1
  O  O235  1  0.49497593  0.85213984  0.62354904  1
  O  O236  1  0.49550976  0.83741905  0.87254515  1
  O  O237  1  0.74136987  0.15066921  0.09904328  1
  O  O238  1  0.75405323  0.10209873  0.38042078  1
  O  O239  1  0.74509572  0.08578512  0.61341699  1
  O  O240  1  0.73889915  0.08809196  0.89227472  1
  O  O241  1  0.75191614  0.36325010  0.09132533  1
  O  O242  1  0.75874695  0.39995950  0.39027950  1
  O  O243  1  0.75112597  0.37924738  0.59866174  1
  O  O244  1  0.76244876  0.38548243  0.88225225  1
  O  O245  1  0.74769464  0.65373274  0.11812716  1
  O  O246  1  0.75222121  0.59056948  0.38770110  1
  O  O247  1  0.73843838  0.59257212  0.61267379  1
  O  O248  1  0.75119107  0.60701611  0.90861676  1
  O  O249  1  0.73550923  0.85825785  0.10689005  1
  O  O250  1  0.73900421  0.87577982  0.40769032  1
  O  O251  1  0.74392688  0.90531995  0.61165205  1
  O  O252  1  0.74031842  0.89305290  0.89721148  1
  O  O253  1  0.13169962  0.01672707  0.07720525  1
  O  O254  1  0.09576902  0.00238747  0.37679419  1
  O  O255  1  0.08673580  -0.00539209  0.62336444  1
  O  O256  1  0.10067866  0.00617189  0.89183270  1
  O  O257  1  0.11058303  0.25505002  0.14808533  1
  O  O258  1  0.12609103  0.25513032  0.33733588  1
  O  O259  1  0.14427122  0.24588689  0.63157659  1
  O  O260  1  0.15834505  0.24452701  0.86670834  1
  O  O261  1  0.15102916  0.49805657  0.12049146  1
  O  O262  1  0.10417609  0.49384643  0.39472899  1
  O  O263  1  0.13395021  0.48908592  0.59831066  1
  O  O264  1  0.11388192  0.49284148  0.85831307  1
  O  O265  1  0.11604680  0.76054596  0.12922473  1
  O  O266  1  0.12427162  0.75589982  0.38102795  1
  O  O267  1  0.13856651  0.76460159  0.64076690  1
  O  O268  1  0.13732532  0.76534330  0.87460583  1
  O  O269  1  0.34776779  0.00827611  0.12310368  1
  O  O270  1  0.39256065  0.00320619  0.33093074  1
  O  O271  1  0.39338478  -0.00289228  0.63938033  1
  O  O272  1  0.39197100  -0.00330382  0.85239714  1
  O  O273  1  0.38997799  0.24213157  0.09408643  1
  O  O274  1  0.34826021  0.25003760  0.39709361  1
  O  O275  1  0.36340372  0.24692742  0.60425148  1
  O  O276  1  0.37082074  0.25102598  0.89114137  1
  O  O277  1  0.37351973  0.49739776  0.15531207  1
  O  O278  1  0.38631776  0.50585472  0.34743087  1
  O  O279  1  0.37302729  0.49506028  0.63322839  1
  O  O280  1  0.41033387  0.49640711  0.85765852  1
  O  O281  1  0.37977524  0.75969844  0.09555503  1
  O  O282  1  0.37710799  0.77186070  0.41370934  1
  O  O283  1  0.36636860  0.75225414  0.59249431  1
  O  O284  1  0.34728326  0.75504048  0.90579732  1
  O  O285  1  0.63545116  0.00534841  0.10101828  1
  O  O286  1  0.60677166  0.00653564  0.37749911  1
  O  O287  1  0.59789753  0.00431607  0.60095943  1
  O  O288  1  0.58686656  -0.01082964  0.89052679  1
  O  O289  1  0.59459854  0.24957197  0.11901675  1
  O  O290  1  0.65226033  0.23822526  0.35036800  1
  O  O291  1  0.67200285  0.23998613  0.65056563  1
  O  O292  1  0.65257406  0.23845912  0.85298160  1
  O  O293  1  0.65448666  0.50309215  0.10955443  1
  O  O294  1  0.60598390  0.50640842  0.40789875  1
  O  O295  1  0.59413444  0.47508015  0.59934388  1
  O  O296  1  0.62338041  0.49079859  0.90148675  1
  O  O297  1  0.57989387  0.75208939  0.15759092  1
  O  O298  1  0.63715004  0.74732889  0.36408758  1
  O  O299  1  0.63775835  0.74592075  0.64447761  1
  O  O300  1  0.65242302  0.74950013  0.86586879  1
  O  O301  1  0.84680957  0.00787069  0.12831410  1
  O  O302  1  0.88208052  0.00149811  0.35724528  1
  O  O303  1  0.89389313  -0.00906878  0.62347871  1
  O  O304  1  0.89661963  -0.00411396  0.88158554  1
  O  O305  1  0.87748040  0.25573903  0.10727484  1
  O  O306  1  0.84692962  0.25578083  0.37520180  1
  O  O307  1  0.86340819  0.24860461  0.60943117  1
  O  O308  1  0.84025102  0.22350084  0.84314910  1
  O  O309  1  0.86153071  0.50400218  0.11912417  1
  O  O310  1  0.89481394  0.49646956  0.35846704  1
  O  O311  1  0.87457834  0.49548314  0.63216644  1
  O  O312  1  0.91601969  0.50785407  0.83754792  1
  O  O313  1  0.88522325  0.74825466  0.15928368  1
  O  O314  1  0.84851937  0.74099860  0.37598100  1
  O  O315  1  0.83014601  0.75731790  0.60344405  1
  O  O316  1  0.83899062  0.75911555  0.86920324  1
