# generated using pymatgen
data_Mg32Ti42(Bi17O64)3
_symmetry_space_group_name_H-M   'P 1'
_cell_length_a   15.99567548
_cell_length_b   15.91189334
_cell_length_c   15.96519749
_cell_angle_alpha   89.87403484
_cell_angle_beta   89.90860519
_cell_angle_gamma   90.04267035
_symmetry_Int_Tables_number   1
_chemical_formula_structural   Mg32Ti42(Bi17O64)3
_chemical_formula_sum   'Mg32 Ti42 Bi51 O192'
_cell_volume   4063.46959930
_cell_formula_units_Z   1
loop_
 _symmetry_equiv_pos_site_id
 _symmetry_equiv_pos_as_xyz
  1  'x, y, z'
loop_
 _atom_site_type_symbol
 _atom_site_label
 _atom_site_symmetry_multiplicity
 _atom_site_fract_x
 _atom_site_fract_y
 _atom_site_fract_z
 _atom_site_occupancy
  Mg  Mg0  1  0.62080047  0.37486415  0.62364732  1
  Mg  Mg1  1  0.36657478  0.62852877  0.86520523  1
  Mg  Mg2  1  0.87646099  0.62610917  0.86325911  1
  Mg  Mg3  1  0.35969770  0.37926113  0.87598513  1
  Mg  Mg4  1  0.86964425  0.11789131  0.88018531  1
  Mg  Mg5  1  0.37617601  0.36569203  0.62354991  1
  Mg  Mg6  1  0.37088358  0.13558001  0.87115697  1
  Mg  Mg7  1  0.87671061  0.62775928  0.37645192  1
  Mg  Mg8  1  0.62329107  0.62695399  0.36611015  1
  Mg  Mg9  1  0.37766352  0.87063348  0.37281358  1
  Mg  Mg10  1  0.62956058  0.12809631  0.12169992  1
  Mg  Mg11  1  0.88288255  0.36435784  0.37988009  1
  Mg  Mg12  1  0.38810563  0.12375674  0.38296850  1
  Mg  Mg13  1  0.36586241  0.62438503  0.62245801  1
  Mg  Mg14  1  0.87811728  0.12527973  0.60946096  1
  Mg  Mg15  1  0.38588435  0.86777403  0.86959653  1
  Mg  Mg16  1  0.88157249  0.38596551  0.87304686  1
  Mg  Mg17  1  0.11157550  0.37403996  0.12677638  1
  Mg  Mg18  1  0.36841978  0.12691764  0.11789957  1
  Mg  Mg19  1  0.69789573  0.74901975  0.22985675  1
  Mg  Mg20  1  -0.00233061  0.21343993  0.22631885  1
  Mg  Mg21  1  0.74167725  0.51562289  -0.05857461  1
  Mg  Mg22  1  -0.05798333  -0.00169958  0.72184730  1
  Mg  Mg23  1  0.68804642  0.18334186  0.51282854  1
  Mg  Mg24  1  0.49522584  0.70388384  0.71022424  1
  Mg  Mg25  1  0.29855988  0.76847403  0.72607647  1
  Mg  Mg26  1  0.00168432  0.80705038  0.23552173  1
  Mg  Mg27  1  -0.04763478  0.75307348  -0.03923168  1
  Mg  Mg28  1  0.24531947  0.45780832  0.68792592  1
  Mg  Mg29  1  0.73278140  0.24342211  0.67731480  1
  Mg  Mg30  1  0.55334350  0.21783493  0.70816418  1
  Mg  Mg31  1  0.52632188  0.03870264  0.56318908  1
  Ti  Ti32  1  0.87119119  0.87272242  0.12378930  1
  Ti  Ti33  1  0.86888157  0.11833516  0.12263293  1
  Ti  Ti34  1  0.12068176  0.88033103  0.63513078  1
  Ti  Ti35  1  0.38074163  0.35904227  0.36794562  1
  Ti  Ti36  1  0.88022805  0.39823573  0.12484350  1
  Ti  Ti37  1  0.86517550  0.87505150  0.61009842  1
  Ti  Ti38  1  0.62769492  0.35763602  0.37410217  1
  Ti  Ti39  1  0.62263560  0.37504124  0.87020448  1
  Ti  Ti40  1  0.36180788  0.87202248  0.12289053  1
  Ti  Ti41  1  0.12344350  0.87321163  0.12195877  1
  Ti  Ti42  1  0.87463973  0.36834134  0.62691743  1
  Ti  Ti43  1  0.87056255  0.64952869  0.14274095  1
  Ti  Ti44  1  0.86536016  0.88239222  0.87347663  1
  Ti  Ti45  1  0.62899431  0.61788613  0.62356152  1
  Ti  Ti46  1  0.86861579  0.13046397  0.38022930  1
  Ti  Ti47  1  0.62429339  0.61068658  0.12242045  1
  Ti  Ti48  1  0.14057288  0.64150660  0.64459781  1
  Ti  Ti49  1  0.11894653  0.38750537  0.88733777  1
  Ti  Ti50  1  0.63155357  0.14381540  0.87768046  1
  Ti  Ti51  1  0.11753249  0.36785041  0.36955280  1
  Ti  Ti52  1  0.13088849  0.12164271  0.86592470  1
  Ti  Ti53  1  0.62000983  0.62648816  0.86156556  1
  Ti  Ti54  1  0.63026755  0.87106475  0.63709195  1
  Ti  Ti55  1  0.11390046  0.87460632  0.87092570  1
  Ti  Ti56  1  0.61712336  0.87038890  0.37163290  1
  Ti  Ti57  1  0.12082663  0.13233563  0.37837937  1
  Ti  Ti58  1  0.12209286  0.88242374  0.37270987  1
  Ti  Ti59  1  0.13008337  0.10979296  0.63100987  1
  Ti  Ti60  1  0.39657393  0.88216691  0.62760918  1
  Ti  Ti61  1  0.38099653  0.63303020  0.38013065  1
  Ti  Ti62  1  0.87732868  0.62329948  0.62551983  1
  Ti  Ti63  1  0.37155660  0.13015937  0.63038233  1
  Ti  Ti64  1  0.63180242  0.37715733  0.11860008  1
  Ti  Ti65  1  0.11925555  0.63849610  0.87204690  1
  Ti  Ti66  1  0.61645678  0.87716690  0.12208890  1
  Ti  Ti67  1  0.36914580  0.62379328  0.12578260  1
  Ti  Ti68  1  0.61937793  0.87303402  0.87308985  1
  Ti  Ti69  1  0.61652535  0.11971275  0.36241216  1
  Ti  Ti70  1  0.36880528  0.37706695  0.12658015  1
  Ti  Ti71  1  0.87191140  0.87148357  0.37120763  1
  Ti  Ti72  1  0.12515348  0.11633087  0.12249142  1
  Ti  Ti73  1  0.11840155  0.63603129  0.12521527  1
  Bi  Bi74  1  0.48724476  0.01572111  0.01612093  1
  Bi  Bi75  1  0.75059598  0.46770739  0.73204797  1
  Bi  Bi76  1  0.24444129  0.78535791  0.50536248  1
  Bi  Bi77  1  0.22014974  0.27404996  0.72952191  1
  Bi  Bi78  1  0.50412113  0.49094502  0.48339389  1
  Bi  Bi79  1  0.50575743  0.49386875  0.25514460  1
  Bi  Bi80  1  0.26083583  0.01271607  0.27660438  1
  Bi  Bi81  1  0.50309732  0.26689239  0.52577141  1
  Bi  Bi82  1  0.73735580  0.04924807  0.71689728  1
  Bi  Bi83  1  0.76948993  0.50091496  0.28119895  1
  Bi  Bi84  1  0.23139690  0.52021505  -0.00999224  1
  Bi  Bi85  1  0.73093787  0.74388159  0.01148892  1
  Bi  Bi86  1  0.73500742  -0.00211879  0.24865916  1
  Bi  Bi87  1  0.23624015  -0.00879121  -0.00820603  1
  Bi  Bi88  1  0.25821445  0.75998595  -0.04013769  1
  Bi  Bi89  1  0.77958072  0.49105393  0.49159486  1
  Bi  Bi90  1  0.50546856  0.73047483  0.51414395  1
  Bi  Bi91  1  -0.01453701  0.01162902  0.26073255  1
  Bi  Bi92  1  0.02502969  0.26847279  0.53656915  1
  Bi  Bi93  1  -0.01902497  0.77238199  0.73229754  1
  Bi  Bi94  1  0.72583689  0.00725059  -0.00556695  1
  Bi  Bi95  1  -0.00575373  0.00858848  0.49703890  1
  Bi  Bi96  1  0.47077264  0.25825763  -0.01112704  1
  Bi  Bi97  1  -0.00338474  0.00988169  -0.00504130  1
  Bi  Bi98  1  0.21608474  0.71698595  0.27706591  1
  Bi  Bi99  1  0.24887205  0.26557273  0.50422714  1
  Bi  Bi100  1  0.23533130  0.50010823  0.22935563  1
  Bi  Bi101  1  0.03812131  0.48161935  0.71547543  1
  Bi  Bi102  1  0.03579449  0.52678708  0.49419849  1
  Bi  Bi103  1  -0.03369000  0.53920425  0.00176760  1
  Bi  Bi104  1  0.28959628  0.00636159  0.49485274  1
  Bi  Bi105  1  0.22527589  0.24481068  0.22789543  1
  Bi  Bi106  1  0.51346481  0.26325657  0.22343093  1
  Bi  Bi107  1  0.00625771  0.51994130  0.25377569  1
  Bi  Bi108  1  -0.02546271  0.21020874  0.74855901  1
  Bi  Bi109  1  0.76934858  0.27594580  -0.01705398  1
  Bi  Bi110  1  0.48350740  0.74152189  0.25839557  1
  Bi  Bi111  1  0.02665251  0.73903116  0.47146962  1
  Bi  Bi112  1  0.50371512  0.01897405  0.77302106  1
  Bi  Bi113  1  0.47744267  0.00716157  0.24763931  1
  Bi  Bi114  1  0.48264768  0.73699330  0.00849641  1
  Bi  Bi115  1  0.77514174  0.26261429  0.23499342  1
  Bi  Bi116  1  0.23430080  0.26303386  -0.01299510  1
  Bi  Bi117  1  0.25523492  0.50940595  0.46639516  1
  Bi  Bi118  1  0.44455704  0.48886265  0.74335212  1
  Bi  Bi119  1  0.74913627  0.72667159  0.47212340  1
  Bi  Bi120  1  0.49439635  0.49223209  -0.02944846  1
  Bi  Bi121  1  -0.00961020  0.25249610  -0.02820324  1
  Bi  Bi122  1  0.72164275  -0.00995244  0.49747959  1
  Bi  Bi123  1  0.27967384  -0.00347694  0.76256557  1
  Bi  Bi124  1  0.75699043  0.73042436  0.76520659  1
  O  O125  1  0.10215806  0.12950623  0.00831037  1
  O  O126  1  0.15776267  0.11169082  0.25428048  1
  O  O127  1  0.09665168  0.13897979  0.49822167  1
  O  O128  1  0.14845731  0.10509905  0.75158323  1
  O  O129  1  0.10795483  0.34214424  0.00247077  1
  O  O130  1  0.15246093  0.38726201  0.25521177  1
  O  O131  1  0.12554893  0.34156474  0.49156591  1
  O  O132  1  0.15367420  0.39362017  0.76559956  1
  O  O133  1  0.13631305  0.63789785  0.01193035  1
  O  O134  1  0.13314748  0.60104422  0.24873027  1
  O  O135  1  0.12394800  0.63408353  0.52210499  1
  O  O136  1  0.10073252  0.61608492  0.75969118  1
  O  O137  1  0.12775126  0.86346060  0.00906924  1
  O  O138  1  0.12698682  0.88543872  0.25972099  1
  O  O139  1  0.11674551  0.85571512  0.51149250  1
  O  O140  1  0.12534549  0.89096115  0.75785744  1
  O  O141  1  0.41080683  0.12867146  -0.00550644  1
  O  O142  1  0.36379588  0.09679199  0.24283305  1
  O  O143  1  0.40391978  0.08962265  0.51158555  1
  O  O144  1  0.33871134  0.13167184  0.74491683  1
  O  O145  1  0.40243492  0.38503766  0.01144982  1
  O  O146  1  0.35399690  0.37707023  0.25235046  1
  O  O147  1  0.41757011  0.37868181  0.49256108  1
  O  O148  1  0.33998021  0.38798862  0.75106504  1
  O  O149  1  0.36854864  0.64647273  0.00438895  1
  O  O150  1  0.41071855  0.61863961  0.24132318  1
  O  O151  1  0.36569190  0.64954243  0.49414838  1
  O  O152  1  0.40671446  0.62049607  0.74646852  1
  O  O153  1  0.37609081  0.84010252  -0.00196076  1
  O  O154  1  0.38123434  0.89347315  0.23843914  1
  O  O155  1  0.36371721  0.87056618  0.51059172  1
  O  O156  1  0.36350966  0.88128023  0.74463145  1
  O  O157  1  0.61211838  0.09985472  -0.00640972  1
  O  O158  1  0.66297111  0.12619189  0.25245195  1
  O  O159  1  0.61147001  0.08599801  0.48307026  1
  O  O160  1  0.66309005  0.16647352  0.75731030  1
  O  O161  1  0.60917105  0.40028673  0.01126028  1
  O  O162  1  0.63887173  0.34261032  0.25551473  1
  O  O163  1  0.59165022  0.37984454  0.49330082  1
  O  O164  1  0.64215323  0.36013668  0.75992215  1
  O  O165  1  0.67622674  0.60855290  0.00884072  1
  O  O166  1  0.60996251  0.65124175  0.23682119  1
  O  O167  1  0.62731277  0.64487637  0.50411026  1
  O  O168  1  0.59940351  0.64143989  0.74876305  1
  O  O169  1  0.63975457  0.88801593  -0.00373769  1
  O  O170  1  0.62821940  0.85595982  0.23877438  1
  O  O171  1  0.62967559  0.88370952  0.48923487  1
  O  O172  1  0.63772385  0.86769449  0.75033994  1
  O  O173  1  0.90649049  0.12420654  0.00945429  1
  O  O174  1  0.86200480  0.08987629  0.25453475  1
  O  O175  1  0.91499302  0.12981294  0.48955857  1
  O  O176  1  0.87492932  0.11013145  0.75386310  1
  O  O177  1  0.89067246  0.35208985  0.01404738  1
  O  O178  1  0.84667487  0.38488921  0.24568038  1
  O  O179  1  0.86845541  0.38025911  0.50802148  1
  O  O180  1  0.87075397  0.39703284  0.74810388  1
  O  O181  1  0.88828838  0.65576989  0.02288852  1
  O  O182  1  0.88174327  0.59200348  0.25178452  1
  O  O183  1  0.85292850  0.62535663  0.50817301  1
  O  O184  1  0.87828035  0.65237580  0.74248944  1
  O  O185  1  0.88473829  0.85125659  0.00966226  1
  O  O186  1  0.88821233  0.89151983  0.25565875  1
  O  O187  1  0.88866544  0.88378713  0.49909429  1
  O  O188  1  0.87740777  0.88415555  0.75583512  1
  O  O189  1  0.00425702  0.10700953  0.15274728  1
  O  O190  1  0.00953601  0.14112687  0.33165752  1
  O  O191  1  0.00361105  0.10111796  0.65450272  1
  O  O192  1  0.01060613  0.13917997  0.86673340  1
  O  O193  1  -0.00785421  0.41224446  0.15244021  1
  O  O194  1  0.00767634  0.37078155  0.36101282  1
  O  O195  1  -0.00520661  0.38947940  0.61846527  1
  O  O196  1  0.00748723  0.35524008  0.86712328  1
  O  O197  1  0.00570176  0.60335581  0.13889463  1
  O  O198  1  -0.00019300  0.61930157  0.39881011  1
  O  O199  1  -0.01040271  0.59283891  0.62423456  1
  O  O200  1  0.00011278  0.64646159  0.90217266  1
  O  O201  1  0.00798543  0.89017015  0.13744255  1
  O  O202  1  0.00328963  0.84023447  0.36517062  1
  O  O203  1  -0.00373087  0.89704227  0.64753699  1
  O  O204  1  0.00217271  0.84719802  0.88455659  1
  O  O205  1  0.24194482  0.15190666  0.11342051  1
  O  O206  1  0.24299287  0.09895955  0.39174104  1
  O  O207  1  0.24066841  0.13652201  0.59699182  1
  O  O208  1  0.24571202  0.09951172  0.90097582  1
  O  O209  1  0.25666941  0.34712573  0.11160641  1
  O  O210  1  0.26665063  0.38534517  0.40815548  1
  O  O211  1  0.24772374  0.35192108  0.61308517  1
  O  O212  1  0.24071735  0.38846279  0.91974900  1
  O  O213  1  0.25741248  0.63954264  0.14621178  1
  O  O214  1  0.26586287  0.60150188  0.35622077  1
  O  O215  1  0.24878003  0.66731004  0.65891831  1
  O  O216  1  0.23619866  0.60967869  0.88087019  1
  O  O217  1  0.25032626  0.85540667  0.12890630  1
  O  O218  1  0.24173379  0.88485446  0.39757882  1
  O  O219  1  0.23781370  0.84642345  0.63248109  1
  O  O220  1  0.24579445  0.89248270  0.89172974  1
  O  O221  1  0.50302549  0.08891448  0.13476237  1
  O  O222  1  0.50671876  0.12472448  0.33914141  1
  O  O223  1  0.49010348  0.12202810  0.65237270  1
  O  O224  1  0.51446065  0.14495582  0.83026030  1
  O  O225  1  0.50169302  0.38677200  0.15860165  1
  O  O226  1  0.49972809  0.36360653  0.33731372  1
  O  O227  1  0.49895792  0.33612876  0.64650247  1
  O  O228  1  0.50515082  0.37894019  0.87549324  1
  O  O229  1  0.51311455  0.61003205  0.09354410  1
  O  O230  1  0.50047818  0.65444673  0.38195800  1
  O  O231  1  0.50089105  0.62391930  0.60381341  1
  O  O232  1  0.51230178  0.63651260  0.90283463  1
  O  O233  1  0.50496253  0.89635734  0.11843709  1
  O  O234  1  0.50559742  0.85100840  0.37180406  1
  O  O235  1  0.50430980  0.91842309  0.61790315  1
  O  O236  1  0.51072843  0.85180937  0.87764986  1
  O  O237  1  0.75867555  0.13701792  0.10231608  1
  O  O238  1  0.75833582  0.11460556  0.41071076  1
  O  O239  1  0.75560414  0.13574714  0.61002022  1
  O  O240  1  0.74448013  0.10823807  0.89321259  1
  O  O241  1  0.74868679  0.35548435  0.11253247  1
  O  O242  1  0.73662202  0.39288830  0.38403482  1
  O  O243  1  0.74951395  0.36594210  0.63582606  1
  O  O244  1  0.74694495  0.38923809  0.90587634  1
  O  O245  1  0.75619175  0.66334198  0.15130432  1
  O  O246  1  0.74648410  0.61002643  0.38162436  1
  O  O247  1  0.73962766  0.65220357  0.64142576  1
  O  O248  1  0.74618516  0.61414014  0.84551724  1
  O  O249  1  0.75949160  0.84419828  0.13422046  1
  O  O250  1  0.76064724  0.90611145  0.37552041  1
  O  O251  1  0.74825860  0.85434324  0.61321663  1
  O  O252  1  0.75552230  0.90578886  0.88340664  1
  O  O253  1  0.14254760  -0.00180927  0.11771021  1
  O  O254  1  0.09408349  -0.00067006  0.39292403  1
  O  O255  1  0.13884912  -0.00490346  0.60931628  1
  O  O256  1  0.10879170  -0.00261813  0.90259940  1
  O  O257  1  0.10358203  0.24536831  0.16346550  1
  O  O258  1  0.14975921  0.24641334  0.36001151  1
  O  O259  1  0.10377143  0.23622137  0.64893880  1
  O  O260  1  0.15197821  0.24135339  0.86505803  1
  O  O261  1  0.15241253  0.50096845  0.11615420  1
  O  O262  1  0.13469305  0.48740680  0.40276110  1
  O  O263  1  0.14462095  0.51408028  0.63489279  1
  O  O264  1  0.11069909  0.50080038  0.91019408  1
  O  O265  1  0.10745071  0.74966032  0.16302402  1
  O  O266  1  0.13942958  0.75313766  0.38727616  1
  O  O267  1  0.09029830  0.75151608  0.64461215  1
  O  O268  1  0.14160178  0.75272504  0.86737912  1
  O  O269  1  0.36127784  -0.01088097  0.08741287  1
  O  O270  1  0.37069316  -0.00414382  0.37567629  1
  O  O271  1  0.34860705  0.00051597  0.63772008  1
  O  O272  1  0.39271142  0.00426611  0.85751732  1
  O  O273  1  0.40521607  0.25492884  0.12139464  1
  O  O274  1  0.36774821  0.24792829  0.38418433  1
  O  O275  1  0.37089059  0.24071016  0.59247787  1
  O  O276  1  0.36013294  0.25711359  0.90407685  1
  O  O277  1  0.35862462  0.50177658  0.12488980  1
  O  O278  1  0.40095620  0.50650520  0.38566723  1
  O  O279  1  0.35365100  0.49808646  0.62750484  1
  O  O280  1  0.39112321  0.50375039  0.87478082  1
  O  O281  1  0.40594316  0.74761930  0.13502002  1
  O  O282  1  0.35926810  0.74651587  0.34216363  1
  O  O283  1  0.40373410  0.76252707  0.64234711  1
  O  O284  1  0.33696473  0.74961941  0.84795464  1
  O  O285  1  0.65491947  -0.00789455  0.13021612  1
  O  O286  1  0.62401140  -0.00675566  0.34172776  1
  O  O287  1  0.64269717  -0.00402510  0.62483997  1
  O  O288  1  0.60836953  -0.00142592  0.85908551  1
  O  O289  1  0.60171866  0.25626399  0.11509266  1
  O  O290  1  0.63292230  0.23872327  0.40226043  1
  O  O291  1  0.62707123  0.24561627  0.60284679  1
  O  O292  1  0.63501540  0.25648521  0.90789716  1
  O  O293  1  0.63304045  0.49833848  0.15961441  1
  O  O294  1  0.59400213  0.49619068  0.36731431  1
  O  O295  1  0.63898893  0.50424747  0.62875513  1
  O  O296  1  0.62423393  0.50426139  0.87472340  1
  O  O297  1  0.61862627  0.75148793  0.09446274  1
  O  O298  1  0.66289290  0.75769518  0.36378427  1
  O  O299  1  0.58619475  0.76177199  0.62827448  1
  O  O300  1  0.65350894  0.74857562  0.88525234  1
  O  O301  1  0.86171578  -0.00744343  0.11329889  1
  O  O302  1  0.91237089  0.00177421  0.38578262  1
  O  O303  1  0.85478943  -0.00443729  0.62625783  1
  O  O304  1  0.90805058  -0.00575445  0.88919986  1
  O  O305  1  0.89249460  0.23604089  0.15892153  1
  O  O306  1  0.86268369  0.24270206  0.34990852  1
  O  O307  1  0.87806894  0.25186827  0.64185538  1
  O  O308  1  0.87109875  0.24968747  0.88456475  1
  O  O309  1  0.85876888  0.50650679  0.10060749  1
  O  O310  1  0.86641089  0.49405319  0.38182420  1
  O  O311  1  0.84094195  0.50816623  0.62932229  1
  O  O312  1  0.86882081  0.51020470  0.90950362  1
  O  O313  1  0.90879630  0.75292079  0.16814385  1
  O  O314  1  0.85528791  0.75526687  0.38074357  1
  O  O315  1  0.89787009  0.75680325  0.62094230  1
  O  O316  1  0.85474291  0.75640998  0.87334526  1
