# generated using pymatgen
data_Mg32Ti42(Bi17O64)3
_symmetry_space_group_name_H-M   'P 1'
_cell_length_a   15.96380908
_cell_length_b   15.95515698
_cell_length_c   15.94379177
_cell_angle_alpha   89.99820545
_cell_angle_beta   89.89259839
_cell_angle_gamma   89.96160758
_symmetry_Int_Tables_number   1
_chemical_formula_structural   Mg32Ti42(Bi17O64)3
_chemical_formula_sum   'Mg32 Ti42 Bi51 O192'
_cell_volume   4060.95670892
_cell_formula_units_Z   1
loop_
 _symmetry_equiv_pos_site_id
 _symmetry_equiv_pos_as_xyz
  1  'x, y, z'
loop_
 _atom_site_type_symbol
 _atom_site_label
 _atom_site_symmetry_multiplicity
 _atom_site_fract_x
 _atom_site_fract_y
 _atom_site_fract_z
 _atom_site_occupancy
  Mg  Mg0  1  0.12187961  0.12288567  0.37294514  1
  Mg  Mg1  1  0.36761818  0.87977885  0.86971998  1
  Mg  Mg2  1  0.13132490  0.86456305  0.12831704  1
  Mg  Mg3  1  0.12889417  0.37767848  0.38285384  1
  Mg  Mg4  1  0.87394667  0.62198522  0.87258281  1
  Mg  Mg5  1  0.62424356  0.88103668  0.36873287  1
  Mg  Mg6  1  0.11699944  0.87098390  0.37847283  1
  Mg  Mg7  1  0.87082094  0.86242325  0.37589205  1
  Mg  Mg8  1  0.87252136  0.12061407  0.62440503  1
  Mg  Mg9  1  0.11685764  0.11168048  0.11940436  1
  Mg  Mg10  1  0.37900363  0.11563642  0.12418808  1
  Mg  Mg11  1  0.86319727  0.61734958  0.62200309  1
  Mg  Mg12  1  0.88493263  0.37526927  0.87194120  1
  Mg  Mg13  1  0.87766657  0.11111957  0.87845492  1
  Mg  Mg14  1  0.63953471  0.86994434  0.61939533  1
  Mg  Mg15  1  0.63172471  0.61885582  0.37425083  1
  Mg  Mg16  1  0.86265564  0.37193840  0.38173273  1
  Mg  Mg17  1  0.11654186  0.37334959  0.11789354  1
  Mg  Mg18  1  0.37200566  0.11430646  0.62921326  1
  Mg  Mg19  1  0.19786004  0.77777856  0.75429383  1
  Mg  Mg20  1  -0.06060887  0.76445576  0.19319088  1
  Mg  Mg21  1  0.68919952  0.23925758  0.26185909  1
  Mg  Mg22  1  0.80565647  -0.01078539  0.05199348  1
  Mg  Mg23  1  0.22665037  -0.01954878  0.71811899  1
  Mg  Mg24  1  0.79825177  -0.05170998  0.23882692  1
  Mg  Mg25  1  0.74663497  0.49398246  0.48571936  1
  Mg  Mg26  1  0.24817568  0.18587549  0.75145693  1
  Mg  Mg27  1  -0.05295615  0.73764046  0.72357130  1
  Mg  Mg28  1  0.73365280  0.79146552  0.48044198  1
  Mg  Mg29  1  0.75480868  -0.01602738  0.44280873  1
  Mg  Mg30  1  0.00292037  -0.06606627  0.02286323  1
  Mg  Mg31  1  0.79707628  0.23838846  -0.03422792  1
  Ti  Ti32  1  0.63119018  0.12920787  0.63730750  1
  Ti  Ti33  1  0.86548145  0.12976735  0.12127269  1
  Ti  Ti34  1  0.36728507  0.12424368  0.37134594  1
  Ti  Ti35  1  0.11267688  0.87836674  0.62321189  1
  Ti  Ti36  1  0.36751851  0.38213060  0.61657525  1
  Ti  Ti37  1  0.37837550  0.62188957  0.38088875  1
  Ti  Ti38  1  0.39076776  0.62721267  0.86269595  1
  Ti  Ti39  1  0.86920397  0.37517559  0.62144144  1
  Ti  Ti40  1  0.37527800  0.63923986  0.62348582  1
  Ti  Ti41  1  0.11858381  0.64333628  0.63347009  1
  Ti  Ti42  1  0.11175661  0.62938589  0.12203091  1
  Ti  Ti43  1  0.37841952  0.37380235  0.11672759  1
  Ti  Ti44  1  0.12351649  0.63663021  0.86390207  1
  Ti  Ti45  1  0.63668935  0.14042303  0.87456181  1
  Ti  Ti46  1  0.37145251  0.11447064  0.87586949  1
  Ti  Ti47  1  0.61801216  0.37357479  0.62095402  1
  Ti  Ti48  1  0.86172321  0.87737592  0.61928954  1
  Ti  Ti49  1  0.37653872  0.88640746  0.11958350  1
  Ti  Ti50  1  0.63346305  0.13953678  0.11984924  1
  Ti  Ti51  1  0.86240687  0.62585326  0.36649626  1
  Ti  Ti52  1  0.37473343  0.36823204  0.37663885  1
  Ti  Ti53  1  0.60517898  0.37801139  0.87687707  1
  Ti  Ti54  1  0.36205909  0.87658177  0.63499926  1
  Ti  Ti55  1  0.64064451  0.62185041  0.13007480  1
  Ti  Ti56  1  0.61639933  0.89022484  0.13183941  1
  Ti  Ti57  1  0.12212020  0.11774023  0.62214081  1
  Ti  Ti58  1  0.86783072  0.36369559  0.11431092  1
  Ti  Ti59  1  0.86754765  0.61340035  0.12229667  1
  Ti  Ti60  1  0.62574738  0.12962732  0.38556069  1
  Ti  Ti61  1  0.63258109  0.63053719  0.60940623  1
  Ti  Ti62  1  0.62275746  0.37474710  0.11582219  1
  Ti  Ti63  1  0.85955684  0.13559770  0.35232421  1
  Ti  Ti64  1  0.13309448  0.36493991  0.87309237  1
  Ti  Ti65  1  0.12121383  0.35622538  0.62962788  1
  Ti  Ti66  1  0.88698005  0.87148012  0.87605760  1
  Ti  Ti67  1  0.13034731  0.10580009  0.87178405  1
  Ti  Ti68  1  0.12088185  0.87673840  0.87434708  1
  Ti  Ti69  1  0.10719778  0.63572255  0.37136495  1
  Ti  Ti70  1  0.36638746  0.37454926  0.87441104  1
  Ti  Ti71  1  0.38483029  0.88383365  0.36827518  1
  Ti  Ti72  1  0.62348077  0.37408858  0.37997331  1
  Ti  Ti73  1  0.62843316  0.61976919  0.88503634  1
  Bi  Bi74  1  0.25179918  0.22089021  0.01251185  1
  Bi  Bi75  1  -0.03447723  0.73610362  0.49351056  1
  Bi  Bi76  1  0.75926538  0.47171958  -0.03394902  1
  Bi  Bi77  1  0.75503631  0.79567289  0.02436301  1
  Bi  Bi78  1  0.23539681  0.49398607  0.73285015  1
  Bi  Bi79  1  0.21863999  0.49813159  0.22801065  1
  Bi  Bi80  1  -0.01913923  0.72853116  0.00496933  1
  Bi  Bi81  1  0.74420462  0.46747325  0.25019434  1
  Bi  Bi82  1  0.51133553  0.78183097  -0.02341990  1
  Bi  Bi83  1  -0.01742586  0.49042193  0.48265450  1
  Bi  Bi84  1  0.49518505  0.22843252  -0.01122351  1
  Bi  Bi85  1  0.74364595  0.27464386  0.76006209  1
  Bi  Bi86  1  0.00846993  0.24874417  0.46384461  1
  Bi  Bi87  1  0.23227532  -0.00622794  0.02266106  1
  Bi  Bi88  1  0.72961301  -0.03615638  0.77978835  1
  Bi  Bi89  1  0.53626237  -0.00362597  -0.02699309  1
  Bi  Bi90  1  0.50715412  0.76234273  0.75363702  1
  Bi  Bi91  1  0.01622728  0.22579037  -0.01895597  1
  Bi  Bi92  1  -0.01595632  0.46136604  0.24771119  1
  Bi  Bi93  1  0.50878425  -0.02214316  0.72779977  1
  Bi  Bi94  1  -0.04049352  0.00531831  0.47079705  1
  Bi  Bi95  1  0.72031626  0.76031920  0.26638631  1
  Bi  Bi96  1  0.23455227  0.27816844  0.24388549  1
  Bi  Bi97  1  -0.02151597  0.24323281  0.75919447  1
  Bi  Bi98  1  0.47411880  0.73704917  0.21634071  1
  Bi  Bi99  1  0.21311590  -0.00140021  0.26523465  1
  Bi  Bi100  1  0.46661749  0.25578936  0.74620321  1
  Bi  Bi101  1  0.21638529  0.52940290  0.50454202  1
  Bi  Bi102  1  0.25573377  0.71454457  0.22532334  1
  Bi  Bi103  1  0.74242515  0.73568725  0.77498664  1
  Bi  Bi104  1  -0.00997714  -0.04679623  0.23345860  1
  Bi  Bi105  1  -0.03194524  -0.00177293  0.74170703  1
  Bi  Bi106  1  0.01729455  0.23137390  0.22727788  1
  Bi  Bi107  1  0.73833068  0.50886012  0.72793460  1
  Bi  Bi108  1  0.00265587  0.49552298  0.73420299  1
  Bi  Bi109  1  0.48698982  0.22521571  0.51408505  1
  Bi  Bi110  1  0.49188830  0.50795458  0.72539629  1
  Bi  Bi111  1  0.48787186  0.53491692  0.02552837  1
  Bi  Bi112  1  0.25412965  0.76449793  0.47219391  1
  Bi  Bi113  1  0.47866651  0.24523886  0.23105052  1
  Bi  Bi114  1  0.25156547  0.23277317  0.51740013  1
  Bi  Bi115  1  0.50920306  0.49103159  0.48351316  1
  Bi  Bi116  1  0.76635201  0.22020722  0.51139449  1
  Bi  Bi117  1  0.54111260  -0.01352469  0.50576159  1
  Bi  Bi118  1  0.25318117  0.76362684  -0.01274508  1
  Bi  Bi119  1  0.01849424  0.49344885  -0.02946570  1
  Bi  Bi120  1  0.26132689  0.53158315  -0.01989321  1
  Bi  Bi121  1  0.51673095  0.02380980  0.25835707  1
  Bi  Bi122  1  0.24505923  -0.01752958  0.48846109  1
  Bi  Bi123  1  0.48018733  0.50774697  0.25026314  1
  Bi  Bi124  1  0.50654219  0.73560203  0.47222832  1
  O  O125  1  0.13599288  0.14464477  -0.00738328  1
  O  O126  1  0.11205897  0.09148072  0.24519756  1
  O  O127  1  0.14088402  0.14686066  0.50612536  1
  O  O128  1  0.15439006  0.09832636  0.75212811  1
  O  O129  1  0.10613599  0.36800370  -0.00826016  1
  O  O130  1  0.13006163  0.38349195  0.25317084  1
  O  O131  1  0.13043021  0.35342000  0.51380977  1
  O  O132  1  0.13285918  0.39994183  0.75371786  1
  O  O133  1  0.10518582  0.63505873  0.00294665  1
  O  O134  1  0.12678723  0.61206045  0.26002914  1
  O  O135  1  0.11735723  0.63282700  0.51315181  1
  O  O136  1  0.16385342  0.62843466  0.75173121  1
  O  O137  1  0.14115742  0.85187711  -0.00688184  1
  O  O138  1  0.12230432  0.89569572  0.25227501  1
  O  O139  1  0.15779671  0.86996380  0.51140136  1
  O  O140  1  0.12361791  0.89823077  0.75204602  1
  O  O141  1  0.37092884  0.14860115  -0.00309626  1
  O  O142  1  0.40662156  0.11700243  0.25429788  1
  O  O143  1  0.36054156  0.14311295  0.49560179  1
  O  O144  1  0.37253871  0.14796045  0.75670595  1
  O  O145  1  0.37098316  0.36642954  0.00368999  1
  O  O146  1  0.40704561  0.38758336  0.25919223  1
  O  O147  1  0.36463197  0.37628841  0.50153581  1
  O  O148  1  0.38085600  0.37091694  0.75354597  1
  O  O149  1  0.38513120  0.61651992  -0.01225895  1
  O  O150  1  0.37590039  0.62600297  0.26267589  1
  O  O151  1  0.40924116  0.62942203  0.50500719  1
  O  O152  1  0.36898770  0.61665531  0.74802651  1
  O  O153  1  0.36313408  0.85448095  0.00341269  1
  O  O154  1  0.39919603  0.88268098  0.25626739  1
  O  O155  1  0.34431569  0.87753768  0.51787692  1
  O  O156  1  0.41919774  0.87286504  0.75095060  1
  O  O157  1  0.62356915  0.13862548  0.00203892  1
  O  O158  1  0.59837868  0.14056017  0.25148362  1
  O  O159  1  0.64986319  0.11620071  0.49891451  1
  O  O160  1  0.61502832  0.14459656  0.75334700  1
  O  O161  1  0.62355752  0.38613605  0.00163134  1
  O  O162  1  0.64393937  0.36425576  0.25887014  1
  O  O163  1  0.63889665  0.41101951  0.50914471  1
  O  O164  1  0.62724644  0.35804081  0.75673374  1
  O  O165  1  0.61663997  0.60902011  -0.00161267  1
  O  O166  1  0.64810878  0.63436529  0.24600290  1
  O  O167  1  0.59821551  0.60763180  0.49988165  1
  O  O168  1  0.65598379  0.63079285  0.74192272  1
  O  O169  1  0.62176338  0.87339235  0.01194567  1
  O  O170  1  0.61197689  0.84737288  0.24412726  1
  O  O171  1  0.65875550  0.90429176  0.49602997  1
  O  O172  1  0.60190904  0.87585681  0.74424717  1
  O  O173  1  0.85286088  0.10296584  0.00629536  1
  O  O174  1  0.88405990  0.16582540  0.24362196  1
  O  O175  1  0.83196153  0.10075612  0.49512177  1
  O  O176  1  0.90057730  0.13280252  0.74998396  1
  O  O177  1  0.89007668  0.40133991  0.00527430  1
  O  O178  1  0.86286853  0.38336732  0.25131144  1
  O  O179  1  0.85681614  0.41928564  0.50991303  1
  O  O180  1  0.87396077  0.33794565  0.74811736  1
  O  O181  1  0.90721844  0.61080188  0.00326223  1
  O  O182  1  0.86227589  0.65292851  0.25015225  1
  O  O183  1  0.90626426  0.61299821  0.50307410  1
  O  O184  1  0.85276614  0.65602147  0.74779087  1
  O  O185  1  0.87437031  0.90446454  -0.00806617  1
  O  O186  1  0.88984603  0.85935821  0.25286457  1
  O  O187  1  0.83604557  0.89510260  0.50355536  1
  O  O188  1  0.91471806  0.85785308  0.75015710  1
  O  O189  1  -0.00998472  0.15140578  0.11350989  1
  O  O190  1  -0.01199894  0.12029338  0.39348297  1
  O  O191  1  0.00961918  0.10702371  0.61644630  1
  O  O192  1  0.01396708  0.11074715  0.88941323  1
  O  O193  1  -0.01100682  0.34964155  0.14833900  1
  O  O194  1  -0.00700715  0.37370852  0.39548307  1
  O  O195  1  0.00304820  0.38388821  0.63524231  1
  O  O196  1  0.00711459  0.40760513  0.86062157  1
  O  O197  1  -0.00021921  0.66251267  0.14127718  1
  O  O198  1  -0.00289897  0.65887026  0.37110750  1
  O  O199  1  0.00753674  0.63590189  0.66499385  1
  O  O200  1  0.01148191  0.59638508  0.85919887  1
  O  O201  1  0.00365938  0.86091143  0.12709726  1
  O  O202  1  -0.00726572  0.89362000  0.39439734  1
  O  O203  1  0.00456842  0.88990254  0.60193041  1
  O  O204  1  0.00873788  0.90047338  0.89879147  1
  O  O205  1  0.25060933  0.10803806  0.10782863  1
  O  O206  1  0.25634874  0.12966328  0.35226637  1
  O  O207  1  0.25047387  0.15612611  0.63003168  1
  O  O208  1  0.25108843  0.15741292  0.87716681  1
  O  O209  1  0.25769280  0.38479077  0.14416669  1
  O  O210  1  0.26051643  0.37907718  0.36237907  1
  O  O211  1  0.24998589  0.38026221  0.63608623  1
  O  O212  1  0.25023046  0.35226065  0.87811295  1
  O  O213  1  0.24087727  0.60784875  0.13781025  1
  O  O214  1  0.26081748  0.61849748  0.40186885  1
  O  O215  1  0.26018105  0.63312026  0.60172922  1
  O  O216  1  0.24941385  0.64400819  0.89951533  1
  O  O217  1  0.25743782  0.90466802  0.13202711  1
  O  O218  1  0.26157254  0.87910901  0.37896182  1
  O  O219  1  0.25712676  0.85743359  0.67439878  1
  O  O220  1  0.24706558  0.83408473  0.86365992  1
  O  O221  1  0.50364232  0.15757450  0.11780229  1
  O  O222  1  0.50648560  0.13247567  0.39928328  1
  O  O223  1  0.50157660  0.11957692  0.60448256  1
  O  O224  1  0.49497571  0.11385596  0.89433300  1
  O  O225  1  0.50512415  0.34719014  0.12369479  1
  O  O226  1  0.50547837  0.36519143  0.40752121  1
  O  O227  1  0.50071263  0.38557245  0.62696133  1
  O  O228  1  0.49750278  0.40482146  0.87799436  1
  O  O229  1  0.51660137  0.63442102  0.12682878  1
  O  O230  1  0.50307677  0.65501857  0.36322211  1
  O  O231  1  0.51053801  0.62295879  0.64864831  1
  O  O232  1  0.50355566  0.59349778  0.85824620  1
  O  O233  1  0.50017160  0.84468719  0.11844503  1
  O  O234  1  0.50079076  0.87603056  0.40844262  1
  O  O235  1  0.50005569  0.90240006  0.60839479  1
  O  O236  1  0.49380880  0.89288898  0.89866894  1
  O  O237  1  0.74352113  0.10845482  0.13520362  1
  O  O238  1  0.74395026  0.14609762  0.34038490  1
  O  O239  1  0.74609416  0.15547314  0.64027946  1
  O  O240  1  0.74937852  0.16044767  0.87418594  1
  O  O241  1  0.75227754  0.39829969  0.12351893  1
  O  O242  1  0.74234343  0.41044632  0.38260936  1
  O  O243  1  0.74965309  0.37208135  0.64432332  1
  O  O244  1  0.75728792  0.34387640  0.89645269  1
  O  O245  1  0.75669412  0.58923320  0.10923810  1
  O  O246  1  0.75796991  0.58841144  0.39336400  1
  O  O247  1  0.74336787  0.57950132  0.59556398  1
  O  O248  1  0.74356223  0.65404389  0.88832790  1
  O  O249  1  0.74188977  0.90037296  0.12511455  1
  O  O250  1  0.74984157  0.88898291  0.34369514  1
  O  O251  1  0.75785935  0.87076477  0.66369799  1
  O  O252  1  0.76461078  0.86212416  0.86180047  1
  O  O253  1  0.10596623  -0.00867626  0.07947968  1
  O  O254  1  0.14533667  -0.00070162  0.39007249  1
  O  O255  1  0.15471468  -0.00017966  0.61382214  1
  O  O256  1  0.15324785  -0.00477618  0.89065911  1
  O  O257  1  0.13884194  0.24626308  0.14387847  1
  O  O258  1  0.10667023  0.24842997  0.36399808  1
  O  O259  1  0.11607918  0.24611922  0.65613462  1
  O  O260  1  0.10163550  0.25304031  0.85917611  1
  O  O261  1  0.11282023  0.50330458  0.13046793  1
  O  O262  1  0.11515888  0.50987494  0.40268832  1
  O  O263  1  0.13549169  0.51298505  0.63252270  1
  O  O264  1  0.15159540  0.50600414  0.89135106  1
  O  O265  1  0.15424822  0.74194421  0.13582392  1
  O  O266  1  0.14758394  0.74660163  0.37748471  1
  O  O267  1  0.12268127  0.75976103  0.64821428  1
  O  O268  1  0.10500887  0.75099772  0.84992437  1
  O  O269  1  0.40716461  -0.00586991  0.10738819  1
  O  O270  1  0.37866971  0.00356695  0.38632202  1
  O  O271  1  0.34502294  -0.00522015  0.65538210  1
  O  O272  1  0.34979810  0.00651077  0.87744010  1
  O  O273  1  0.35868424  0.25407629  0.15350065  1
  O  O274  1  0.37941276  0.25222037  0.36192751  1
  O  O275  1  0.39131265  0.25820702  0.62342673  1
  O  O276  1  0.40515561  0.26025196  0.87416394  1
  O  O277  1  0.40123920  0.49044682  0.12649195  1
  O  O278  1  0.40222814  0.50460516  0.38048834  1
  O  O279  1  0.37950541  0.50139029  0.62906956  1
  O  O280  1  0.34611201  0.49703469  0.87622277  1
  O  O281  1  0.35809231  0.75674695  0.14484830  1
  O  O282  1  0.37616857  0.75615985  0.39283755  1
  O  O283  1  0.39363751  0.75174767  0.63142771  1
  O  O284  1  0.41199217  0.74262330  0.86487788  1
  O  O285  1  0.59819902  0.00403556  0.14165937  1
  O  O286  1  0.62360077  0.01149256  0.36285384  1
  O  O287  1  0.62677422  0.01168620  0.63744830  1
  O  O288  1  0.63682092  0.01888376  0.87818662  1
  O  O289  1  0.65249142  0.25357883  0.13812092  1
  O  O290  1  0.63684691  0.25667892  0.38423772  1
  O  O291  1  0.60936411  0.25501751  0.60520987  1
  O  O292  1  0.59655591  0.25658185  0.88415200  1
  O  O293  1  0.60698598  0.49185565  0.14431419  1
  O  O294  1  0.58840896  0.49644521  0.36439305  1
  O  O295  1  0.61791115  0.49442280  0.65657873  1
  O  O296  1  0.65606051  0.49490455  0.86480292  1
  O  O297  1  0.66486734  0.73928229  0.11639024  1
  O  O298  1  0.65344668  0.75015890  0.38983914  1
  O  O299  1  0.65340240  0.74337864  0.58742685  1
  O  O300  1  0.59661560  0.73571002  0.86989572  1
  O  O301  1  0.87644074  0.01378178  0.15396698  1
  O  O302  1  0.86127827  0.01179598  0.35900360  1
  O  O303  1  0.87446668  -0.00522379  0.64395501  1
  O  O304  1  0.86321549  -0.00707384  0.83655981  1
  O  O305  1  0.84640812  0.25477371  0.08421690  1
  O  O306  1  0.87242484  0.24680023  0.40492937  1
  O  O307  1  0.87985395  0.25894051  0.59182175  1
  O  O308  1  0.90607921  0.24477719  0.88970145  1
  O  O309  1  0.90394390  0.50553305  0.14452677  1
  O  O310  1  0.90912729  0.51276134  0.36484984  1
  O  O311  1  0.88135335  0.49389734  0.66285865  1
  O  O312  1  0.84595339  0.49790450  0.86350481  1
  O  O313  1  0.86209046  0.73993458  0.09652958  1
  O  O314  1  0.84811554  0.74337507  0.41584719  1
  O  O315  1  0.88615139  0.75618584  0.60840643  1
  O  O316  1  0.89939081  0.75345813  0.88988459  1
