# generated using pymatgen
data_Mg32Ti42(Bi17O64)3
_symmetry_space_group_name_H-M   'P 1'
_cell_length_a   15.96247420
_cell_length_b   15.91300373
_cell_length_c   15.93782559
_cell_angle_alpha   90.14151917
_cell_angle_beta   89.91328997
_cell_angle_gamma   89.83571249
_symmetry_Int_Tables_number   1
_chemical_formula_structural   Mg32Ti42(Bi17O64)3
_chemical_formula_sum   'Mg32 Ti42 Bi51 O192'
_cell_volume   4048.34793232
_cell_formula_units_Z   1
loop_
 _symmetry_equiv_pos_site_id
 _symmetry_equiv_pos_as_xyz
  1  'x, y, z'
loop_
 _atom_site_type_symbol
 _atom_site_label
 _atom_site_symmetry_multiplicity
 _atom_site_fract_x
 _atom_site_fract_y
 _atom_site_fract_z
 _atom_site_occupancy
  Mg  Mg0  1  0.87213638  0.36253859  0.11476958  1
  Mg  Mg1  1  0.62957267  0.12203782  0.87458602  1
  Mg  Mg2  1  0.88221900  0.12304694  0.86915801  1
  Mg  Mg3  1  0.86990751  0.87677345  0.87668532  1
  Mg  Mg4  1  0.38037728  0.37955031  0.13085459  1
  Mg  Mg5  1  0.12036102  0.37762546  0.62008248  1
  Mg  Mg6  1  0.38382927  0.61785159  0.64285386  1
  Mg  Mg7  1  0.36030720  0.11617159  0.37194632  1
  Mg  Mg8  1  0.11991844  0.86970376  0.63684716  1
  Mg  Mg9  1  0.12022090  0.12067775  0.63196148  1
  Mg  Mg10  1  0.38512188  0.88092644  0.88970464  1
  Mg  Mg11  1  0.88286104  0.12678589  0.37811004  1
  Mg  Mg12  1  0.37268277  0.12805524  0.62748365  1
  Mg  Mg13  1  0.86395402  0.37933641  0.86583152  1
  Mg  Mg14  1  0.86621362  0.61909708  0.62428566  1
  Mg  Mg15  1  0.87485089  0.38055971  0.38431581  1
  Mg  Mg16  1  0.12563541  0.14080253  0.11427994  1
  Mg  Mg17  1  0.62690852  0.63217588  0.12018220  1
  Mg  Mg18  1  0.37748649  0.11894007  0.11838432  1
  Mg  Mg19  1  0.28177752  0.46479542  0.00909875  1
  Mg  Mg20  1  -0.00621102  0.28662670  -0.02840857  1
  Mg  Mg21  1  0.49880768  0.45785983  0.71858228  1
  Mg  Mg22  1  0.53880722  0.00619835  -0.01316765  1
  Mg  Mg23  1  0.03989223  0.22779105  0.50957654  1
  Mg  Mg24  1  0.74542320  0.75022273  -0.02852786  1
  Mg  Mg25  1  0.28954621  0.25071492  0.03793305  1
  Mg  Mg26  1  0.30495285  0.81788963  0.73258369  1
  Mg  Mg27  1  0.49702227  0.20528970  -0.03801972  1
  Mg  Mg28  1  0.79170019  0.00382629  0.72819966  1
  Mg  Mg29  1  0.70431719  0.69301289  0.26927097  1
  Mg  Mg30  1  0.06726311  0.80263304  0.02906643  1
  Mg  Mg31  1  0.79280738  0.25291971  -0.03842719  1
  Ti  Ti32  1  0.63023969  0.11692558  0.62385058  1
  Ti  Ti33  1  0.36978743  0.36654112  0.61891983  1
  Ti  Ti34  1  0.63745776  0.87961052  0.62019920  1
  Ti  Ti35  1  0.61949794  0.36618144  0.37189445  1
  Ti  Ti36  1  0.12599426  0.62597971  0.64215739  1
  Ti  Ti37  1  0.89119538  0.36766480  0.60983655  1
  Ti  Ti38  1  0.36486558  0.38003084  0.36748092  1
  Ti  Ti39  1  0.61773325  0.36612995  0.61227585  1
  Ti  Ti40  1  0.13698951  0.86274690  0.86748103  1
  Ti  Ti41  1  0.88657390  0.12550769  0.62222219  1
  Ti  Ti42  1  0.86241987  0.63340552  0.11317057  1
  Ti  Ti43  1  0.62409257  0.63642692  0.63419699  1
  Ti  Ti44  1  0.37465850  0.11530219  0.88506196  1
  Ti  Ti45  1  0.89006530  0.13873167  0.11006525  1
  Ti  Ti46  1  0.36301227  0.63696423  0.36252451  1
  Ti  Ti47  1  0.12551369  0.38604243  0.38993535  1
  Ti  Ti48  1  0.62449980  0.13965654  0.11649893  1
  Ti  Ti49  1  0.63206465  0.12237262  0.36175508  1
  Ti  Ti50  1  0.62195918  0.35413557  0.88182599  1
  Ti  Ti51  1  0.38527376  0.35863664  0.88427940  1
  Ti  Ti52  1  0.12694227  0.62733893  0.37243042  1
  Ti  Ti53  1  0.13166574  0.39308522  0.87083986  1
  Ti  Ti54  1  0.12850936  0.37866780  0.10106064  1
  Ti  Ti55  1  0.12482766  0.86957132  0.38187288  1
  Ti  Ti56  1  0.37640345  0.62477949  0.12495598  1
  Ti  Ti57  1  0.11966744  0.61712900  0.10423909  1
  Ti  Ti58  1  0.86731386  0.86875365  0.62277758  1
  Ti  Ti59  1  0.12516708  0.14092290  0.87432293  1
  Ti  Ti60  1  0.87937394  0.62539459  0.87927369  1
  Ti  Ti61  1  0.63971918  0.87067505  0.12458033  1
  Ti  Ti62  1  0.62084668  0.88127778  0.87096218  1
  Ti  Ti63  1  0.39121246  0.61931608  0.87642282  1
  Ti  Ti64  1  0.86809248  0.86451775  0.11151500  1
  Ti  Ti65  1  0.88105685  0.87940453  0.37279635  1
  Ti  Ti66  1  0.11762844  0.11595725  0.37218614  1
  Ti  Ti67  1  0.13163811  0.63219518  0.87550067  1
  Ti  Ti68  1  0.38066262  0.87674203  0.12133659  1
  Ti  Ti69  1  0.62090059  0.36793135  0.12620437  1
  Ti  Ti70  1  0.36379031  0.87776161  0.36499169  1
  Ti  Ti71  1  0.87934123  0.62938174  0.37409908  1
  Ti  Ti72  1  0.62732768  0.62094330  0.88251079  1
  Ti  Ti73  1  0.63039191  0.88420717  0.36627153  1
  Bi  Bi74  1  0.51305767  0.54117030  0.49188358  1
  Bi  Bi75  1  0.28440913  0.48975833  0.77236323  1
  Bi  Bi76  1  -0.02001862  0.50101138  0.74642605  1
  Bi  Bi77  1  -0.01623282  0.48541886  0.26324343  1
  Bi  Bi78  1  0.75413594  0.24501821  0.72913342  1
  Bi  Bi79  1  0.50326927  0.48951387  0.01556736  1
  Bi  Bi80  1  0.27231709  -0.02110397  0.54656492  1
  Bi  Bi81  1  0.76344746  0.24753880  0.49258164  1
  Bi  Bi82  1  0.22801357  0.26738965  0.23405710  1
  Bi  Bi83  1  0.73191138  0.49920939  0.24473591  1
  Bi  Bi84  1  0.27626171  0.52143209  0.51055001  1
  Bi  Bi85  1  -0.02320156  0.75267343  0.74510552  1
  Bi  Bi86  1  0.75543208  0.75048468  0.76434626  1
  Bi  Bi87  1  0.47127165  0.24631357  0.47804507  1
  Bi  Bi88  1  0.77404320  0.26979347  0.26206667  1
  Bi  Bi89  1  0.48668127  0.02681968  0.48958113  1
  Bi  Bi90  1  0.01282753  -0.03930739  0.21930644  1
  Bi  Bi91  1  -0.00889735  0.72953290  0.23076373  1
  Bi  Bi92  1  0.51669777  0.52100963  0.27869146  1
  Bi  Bi93  1  0.01913499  -0.01652645  0.52212676  1
  Bi  Bi94  1  0.76573254  0.02132489  -0.02790027  1
  Bi  Bi95  1  0.01273778  0.00899876  -0.00705211  1
  Bi  Bi96  1  0.23396890  0.21761782  0.49251164  1
  Bi  Bi97  1  0.00927225  -0.01679160  0.76940803  1
  Bi  Bi98  1  0.70867224  0.49043753  0.73580292  1
  Bi  Bi99  1  0.02172656  0.74280501  0.50593290  1
  Bi  Bi100  1  -0.03189423  0.48471237  -0.00660230  1
  Bi  Bi101  1  -0.00867012  0.25611454  0.77266681  1
  Bi  Bi102  1  0.75949392  0.00836445  0.47056375  1
  Bi  Bi103  1  0.49357063  0.76697160  0.75013605  1
  Bi  Bi104  1  0.48823523  -0.00594715  0.71880586  1
  Bi  Bi105  1  0.50184073  0.22042286  0.73830226  1
  Bi  Bi106  1  0.22719263  0.26539200  0.73015940  1
  Bi  Bi107  1  0.22119808  0.77283767  0.21893710  1
  Bi  Bi108  1  0.25615276  0.01578043  0.76997712  1
  Bi  Bi109  1  0.00455185  0.25586054  0.26939617  1
  Bi  Bi110  1  0.26714014  0.74192327  -0.00352926  1
  Bi  Bi111  1  0.73837303  0.47621433  0.01272186  1
  Bi  Bi112  1  0.26951707  0.75032589  0.54384281  1
  Bi  Bi113  1  0.50297323  0.01132241  0.21667070  1
  Bi  Bi114  1  0.22818847  0.01131242  0.23148444  1
  Bi  Bi115  1  0.52158959  0.75648471  -0.01068591  1
  Bi  Bi116  1  0.51204581  0.76654780  0.23909808  1
  Bi  Bi117  1  0.77735548  0.02172346  0.22475812  1
  Bi  Bi118  1  0.45954236  0.23250901  0.24538131  1
  Bi  Bi119  1  0.23994730  -0.00433235  0.01639041  1
  Bi  Bi120  1  0.01487699  0.51937764  0.51765022  1
  Bi  Bi121  1  0.74626007  0.75821358  0.47389753  1
  Bi  Bi122  1  0.74053794  0.53003454  0.48351188  1
  Bi  Bi123  1  0.23287509  0.50850118  0.22940448  1
  Bi  Bi124  1  0.48617015  0.77769865  0.50448032  1
  O  O125  1  0.14221168  0.09294798  -0.01077883  1
  O  O126  1  0.12264799  0.16566003  0.25457854  1
  O  O127  1  0.12937282  0.11897484  0.49579107  1
  O  O128  1  0.10823749  0.15591202  0.75522783  1
  O  O129  1  0.16416669  0.40752425  -0.00715873  1
  O  O130  1  0.11138097  0.34720963  0.23464116  1
  O  O131  1  0.12984489  0.42216280  0.49670725  1
  O  O132  1  0.11044305  0.35225792  0.75299807  1
  O  O133  1  0.12721738  0.60123103  -0.00555105  1
  O  O134  1  0.11660565  0.65547845  0.25364255  1
  O  O135  1  0.12520437  0.60726273  0.49709690  1
  O  O136  1  0.10501594  0.64305364  0.75415311  1
  O  O137  1  0.14238472  0.89606075  -0.01424736  1
  O  O138  1  0.10648664  0.85744832  0.26137953  1
  O  O139  1  0.13557101  0.90623983  0.49837438  1
  O  O140  1  0.08274848  0.85550899  0.75782164  1
  O  O141  1  0.36703910  0.15845241  -0.00269347  1
  O  O142  1  0.39096030  0.11207947  0.25206401  1
  O  O143  1  0.38229024  0.13250817  0.49750967  1
  O  O144  1  0.39783390  0.10612669  0.75682395  1
  O  O145  1  0.34434331  0.35426468  -0.00327501  1
  O  O146  1  0.38952508  0.39098234  0.25839381  1
  O  O147  1  0.36202870  0.34717843  0.50484932  1
  O  O148  1  0.39511657  0.40176188  0.76376646  1
  O  O149  1  0.36773277  0.64894446  0.00162578  1
  O  O150  1  0.36738953  0.59842005  0.24824514  1
  O  O151  1  0.35372637  0.63929020  0.49753911  1
  O  O152  1  0.39854022  0.58465843  0.76347779  1
  O  O153  1  0.34856781  0.85776337  0.00794164  1
  O  O154  1  0.40411343  0.88135241  0.25199606  1
  O  O155  1  0.36430538  0.84374965  0.48955268  1
  O  O156  1  0.40940554  0.88252616  0.76481990  1
  O  O157  1  0.59861691  0.13619158  0.00667819  1
  O  O158  1  0.62440641  0.10117759  0.24876635  1
  O  O159  1  0.65428963  0.13341362  0.51106061  1
  O  O160  1  0.59194419  0.11485948  0.75342024  1
  O  O161  1  0.64836449  0.36682605  0.00412786  1
  O  O162  1  0.61187755  0.40274151  0.24832449  1
  O  O163  1  0.63336362  0.36031547  0.49969349  1
  O  O164  1  0.59944689  0.39609569  0.77387867  1
  O  O165  1  0.63867361  0.66368604  -0.00323408  1
  O  O166  1  0.62141363  0.59752283  0.24732026  1
  O  O167  1  0.63363400  0.61639229  0.50762431  1
  O  O168  1  0.62182783  0.61403643  0.75443986  1
  O  O169  1  0.64453890  0.83295637  0.01369305  1
  O  O170  1  0.59740608  0.89058681  0.25414383  1
  O  O171  1  0.65643955  0.86863320  0.50668521  1
  O  O172  1  0.59625643  0.88325125  0.75728384  1
  O  O173  1  0.88796929  0.08732278  -0.00255211  1
  O  O174  1  0.86285767  0.14250192  0.23447446  1
  O  O175  1  0.84282994  0.12965308  0.50777821  1
  O  O176  1  0.89058645  0.15041843  0.74373134  1
  O  O177  1  0.86673773  0.38462301  -0.00690140  1
  O  O178  1  0.88853897  0.35583528  0.23980085  1
  O  O179  1  0.84160328  0.37823834  0.50565236  1
  O  O180  1  0.90062673  0.37108684  0.74217296  1
  O  O181  1  0.84366949  0.65448463  0.00008399  1
  O  O182  1  0.90944257  0.61999157  0.25236616  1
  O  O183  1  0.84901359  0.61774839  0.49448532  1
  O  O184  1  0.88534311  0.60928902  0.75282151  1
  O  O185  1  0.84191936  0.85436021  0.00281744  1
  O  O186  1  0.89285158  0.87875932  0.26123002  1
  O  O187  1  0.83871190  0.86723311  0.50779641  1
  O  O188  1  0.90620979  0.87631807  0.74406251  1
  O  O189  1  -0.00018043  0.16102064  0.11126215  1
  O  O190  1  0.00443561  0.16262093  0.38777108  1
  O  O191  1  -0.00611496  0.14564744  0.59539868  1
  O  O192  1  0.01047661  0.09387254  0.88110358  1
  O  O193  1  0.01498273  0.35948969  0.07544781  1
  O  O194  1  0.00646586  0.36786600  0.36346008  1
  O  O195  1  -0.00433464  0.33498698  0.58171608  1
  O  O196  1  0.00999746  0.38982609  0.89098709  1
  O  O197  1  0.00558892  0.65553626  0.11271794  1
  O  O198  1  0.00067365  0.64877367  0.39117847  1
  O  O199  1  -0.00408368  0.63781017  0.60141880  1
  O  O200  1  -0.00881184  0.61484464  0.88988090  1
  O  O201  1  -0.00769563  0.86956198  0.10839206  1
  O  O202  1  0.00019922  0.86731384  0.40326718  1
  O  O203  1  -0.01134023  0.86467834  0.59265788  1
  O  O204  1  -0.00597989  0.91066939  0.89608572  1
  O  O205  1  0.25372828  0.09845953  0.12788988  1
  O  O206  1  0.23695390  0.13156702  0.37202430  1
  O  O207  1  0.24872021  0.08869700  0.63305944  1
  O  O208  1  0.24801586  0.13612175  0.84603045  1
  O  O209  1  0.25050930  0.40115743  0.14290350  1
  O  O210  1  0.24481841  0.38344094  0.35673309  1
  O  O211  1  0.25378509  0.38588024  0.65191223  1
  O  O212  1  0.25113765  0.36327538  0.84420770  1
  O  O213  1  0.24311819  0.60126739  0.12853472  1
  O  O214  1  0.24384428  0.60807142  0.37181749  1
  O  O215  1  0.23943919  0.60280680  0.63112666  1
  O  O216  1  0.24281669  0.64510322  0.87041427  1
  O  O217  1  0.26058525  0.89791998  0.15544171  1
  O  O218  1  0.24925756  0.88779678  0.35610792  1
  O  O219  1  0.24558616  0.88276820  0.64076747  1
  O  O220  1  0.24712401  0.84974679  0.83967833  1
  O  O221  1  0.50372722  0.13583340  0.14011446  1
  O  O222  1  0.51295091  0.13958785  0.38951388  1
  O  O223  1  0.50707330  0.13949101  0.61436456  1
  O  O224  1  0.48466270  0.08935367  0.90344760  1
  O  O225  1  0.50608224  0.37832835  0.10605245  1
  O  O226  1  0.50346374  0.34971576  0.38104403  1
  O  O227  1  0.49723379  0.35731982  0.62862499  1
  O  O228  1  0.49550498  0.38733602  0.91433993  1
  O  O229  1  0.48998424  0.64835647  0.13148013  1
  O  O230  1  0.48452065  0.62382275  0.38035792  1
  O  O231  1  0.50788833  0.63947033  0.61475915  1
  O  O232  1  0.50289328  0.60602996  0.90199978  1
  O  O233  1  0.49494243  0.83443248  0.11988918  1
  O  O234  1  0.51036769  0.86012699  0.39972728  1
  O  O235  1  0.51831320  0.85474485  0.61165722  1
  O  O236  1  0.50922610  0.89242808  0.92717924  1
  O  O237  1  0.73714397  0.09525492  0.11396672  1
  O  O238  1  0.75084112  0.10265916  0.36703110  1
  O  O239  1  0.74335550  0.11016389  0.67052680  1
  O  O240  1  0.75206086  0.14364666  0.90747719  1
  O  O241  1  0.74623565  0.39527731  0.13676966  1
  O  O242  1  0.74442911  0.39099822  0.34924920  1
  O  O243  1  0.73416434  0.37880096  0.65459366  1
  O  O244  1  0.74058767  0.33680118  0.86902333  1
  O  O245  1  0.75616681  0.62388503  0.15611932  1
  O  O246  1  0.76066742  0.60716647  0.35345855  1
  O  O247  1  0.74174472  0.58258884  0.62781004  1
  O  O248  1  0.74222291  0.65823022  0.86800046  1
  O  O249  1  0.74931599  0.89630568  0.14453386  1
  O  O250  1  0.75128612  0.90433358  0.36641118  1
  O  O251  1  0.75206018  0.89628339  0.66658992  1
  O  O252  1  0.73511870  0.84050564  0.86880057  1
  O  O253  1  0.11785837  0.01241118  0.14671218  1
  O  O254  1  0.10633090  0.00479675  0.35105860  1
  O  O255  1  0.08952018  -0.00361574  0.64050481  1
  O  O256  1  0.13959058  -0.00908358  0.83832365  1
  O  O257  1  0.17658738  0.26042835  0.09999528  1
  O  O258  1  0.12945400  0.27027514  0.41958582  1
  O  O259  1  0.14872525  0.25000581  0.60260393  1
  O  O260  1  0.09880629  0.24831647  0.90493988  1
  O  O261  1  0.11047626  0.49904474  0.14426753  1
  O  O262  1  0.10236995  0.50798508  0.34485190  1
  O  O263  1  0.08507054  0.50432649  0.63964519  1
  O  O264  1  0.13595157  0.50394765  0.84796048  1
  O  O265  1  0.15143451  0.74223100  0.10245228  1
  O  O266  1  0.13776014  0.75488891  0.40403086  1
  O  O267  1  0.12628300  0.74362312  0.60890370  1
  O  O268  1  0.10518832  0.75320707  0.90881682  1
  O  O269  1  0.40653875  -0.01039187  0.10595837  1
  O  O270  1  0.38587903  -0.00957482  0.39717863  1
  O  O271  1  0.39964573  -0.00100374  0.60524289  1
  O  O272  1  0.33441495  0.00232875  0.89421039  1
  O  O273  1  0.35934658  0.25219684  0.14896265  1
  O  O274  1  0.37494542  0.25061212  0.36810998  1
  O  O275  1  0.35938715  0.25254483  0.65334457  1
  O  O276  1  0.40738415  0.24623480  0.86578033  1
  O  O277  1  0.38006348  0.50548339  0.09084997  1
  O  O278  1  0.37989263  0.49160124  0.40684910  1
  O  O279  1  0.38286930  0.49291906  0.60519899  1
  O  O280  1  0.34409692  0.50214791  0.90234532  1
  O  O281  1  0.33639296  0.74588944  0.13307695  1
  O  O282  1  0.36206358  0.74774475  0.34693744  1
  O  O283  1  0.35187340  0.73866291  0.65089036  1
  O  O284  1  0.39985777  0.74075160  0.85678541  1
  O  O285  1  0.59114200  -0.01849310  0.10368914  1
  O  O286  1  0.61595850  0.00371098  0.39718163  1
  O  O287  1  0.61222385  -0.00262042  0.61692912  1
  O  O288  1  0.63857930  -0.00600735  0.90132860  1
  O  O289  1  0.63682009  0.25236597  0.14285950  1
  O  O290  1  0.65121232  0.24726565  0.36014835  1
  O  O291  1  0.63514518  0.24842490  0.65058235  1
  O  O292  1  0.58509680  0.24590367  0.87362868  1
  O  O293  1  0.62548032  0.50380464  0.09857607  1
  O  O294  1  0.59947649  0.48919481  0.39065197  1
  O  O295  1  0.60126135  0.48720232  0.63758237  1
  O  O296  1  0.64751858  0.50808314  0.90091718  1
  O  O297  1  0.63599540  0.75357542  0.17362039  1
  O  O298  1  0.65781756  0.76520281  0.36338187  1
  O  O299  1  0.65153298  0.74833071  0.63583071  1
  O  O300  1  0.58607290  0.75357442  0.86100469  1
  O  O301  1  0.88709186  -0.00221782  0.13915886  1
  O  O302  1  0.88585448  -0.00182743  0.39732696  1
  O  O303  1  0.88316776  0.00634820  0.63296308  1
  O  O304  1  0.83374390  -0.00018637  0.84807226  1
  O  O305  1  0.84501356  0.23977611  0.07884698  1
  O  O306  1  0.84758960  0.25271745  0.37749149  1
  O  O307  1  0.84097767  0.25074020  0.61933915  1
  O  O308  1  0.90340015  0.24998119  0.89104260  1
  O  O309  1  0.88790195  0.51456603  0.11024495  1
  O  O310  1  0.90073365  0.50452315  0.37192778  1
  O  O311  1  0.90926635  0.48832907  0.62478026  1
  O  O312  1  0.86078740  0.50797760  0.88902199  1
  O  O313  1  0.87025337  0.75320297  0.14592536  1
  O  O314  1  0.85575371  0.75221434  0.37974682  1
  O  O315  1  0.86064899  0.75213471  0.64226409  1
  O  O316  1  0.87881954  0.74955502  0.84508575  1
