# generated using pymatgen
data_Mg32Ti42(Bi17O64)3
_symmetry_space_group_name_H-M   'P 1'
_cell_length_a   15.91614377
_cell_length_b   15.93949655
_cell_length_c   15.94593436
_cell_angle_alpha   89.93574251
_cell_angle_beta   90.08606806
_cell_angle_gamma   89.99754582
_symmetry_Int_Tables_number   1
_chemical_formula_structural   Mg32Ti42(Bi17O64)3
_chemical_formula_sum   'Mg32 Ti42 Bi51 O192'
_cell_volume   4045.40178777
_cell_formula_units_Z   1
loop_
 _symmetry_equiv_pos_site_id
 _symmetry_equiv_pos_as_xyz
  1  'x, y, z'
loop_
 _atom_site_type_symbol
 _atom_site_label
 _atom_site_symmetry_multiplicity
 _atom_site_fract_x
 _atom_site_fract_y
 _atom_site_fract_z
 _atom_site_occupancy
  Mg  Mg0  1  0.12630709  0.61997359  0.62686525  1
  Mg  Mg1  1  0.37060577  0.87442127  0.87779042  1
  Mg  Mg2  1  0.38079224  0.87890837  0.61835432  1
  Mg  Mg3  1  0.88088476  0.12064827  0.63293381  1
  Mg  Mg4  1  0.37556629  0.87583435  0.12877679  1
  Mg  Mg5  1  0.62150931  0.12619050  0.13023135  1
  Mg  Mg6  1  0.86869983  0.37916644  0.88141705  1
  Mg  Mg7  1  0.62949185  0.37615288  0.61428165  1
  Mg  Mg8  1  0.87107645  0.63196809  0.12763553  1
  Mg  Mg9  1  0.12245602  0.12745679  0.37612101  1
  Mg  Mg10  1  0.62768087  0.87401976  0.62696506  1
  Mg  Mg11  1  0.61945909  0.12731870  0.87220736  1
  Mg  Mg12  1  0.37492968  0.36263860  0.63390692  1
  Mg  Mg13  1  0.37916244  0.12032843  0.37090324  1
  Mg  Mg14  1  0.61389209  0.87642315  0.37446461  1
  Mg  Mg15  1  0.12055272  0.36836695  0.61494782  1
  Mg  Mg16  1  0.87414873  0.37947976  0.62110688  1
  Mg  Mg17  1  0.36904809  0.61710197  0.12008778  1
  Mg  Mg18  1  0.13137323  0.37889933  0.12566821  1
  Mg  Mg19  1  0.51805123  0.27625379  0.69168611  1
  Mg  Mg20  1  0.27204940  0.05371021  0.49736461  1
  Mg  Mg21  1  0.72615319  0.50851438  -0.05255112  1
  Mg  Mg22  1  0.31750044  0.26701193  0.45989784  1
  Mg  Mg23  1  0.46487279  0.48840025  0.31159157  1
  Mg  Mg24  1  0.49109055  0.41691682  0.50068302  1
  Mg  Mg25  1  0.25132215  0.46223377  -0.02638885  1
  Mg  Mg26  1  0.00835031  0.04137044  0.20089025  1
  Mg  Mg27  1  0.53555663  -0.01010827  0.53687372  1
  Mg  Mg28  1  0.50024232  0.25067220  0.41022223  1
  Mg  Mg29  1  0.45674081  0.72253307  -0.00063837  1
  Mg  Mg30  1  0.50706883  0.02544996  0.29670069  1
  Mg  Mg31  1  0.73816157  0.26103644  0.30811564  1
  Ti  Ti32  1  0.13322269  0.12528613  0.87831878  1
  Ti  Ti33  1  0.62030012  0.62659453  0.37416843  1
  Ti  Ti34  1  0.12671874  0.86372107  0.88563031  1
  Ti  Ti35  1  0.12058142  0.87382165  0.13112862  1
  Ti  Ti36  1  0.13233936  0.14269881  0.12757786  1
  Ti  Ti37  1  0.62644033  0.12694719  0.62902153  1
  Ti  Ti38  1  0.87612332  0.62741399  0.63039427  1
  Ti  Ti39  1  0.38369730  0.11638416  0.14189541  1
  Ti  Ti40  1  0.11254092  0.37597927  0.88343360  1
  Ti  Ti41  1  0.86854627  0.87930217  0.63241853  1
  Ti  Ti42  1  0.37222602  0.62235174  0.61758935  1
  Ti  Ti43  1  0.38889522  0.40495649  0.10466242  1
  Ti  Ti44  1  0.61571938  0.86950216  0.13036982  1
  Ti  Ti45  1  0.86955025  0.11793151  0.36128754  1
  Ti  Ti46  1  0.37282622  0.89648143  0.37714349  1
  Ti  Ti47  1  0.62784286  0.39559411  0.37142388  1
  Ti  Ti48  1  0.11831953  0.88331360  0.37151419  1
  Ti  Ti49  1  0.35318330  0.61235672  0.88430019  1
  Ti  Ti50  1  0.13293792  0.12967850  0.61076434  1
  Ti  Ti51  1  0.87269518  0.87811327  0.13796580  1
  Ti  Ti52  1  0.88067095  0.62444450  0.88351257  1
  Ti  Ti53  1  0.62762728  0.12558293  0.38026848  1
  Ti  Ti54  1  0.87095724  0.35295638  0.12338061  1
  Ti  Ti55  1  0.12284637  0.36550098  0.37917134  1
  Ti  Ti56  1  0.13075535  0.62727371  0.11812184  1
  Ti  Ti57  1  0.87352734  0.37841717  0.37594305  1
  Ti  Ti58  1  0.63471975  0.37946848  0.11374481  1
  Ti  Ti59  1  0.37154607  0.12891516  0.86922652  1
  Ti  Ti60  1  0.12967797  0.63158723  0.37945156  1
  Ti  Ti61  1  0.38156324  0.36549446  0.86947282  1
  Ti  Ti62  1  0.87609883  0.88179303  0.37227093  1
  Ti  Ti63  1  0.87402193  0.87076434  0.87754385  1
  Ti  Ti64  1  0.38230664  0.63062604  0.38684417  1
  Ti  Ti65  1  0.87944846  0.62020304  0.37661001  1
  Ti  Ti66  1  0.62224279  0.61199445  0.12960722  1
  Ti  Ti67  1  0.38705570  0.13306143  0.61617291  1
  Ti  Ti68  1  0.87955274  0.12744469  0.87190793  1
  Ti  Ti69  1  0.12379351  0.60887516  0.88418923  1
  Ti  Ti70  1  0.62070437  0.36848927  0.86903189  1
  Ti  Ti71  1  0.61708292  0.63039290  0.61520363  1
  Ti  Ti72  1  0.61923710  0.87860460  0.87816443  1
  Ti  Ti73  1  0.86812542  0.11673191  0.12088667  1
  Bi  Bi74  1  0.26747651  0.26239849  0.27068256  1
  Bi  Bi75  1  -0.02574906  0.48200803  0.03234985  1
  Bi  Bi76  1  0.02633500  0.49000291  0.24810194  1
  Bi  Bi77  1  0.01809794  -0.02400097  0.53942253  1
  Bi  Bi78  1  0.72542291  0.75512297  0.77321954  1
  Bi  Bi79  1  0.22605985  0.25828536  0.73271794  1
  Bi  Bi80  1  0.74526724  0.01814831  0.77325196  1
  Bi  Bi81  1  0.47810907  0.71607986  0.77296615  1
  Bi  Bi82  1  0.72981044  0.23379005  -0.00839928  1
  Bi  Bi83  1  0.28291794  0.45931750  0.49258684  1
  Bi  Bi84  1  -0.01319213  0.50755693  0.74436906  1
  Bi  Bi85  1  -0.01673124  0.27144282  0.73460376  1
  Bi  Bi86  1  0.25315152  0.75463047  0.72910486  1
  Bi  Bi87  1  -0.01085032  0.24480184  0.27192655  1
  Bi  Bi88  1  0.49357168  0.29627539  0.23188146  1
  Bi  Bi89  1  0.72834478  0.53662078  0.75433609  1
  Bi  Bi90  1  0.23667688  0.78832052  0.51064249  1
  Bi  Bi91  1  0.48807860  -0.01259478  0.74746461  1
  Bi  Bi92  1  0.53080377  0.52072007  -0.03127554  1
  Bi  Bi93  1  0.26246806  -0.00110155  0.71404449  1
  Bi  Bi94  1  0.02724908  0.77704298  0.74163687  1
  Bi  Bi95  1  0.48347570  0.73634790  0.22440387  1
  Bi  Bi96  1  -0.02292280  0.22786026  0.50222004  1
  Bi  Bi97  1  0.22689754  0.49082829  0.72425754  1
  Bi  Bi98  1  0.72786854  -0.00246032  0.01341619  1
  Bi  Bi99  1  0.49490997  0.49085718  0.72669789  1
  Bi  Bi100  1  0.00638881  0.23554751  -0.01247044  1
  Bi  Bi101  1  0.50846359  0.76878373  0.49926275  1
  Bi  Bi102  1  0.77733909  0.48604682  0.23331212  1
  Bi  Bi103  1  0.71572081  -0.00097469  0.24357981  1
  Bi  Bi104  1  -0.01012272  0.76727882  0.49652453  1
  Bi  Bi105  1  0.74164676  -0.00764794  0.49784605  1
  Bi  Bi106  1  0.71784630  0.73170299  -0.01527605  1
  Bi  Bi107  1  0.25941075  0.00855655  0.01471292  1
  Bi  Bi108  1  -0.02723267  0.75247461  0.01854199  1
  Bi  Bi109  1  0.48591075  0.23338430  -0.00236936  1
  Bi  Bi110  1  0.48747640  0.00136919  -0.00876156  1
  Bi  Bi111  1  0.26152327  0.76874215  0.01046922  1
  Bi  Bi112  1  0.26175678  0.77038189  0.26267183  1
  Bi  Bi113  1  0.25587192  0.26989674  0.01180559  1
  Bi  Bi114  1  0.74178358  0.72772160  0.24143734  1
  Bi  Bi115  1  0.00254250  -0.01494914  -0.00436932  1
  Bi  Bi116  1  0.75121803  0.51511050  0.52768823  1
  Bi  Bi117  1  0.23285415  0.01913706  0.26647400  1
  Bi  Bi118  1  0.75128725  0.27558329  0.74922436  1
  Bi  Bi119  1  0.75147007  0.23679284  0.52390613  1
  Bi  Bi120  1  0.00618916  0.73138174  0.24490216  1
  Bi  Bi121  1  0.03874450  0.50734936  0.50247618  1
  Bi  Bi122  1  0.27052715  0.52002467  0.26036615  1
  Bi  Bi123  1  0.03527552  -0.00097542  0.76093098  1
  Bi  Bi124  1  0.76146267  0.75226964  0.49376082  1
  O  O125  1  0.14318080  0.14541335  0.00648381  1
  O  O126  1  0.11347371  0.09850820  0.24244545  1
  O  O127  1  0.16335641  0.12136839  0.50125721  1
  O  O128  1  0.11351605  0.11839811  0.76277261  1
  O  O129  1  0.12391143  0.35170811  0.00146456  1
  O  O130  1  0.13315919  0.39985559  0.25330087  1
  O  O131  1  0.09192438  0.36890935  0.49290144  1
  O  O132  1  0.14582035  0.38278776  0.76545542  1
  O  O133  1  0.13081010  0.63748076  0.00050334  1
  O  O134  1  0.10076486  0.61332112  0.25444818  1
  O  O135  1  0.12249416  0.63000809  0.49795179  1
  O  O136  1  0.11525142  0.57074457  0.75524666  1
  O  O137  1  0.09273674  0.86390930  0.00110372  1
  O  O138  1  0.14425987  0.88094050  0.24740038  1
  O  O139  1  0.11309250  0.86223549  0.49411436  1
  O  O140  1  0.11979515  0.88699070  0.76354611  1
  O  O141  1  0.36173237  0.15659646  -0.00066828  1
  O  O142  1  0.40359493  0.07794129  0.24778278  1
  O  O143  1  0.35204730  0.15492778  0.50498744  1
  O  O144  1  0.37957791  0.09037211  0.75412986  1
  O  O145  1  0.38537386  0.33747951  0.00044431  1
  O  O146  1  0.40372748  0.40510494  0.22624732  1
  O  O147  1  0.37902275  0.36182504  0.50740069  1
  O  O148  1  0.38309672  0.39860476  0.75795771  1
  O  O149  1  0.34825375  0.65316453  -0.00274178  1
  O  O150  1  0.39001236  0.58663823  0.25006929  1
  O  O151  1  0.36534737  0.65014370  0.50292044  1
  O  O152  1  0.39828032  0.59918339  0.75825910  1
  O  O153  1  0.38608729  0.82877818  0.00216584  1
  O  O154  1  0.34128665  0.88539939  0.25646975  1
  O  O155  1  0.37614257  0.85036428  0.49163737  1
  O  O156  1  0.37072176  0.91341329  0.75208956  1
  O  O157  1  0.65365108  0.11841233  0.00100571  1
  O  O158  1  0.60769897  0.09191262  0.25711704  1
  O  O159  1  0.66087740  0.12730704  0.49567534  1
  O  O160  1  0.61846775  0.11679486  0.74336684  1
  O  O161  1  0.64051602  0.41117692  -0.00397664  1
  O  O162  1  0.62084248  0.35776995  0.24124230  1
  O  O163  1  0.61859539  0.39907139  0.48911732  1
  O  O164  1  0.60859694  0.34131995  0.75458540  1
  O  O165  1  0.65507450  0.60253237  0.00900360  1
  O  O166  1  0.61338878  0.65261774  0.24894408  1
  O  O167  1  0.63738381  0.60727327  0.49507392  1
  O  O168  1  0.63654458  0.64178964  0.73770032  1
  O  O169  1  0.62872242  0.88348527  0.00043522  1
  O  O170  1  0.63906414  0.87742076  0.24897898  1
  O  O171  1  0.58271543  0.88009781  0.49783890  1
  O  O172  1  0.64518522  0.87612276  0.75538968  1
  O  O173  1  0.85843533  0.10654636  0.00535883  1
  O  O174  1  0.90762790  0.11599929  0.24670824  1
  O  O175  1  0.86174078  0.14617591  0.48850287  1
  O  O176  1  0.90729155  0.13277779  0.75850446  1
  O  O177  1  0.87248193  0.38528933  0.00842457  1
  O  O178  1  0.86361517  0.37494293  0.24155019  1
  O  O179  1  0.87559122  0.37297781  0.48938153  1
  O  O180  1  0.86791098  0.35156882  0.75469631  1
  O  O181  1  0.88170715  0.63172906  -0.00105056  1
  O  O182  1  0.88062000  0.65768232  0.25833003  1
  O  O183  1  0.85563038  0.60618658  0.49476311  1
  O  O184  1  0.87584071  0.63323352  0.74607758  1
  O  O185  1  0.89496658  0.88489411  -0.00091472  1
  O  O186  1  0.86505862  0.86270398  0.25610217  1
  O  O187  1  0.90880563  0.88151635  0.49703371  1
  O  O188  1  0.85542588  0.86697170  0.74623186  1
  O  O189  1  0.01169122  0.14477132  0.11577533  1
  O  O190  1  -0.00769509  0.14419329  0.38214849  1
  O  O191  1  0.00892122  0.12175926  0.58624861  1
  O  O192  1  0.00053772  0.11592384  0.90955669  1
  O  O193  1  -0.00746074  0.36827685  0.12181290  1
  O  O194  1  -0.00750645  0.36978224  0.35243250  1
  O  O195  1  0.00079679  0.39240889  0.65548569  1
  O  O196  1  0.00148510  0.39840706  0.86900760  1
  O  O197  1  0.00290023  0.65737995  0.12589627  1
  O  O198  1  -0.00541570  0.61981198  0.38896449  1
  O  O199  1  -0.00683543  0.59867713  0.62472629  1
  O  O200  1  0.00213274  0.60233010  0.87382937  1
  O  O201  1  0.00227708  0.84067298  0.14129812  1
  O  O202  1  0.00035589  0.86813865  0.36374751  1
  O  O203  1  -0.00598937  0.87187562  0.63485088  1
  O  O204  1  -0.00450926  0.90237028  0.86723833  1
  O  O205  1  0.25201857  0.09358776  0.13579330  1
  O  O206  1  0.25268184  0.14101064  0.33736666  1
  O  O207  1  0.24905885  0.14170002  0.65169113  1
  O  O208  1  0.25172690  0.13613225  0.86813705  1
  O  O209  1  0.26651611  0.40415646  0.08848511  1
  O  O210  1  0.23951661  0.34888758  0.40185555  1
  O  O211  1  0.24960844  0.35186581  0.63494970  1
  O  O212  1  0.26019098  0.35625569  0.89643459  1
  O  O213  1  0.24274663  0.59617945  0.14618846  1
  O  O214  1  0.24848624  0.62472854  0.35358780  1
  O  O215  1  0.25810238  0.63554054  0.64874024  1
  O  O216  1  0.24027522  0.62985255  0.85325733  1
  O  O217  1  0.24222516  0.88853077  0.09426817  1
  O  O218  1  0.24330504  0.85401303  0.38731731  1
  O  O219  1  0.25647254  0.85639218  0.62944410  1
  O  O220  1  0.24144788  0.86876373  0.90284529  1
  O  O221  1  0.49585333  0.13187196  0.10303552  1
  O  O222  1  0.50821844  0.11966625  0.39348736  1
  O  O223  1  0.49933132  0.09394644  0.60345623  1
  O  O224  1  0.49550344  0.11048073  0.89979458  1
  O  O225  1  0.50658479  0.35045660  0.10635573  1
  O  O226  1  0.50477839  0.37895685  0.37480618  1
  O  O227  1  0.50186093  0.38957817  0.62601100  1
  O  O228  1  0.49901272  0.39912458  0.88618205  1
  O  O229  1  0.50723159  0.66109849  0.10398337  1
  O  O230  1  0.49471874  0.60584257  0.38202494  1
  O  O231  1  0.50235784  0.60054616  0.62534066  1
  O  O232  1  0.48060094  0.63753614  0.90228165  1
  O  O233  1  0.50244494  0.85359973  0.14178098  1
  O  O234  1  0.48434880  0.91606485  0.35367517  1
  O  O235  1  0.49973712  0.91205999  0.63447604  1
  O  O236  1  0.50452239  0.90110768  0.87159435  1
  O  O237  1  0.75695493  0.09822540  0.14298326  1
  O  O238  1  0.75158738  0.13745380  0.34101241  1
  O  O239  1  0.75202906  0.14966690  0.63331254  1
  O  O240  1  0.75733370  0.13885717  0.85125767  1
  O  O241  1  0.75069422  0.39552373  0.12749263  1
  O  O242  1  0.74662079  0.37433926  0.36214069  1
  O  O243  1  0.74972812  0.34252267  0.62496966  1
  O  O244  1  0.74056271  0.35991441  0.86629500  1
  O  O245  1  0.74576297  0.61807165  0.15517289  1
  O  O246  1  0.74152918  0.64347264  0.36097717  1
  O  O247  1  0.74832346  0.63181660  0.61536443  1
  O  O248  1  0.75918340  0.65305635  0.87163540  1
  O  O249  1  0.76149961  0.90493580  0.12663700  1
  O  O250  1  0.75717330  0.86704962  0.40647716  1
  O  O251  1  0.75485445  0.86551434  0.58868322  1
  O  O252  1  0.75649796  0.84995202  0.88827770  1
  O  O253  1  0.09553172  -0.01143013  0.11591585  1
  O  O254  1  0.13547302  -0.00358502  0.37790232  1
  O  O255  1  0.12028685  0.01091209  0.63566861  1
  O  O256  1  0.12363616  0.00544367  0.88852227  1
  O  O257  1  0.15998851  0.25053139  0.14838465  1
  O  O258  1  0.11413314  0.25273039  0.34676970  1
  O  O259  1  0.11255486  0.24537033  0.64734699  1
  O  O260  1  0.10096370  0.25020322  0.87360195  1
  O  O261  1  0.09049816  0.50630678  0.12010030  1
  O  O262  1  0.12059960  0.49805792  0.38781628  1
  O  O263  1  0.14669709  0.49387213  0.60509990  1
  O  O264  1  0.14726943  0.49432851  0.90964168  1
  O  O265  1  0.14882691  0.74605326  0.13831003  1
  O  O266  1  0.11850087  0.74484128  0.36411545  1
  O  O267  1  0.12503939  0.73783477  0.66167960  1
  O  O268  1  0.11189867  0.74900790  0.85969736  1
  O  O269  1  0.38079145  -0.00108099  0.08781200  1
  O  O270  1  0.33590149  0.00347709  0.40098844  1
  O  O271  1  0.33672151  0.01079689  0.60016879  1
  O  O272  1  0.36873716  0.00546046  0.91435616  1
  O  O273  1  0.36000460  0.23166565  0.16429062  1
  O  O274  1  0.38574181  0.24563562  0.35573750  1
  O  O275  1  0.40608719  0.23836479  0.65605803  1
  O  O276  1  0.39853092  0.24818089  0.85609290  1
  O  O277  1  0.41460379  0.50679084  0.07575844  1
  O  O278  1  0.36300946  0.50385237  0.39137289  1
  O  O279  1  0.36346333  0.50342375  0.60854362  1
  O  O280  1  0.35182817  0.49889929  0.90532708  1
  O  O281  1  0.35894488  0.74388815  0.15506038  1
  O  O282  1  0.38182244  0.74143637  0.34670302  1
  O  O283  1  0.39151072  0.74164362  0.65835354  1
  O  O284  1  0.37066773  0.75001905  0.84406060  1
  O  O285  1  0.62742995  -0.00581602  0.12085145  1
  O  O286  1  0.64466882  0.00125307  0.39374508  1
  O  O287  1  0.64658329  0.00403634  0.60297856  1
  O  O288  1  0.65506284  -0.00153558  0.87550362  1
  O  O289  1  0.64697452  0.25819861  0.09916225  1
  O  O290  1  0.62283319  0.24725630  0.37333626  1
  O  O291  1  0.60503365  0.24044670  0.61089313  1
  O  O292  1  0.61634360  0.25356163  0.90688533  1
  O  O293  1  0.60521100  0.50217461  0.13960762  1
  O  O294  1  0.62144592  0.50591426  0.34392772  1
  O  O295  1  0.64825037  0.50064760  0.64245048  1
  O  O296  1  0.63343582  0.49695663  0.85528308  1
  O  O297  1  0.65310189  0.75755258  0.11993893  1
  O  O298  1  0.59857684  0.74567594  0.39275426  1
  O  O299  1  0.60580986  0.74633310  0.60367410  1
  O  O300  1  0.62433118  0.75812556  0.87799746  1
  O  O301  1  0.91371362  -0.00368651  0.13062149  1
  O  O302  1  0.86399137  0.00090327  0.37358991  1
  O  O303  1  0.88167001  -0.00446396  0.61950309  1
  O  O304  1  0.85132116  -0.00061169  0.86385678  1
  O  O305  1  0.86134245  0.23932772  0.12008746  1
  O  O306  1  0.86631025  0.25437580  0.35039215  1
  O  O307  1  0.90325182  0.24909461  0.62150655  1
  O  O308  1  0.89083770  0.24347922  0.89900402  1
  O  O309  1  0.89124477  0.50901103  0.14116862  1
  O  O310  1  0.86763987  0.50208966  0.35402103  1
  O  O311  1  0.84766446  0.50312109  0.63332401  1
  O  O312  1  0.83985798  0.51068995  0.88135267  1
  O  O313  1  0.85832771  0.76157398  0.10669474  1
  O  O314  1  0.87776859  0.74966314  0.40595115  1
  O  O315  1  0.88078051  0.74635741  0.59553557  1
  O  O316  1  0.90252007  0.75522595  0.87891963  1
