# generated using pymatgen
data_Mg32Ti42(Bi17O64)3
_symmetry_space_group_name_H-M   'P 1'
_cell_length_a   15.91144282
_cell_length_b   16.02111178
_cell_length_c   15.93017384
_cell_angle_alpha   90.01549258
_cell_angle_beta   90.06015520
_cell_angle_gamma   90.10505211
_symmetry_Int_Tables_number   1
_chemical_formula_structural   Mg32Ti42(Bi17O64)3
_chemical_formula_sum   'Mg32 Ti42 Bi51 O192'
_cell_volume   4060.89483425
_cell_formula_units_Z   1
loop_
 _symmetry_equiv_pos_site_id
 _symmetry_equiv_pos_as_xyz
  1  'x, y, z'
loop_
 _atom_site_type_symbol
 _atom_site_label
 _atom_site_symmetry_multiplicity
 _atom_site_fract_x
 _atom_site_fract_y
 _atom_site_fract_z
 _atom_site_occupancy
  Mg  Mg0  1  0.12088709  0.13026563  0.38511134  1
  Mg  Mg1  1  0.63112872  0.37983443  0.13110775  1
  Mg  Mg2  1  0.37192161  0.62269137  0.36907035  1
  Mg  Mg3  1  0.12129399  0.37901772  0.88213860  1
  Mg  Mg4  1  0.87284134  0.63470816  0.13191667  1
  Mg  Mg5  1  0.62345477  0.63871947  0.11863628  1
  Mg  Mg6  1  0.12334257  0.87824003  0.63667423  1
  Mg  Mg7  1  0.62446949  0.11975337  0.11833429  1
  Mg  Mg8  1  0.87480522  0.87419327  0.37163091  1
  Mg  Mg9  1  0.87786495  0.87015439  0.63143892  1
  Mg  Mg10  1  0.37778668  0.37896858  0.87293476  1
  Mg  Mg11  1  0.87326988  0.61811327  0.61988777  1
  Mg  Mg12  1  0.88451289  0.62453694  0.87330921  1
  Mg  Mg13  1  0.61276773  0.12702187  0.63171964  1
  Mg  Mg14  1  0.37933124  0.61834405  0.63246757  1
  Mg  Mg15  1  0.37399263  0.87844302  0.87419015  1
  Mg  Mg16  1  0.62259719  0.86912239  0.61613879  1
  Mg  Mg17  1  0.62761801  0.38684268  0.87095960  1
  Mg  Mg18  1  0.62577164  0.62131864  0.38891844  1
  Mg  Mg19  1  0.01343720  0.68452373  0.71475000  1
  Mg  Mg20  1  0.50237078  -0.05398645  0.20832163  1
  Mg  Mg21  1  0.50750806  -0.04197496  0.71418863  1
  Mg  Mg22  1  0.23351568  0.57739863  0.53521348  1
  Mg  Mg23  1  0.50489179  0.24774504  0.76835361  1
  Mg  Mg24  1  -0.00821376  0.53580364  0.02408796  1
  Mg  Mg25  1  0.03110848  0.28390280  0.57154448  1
  Mg  Mg26  1  0.69502979  0.54417777  0.24370012  1
  Mg  Mg27  1  0.80342833  0.71929142  0.73748746  1
  Mg  Mg28  1  0.22645331  0.73028526  0.42194103  1
  Mg  Mg29  1  0.75195100  -0.00952730  0.01706622  1
  Mg  Mg30  1  0.24981944  0.71780738  0.04894324  1
  Mg  Mg31  1  0.20573781  0.69970334  0.24442854  1
  Ti  Ti32  1  0.87957993  0.13453089  0.63364043  1
  Ti  Ti33  1  0.87820508  0.87624945  0.13336205  1
  Ti  Ti34  1  0.85591726  0.11247446  0.87864573  1
  Ti  Ti35  1  0.87220317  0.12492218  0.11930136  1
  Ti  Ti36  1  0.63493645  0.37180072  0.37843823  1
  Ti  Ti37  1  0.36106849  0.87616755  0.11915159  1
  Ti  Ti38  1  0.61826918  0.86364196  0.87441429  1
  Ti  Ti39  1  0.62067943  0.63925052  0.62531045  1
  Ti  Ti40  1  0.11599280  0.87482717  0.36496955  1
  Ti  Ti41  1  0.13510146  0.86493771  0.87922000  1
  Ti  Ti42  1  0.87645064  0.38542468  0.12143304  1
  Ti  Ti43  1  0.63411890  0.62879564  0.86458608  1
  Ti  Ti44  1  0.37296963  0.87547284  0.35733590  1
  Ti  Ti45  1  0.12641139  0.87217638  0.12079515  1
  Ti  Ti46  1  0.38239343  0.11488400  0.12345972  1
  Ti  Ti47  1  0.61634168  0.11477036  0.88182853  1
  Ti  Ti48  1  0.38493364  0.12284343  0.64154137  1
  Ti  Ti49  1  0.86783679  0.37231659  0.38653933  1
  Ti  Ti50  1  0.12386137  0.12064990  0.62828031  1
  Ti  Ti51  1  0.12544443  0.61185142  0.88562585  1
  Ti  Ti52  1  0.63947262  0.87295228  0.12600348  1
  Ti  Ti53  1  0.36174475  0.36293757  0.37716164  1
  Ti  Ti54  1  0.38874662  0.36529038  0.64444475  1
  Ti  Ti55  1  0.35706624  0.62477633  0.88399260  1
  Ti  Ti56  1  0.11432799  0.62068881  0.11699178  1
  Ti  Ti57  1  0.36942407  0.87369863  0.63384613  1
  Ti  Ti58  1  0.11839407  0.11732273  0.10996091  1
  Ti  Ti59  1  0.37278109  0.11692382  0.37421142  1
  Ti  Ti60  1  0.12261975  0.12092968  0.87726999  1
  Ti  Ti61  1  0.87088139  0.38880996  0.87533497  1
  Ti  Ti62  1  0.12395455  0.35768138  0.39370315  1
  Ti  Ti63  1  0.62466077  0.87945038  0.37991100  1
  Ti  Ti64  1  0.86184958  0.61296120  0.37609982  1
  Ti  Ti65  1  0.86164392  0.87262880  0.86875634  1
  Ti  Ti66  1  0.36940895  0.37327966  0.13095351  1
  Ti  Ti67  1  0.62148665  0.37096147  0.63007428  1
  Ti  Ti68  1  0.12541197  0.36341144  0.12993764  1
  Ti  Ti69  1  0.61829712  0.12415331  0.37989296  1
  Ti  Ti70  1  0.38051972  0.12699421  0.86946838  1
  Ti  Ti71  1  0.86905366  0.37197454  0.62746000  1
  Ti  Ti72  1  0.37647063  0.61742078  0.13138121  1
  Ti  Ti73  1  0.87662558  0.13416314  0.38364425  1
  Bi  Bi74  1  -0.00851187  -0.01746801  0.77310741  1
  Bi  Bi75  1  0.51079830  0.73078563  0.27868081  1
  Bi  Bi76  1  0.45614299  0.72688020  0.50432047  1
  Bi  Bi77  1  0.73356303  0.23329868  0.51696225  1
  Bi  Bi78  1  0.21863261  0.00594542  0.25795068  1
  Bi  Bi79  1  0.46647726  0.47947826  0.49286006  1
  Bi  Bi80  1  0.48114580  0.75718451  0.00345317  1
  Bi  Bi81  1  0.05187427  0.54363990  0.48634174  1
  Bi  Bi82  1  -0.01838198  0.25834824  0.77756871  1
  Bi  Bi83  1  0.51245624  0.47076779  0.25755176  1
  Bi  Bi84  1  0.25811586  0.22679477  0.23662059  1
  Bi  Bi85  1  0.21127393  0.71788917  0.73367346  1
  Bi  Bi86  1  0.47602468  0.74935309  0.75613303  1
  Bi  Bi87  1  0.50792500  0.27915198  -0.01220947  1
  Bi  Bi88  1  0.74816627  0.00477176  0.26965200  1
  Bi  Bi89  1  -0.00690580  0.48009716  0.27289402  1
  Bi  Bi90  1  0.26327430  0.00546204  -0.00643329  1
  Bi  Bi91  1  0.23672595  0.50421095  0.30022111  1
  Bi  Bi92  1  0.23362012  -0.03147731  0.49414905  1
  Bi  Bi93  1  0.76186815  -0.01693706  0.52467027  1
  Bi  Bi94  1  0.23954330  0.47751850  0.01924172  1
  Bi  Bi95  1  0.21489157  0.26627834  0.75164537  1
  Bi  Bi96  1  0.72923120  0.23464823  0.23447363  1
  Bi  Bi97  1  0.50068967  0.24170288  0.22621889  1
  Bi  Bi98  1  0.71378834  -0.02119847  0.74620774  1
  Bi  Bi99  1  0.73059199  0.27993022  -0.00288168  1
  Bi  Bi100  1  0.53072731  -0.01266895  0.00717581  1
  Bi  Bi101  1  0.04210699  0.47968739  0.69716893  1
  Bi  Bi102  1  0.52212690  0.51377444  0.00928700  1
  Bi  Bi103  1  0.24601554  0.48861658  0.71550702  1
  Bi  Bi104  1  0.77310201  0.75182395  0.50851030  1
  Bi  Bi105  1  0.76931807  0.75038076  -0.00361728  1
  Bi  Bi106  1  0.00528383  0.71927965  0.28170564  1
  Bi  Bi107  1  0.48436878  0.51907645  0.77705920  1
  Bi  Bi108  1  0.75264694  0.51737321  0.74791554  1
  Bi  Bi109  1  0.72279385  0.24529307  0.75718457  1
  Bi  Bi110  1  0.03829176  0.74501988  0.52692300  1
  Bi  Bi111  1  -0.01283982  0.01869367  0.26622333  1
  Bi  Bi112  1  -0.01929229  0.26308119  0.00282695  1
  Bi  Bi113  1  0.49652635  0.23923322  0.50297805  1
  Bi  Bi114  1  0.23617052  -0.01478811  0.76373831  1
  Bi  Bi115  1  0.26199368  0.22554300  0.51971660  1
  Bi  Bi116  1  -0.00266656  -0.00489668  0.52459106  1
  Bi  Bi117  1  0.47937457  -0.02105257  0.49916120  1
  Bi  Bi118  1  -0.00469633  0.25237728  0.25606549  1
  Bi  Bi119  1  -0.01891385  -0.01360511  0.00732872  1
  Bi  Bi120  1  0.75885595  0.52033661  0.02718444  1
  Bi  Bi121  1  0.01409443  0.74418582  -0.01867165  1
  Bi  Bi122  1  0.74011532  0.49976680  0.51852112  1
  Bi  Bi123  1  0.26703080  0.25637742  -0.02557074  1
  Bi  Bi124  1  0.74396577  0.74739028  0.27779861  1
  O  O125  1  0.15156377  0.14233470  -0.00569276  1
  O  O126  1  0.10359965  0.09931280  0.23496768  1
  O  O127  1  0.14982647  0.14310257  0.50972514  1
  O  O128  1  0.13107300  0.09076325  0.74967386  1
  O  O129  1  0.15644689  0.36496019  0.00731194  1
  O  O130  1  0.10225009  0.39929770  0.24275012  1
  O  O131  1  0.12182870  0.32462852  0.49769462  1
  O  O132  1  0.12262086  0.38893953  0.75391770  1
  O  O133  1  0.14718474  0.66005126  0.00143432  1
  O  O134  1  0.09792841  0.62514684  0.23520721  1
  O  O135  1  0.14415960  0.65222462  0.49128710  1
  O  O136  1  0.10926391  0.61970962  0.76570200  1
  O  O137  1  0.14708626  0.85851509  -0.00176500  1
  O  O138  1  0.11065312  0.90673367  0.23997033  1
  O  O139  1  0.16111217  0.84753543  0.48050516  1
  O  O140  1  0.11504188  0.90868171  0.75888436  1
  O  O141  1  0.35652445  0.11560884  0.00677378  1
  O  O142  1  0.38838833  0.14971418  0.24955005  1
  O  O143  1  0.34569285  0.11544639  0.49210035  1
  O  O144  1  0.41235608  0.15168094  0.75389712  1
  O  O145  1  0.34548491  0.38323858  0.00708652  1
  O  O146  1  0.38661441  0.36135905  0.25309331  1
  O  O147  1  0.36640498  0.38869057  0.49764448  1
  O  O148  1  0.42297562  0.34515979  0.75125455  1
  O  O149  1  0.34147621  0.62963293  -0.00136665  1
  O  O150  1  0.40835192  0.63974732  0.24071361  1
  O  O151  1  0.35333433  0.62607392  0.50255360  1
  O  O152  1  0.40413969  0.63094820  0.75782605  1
  O  O153  1  0.35771793  0.89856781  0.00310213  1
  O  O154  1  0.40272996  0.87218003  0.24376866  1
  O  O155  1  0.36559814  0.89813472  0.50678760  1
  O  O156  1  0.40990622  0.88108568  0.74969271  1
  O  O157  1  0.64972127  0.08498643  -0.00464972  1
  O  O158  1  0.61389517  0.15696588  0.25299850  1
  O  O159  1  0.65407229  0.11674007  0.49236394  1
  O  O160  1  0.60450669  0.16510105  0.75861689  1
  O  O161  1  0.64641940  0.38778480  0.00290193  1
  O  O162  1  0.60062306  0.35695951  0.25622432  1
  O  O163  1  0.64424683  0.39545266  0.49575751  1
  O  O164  1  0.60748144  0.34067896  0.74461577  1
  O  O165  1  0.64206368  0.59728319  -0.00826664  1
  O  O166  1  0.61239019  0.65126476  0.24492058  1
  O  O167  1  0.65198808  0.60527441  0.51131176  1
  O  O168  1  0.58575394  0.63520776  0.75160757  1
  O  O169  1  0.64908968  0.90675476  -0.00542634  1
  O  O170  1  0.60161495  0.86525108  0.23913074  1
  O  O171  1  0.64642778  0.89751517  0.49119776  1
  O  O172  1  0.60647831  0.87211967  0.75542217  1
  O  O173  1  0.84722672  0.08969921  -0.00236473  1
  O  O174  1  0.90945013  0.13417814  0.23653440  1
  O  O175  1  0.85499648  0.13567881  0.49384704  1
  O  O176  1  0.89214466  0.13354999  0.74829645  1
  O  O177  1  0.86943375  0.36376119  -0.00419614  1
  O  O178  1  0.90743630  0.37664261  0.24017537  1
  O  O179  1  0.85506233  0.36761952  0.49763596  1
  O  O180  1  0.88059102  0.36388766  0.74994300  1
  O  O181  1  0.83825232  0.62919207  -0.00174123  1
  O  O182  1  0.89931495  0.63383817  0.25541258  1
  O  O183  1  0.83678714  0.62067092  0.49409263  1
  O  O184  1  0.90277037  0.64353485  0.75005278  1
  O  O185  1  0.85480122  0.90643407  -0.00583356  1
  O  O186  1  0.89342448  0.86218196  0.24288236  1
  O  O187  1  0.84328856  0.87725652  0.49579981  1
  O  O188  1  0.89897166  0.86415231  0.75726111  1
  O  O189  1  0.00428695  0.13710048  0.08785258  1
  O  O190  1  -0.00628681  0.10862477  0.38006150  1
  O  O191  1  0.00566952  0.10597306  0.61047915  1
  O  O192  1  0.01127083  0.09069117  0.88396644  1
  O  O193  1  0.00709243  0.35813135  0.10353216  1
  O  O194  1  0.00530125  0.39816414  0.38327916  1
  O  O195  1  -0.01171404  0.39409756  0.60824883  1
  O  O196  1  -0.00802607  0.36457523  0.88076891  1
  O  O197  1  0.00056641  0.64543962  0.09386651  1
  O  O198  1  -0.01172917  0.64024867  0.39600088  1
  O  O199  1  -0.00265996  0.62834925  0.59669344  1
  O  O200  1  0.00585989  0.61298708  0.92135207  1
  O  O201  1  0.00101796  0.86896704  0.09638171  1
  O  O202  1  0.00523129  0.86741131  0.38894631  1
  O  O203  1  0.00023537  0.88209787  0.59718873  1
  O  O204  1  0.00880058  0.90480050  0.88992997  1
  O  O205  1  0.25059676  0.11611311  0.14935614  1
  O  O206  1  0.25296341  0.12456001  0.34492505  1
  O  O207  1  0.26181757  0.14375160  0.63817802  1
  O  O208  1  0.26376204  0.15813276  0.86064909  1
  O  O209  1  0.24397933  0.40516082  0.14426928  1
  O  O210  1  0.24595132  0.35716518  0.36082377  1
  O  O211  1  0.27076461  0.36286708  0.65644932  1
  O  O212  1  0.25209327  0.34532392  0.86315600  1
  O  O213  1  0.24985982  0.62878733  0.14430769  1
  O  O214  1  0.25222002  0.63406805  0.33966132  1
  O  O215  1  0.25562445  0.61981275  0.65196620  1
  O  O216  1  0.24566106  0.64163752  0.85512161  1
  O  O217  1  0.25008234  0.90127871  0.13900235  1
  O  O218  1  0.26036006  0.89897946  0.35306912  1
  O  O219  1  0.25422591  0.88612983  0.64058902  1
  O  O220  1  0.24821203  0.86255376  0.84403304  1
  O  O221  1  0.49458911  0.15277433  0.11436817  1
  O  O222  1  0.50326637  0.13071223  0.39587804  1
  O  O223  1  0.49304782  0.12627001  0.58667535  1
  O  O224  1  0.50113534  0.11663917  0.90081463  1
  O  O225  1  0.48909870  0.36536216  0.11714159  1
  O  O226  1  0.50107389  0.38899223  0.39325120  1
  O  O227  1  0.50727073  0.39049067  0.59784489  1
  O  O228  1  0.50358017  0.39367423  0.90830459  1
  O  O229  1  0.49350831  0.63728759  0.08779795  1
  O  O230  1  0.49857463  0.64596302  0.39293020  1
  O  O231  1  0.50311598  0.62557240  0.59792042  1
  O  O232  1  0.50061265  0.59701319  0.89794924  1
  O  O233  1  0.50365333  0.86684316  0.09502195  1
  O  O234  1  0.50313287  0.87754897  0.39374112  1
  O  O235  1  0.49792641  0.88622522  0.60375996  1
  O  O236  1  0.50511044  0.87926324  0.90541215  1
  O  O237  1  0.75794396  0.12167323  0.15047564  1
  O  O238  1  0.75512417  0.13731458  0.34022945  1
  O  O239  1  0.75693294  0.15166116  0.63615882  1
  O  O240  1  0.74638601  0.13079390  0.85353338  1
  O  O241  1  0.76363945  0.38466225  0.13636213  1
  O  O242  1  0.75402867  0.36764957  0.35633409  1
  O  O243  1  0.74866519  0.33878091  0.63278908  1
  O  O244  1  0.75442039  0.34972874  0.86695221  1
  O  O245  1  0.74878988  0.59711452  0.14107895  1
  O  O246  1  0.74759211  0.61597210  0.33781713  1
  O  O247  1  0.74104840  0.62828894  0.66618720  1
  O  O248  1  0.74593316  0.64996011  0.83816433  1
  O  O249  1  0.75287746  0.91257526  0.13152017  1
  O  O250  1  0.74328956  0.88213484  0.33895865  1
  O  O251  1  0.74652275  0.89791885  0.63503122  1
  O  O252  1  0.74758722  0.86075278  0.85234121  1
  O  O253  1  0.11639047  0.00324328  0.09044879  1
  O  O254  1  0.13536262  -0.00220553  0.38418551  1
  O  O255  1  0.12766082  -0.00257380  0.59044620  1
  O  O256  1  0.16665764  0.00454501  0.88798362  1
  O  O257  1  0.13848695  0.25013105  0.14522157  1
  O  O258  1  0.10731229  0.25058997  0.34344074  1
  O  O259  1  0.10367266  0.23231663  0.65677829  1
  O  O260  1  0.10693999  0.23813684  0.85392085  1
  O  O261  1  0.10350643  0.51056543  0.08908029  1
  O  O262  1  0.15879506  0.48508274  0.41204326  1
  O  O263  1  0.14747238  0.50060045  0.60848074  1
  O  O264  1  0.14306714  0.50353614  0.90109917  1
  O  O265  1  0.15130808  0.76086643  0.13946698  1
  O  O266  1  0.14426819  0.76573520  0.33252174  1
  O  O267  1  0.09913737  0.75613653  0.65293835  1
  O  O268  1  0.09968065  0.75607592  0.86177017  1
  O  O269  1  0.40302953  0.00318847  0.13961165  1
  O  O270  1  0.39128566  0.00411687  0.36895761  1
  O  O271  1  0.39167363  0.00915197  0.64827528  1
  O  O272  1  0.34978424  0.01210677  0.87257120  1
  O  O273  1  0.34666160  0.25678568  0.12240405  1
  O  O274  1  0.37790044  0.24879878  0.39312906  1
  O  O275  1  0.39088493  0.25128365  0.60332653  1
  O  O276  1  0.39996126  0.24958259  0.90164904  1
  O  O277  1  0.38521224  0.50487827  0.12890225  1
  O  O278  1  0.36229992  0.49446106  0.36229039  1
  O  O279  1  0.37713204  0.49009779  0.65275759  1
  O  O280  1  0.36292005  0.50590509  0.85575574  1
  O  O281  1  0.36076980  0.76069941  0.09911143  1
  O  O282  1  0.35796760  0.76360573  0.39113936  1
  O  O283  1  0.38336328  0.75662073  0.63731052  1
  O  O284  1  0.39681187  0.74471944  0.87664865  1
  O  O285  1  0.59601681  -0.00325588  0.13722829  1
  O  O286  1  0.63029766  0.00759381  0.35279139  1
  O  O287  1  0.61259866  0.00652125  0.65849751  1
  O  O288  1  0.61820359  0.00168213  0.85037523  1
  O  O289  1  0.64535324  0.25029804  0.11398650  1
  O  O290  1  0.62781430  0.25423272  0.39791314  1
  O  O291  1  0.61313781  0.25242519  0.59267325  1
  O  O292  1  0.62198738  0.24507282  0.90723065  1
  O  O293  1  0.60590761  0.50260370  0.15499501  1
  O  O294  1  0.62366699  0.49761310  0.34262904  1
  O  O295  1  0.65688242  0.48615866  0.64127038  1
  O  O296  1  0.64173912  0.50892651  0.84247644  1
  O  O297  1  0.65298161  0.76149629  0.09935725  1
  O  O298  1  0.63976634  0.75838084  0.37617656  1
  O  O299  1  0.62702046  0.74715207  0.60869585  1
  O  O300  1  0.61122085  0.74804591  0.89512864  1
  O  O301  1  0.90083185  0.00302738  0.13637864  1
  O  O302  1  0.86242767  0.00919673  0.35619867  1
  O  O303  1  0.87638017  0.01009374  0.61035206  1
  O  O304  1  0.86614651  -0.00234073  0.85072442  1
  O  O305  1  0.87648472  0.24287737  0.10315903  1
  O  O306  1  0.89725321  0.25489041  0.36087496  1
  O  O307  1  0.91197787  0.24955493  0.61699528  1
  O  O308  1  0.89430231  0.22643982  0.88710364  1
  O  O309  1  0.89796855  0.49887666  0.10075714  1
  O  O310  1  0.87511423  0.49603840  0.36995906  1
  O  O311  1  0.84620357  0.48908922  0.62743097  1
  O  O312  1  0.85774527  0.49855819  0.87683408  1
  O  O313  1  0.84989958  0.76279321  0.10737023  1
  O  O314  1  0.84405064  0.74576299  0.37876684  1
  O  O315  1  0.85315804  0.74809331  0.61994382  1
  O  O316  1  0.88668108  0.75970421  0.90285773  1
