# generated using pymatgen
data_Mg32Ti42(Bi17O64)3
_symmetry_space_group_name_H-M   'P 1'
_cell_length_a   15.97718368
_cell_length_b   15.95711757
_cell_length_c   15.97890624
_cell_angle_alpha   89.95939555
_cell_angle_beta   90.13703033
_cell_angle_gamma   89.95236021
_symmetry_Int_Tables_number   1
_chemical_formula_structural   Mg32Ti42(Bi17O64)3
_chemical_formula_sum   'Mg32 Ti42 Bi51 O192'
_cell_volume   4073.80483609
_cell_formula_units_Z   1
loop_
 _symmetry_equiv_pos_site_id
 _symmetry_equiv_pos_as_xyz
  1  'x, y, z'
loop_
 _atom_site_type_symbol
 _atom_site_label
 _atom_site_symmetry_multiplicity
 _atom_site_fract_x
 _atom_site_fract_y
 _atom_site_fract_z
 _atom_site_occupancy
  Mg  Mg0  1  0.62748000  0.62514242  0.38002069  1
  Mg  Mg1  1  0.62989065  0.61922930  0.62768212  1
  Mg  Mg2  1  0.38132197  0.13080449  0.87090552  1
  Mg  Mg3  1  0.12527997  0.36363662  0.37846715  1
  Mg  Mg4  1  0.87022803  0.38287359  0.60695125  1
  Mg  Mg5  1  0.87214836  0.12374115  0.86722440  1
  Mg  Mg6  1  0.61489404  0.87402400  0.86482149  1
  Mg  Mg7  1  0.37147829  0.12568449  0.61521518  1
  Mg  Mg8  1  0.87083411  0.12975938  0.13047056  1
  Mg  Mg9  1  0.37414728  0.62391337  0.38231238  1
  Mg  Mg10  1  0.87776392  0.87465146  0.88397121  1
  Mg  Mg11  1  0.86673385  0.86692989  0.61819635  1
  Mg  Mg12  1  0.11961180  0.12693091  0.87421515  1
  Mg  Mg13  1  0.11591876  0.60897573  0.14155008  1
  Mg  Mg14  1  0.12551643  0.87211909  0.63385730  1
  Mg  Mg15  1  0.63377963  0.36387168  0.37713279  1
  Mg  Mg16  1  0.61594951  0.87055945  0.37654886  1
  Mg  Mg17  1  0.87322494  0.37914469  0.88113980  1
  Mg  Mg18  1  0.61475541  0.62272940  0.12163465  1
  Mg  Mg19  1  0.28948370  0.18233972  0.18486137  1
  Mg  Mg20  1  -0.00421535  0.45938480  0.24567083  1
  Mg  Mg21  1  0.70529697  0.73578974  0.51367402  1
  Mg  Mg22  1  0.57167817  0.49493866  0.48676908  1
  Mg  Mg23  1  0.19973128  0.00165119  0.54011368  1
  Mg  Mg24  1  0.17978938  0.55067050  0.77632219  1
  Mg  Mg25  1  0.11723688  0.36129614  0.85566541  1
  Mg  Mg26  1  0.78451327  0.53697239  0.50262950  1
  Mg  Mg27  1  0.24497537  -0.02966392  0.22550586  1
  Mg  Mg28  1  0.21322966  0.81143317  0.49542741  1
  Mg  Mg29  1  0.50700149  0.67970430  0.51119755  1
  Mg  Mg30  1  0.53856960  0.50330412  -0.04162151  1
  Mg  Mg31  1  0.76065700  0.20491731  0.47843803  1
  Ti  Ti32  1  0.12326383  0.35925699  0.13597655  1
  Ti  Ti33  1  0.12629373  0.87930436  0.12533022  1
  Ti  Ti34  1  0.86783842  0.12520966  0.62436477  1
  Ti  Ti35  1  0.37701676  0.61005322  0.87877904  1
  Ti  Ti36  1  0.38968110  0.36775728  0.88584818  1
  Ti  Ti37  1  0.36927682  0.36523222  0.37405093  1
  Ti  Ti38  1  0.38421938  0.61269826  0.12515883  1
  Ti  Ti39  1  0.61840654  0.86371261  0.62133166  1
  Ti  Ti40  1  0.86419791  0.38122969  0.37917154  1
  Ti  Ti41  1  0.36068159  0.37917372  0.12837300  1
  Ti  Ti42  1  0.11823987  0.12260254  0.13199557  1
  Ti  Ti43  1  0.36665662  0.87512971  0.86224108  1
  Ti  Ti44  1  0.61196720  0.86785266  0.12515888  1
  Ti  Ti45  1  0.88192950  0.60260674  0.13162030  1
  Ti  Ti46  1  0.62447954  0.11542652  0.11998362  1
  Ti  Ti47  1  0.87762212  0.62652750  0.37264191  1
  Ti  Ti48  1  0.12258710  0.12468203  0.36698734  1
  Ti  Ti49  1  0.12698233  0.64715887  0.37127217  1
  Ti  Ti50  1  0.36173467  0.12217178  0.38143644  1
  Ti  Ti51  1  0.11098133  0.13386208  0.63204733  1
  Ti  Ti52  1  0.12829681  0.63742114  0.61579738  1
  Ti  Ti53  1  0.87171363  0.86900202  0.37206092  1
  Ti  Ti54  1  0.62901382  0.62416138  0.86806040  1
  Ti  Ti55  1  0.36484328  0.87416039  0.61601732  1
  Ti  Ti56  1  0.37247518  0.37737933  0.60711028  1
  Ti  Ti57  1  0.13237624  0.88639405  0.89110431  1
  Ti  Ti58  1  0.87303035  0.63795031  0.61964221  1
  Ti  Ti59  1  0.12612681  0.38519936  0.62851915  1
  Ti  Ti60  1  0.62338634  0.12170080  0.85561122  1
  Ti  Ti61  1  0.37274929  0.87112058  0.11768085  1
  Ti  Ti62  1  0.63527616  0.11497213  0.62552803  1
  Ti  Ti63  1  0.62833241  0.37023327  0.61513880  1
  Ti  Ti64  1  0.86551966  0.87611623  0.12090136  1
  Ti  Ti65  1  0.12531470  0.89111128  0.36693060  1
  Ti  Ti66  1  0.87380562  0.62241097  0.89135561  1
  Ti  Ti67  1  0.87459399  0.11211013  0.36946896  1
  Ti  Ti68  1  0.37096955  0.61214791  0.61868620  1
  Ti  Ti69  1  0.63842043  0.12405946  0.35742120  1
  Ti  Ti70  1  0.62239377  0.36318543  0.87814398  1
  Ti  Ti71  1  0.60441466  0.37582038  0.12222293  1
  Ti  Ti72  1  0.88156690  0.37215967  0.11745180  1
  Ti  Ti73  1  0.36812922  0.88119476  0.37755191  1
  Bi  Bi74  1  -0.00869399  -0.00355716  0.53388839  1
  Bi  Bi75  1  0.72105869  0.50754414  0.24477041  1
  Bi  Bi76  1  0.26624451  0.72286237  0.75765218  1
  Bi  Bi77  1  0.26092186  0.28336348  0.74649751  1
  Bi  Bi78  1  0.47996418  0.00064588  -0.00809728  1
  Bi  Bi79  1  0.74964925  0.23804368  -0.00505874  1
  Bi  Bi80  1  -0.01567324  0.02007567  0.00748819  1
  Bi  Bi81  1  0.48343823  0.74386608  0.27928130  1
  Bi  Bi82  1  0.00038653  0.78098548  0.50596903  1
  Bi  Bi83  1  0.48356317  0.75403174  -0.03010517  1
  Bi  Bi84  1  0.49141043  0.47547076  0.28406780  1
  Bi  Bi85  1  -0.02443622  0.24180632  0.48907964  1
  Bi  Bi86  1  -0.00654959  0.25833861  0.26341044  1
  Bi  Bi87  1  0.46361097  0.00967066  0.24281378  1
  Bi  Bi88  1  0.47752567  0.24280158  0.25631095  1
  Bi  Bi89  1  0.02571343  0.71780964  0.00245480  1
  Bi  Bi90  1  0.01773392  -0.03031098  0.76128198  1
  Bi  Bi91  1  0.47037094  0.01450443  0.73940431  1
  Bi  Bi92  1  0.78995970  0.26291559  0.73571524  1
  Bi  Bi93  1  0.72532974  -0.02162044  0.25093721  1
  Bi  Bi94  1  0.49597110  0.25253048  0.71497958  1
  Bi  Bi95  1  0.49402365  0.73515534  0.72254542  1
  Bi  Bi96  1  0.00302939  0.51249388  0.46668576  1
  Bi  Bi97  1  0.52585476  0.22365764  0.48328409  1
  Bi  Bi98  1  0.24440476  0.47571281  -0.03548900  1
  Bi  Bi99  1  0.47188596  0.22187566  0.02903630  1
  Bi  Bi100  1  0.23663695  0.23671717  -0.02185290  1
  Bi  Bi101  1  0.73520359  -0.02751192  0.50752496  1
  Bi  Bi102  1  0.22754759  0.49222612  0.25283314  1
  Bi  Bi103  1  -0.01167639  -0.02089913  0.24180017  1
  Bi  Bi104  1  0.73989916  0.50158560  0.01132517  1
  Bi  Bi105  1  0.25877105  0.01548705  0.02233918  1
  Bi  Bi106  1  0.22734816  0.21768677  0.50224105  1
  Bi  Bi107  1  -0.01171092  0.24792792  -0.02930624  1
  Bi  Bi108  1  0.24336646  0.04739359  0.75215994  1
  Bi  Bi109  1  0.72420066  0.77823236  -0.00217014  1
  Bi  Bi110  1  0.48703990  -0.01268904  0.50928652  1
  Bi  Bi111  1  0.23361602  0.49682014  0.46844600  1
  Bi  Bi112  1  -0.02382067  0.74638543  0.22961080  1
  Bi  Bi113  1  0.77080136  0.47987273  0.75382516  1
  Bi  Bi114  1  0.02868686  0.48956159  -0.03315501  1
  Bi  Bi115  1  0.02541377  0.74043282  0.78743014  1
  Bi  Bi116  1  0.76063481  0.01306929  -0.01380098  1
  Bi  Bi117  1  0.72755736  0.74371836  0.26374445  1
  Bi  Bi118  1  0.24143517  0.70674478  0.01713974  1
  Bi  Bi119  1  0.51322844  0.47900954  0.73590811  1
  Bi  Bi120  1  0.77264281  0.75172092  0.77469129  1
  Bi  Bi121  1  0.73877695  0.27549823  0.22509073  1
  Bi  Bi122  1  0.26105768  0.72269225  0.24805412  1
  Bi  Bi123  1  0.75120056  -0.03173030  0.76670599  1
  Bi  Bi124  1  -0.00995683  0.49859650  0.71415627  1
  O  O125  1  0.15782041  0.11307869  0.01146580  1
  O  O126  1  0.11875534  0.14553744  0.25168280  1
  O  O127  1  0.13244455  0.10555615  0.49861579  1
  O  O128  1  0.13783559  0.14396811  0.74407513  1
  O  O129  1  0.13337015  0.40849466  0.01978797  1
  O  O130  1  0.09732279  0.35174674  0.25373567  1
  O  O131  1  0.14519145  0.40032045  0.50718709  1
  O  O132  1  0.13007717  0.34013746  0.73662287  1
  O  O133  1  0.12151899  0.61854309  0.01156943  1
  O  O134  1  0.11453484  0.66489373  0.25772983  1
  O  O135  1  0.13905664  0.59776587  0.50642939  1
  O  O136  1  0.12739931  0.66281967  0.74292337  1
  O  O137  1  0.13442410  0.91687667  0.00363476  1
  O  O138  1  0.15748064  0.87729729  0.24489062  1
  O  O139  1  0.11766094  0.90406561  0.49052194  1
  O  O140  1  0.10533755  0.85896124  0.75524962  1
  O  O141  1  0.39693647  0.11113359  -0.00356231  1
  O  O142  1  0.38068053  0.12871111  0.25763951  1
  O  O143  1  0.40055073  0.13389256  0.49291033  1
  O  O144  1  0.36829036  0.11294877  0.74512363  1
  O  O145  1  0.34619114  0.38798642  0.00784749  1
  O  O146  1  0.38535521  0.36888414  0.25019244  1
  O  O147  1  0.35919474  0.37553973  0.49629967  1
  O  O148  1  0.38767380  0.35676689  0.76725190  1
  O  O149  1  0.35118770  0.61555963  0.00169887  1
  O  O150  1  0.37594919  0.63888930  0.24503486  1
  O  O151  1  0.38056995  0.63092404  0.50848129  1
  O  O152  1  0.39084046  0.64306008  0.75732971  1
  O  O153  1  0.38590977  0.87690572  0.00186732  1
  O  O154  1  0.35723704  0.91430939  0.24757971  1
  O  O155  1  0.39398377  0.87568932  0.49634294  1
  O  O156  1  0.36403773  0.88162635  0.74629979  1
  O  O157  1  0.58760467  0.10843167  0.00908384  1
  O  O158  1  0.65928862  0.14593781  0.24680485  1
  O  O159  1  0.59913416  0.10857035  0.50572385  1
  O  O160  1  0.65463993  0.14121558  0.74666140  1
  O  O161  1  0.63084887  0.40787292  0.00372751  1
  O  O162  1  0.61693303  0.34156594  0.24338853  1
  O  O163  1  0.63059139  0.39013378  0.50480727  1
  O  O164  1  0.59203405  0.36235470  0.76096749  1
  O  O165  1  0.62959254  0.58615148  -0.00202692  1
  O  O166  1  0.64286000  0.63808862  0.25144336  1
  O  O167  1  0.61162048  0.60737121  0.50281569  1
  O  O168  1  0.61562577  0.65407437  0.75453277  1
  O  O169  1  0.62710310  0.88287393  0.00765522  1
  O  O170  1  0.64741242  0.86020826  0.24920172  1
  O  O171  1  0.61195720  0.90961870  0.49534361  1
  O  O172  1  0.64190701  0.85577560  0.73505972  1
  O  O173  1  0.87112780  0.09439490  0.00251762  1
  O  O174  1  0.87115200  0.14947988  0.25956355  1
  O  O175  1  0.88698646  0.12617317  0.49526869  1
  O  O176  1  0.85745761  0.13437741  0.73977265  1
  O  O177  1  0.86769878  0.39966232  0.00816181  1
  O  O178  1  0.90283926  0.36235241  0.25128215  1
  O  O179  1  0.84895017  0.42530112  0.48726075  1
  O  O180  1  0.86857737  0.37702687  0.75056852  1
  O  O181  1  0.87465152  0.60745159  0.00581255  1
  O  O182  1  0.87709622  0.63655500  0.25087171  1
  O  O183  1  0.89334999  0.59990783  0.49548491  1
  O  O184  1  0.87101329  0.65398488  0.73689002  1
  O  O185  1  0.87782736  0.89987098  0.00773400  1
  O  O186  1  0.87765887  0.87380746  0.25161643  1
  O  O187  1  0.90182496  0.88629703  0.48571171  1
  O  O188  1  0.85311932  0.86153884  0.74428723  1
  O  O189  1  0.00670535  0.13907894  0.10223457  1
  O  O190  1  0.00100122  0.15089554  0.37977506  1
  O  O191  1  -0.00516826  0.12643499  0.62358092  1
  O  O192  1  -0.00258913  0.11944353  0.90063903  1
  O  O193  1  0.00555541  0.34620358  0.11469369  1
  O  O194  1  -0.00403308  0.34136934  0.38913121  1
  O  O195  1  0.00544438  0.40082648  0.61627738  1
  O  O196  1  -0.00099130  0.37318000  0.89644711  1
  O  O197  1  -0.00389867  0.64827323  0.12876251  1
  O  O198  1  0.00930232  0.63642602  0.39323678  1
  O  O199  1  0.00946579  0.60958697  0.62826572  1
  O  O200  1  -0.00748216  0.63162183  0.88368917  1
  O  O201  1  0.00801520  0.86496851  0.14581639  1
  O  O202  1  0.01235092  0.86224731  0.35290368  1
  O  O203  1  -0.00084112  0.87840516  0.61298575  1
  O  O204  1  0.00142739  0.89657520  0.87810668  1
  O  O205  1  0.24327888  0.07567496  0.15014351  1
  O  O206  1  0.25030929  0.11044671  0.38274612  1
  O  O207  1  0.24361256  0.10441185  0.61503796  1
  O  O208  1  0.25239458  0.13701841  0.87019344  1
  O  O209  1  0.24555396  0.39048069  0.15279502  1
  O  O210  1  0.25131119  0.39524001  0.36045371  1
  O  O211  1  0.25707354  0.37035096  0.63996867  1
  O  O212  1  0.25046578  0.36187313  0.87546915  1
  O  O213  1  0.24390067  0.62808232  0.13542707  1
  O  O214  1  0.24760219  0.62175139  0.35772730  1
  O  O215  1  0.25215453  0.63024385  0.65039176  1
  O  O216  1  0.25594921  0.61957496  0.84941373  1
  O  O217  1  0.25435859  0.90519194  0.11542233  1
  O  O218  1  0.25261161  0.88913104  0.39567279  1
  O  O219  1  0.24978390  0.88761389  0.59303559  1
  O  O220  1  0.24713828  0.87471629  0.87509180  1
  O  O221  1  0.51493873  0.15393982  0.15034789  1
  O  O222  1  0.51739051  0.15208061  0.35897998  1
  O  O223  1  0.51115964  0.11398985  0.64931128  1
  O  O224  1  0.50804247  0.12113051  0.84357359  1
  O  O225  1  0.49415158  0.36013968  0.11377706  1
  O  O226  1  0.49676459  0.36191316  0.37306496  1
  O  O227  1  0.49501251  0.37444328  0.62986912  1
  O  O228  1  0.50147474  0.39086188  0.90777041  1
  O  O229  1  0.49127137  0.64013755  0.11367850  1
  O  O230  1  0.50015267  0.66213493  0.38426521  1
  O  O231  1  0.49333602  0.63213062  0.63147531  1
  O  O232  1  0.49593405  0.62346501  0.90090269  1
  O  O233  1  0.50000922  0.85289478  0.13489330  1
  O  O234  1  0.49280948  0.86334830  0.34983059  1
  O  O235  1  0.50506489  0.89245268  0.62864011  1
  O  O236  1  0.49234165  0.85163893  0.86821976  1
  O  O237  1  0.74149591  0.11926115  0.09211856  1
  O  O238  1  0.75618696  0.10927983  0.39214036  1
  O  O239  1  0.74759823  0.14015475  0.58943085  1
  O  O240  1  0.73772881  0.12762846  0.90770781  1
  O  O241  1  0.76138449  0.39979090  0.14656660  1
  O  O242  1  0.75598239  0.38405575  0.33946673  1
  O  O243  1  0.73957243  0.37378130  0.64836614  1
  O  O244  1  0.73757143  0.38600391  0.86463254  1
  O  O245  1  0.76053946  0.58628919  0.12771154  1
  O  O246  1  0.76838402  0.59143383  0.38754352  1
  O  O247  1  0.75725109  0.63668509  0.58724061  1
  O  O248  1  0.74581248  0.62429986  0.87175175  1
  O  O249  1  0.75167171  0.89348558  0.12457967  1
  O  O250  1  0.75940143  0.89980353  0.37949432  1
  O  O251  1  0.74337482  0.85113393  0.57634633  1
  O  O252  1  0.74249858  0.86267106  0.87292999  1
  O  O253  1  0.09739836  0.00365512  0.14195374  1
  O  O254  1  0.11326660  0.00539157  0.35098267  1
  O  O255  1  0.11176165  0.00404101  0.63934989  1
  O  O256  1  0.12511943  0.00151344  0.84378675  1
  O  O257  1  0.16493453  0.24492096  0.12017871  1
  O  O258  1  0.14312347  0.24078573  0.39911330  1
  O  O259  1  0.12781343  0.24806092  0.59323922  1
  O  O260  1  0.11848319  0.24899784  0.91022493  1
  O  O261  1  0.10645351  0.49023537  0.17961770  1
  O  O262  1  0.12696210  0.50491703  0.36834813  1
  O  O263  1  0.13308406  0.49989489  0.66914680  1
  O  O264  1  0.12345613  0.48858638  0.86711034  1
  O  O265  1  0.13329519  0.76640021  0.09550547  1
  O  O266  1  0.14538921  0.75679410  0.40358965  1
  O  O267  1  0.13035087  0.75098623  0.58658158  1
  O  O268  1  0.11045141  0.76482308  0.89742407  1
  O  O269  1  0.41046508  -0.00603409  0.11424803  1
  O  O270  1  0.40116635  0.00634674  0.37995939  1
  O  O271  1  0.38660385  -0.00278826  0.61880550  1
  O  O272  1  0.38493088  -0.00763599  0.87795526  1
  O  O273  1  0.36213035  0.25455853  0.11661288  1
  O  O274  1  0.36408459  0.24866948  0.37119632  1
  O  O275  1  0.37958546  0.25395965  0.63084382  1
  O  O276  1  0.38805867  0.25364568  0.90576392  1
  O  O277  1  0.38269191  0.49871935  0.13864643  1
  O  O278  1  0.39145584  0.49645267  0.37155792  1
  O  O279  1  0.37656100  0.49793273  0.63005569  1
  O  O280  1  0.37512792  0.49667933  0.87487630  1
  O  O281  1  0.34610496  0.75634808  0.12241946  1
  O  O282  1  0.36198353  0.76463805  0.34777993  1
  O  O283  1  0.37761812  0.75899774  0.63467881  1
  O  O284  1  0.36677468  0.74797687  0.88845919  1
  O  O285  1  0.61790929  -0.00077709  0.15194862  1
  O  O286  1  0.62261191  0.00753718  0.34324952  1
  O  O287  1  0.65418414  0.00009053  0.63178855  1
  O  O288  1  0.63636756  0.00238653  0.85431635  1
  O  O289  1  0.65255009  0.26004328  0.10627588  1
  O  O290  1  0.65263942  0.23914939  0.41252152  1
  O  O291  1  0.60517974  0.25011358  0.61655607  1
  O  O292  1  0.62626047  0.25121776  0.89689193  1
  O  O293  1  0.61445025  0.49153151  0.15547366  1
  O  O294  1  0.60395633  0.49576376  0.36361809  1
  O  O295  1  0.61282522  0.49296348  0.64193285  1
  O  O296  1  0.60728667  0.50689794  0.84836522  1
  O  O297  1  0.64837935  0.75244457  0.11487698  1
  O  O298  1  0.66820357  0.74938617  0.39066172  1
  O  O299  1  0.60194065  0.75240534  0.58790884  1
  O  O300  1  0.62037485  0.74174937  0.91240864  1
  O  O301  1  0.89666129  0.00149941  0.14198546  1
  O  O302  1  0.89589040  0.00191665  0.35936334  1
  O  O303  1  0.87040723  0.00315303  0.61550382  1
  O  O304  1  0.84391797  -0.00117070  0.86461638  1
  O  O305  1  0.85253001  0.25671384  0.10934677  1
  O  O306  1  0.85591967  0.26427960  0.41582027  1
  O  O307  1  0.86623660  0.25425202  0.61760863  1
  O  O308  1  0.86664924  0.25005960  0.89279372  1
  O  O309  1  0.91562230  0.49690532  0.14910906  1
  O  O310  1  0.92422739  0.49799730  0.35121099  1
  O  O311  1  0.86522136  0.50952112  0.64370550  1
  O  O312  1  0.87138261  0.50985416  0.85252004  1
  O  O313  1  0.87003967  0.75838975  0.12756814  1
  O  O314  1  0.87109902  0.74870670  0.37968223  1
  O  O315  1  0.89853903  0.74644176  0.59324257  1
  O  O316  1  0.86516789  0.74565071  0.88152366  1
