# generated using pymatgen
data_Mg32Ti42(Bi17O64)3
_symmetry_space_group_name_H-M   'P 1'
_cell_length_a   15.97661728
_cell_length_b   15.97492040
_cell_length_c   15.98000626
_cell_angle_alpha   89.93584247
_cell_angle_beta   90.14404015
_cell_angle_gamma   89.88893365
_symmetry_Int_Tables_number   1
_chemical_formula_structural   Mg32Ti42(Bi17O64)3
_chemical_formula_sum   'Mg32 Ti42 Bi51 O192'
_cell_volume   4078.47699222
_cell_formula_units_Z   1
loop_
 _symmetry_equiv_pos_site_id
 _symmetry_equiv_pos_as_xyz
  1  'x, y, z'
loop_
 _atom_site_type_symbol
 _atom_site_label
 _atom_site_symmetry_multiplicity
 _atom_site_fract_x
 _atom_site_fract_y
 _atom_site_fract_z
 _atom_site_occupancy
  Mg  Mg0  1  0.12225144  0.12121306  0.87999078  1
  Mg  Mg1  1  0.86798093  0.87549462  0.87100250  1
  Mg  Mg2  1  0.11651856  0.86110843  0.62144017  1
  Mg  Mg3  1  0.37857529  0.62240771  0.87249285  1
  Mg  Mg4  1  0.87586640  0.37497826  0.36856801  1
  Mg  Mg5  1  0.37939831  0.37841111  0.86587320  1
  Mg  Mg6  1  0.37884804  0.12338421  0.87146429  1
  Mg  Mg7  1  0.87113219  0.12361609  0.63597235  1
  Mg  Mg8  1  0.12572690  0.12826573  0.12526615  1
  Mg  Mg9  1  0.12918879  0.87526589  0.13132244  1
  Mg  Mg10  1  0.12980025  0.11923082  0.37319351  1
  Mg  Mg11  1  0.62532757  0.88154037  0.86273877  1
  Mg  Mg12  1  0.11653671  0.61614580  0.88036809  1
  Mg  Mg13  1  0.38130017  0.13247516  0.37299176  1
  Mg  Mg14  1  0.12556361  0.12364116  0.62604723  1
  Mg  Mg15  1  0.88276541  0.36992909  0.61989222  1
  Mg  Mg16  1  0.62435535  0.61080374  0.37916223  1
  Mg  Mg17  1  0.12208964  0.61725613  0.36677629  1
  Mg  Mg18  1  0.62920027  0.36634032  0.62675163  1
  Mg  Mg19  1  0.46143973  -0.00825686  0.71644425  1
  Mg  Mg20  1  0.54956097  0.46697449  0.49970484  1
  Mg  Mg21  1  0.04543120  0.03504396  0.74206543  1
  Mg  Mg22  1  0.49283124  0.81282339  0.00386336  1
  Mg  Mg23  1  0.21004381  -0.05565121  0.74101470  1
  Mg  Mg24  1  0.21775797  0.45141147  0.25092394  1
  Mg  Mg25  1  -0.02587593  0.43169181  0.79500346  1
  Mg  Mg26  1  0.19763762  0.71084228  0.49709664  1
  Mg  Mg27  1  0.73047059  -0.00360521  0.71513505  1
  Mg  Mg28  1  0.49393681  0.46714510  0.69368848  1
  Mg  Mg29  1  -0.03212674  -0.00288996  0.55913834  1
  Mg  Mg30  1  -0.02498589  0.27836982  -0.03827368  1
  Mg  Mg31  1  -0.00799639  0.83346698  0.74539613  1
  Ti  Ti32  1  0.13857177  0.62418072  0.12977842  1
  Ti  Ti33  1  0.86482146  0.87224688  0.63051653  1
  Ti  Ti34  1  0.37625604  0.88059674  0.12301478  1
  Ti  Ti35  1  0.60645406  0.61838893  0.62856847  1
  Ti  Ti36  1  0.87784352  0.63497058  0.63864299  1
  Ti  Ti37  1  0.87192717  0.86943555  0.12558249  1
  Ti  Ti38  1  0.61809997  0.62127947  0.86843089  1
  Ti  Ti39  1  0.62125098  0.88148265  0.62189330  1
  Ti  Ti40  1  0.87909263  0.11424861  0.13219732  1
  Ti  Ti41  1  0.86913185  0.61354782  0.36201640  1
  Ti  Ti42  1  0.63267022  0.87470638  0.38441112  1
  Ti  Ti43  1  0.88171546  0.63746046  0.87923882  1
  Ti  Ti44  1  0.37509300  0.12128064  0.62364985  1
  Ti  Ti45  1  0.36701566  0.37005374  0.12817628  1
  Ti  Ti46  1  0.62923930  0.63604914  0.11204096  1
  Ti  Ti47  1  0.12705040  0.36481187  0.11803881  1
  Ti  Ti48  1  0.88013559  0.11883781  0.36604998  1
  Ti  Ti49  1  0.39139991  0.62438149  0.12291347  1
  Ti  Ti50  1  0.12900427  0.37977466  0.38714472  1
  Ti  Ti51  1  0.35830291  0.37606927  0.62218649  1
  Ti  Ti52  1  0.62101160  0.87180351  0.12365342  1
  Ti  Ti53  1  0.61525806  0.37638386  0.85626425  1
  Ti  Ti54  1  0.87896355  0.11371503  0.86389031  1
  Ti  Ti55  1  0.88431842  0.36403256  0.12529754  1
  Ti  Ti56  1  0.11101719  0.62466668  0.63088931  1
  Ti  Ti57  1  0.61933415  0.11647657  0.38092366  1
  Ti  Ti58  1  0.38118546  0.61435129  0.38855859  1
  Ti  Ti59  1  0.10983512  0.88508371  0.87394481  1
  Ti  Ti60  1  0.37287970  0.11893337  0.12681808  1
  Ti  Ti61  1  0.37278738  0.88904996  0.86871433  1
  Ti  Ti62  1  0.11964678  0.86448644  0.38505615  1
  Ti  Ti63  1  0.63504214  0.12354036  0.84844167  1
  Ti  Ti64  1  0.61220673  0.11249678  0.13479891  1
  Ti  Ti65  1  0.11584260  0.37468528  0.63255698  1
  Ti  Ti66  1  0.87992255  0.88079803  0.38670350  1
  Ti  Ti67  1  0.37088377  0.37809922  0.38102706  1
  Ti  Ti68  1  0.61669127  0.12747717  0.61519976  1
  Ti  Ti69  1  0.63890053  0.37377101  0.37880384  1
  Ti  Ti70  1  0.86911430  0.62740913  0.12222205  1
  Ti  Ti71  1  0.36915806  0.61948029  0.62694206  1
  Ti  Ti72  1  0.36499770  0.86178298  0.63324563  1
  Ti  Ti73  1  0.12787155  0.37254132  0.88686579  1
  Bi  Bi74  1  0.24389220  0.52151539  0.77574787  1
  Bi  Bi75  1  0.48278436  0.75625684  0.77744426  1
  Bi  Bi76  1  0.53615914  0.46618011  0.01212808  1
  Bi  Bi77  1  0.73212637  0.47901605  0.21717408  1
  Bi  Bi78  1  0.77154010  0.24841231  0.50083344  1
  Bi  Bi79  1  0.50896224  0.02266784  -0.02825280  1
  Bi  Bi80  1  0.24783983  0.22693248  0.50245348  1
  Bi  Bi81  1  0.27840183  0.50882736  0.00150142  1
  Bi  Bi82  1  0.49603168  0.27964943  0.50249777  1
  Bi  Bi83  1  0.77593683  0.23009493  0.00366004  1
  Bi  Bi84  1  0.22928924  0.74337891  0.78643112  1
  Bi  Bi85  1  0.49132821  -0.02219942  0.26469518  1
  Bi  Bi86  1  -0.02033979  0.49358635  -0.00482267  1
  Bi  Bi87  1  -0.01771930  0.72046110  0.48850265  1
  Bi  Bi88  1  0.73062197  0.72506728  0.25470299  1
  Bi  Bi89  1  0.27091480  0.25355964  -0.02223026  1
  Bi  Bi90  1  0.00386308  0.72752116  0.23411308  1
  Bi  Bi91  1  0.73377596  0.76038167  -0.02737650  1
  Bi  Bi92  1  0.26515990  -0.03033035  0.28883866  1
  Bi  Bi93  1  0.73067566  0.73282829  0.50058677  1
  Bi  Bi94  1  0.76272647  0.49168530  0.53617857  1
  Bi  Bi95  1  -0.01493584  0.49019407  0.49967467  1
  Bi  Bi96  1  0.00498220  0.47499150  0.25217608  1
  Bi  Bi97  1  0.02093014  0.23766191  0.75200204  1
  Bi  Bi98  1  0.22855930  0.00944930  0.02430732  1
  Bi  Bi99  1  0.72446291  0.75310752  0.73281209  1
  Bi  Bi100  1  0.02939218  0.23832498  0.26223242  1
  Bi  Bi101  1  0.24959047  0.22159700  0.75542614  1
  Bi  Bi102  1  0.00255909  -0.03236525  0.25505833  1
  Bi  Bi103  1  0.76253568  0.01844691  0.50657962  1
  Bi  Bi104  1  0.73486982  0.23341858  0.23704986  1
  Bi  Bi105  1  0.77599716  0.51494748  0.76972231  1
  Bi  Bi106  1  0.74376958  0.47949794  -0.01912086  1
  Bi  Bi107  1  0.47482785  0.75539885  0.49931653  1
  Bi  Bi108  1  0.45599984  -0.01741773  0.48185433  1
  Bi  Bi109  1  -0.01054997  0.20917968  0.49868862  1
  Bi  Bi110  1  0.49472143  0.73245497  0.27488700  1
  Bi  Bi111  1  0.51439316  0.26816358  0.24510590  1
  Bi  Bi112  1  0.75968011  -0.00537987  -0.02280275  1
  Bi  Bi113  1  0.50683921  0.23811712  -0.02446090  1
  Bi  Bi114  1  0.00314710  0.00252503  0.01621077  1
  Bi  Bi115  1  0.21753808  -0.00356907  0.51520368  1
  Bi  Bi116  1  0.02837422  0.73976451  -0.00406421  1
  Bi  Bi117  1  0.49234132  0.48735646  0.23861435  1
  Bi  Bi118  1  0.26035576  0.73662508  0.27382956  1
  Bi  Bi119  1  0.48624330  0.24995136  0.73572191  1
  Bi  Bi120  1  0.23086009  0.51074765  0.51560446  1
  Bi  Bi121  1  0.28303437  0.74909483  0.01462950  1
  Bi  Bi122  1  0.73899438  -0.02107191  0.24817668  1
  Bi  Bi123  1  0.79123845  0.27839355  0.78216418  1
  Bi  Bi124  1  0.26370373  0.23460734  0.26354395  1
  O  O125  1  0.11791386  0.09023017  0.00052354  1
  O  O126  1  0.14045268  0.15680880  0.24935875  1
  O  O127  1  0.14384089  0.11778709  0.50179630  1
  O  O128  1  0.12721283  0.14540380  0.75224303  1
  O  O129  1  0.15323321  0.38124579  0.00213583  1
  O  O130  1  0.10254208  0.36930262  0.24508507  1
  O  O131  1  0.14500220  0.38615103  0.50224936  1
  O  O132  1  0.08569304  0.36827629  0.75348647  1
  O  O133  1  0.10755471  0.62322138  0.01103522  1
  O  O134  1  0.13609417  0.66209929  0.24860360  1
  O  O135  1  0.12416883  0.60092548  0.49614257  1
  O  O136  1  0.13948588  0.63147487  0.74456768  1
  O  O137  1  0.11652923  0.91040238  -0.00778252  1
  O  O138  1  0.10046405  0.86923873  0.25858246  1
  O  O139  1  0.13419979  0.89080991  0.50126953  1
  O  O140  1  0.11699271  0.84510764  0.75138490  1
  O  O141  1  0.41646494  0.12678748  0.00643113  1
  O  O142  1  0.35171044  0.12204207  0.24280751  1
  O  O143  1  0.37096923  0.14263086  0.50595788  1
  O  O144  1  0.37416996  0.14978160  0.74809679  1
  O  O145  1  0.34833841  0.38518558  0.01074638  1
  O  O146  1  0.38764135  0.39602798  0.25350165  1
  O  O147  1  0.34698340  0.35397636  0.49891409  1
  O  O148  1  0.40636399  0.37789462  0.73783962  1
  O  O149  1  0.36627687  0.62098163  -0.00020152  1
  O  O150  1  0.37469295  0.64578318  0.24098655  1
  O  O151  1  0.41063613  0.62758593  0.50039847  1
  O  O152  1  0.34696776  0.62157759  0.73973590  1
  O  O153  1  0.37853565  0.87761171  -0.01349254  1
  O  O154  1  0.38841947  0.87366024  0.23753593  1
  O  O155  1  0.38414140  0.87028362  0.51422990  1
  O  O156  1  0.40376511  0.88047792  0.74569062  1
  O  O157  1  0.60047522  0.12664940  0.01879412  1
  O  O158  1  0.65986452  0.10556234  0.25984186  1
  O  O159  1  0.59720362  0.13804719  0.50008155  1
  O  O160  1  0.65959184  0.10097110  0.74093956  1
  O  O161  1  0.64172570  0.37957234  -0.00754723  1
  O  O162  1  0.59066937  0.38856907  0.26502289  1
  O  O163  1  0.62473026  0.34467851  0.49470187  1
  O  O164  1  0.58844483  0.39696954  0.74566042  1
  O  O165  1  0.62308079  0.64452051  -0.00334673  1
  O  O166  1  0.65064363  0.60971337  0.24482953  1
  O  O167  1  0.61425013  0.65120050  0.50917046  1
  O  O168  1  0.64805305  0.61600517  0.74606442  1
  O  O169  1  0.61966270  0.84842354  0.00931260  1
  O  O170  1  0.61190812  0.89975088  0.25518551  1
  O  O171  1  0.62780018  0.85244556  0.49978735  1
  O  O172  1  0.65866271  0.89124654  0.73910435  1
  O  O173  1  0.86462482  0.11271091  0.00277904  1
  O  O174  1  0.86807827  0.15547651  0.24849038  1
  O  O175  1  0.90443032  0.09296801  0.49562873  1
  O  O176  1  0.85555965  0.15319391  0.75613031  1
  O  O177  1  0.86945389  0.41204021  0.01322290  1
  O  O178  1  0.91520641  0.36559207  0.24196046  1
  O  O179  1  0.87290944  0.41077492  0.49406299  1
  O  O180  1  0.89539019  0.35178203  0.74347670  1
  O  O181  1  0.87645052  0.60944896  0.00442826  1
  O  O182  1  0.86024315  0.66162352  0.24944477  1
  O  O183  1  0.88880786  0.61095430  0.48873167  1
  O  O184  1  0.86047487  0.64698670  0.75048647  1
  O  O185  1  0.86905238  0.90829651  0.01108704  1
  O  O186  1  0.89829966  0.87355998  0.25164969  1
  O  O187  1  0.87798361  0.91069057  0.50134910  1
  O  O188  1  0.86779819  0.84974564  0.74399674  1
  O  O189  1  -0.00472447  0.09900455  0.12800932  1
  O  O190  1  -0.00028837  0.12352981  0.35747290  1
  O  O191  1  -0.00222510  0.09231089  0.64074994  1
  O  O192  1  -0.01017055  0.09623536  0.84892200  1
  O  O193  1  0.00930256  0.41238345  0.10850602  1
  O  O194  1  0.00665830  0.41010676  0.38429528  1
  O  O195  1  0.00656394  0.40094180  0.60673257  1
  O  O196  1  0.00501972  0.38841783  0.90916229  1
  O  O197  1  -0.00852757  0.61712352  0.14859041  1
  O  O198  1  -0.00741763  0.62929063  0.35516537  1
  O  O199  1  -0.00152397  0.61058178  0.62821510  1
  O  O200  1  -0.00381105  0.64391799  0.88338238  1
  O  O201  1  -0.00244884  0.91267634  0.12302209  1
  O  O202  1  -0.00053964  0.90035524  0.38441983  1
  O  O203  1  -0.01017749  0.89864112  0.63690470  1
  O  O204  1  -0.00438547  0.87380525  0.86583951  1
  O  O205  1  0.26274636  0.13662379  0.08817373  1
  O  O206  1  0.25288139  0.16380041  0.37942736  1
  O  O207  1  0.25736935  0.15097763  0.62821094  1
  O  O208  1  0.25125075  0.14992268  0.88191603  1
  O  O209  1  0.24625341  0.37175066  0.15375651  1
  O  O210  1  0.24526777  0.36092015  0.34899752  1
  O  O211  1  0.24923277  0.35358813  0.64635153  1
  O  O212  1  0.24026774  0.33852014  0.86259467  1
  O  O213  1  0.25139651  0.65738000  0.11668198  1
  O  O214  1  0.26178187  0.65777864  0.38908304  1
  O  O215  1  0.26099872  0.63641271  0.58482444  1
  O  O216  1  0.24264290  0.62660891  0.87155874  1
  O  O217  1  0.26108000  0.84723173  0.11620239  1
  O  O218  1  0.23965331  0.85344530  0.35629734  1
  O  O219  1  0.25585285  0.85949825  0.65157269  1
  O  O220  1  0.25907664  0.88995001  0.84727217  1
  O  O221  1  0.50172713  0.10466351  0.16000398  1
  O  O222  1  0.50671741  0.09353406  0.36062895  1
  O  O223  1  0.50266342  0.09878042  0.65284033  1
  O  O224  1  0.51489796  0.13545059  0.87573853  1
  O  O225  1  0.48928826  0.39471438  0.12425994  1
  O  O226  1  0.48610054  0.39404693  0.41005323  1
  O  O227  1  0.49627168  0.39396203  0.58954970  1
  O  O228  1  0.50221475  0.37918925  0.90507775  1
  O  O229  1  0.50711047  0.60610386  0.12980095  1
  O  O230  1  0.49926996  0.61030765  0.34781803  1
  O  O231  1  0.49763611  0.59170376  0.65261618  1
  O  O232  1  0.50436094  0.63991067  0.85873073  1
  O  O233  1  0.50336401  0.89307146  0.10978192  1
  O  O234  1  0.50958605  0.90427331  0.38416458  1
  O  O235  1  0.51108339  0.90545567  0.62802049  1
  O  O236  1  0.50476635  0.84703608  0.87959045  1
  O  O237  1  0.75602265  0.15520228  0.12171193  1
  O  O238  1  0.75682486  0.14030917  0.40633402  1
  O  O239  1  0.74386871  0.13928761  0.58938342  1
  O  O240  1  0.73798795  0.13940284  0.90053874  1
  O  O241  1  0.77006512  0.35317743  0.14823245  1
  O  O242  1  0.74805077  0.35866319  0.35655799  1
  O  O243  1  0.75323562  0.37773350  0.61563699  1
  O  O244  1  0.73977478  0.39765426  0.85496425  1
  O  O245  1  0.75096926  0.66039714  0.12032944  1
  O  O246  1  0.75147037  0.64536325  0.38188306  1
  O  O247  1  0.75596235  0.64629710  0.60948852  1
  O  O248  1  0.75425464  0.60044309  0.88043047  1
  O  O249  1  0.75232614  0.86312649  0.14523233  1
  O  O250  1  0.75148964  0.86854118  0.36498100  1
  O  O251  1  0.75238987  0.84064364  0.61065065  1
  O  O252  1  0.74446234  0.87764486  0.90175115  1
  O  O253  1  0.16416285  -0.00043182  0.14020671  1
  O  O254  1  0.16103669  -0.00277128  0.37520289  1
  O  O255  1  0.14903830  -0.00377156  0.64248391  1
  O  O256  1  0.12750326  -0.00673588  0.82931387  1
  O  O257  1  0.10554642  0.25676724  0.11302602  1
  O  O258  1  0.09679339  0.26297774  0.38274543  1
  O  O259  1  0.10141320  0.25759597  0.62415979  1
  O  O260  1  0.07924497  0.24978187  0.88584323  1
  O  O261  1  0.15117208  0.51338669  0.15431069  1
  O  O262  1  0.14788281  0.49483409  0.34834378  1
  O  O263  1  0.15338992  0.50018867  0.62981307  1
  O  O264  1  0.13494183  0.48953497  0.86508809  1
  O  O265  1  0.09584614  0.75344972  0.11589264  1
  O  O266  1  0.11446215  0.75131975  0.40578149  1
  O  O267  1  0.11897726  0.73579599  0.59734891  1
  O  O268  1  0.13943609  0.76401106  0.90061361  1
  O  O269  1  0.36176612  -0.00080248  0.11611445  1
  O  O270  1  0.35932127  0.00591931  0.38413080  1
  O  O271  1  0.36459152  0.00451461  0.63057913  1
  O  O272  1  0.41247029  0.00135499  0.85683537  1
  O  O273  1  0.38427812  0.25510625  0.12771446  1
  O  O274  1  0.39191379  0.26122912  0.35488314  1
  O  O275  1  0.40694690  0.25338209  0.62382289  1
  O  O276  1  0.38771512  0.25341057  0.89768174  1
  O  O277  1  0.35911135  0.51134921  0.12432649  1
  O  O278  1  0.35389891  0.50315306  0.38096468  1
  O  O279  1  0.35590574  0.49554015  0.61787903  1
  O  O280  1  0.34367921  0.49682720  0.87629138  1
  O  O281  1  0.40327840  0.75398523  0.08991727  1
  O  O282  1  0.40678692  0.74450733  0.37844534  1
  O  O283  1  0.39899065  0.74590874  0.62655452  1
  O  O284  1  0.36709560  0.75458885  0.85444069  1
  O  O285  1  0.64951962  -0.00378270  0.12341324  1
  O  O286  1  0.65078951  0.00205250  0.39655659  1
  O  O287  1  0.65581746  -0.00298870  0.60580797  1
  O  O288  1  0.62386687  0.00921674  0.88742245  1
  O  O289  1  0.61666676  0.23453536  0.15798909  1
  O  O290  1  0.60539850  0.24343442  0.35006270  1
  O  O291  1  0.59724241  0.24078721  0.64026405  1
  O  O292  1  0.62137706  0.25756322  0.85610424  1
  O  O293  1  0.65640295  0.51313796  0.10501637  1
  O  O294  1  0.63252798  0.48779710  0.40586051  1
  O  O295  1  0.62766115  0.50438056  0.59929374  1
  O  O296  1  0.61620970  0.50560040  0.88788719  1
  O  O297  1  0.61222327  0.75291382  0.15052447  1
  O  O298  1  0.61029423  0.75687741  0.35778102  1
  O  O299  1  0.61052359  0.75075388  0.64905274  1
  O  O300  1  0.65098440  0.74440660  0.85954955  1
  O  O301  1  0.84991080  0.00763911  0.14992099  1
  O  O302  1  0.85772280  0.00675074  0.35108347  1
  O  O303  1  0.83397804  -0.00634775  0.64093193  1
  O  O304  1  0.83658206  0.00512972  0.85904591  1
  O  O305  1  0.90641426  0.26065841  0.07754591  1
  O  O306  1  0.88951779  0.24705205  0.40803701  1
  O  O307  1  0.88648407  0.24459121  0.58781682  1
  O  O308  1  0.87302264  0.24362461  0.89393803  1
  O  O309  1  0.84714852  0.51398275  0.14899437  1
  O  O310  1  0.86262366  0.50556964  0.33775534  1
  O  O311  1  0.85748820  0.51364737  0.63597103  1
  O  O312  1  0.89318753  0.51244691  0.84489742  1
  O  O313  1  0.90042298  0.75940079  0.10989962  1
  O  O314  1  0.88503344  0.76545444  0.40144585  1
  O  O315  1  0.89822120  0.74989693  0.60178789  1
  O  O316  1  0.85596079  0.74869594  0.89633003  1
