# generated using pymatgen
data_Mg32Ti42(Bi17O64)3
_symmetry_space_group_name_H-M   'P 1'
_cell_length_a   15.89880992
_cell_length_b   15.93169442
_cell_length_c   15.94836253
_cell_angle_alpha   90.04259053
_cell_angle_beta   90.08998826
_cell_angle_gamma   90.00145961
_symmetry_Int_Tables_number   1
_chemical_formula_structural   Mg32Ti42(Bi17O64)3
_chemical_formula_sum   'Mg32 Ti42 Bi51 O192'
_cell_volume   4039.63408866
_cell_formula_units_Z   1
loop_
 _symmetry_equiv_pos_site_id
 _symmetry_equiv_pos_as_xyz
  1  'x, y, z'
loop_
 _atom_site_type_symbol
 _atom_site_label
 _atom_site_symmetry_multiplicity
 _atom_site_fract_x
 _atom_site_fract_y
 _atom_site_fract_z
 _atom_site_occupancy
  Mg  Mg0  1  0.61890149  0.63389985  0.38365512  1
  Mg  Mg1  1  0.87505678  0.37713029  0.37044224  1
  Mg  Mg2  1  0.88018843  0.13419985  0.62764956  1
  Mg  Mg3  1  0.37847987  0.87480550  0.36831908  1
  Mg  Mg4  1  0.36682109  0.12316810  0.63316236  1
  Mg  Mg5  1  0.36820541  0.61982866  0.61923564  1
  Mg  Mg6  1  0.12850327  0.36801398  0.87156494  1
  Mg  Mg7  1  0.62667605  0.37689382  0.12075411  1
  Mg  Mg8  1  0.86369480  0.87422894  0.63566908  1
  Mg  Mg9  1  0.62395728  0.37212771  0.36612036  1
  Mg  Mg10  1  0.13675517  0.12744144  0.35766066  1
  Mg  Mg11  1  0.13149791  0.62620351  0.87884245  1
  Mg  Mg12  1  0.86599437  0.63278997  0.87080834  1
  Mg  Mg13  1  0.37735952  0.63228378  0.89157291  1
  Mg  Mg14  1  0.88098433  0.87834934  0.38284668  1
  Mg  Mg15  1  0.61932941  0.87532777  0.86948969  1
  Mg  Mg16  1  0.87891194  0.12467347  0.37143418  1
  Mg  Mg17  1  0.61849860  0.62880735  0.12779362  1
  Mg  Mg18  1  0.61483753  0.60901907  0.86983959  1
  Mg  Mg19  1  0.74662981  0.04714425  0.71260745  1
  Mg  Mg20  1  0.24710622  0.00023697  0.78637406  1
  Mg  Mg21  1  -0.01489207  -0.00373019  0.55419705  1
  Mg  Mg22  1  0.75965373  0.71946645  0.18658757  1
  Mg  Mg23  1  0.80308889  0.30679600  -0.01342603  1
  Mg  Mg24  1  0.76044355  0.48371995  0.83600073  1
  Mg  Mg25  1  0.47982046  0.68510551  0.75722274  1
  Mg  Mg26  1  0.71494082  0.70929363  -0.02173388  1
  Mg  Mg27  1  0.23217786  0.29428780  0.22556034  1
  Mg  Mg28  1  0.23101773  0.00297245  0.00458019  1
  Mg  Mg29  1  0.51423230  0.49649841  0.43959564  1
  Mg  Mg30  1  0.56059781  0.76036172  0.26324435  1
  Mg  Mg31  1  0.25060013  0.00582310  0.22015009  1
  Ti  Ti32  1  0.11670641  0.39485223  0.11716739  1
  Ti  Ti33  1  0.62703005  0.12220486  0.38414602  1
  Ti  Ti34  1  0.62037833  0.87169923  0.39020831  1
  Ti  Ti35  1  0.12157438  0.64215900  0.62082576  1
  Ti  Ti36  1  0.11914959  0.37516616  0.62975710  1
  Ti  Ti37  1  0.86923730  0.88612055  0.12768295  1
  Ti  Ti38  1  0.37164673  0.12143957  0.13237385  1
  Ti  Ti39  1  0.61946939  0.13451384  0.61662789  1
  Ti  Ti40  1  0.11665551  0.88091676  0.11831660  1
  Ti  Ti41  1  0.87145107  0.63318457  0.38383795  1
  Ti  Ti42  1  0.62624886  0.88398357  0.63866808  1
  Ti  Ti43  1  0.63302882  0.86625678  0.12439845  1
  Ti  Ti44  1  0.86204659  0.37577542  0.61716800  1
  Ti  Ti45  1  0.60530126  0.61604398  0.62348932  1
  Ti  Ti46  1  0.36955011  0.88477748  0.11792270  1
  Ti  Ti47  1  0.63033475  0.11898410  0.86324591  1
  Ti  Ti48  1  0.38368333  0.37098052  0.13572745  1
  Ti  Ti49  1  0.13047251  0.37060108  0.36638720  1
  Ti  Ti50  1  0.12856911  0.12048355  0.12481914  1
  Ti  Ti51  1  0.85694140  0.12396390  0.88237140  1
  Ti  Ti52  1  0.38015227  0.36831337  0.36958016  1
  Ti  Ti53  1  0.88416822  0.38047497  0.13373744  1
  Ti  Ti54  1  0.37276965  0.12579369  0.36685935  1
  Ti  Ti55  1  0.36476349  0.11843227  0.88328886  1
  Ti  Ti56  1  0.61749320  0.37667642  0.88518450  1
  Ti  Ti57  1  0.37173950  0.64842551  0.13309584  1
  Ti  Ti58  1  0.12279868  0.12075241  0.64807628  1
  Ti  Ti59  1  0.12379530  0.88506724  0.63979971  1
  Ti  Ti60  1  0.87448597  0.12045414  0.13062411  1
  Ti  Ti61  1  0.36476350  0.37489902  0.61782902  1
  Ti  Ti62  1  0.37816157  0.63619669  0.37430915  1
  Ti  Ti63  1  0.36181386  0.88406965  0.63650207  1
  Ti  Ti64  1  0.63865991  0.11097454  0.12668367  1
  Ti  Ti65  1  0.12206357  0.87737995  0.39303340  1
  Ti  Ti66  1  0.60936390  0.38738470  0.62611412  1
  Ti  Ti67  1  0.12437286  0.64029136  0.11852997  1
  Ti  Ti68  1  0.12601926  0.63712088  0.37924166  1
  Ti  Ti69  1  0.38171176  0.86619081  0.87171648  1
  Ti  Ti70  1  0.87036569  0.86916805  0.87822561  1
  Ti  Ti71  1  0.86281122  0.62012002  0.62273336  1
  Ti  Ti72  1  0.12326956  0.12721041  0.87793861  1
  Ti  Ti73  1  0.12638690  0.88024576  0.87254773  1
  Bi  Bi74  1  0.49360564  0.76739798  0.53583612  1
  Bi  Bi75  1  -0.01209226  0.47081021  -0.03888046  1
  Bi  Bi76  1  0.45099054  0.48844209  0.77828961  1
  Bi  Bi77  1  -0.04037679  -0.00104275  0.75063580  1
  Bi  Bi78  1  0.25956953  0.72898328  0.76961487  1
  Bi  Bi79  1  -0.03655178  0.75128556  0.24439279  1
  Bi  Bi80  1  0.49095378  0.00039292  -0.01752186  1
  Bi  Bi81  1  0.21628327  0.02692798  0.49753612  1
  Bi  Bi82  1  0.26788126  0.46566578  -0.03088311  1
  Bi  Bi83  1  -0.01330711  0.23552601  0.01074972  1
  Bi  Bi84  1  0.50980742  0.75623138  0.01192948  1
  Bi  Bi85  1  0.78292013  0.01956016  0.51125024  1
  Bi  Bi86  1  0.52253333  0.23167836  0.01756925  1
  Bi  Bi87  1  0.24582426  0.79234500  0.26155970  1
  Bi  Bi88  1  0.23474794  0.76175378  -0.00038547  1
  Bi  Bi89  1  0.22777873  0.50137526  0.73891880  1
  Bi  Bi90  1  0.74162089  0.75088530  0.52220832  1
  Bi  Bi91  1  0.75230136  -0.03400780  0.27434946  1
  Bi  Bi92  1  0.49123729  0.52753616  0.23772040  1
  Bi  Bi93  1  0.73833455  0.54342029  0.26774636  1
  Bi  Bi94  1  0.75190050  0.27544980  0.77145558  1
  Bi  Bi95  1  0.00767891  0.00035399  0.28059892  1
  Bi  Bi96  1  0.26318503  0.25662508  0.02473500  1
  Bi  Bi97  1  0.50088786  -0.00445340  0.26589653  1
  Bi  Bi98  1  0.50489831  0.26388312  0.76350653  1
  Bi  Bi99  1  0.47344771  -0.00256234  0.50137833  1
  Bi  Bi100  1  -0.01112833  -0.00068753  -0.01403804  1
  Bi  Bi101  1  -0.01833243  0.25941790  0.48881512  1
  Bi  Bi102  1  0.71698134  0.73295479  0.77481159  1
  Bi  Bi103  1  0.73332477  -0.01981118  -0.01831528  1
  Bi  Bi104  1  0.21579520  0.24260227  0.51649435  1
  Bi  Bi105  1  0.47911684  0.01066770  0.74548418  1
  Bi  Bi106  1  -0.00529126  0.50420715  0.49304923  1
  Bi  Bi107  1  0.51136035  0.50990523  0.01200846  1
  Bi  Bi108  1  0.27274248  0.75611706  0.51462591  1
  Bi  Bi109  1  0.74684621  0.26092378  0.48085132  1
  Bi  Bi110  1  0.70965592  0.49310717  0.49083487  1
  Bi  Bi111  1  0.24386359  0.51993500  0.23713939  1
  Bi  Bi112  1  -0.02277718  0.76977605  0.51159050  1
  Bi  Bi113  1  0.01671863  0.24268321  0.25678594  1
  Bi  Bi114  1  0.74627776  0.26004547  0.21166865  1
  Bi  Bi115  1  -0.03489276  0.51473645  0.75069293  1
  Bi  Bi116  1  -0.04810511  0.73080821  0.02208842  1
  Bi  Bi117  1  -0.02083050  0.28140375  0.77567391  1
  Bi  Bi118  1  0.52895803  0.24073878  0.24932870  1
  Bi  Bi119  1  0.00825399  0.52460543  0.26238484  1
  Bi  Bi120  1  -0.00150681  0.73461547  0.76575734  1
  Bi  Bi121  1  0.27421668  0.27158721  0.78332782  1
  Bi  Bi122  1  0.26779426  0.50081544  0.48692748  1
  Bi  Bi123  1  0.47606597  0.24496035  0.51217027  1
  Bi  Bi124  1  0.78693979  0.52591360  0.03531255  1
  O  O125  1  0.12386661  0.13786036  -0.00562376  1
  O  O126  1  0.14955239  0.08528719  0.23340657  1
  O  O127  1  0.12492029  0.13699245  0.48752116  1
  O  O128  1  0.15727617  0.09714693  0.75394827  1
  O  O129  1  0.09897082  0.37649819  0.00082381  1
  O  O130  1  0.14381796  0.39453687  0.24911495  1
  O  O131  1  0.10900047  0.34757429  0.49894519  1
  O  O132  1  0.15836588  0.37544040  0.74396244  1
  O  O133  1  0.11893258  0.65152983  0.00456732  1
  O  O134  1  0.13543383  0.60547874  0.25242478  1
  O  O135  1  0.09982914  0.63150896  0.49530136  1
  O  O136  1  0.15798967  0.62426599  0.74003310  1
  O  O137  1  0.12134356  0.84695237  -0.00904133  1
  O  O138  1  0.16376359  0.90504144  0.22407364  1
  O  O139  1  0.10438136  0.86190157  0.50288577  1
  O  O140  1  0.15660034  0.90742466  0.74814481  1
  O  O141  1  0.40065837  0.14073761  0.00065283  1
  O  O142  1  0.35561673  0.09055500  0.24481590  1
  O  O143  1  0.40190038  0.12740929  0.49091334  1
  O  O144  1  0.35659781  0.08134069  0.76217391  1
  O  O145  1  0.37167136  0.34873550  0.02043728  1
  O  O146  1  0.33996227  0.37313633  0.25401496  1
  O  O147  1  0.38922092  0.35187890  0.49610331  1
  O  O148  1  0.34855722  0.37958006  0.74000795  1
  O  O149  1  0.40884551  0.64825467  0.01851936  1
  O  O150  1  0.36080290  0.60030503  0.25207463  1
  O  O151  1  0.37197137  0.65075902  0.49115529  1
  O  O152  1  0.35336188  0.62321747  0.74685699  1
  O  O153  1  0.40574029  0.84807438  -0.00479926  1
  O  O154  1  0.34067476  0.90214979  0.23292409  1
  O  O155  1  0.39637156  0.86935332  0.49707912  1
  O  O156  1  0.35129562  0.90483495  0.75286059  1
  O  O157  1  0.59921996  0.10915714  0.00645041  1
  O  O158  1  0.64570038  0.14988038  0.24753176  1
  O  O159  1  0.59967055  0.10556133  0.50032032  1
  O  O160  1  0.65635573  0.13625491  0.75112125  1
  O  O161  1  0.59080528  0.38615097  -0.00257447  1
  O  O162  1  0.64444487  0.34677009  0.24433484  1
  O  O163  1  0.59633268  0.40597261  0.50518840  1
  O  O164  1  0.64280576  0.34916118  0.74394368  1
  O  O165  1  0.60788830  0.61339665  0.00078447  1
  O  O166  1  0.65145316  0.65211821  0.25474441  1
  O  O167  1  0.59512348  0.59052257  0.50487378  1
  O  O168  1  0.61349020  0.65356122  0.74233431  1
  O  O169  1  0.61299925  0.90349880  0.00183200  1
  O  O170  1  0.65948631  0.84604469  0.23700030  1
  O  O171  1  0.59221976  0.88664595  0.49952906  1
  O  O172  1  0.64096333  0.85204068  0.74689371  1
  O  O173  1  0.90377742  0.11746769  0.00056057  1
  O  O174  1  0.86812669  0.15225012  0.23901162  1
  O  O175  1  0.90182917  0.08711458  0.50464420  1
  O  O176  1  0.85077789  0.11927217  0.76383745  1
  O  O177  1  0.91103799  0.37035258  0.00207026  1
  O  O178  1  0.85421593  0.36593286  0.24435375  1
  O  O179  1  0.91445117  0.38347278  0.50165802  1
  O  O180  1  0.85192674  0.36737807  0.74044580  1
  O  O181  1  0.83898427  0.65420945  -0.00349628  1
  O  O182  1  0.84493817  0.65228515  0.26758448  1
  O  O183  1  0.90610327  0.61633997  0.50276333  1
  O  O184  1  0.86947232  0.62921216  0.74010603  1
  O  O185  1  0.90736625  0.87126501  0.00675669  1
  O  O186  1  0.85219967  0.86646531  0.24578968  1
  O  O187  1  0.91371637  0.89346887  0.50771889  1
  O  O188  1  0.86870857  0.87289207  0.76392293  1
  O  O189  1  0.00901698  0.13947079  0.12932535  1
  O  O190  1  0.00753180  0.13227782  0.34184342  1
  O  O191  1  0.00403943  0.10401766  0.65148536  1
  O  O192  1  0.01117352  0.09148866  0.86978818  1
  O  O193  1  0.00465782  0.36194130  0.14943434  1
  O  O194  1  0.00581706  0.33627401  0.36246264  1
  O  O195  1  0.00602565  0.37483870  0.65466233  1
  O  O196  1  0.00922502  0.39552094  0.84529725  1
  O  O197  1  0.01016104  0.65180686  0.14724908  1
  O  O198  1  0.00203738  0.63810770  0.34336573  1
  O  O199  1  0.00644756  0.62173582  0.64817595  1
  O  O200  1  0.00781602  0.61678399  0.84366921  1
  O  O201  1  0.00703889  0.86234984  0.14649755  1
  O  O202  1  0.00937956  0.86791326  0.34328745  1
  O  O203  1  0.00467984  0.89928681  0.65160204  1
  O  O204  1  0.01190240  0.90521267  0.86777588  1
  O  O205  1  0.25990570  0.08347077  0.10144186  1
  O  O206  1  0.26110516  0.11476120  0.38809365  1
  O  O207  1  0.24462131  0.12187775  0.60008640  1
  O  O208  1  0.25485243  0.15070486  0.88695998  1
  O  O209  1  0.23877497  0.37320071  0.11263023  1
  O  O210  1  0.24506106  0.38906086  0.39799167  1
  O  O211  1  0.24957860  0.36041968  0.59972732  1
  O  O212  1  0.24855323  0.34333895  0.90078912  1
  O  O213  1  0.25639034  0.60808742  0.12252066  1
  O  O214  1  0.24225755  0.59860678  0.38064338  1
  O  O215  1  0.23996254  0.64330057  0.59251642  1
  O  O216  1  0.25492816  0.66449019  0.89028241  1
  O  O217  1  0.26400819  0.89939448  0.07534046  1
  O  O218  1  0.24285848  0.87660044  0.38008138  1
  O  O219  1  0.24819571  0.87729698  0.60334438  1
  O  O220  1  0.25944704  0.84403126  0.88522568  1
  O  O221  1  0.49689520  0.14887644  0.14406752  1
  O  O222  1  0.50739495  0.12433941  0.34185436  1
  O  O223  1  0.50746915  0.11718329  0.65250683  1
  O  O224  1  0.50717317  0.09354711  0.85785331  1
  O  O225  1  0.49250601  0.33914300  0.14456769  1
  O  O226  1  0.49348879  0.38703612  0.35676500  1
  O  O227  1  0.49779568  0.37758094  0.65044427  1
  O  O228  1  0.50281503  0.37797813  0.84504540  1
  O  O229  1  0.49606569  0.64979947  0.17015975  1
  O  O230  1  0.49260188  0.61809703  0.36150952  1
  O  O231  1  0.49206311  0.64043527  0.63740788  1
  O  O232  1  0.49301426  0.60191894  0.85223302  1
  O  O233  1  0.51650365  0.83376349  0.13428583  1
  O  O234  1  0.50936928  0.86648683  0.32866184  1
  O  O235  1  0.49984236  0.86506802  0.63761882  1
  O  O236  1  0.49419629  0.90903649  0.86302905  1
  O  O237  1  0.75477071  0.10571805  0.11279139  1
  O  O238  1  0.74549403  0.11096586  0.40259901  1
  O  O239  1  0.74548256  0.12211396  0.60326546  1
  O  O240  1  0.74755037  0.14650255  0.90460401  1
  O  O241  1  0.76264685  0.37826391  0.09170594  1
  O  O242  1  0.74924748  0.37945971  0.40799272  1
  O  O243  1  0.74887638  0.37378734  0.59377910  1
  O  O244  1  0.74335102  0.35693126  0.88668285  1
  O  O245  1  0.74213465  0.59878978  0.13512452  1
  O  O246  1  0.75633160  0.61072300  0.40059109  1
  O  O247  1  0.74788459  0.62882462  0.60298221  1
  O  O248  1  0.74153679  0.61997244  0.86434967  1
  O  O249  1  0.75710439  0.90272199  0.10387800  1
  O  O250  1  0.74380646  0.89082178  0.39036196  1
  O  O251  1  0.74073935  0.86458352  0.59855930  1
  O  O252  1  0.75937497  0.86030758  0.91064107  1
  O  O253  1  0.11526470  -0.00648078  0.08136588  1
  O  O254  1  0.11016322  -0.00521448  0.38483679  1
  O  O255  1  0.11818016  0.00230767  0.59620974  1
  O  O256  1  0.16896641  -0.00509474  0.89316027  1
  O  O257  1  0.15095424  0.23580586  0.13984656  1
  O  O258  1  0.14961143  0.25453287  0.32672072  1
  O  O259  1  0.12847784  0.24010009  0.63049651  1
  O  O260  1  0.09677881  0.24085728  0.85310475  1
  O  O261  1  0.11398200  0.50745763  0.11732454  1
  O  O262  1  0.08840227  0.49167521  0.37786943  1
  O  O263  1  0.13675212  0.49416625  0.62097645  1
  O  O264  1  0.16955816  0.49994500  0.87316588  1
  O  O265  1  0.15366528  0.75606316  0.13616960  1
  O  O266  1  0.13849418  0.74873163  0.36378974  1
  O  O267  1  0.11222039  0.75890477  0.63806694  1
  O  O268  1  0.11392583  0.76208359  0.83815073  1
  O  O269  1  0.41361476  -0.00664276  0.10810252  1
  O  O270  1  0.40405596  0.00059707  0.37919071  1
  O  O271  1  0.38355802  -0.00259895  0.61073184  1
  O  O272  1  0.35172040  -0.00021268  0.91396356  1
  O  O273  1  0.33860756  0.23535900  0.14769781  1
  O  O274  1  0.38551346  0.24602207  0.36458553  1
  O  O275  1  0.39231280  0.24773268  0.62749221  1
  O  O276  1  0.39470402  0.23258822  0.84422617  1
  O  O277  1  0.40273003  0.48930398  0.12557345  1
  O  O278  1  0.38109126  0.49582773  0.40645936  1
  O  O279  1  0.36166381  0.49239714  0.60584852  1
  O  O280  1  0.36676001  0.50346625  0.88924027  1
  O  O281  1  0.35161898  0.75828945  0.14210871  1
  O  O282  1  0.35930212  0.74771478  0.35237757  1
  O  O283  1  0.36630728  0.76102932  0.62185455  1
  O  O284  1  0.40683996  0.75787076  0.83862223  1
  O  O285  1  0.61604322  -0.00168692  0.15109703  1
  O  O286  1  0.61706389  -0.00251712  0.34889502  1
  O  O287  1  0.63966843  -0.00295979  0.65136773  1
  O  O288  1  0.65827372  0.00406518  0.86232057  1
  O  O289  1  0.63664950  0.24072500  0.10860996  1
  O  O290  1  0.62820446  0.24252116  0.39610298  1
  O  O291  1  0.61279915  0.24813054  0.60513052  1
  O  O292  1  0.59650477  0.24260237  0.88071979  1
  O  O293  1  0.58499773  0.50021742  0.13077468  1
  O  O294  1  0.62907446  0.50258391  0.36395650  1
  O  O295  1  0.62562830  0.50072577  0.64804754  1
  O  O296  1  0.63891264  0.48490601  0.86052401  1
  O  O297  1  0.66950125  0.75298893  0.09214723  1
  O  O298  1  0.61647401  0.75712324  0.38860324  1
  O  O299  1  0.62622334  0.74240126  0.59658239  1
  O  O300  1  0.63372889  0.74832139  0.88680116  1
  O  O301  1  0.90102661  0.00284019  0.13059930  1
  O  O302  1  0.88050526  0.00026998  0.34379399  1
  O  O303  1  0.85387224  0.00077612  0.64753270  1
  O  O304  1  0.86622655  -0.00247138  0.89280644  1
  O  O305  1  0.87005851  0.24711576  0.09287118  1
  O  O306  1  0.86499859  0.24718360  0.40593048  1
  O  O307  1  0.88296103  0.25710032  0.60412262  1
  O  O308  1  0.89464494  0.24089678  0.88911878  1
  O  O309  1  0.89340607  0.49646327  0.11725195  1
  O  O310  1  0.90781788  0.50671705  0.37065009  1
  O  O311  1  0.87707535  0.49974304  0.62431322  1
  O  O312  1  0.87729944  0.50563418  0.87397006  1
  O  O313  1  0.86885079  0.76098606  0.12953247  1
  O  O314  1  0.88411060  0.75131982  0.40486240  1
  O  O315  1  0.87135228  0.74737192  0.60399473  1
  O  O316  1  0.90880302  0.75458513  0.87851966  1
