# generated using pymatgen
data_Mg32Ti42(Bi17O64)3
_symmetry_space_group_name_H-M   'P 1'
_cell_length_a   15.94599283
_cell_length_b   15.95461266
_cell_length_c   15.94588678
_cell_angle_alpha   90.02280667
_cell_angle_beta   90.10606611
_cell_angle_gamma   89.85884547
_symmetry_Int_Tables_number   1
_chemical_formula_structural   Mg32Ti42(Bi17O64)3
_chemical_formula_sum   'Mg32 Ti42 Bi51 O192'
_cell_volume   4056.80758792
_cell_formula_units_Z   1
loop_
 _symmetry_equiv_pos_site_id
 _symmetry_equiv_pos_as_xyz
  1  'x, y, z'
loop_
 _atom_site_type_symbol
 _atom_site_label
 _atom_site_symmetry_multiplicity
 _atom_site_fract_x
 _atom_site_fract_y
 _atom_site_fract_z
 _atom_site_occupancy
  Mg  Mg0  1  0.62887592  0.38360760  0.37587792  1
  Mg  Mg1  1  0.36034711  0.85661224  0.87427395  1
  Mg  Mg2  1  0.87110876  0.63017759  0.12483061  1
  Mg  Mg3  1  0.36912964  0.62219358  0.12753197  1
  Mg  Mg4  1  0.86389031  0.36364438  0.13920509  1
  Mg  Mg5  1  0.87955796  0.88248727  0.87092946  1
  Mg  Mg6  1  0.13248342  0.37441298  0.87121620  1
  Mg  Mg7  1  0.12402634  0.86753421  0.37482124  1
  Mg  Mg8  1  0.37802727  0.11692015  0.12376347  1
  Mg  Mg9  1  0.62649673  0.12202445  0.36651346  1
  Mg  Mg10  1  0.12196062  0.12439272  0.12561221  1
  Mg  Mg11  1  0.13130172  0.12851384  0.86689823  1
  Mg  Mg12  1  0.12762108  0.87569571  0.87263790  1
  Mg  Mg13  1  0.38635354  0.86569351  0.61077075  1
  Mg  Mg14  1  0.12606030  0.38415549  0.37313053  1
  Mg  Mg15  1  0.62537389  0.37302035  0.88425972  1
  Mg  Mg16  1  0.12741870  0.87423945  0.62804608  1
  Mg  Mg17  1  0.13183376  0.61851090  0.12205979  1
  Mg  Mg18  1  0.13115472  0.62693206  0.87574662  1
  Mg  Mg19  1  0.69808532  0.80417235  0.74112348  1
  Mg  Mg20  1  0.74781958  0.52975196  0.49740109  1
  Mg  Mg21  1  0.28249214  -0.06863271  0.73032568  1
  Mg  Mg22  1  0.73095078  0.20226675  0.22703789  1
  Mg  Mg23  1  0.26259788  0.55338553  0.72563870  1
  Mg  Mg24  1  0.72959854  -0.06257295  0.55764919  1
  Mg  Mg25  1  0.23977675  0.82057958  0.50320592  1
  Mg  Mg26  1  0.24297684  0.74688676  0.00273405  1
  Mg  Mg27  1  0.24919054  0.54133622  0.28115974  1
  Mg  Mg28  1  0.30367216  0.74899530  0.69771902  1
  Mg  Mg29  1  0.68641387  -0.03308081  0.81045689  1
  Mg  Mg30  1  0.56700645  0.78789200  0.55164909  1
  Mg  Mg31  1  0.47781219  0.26509354  0.70611176  1
  Ti  Ti32  1  0.37253081  0.38198909  0.36343040  1
  Ti  Ti33  1  0.38306061  0.11934518  0.86215988  1
  Ti  Ti34  1  0.63450934  0.13114080  0.61072020  1
  Ti  Ti35  1  0.36591158  0.63389959  0.86488378  1
  Ti  Ti36  1  0.88289438  0.14013032  0.13606815  1
  Ti  Ti37  1  0.14289778  0.37800161  0.12271084  1
  Ti  Ti38  1  0.87112505  0.37793582  0.85830555  1
  Ti  Ti39  1  0.36581842  0.86906133  0.11597352  1
  Ti  Ti40  1  0.10972008  0.63100497  0.38097829  1
  Ti  Ti41  1  0.87618862  0.87464225  0.11982138  1
  Ti  Ti42  1  0.62794528  0.62963513  0.11129800  1
  Ti  Ti43  1  0.38147469  0.36403121  0.87729414  1
  Ti  Ti44  1  0.37897652  0.37701810  0.12753256  1
  Ti  Ti45  1  0.13092524  0.62959253  0.62145807  1
  Ti  Ti46  1  0.13946514  0.13128670  0.61999540  1
  Ti  Ti47  1  0.87127787  0.38817314  0.37368109  1
  Ti  Ti48  1  0.13298404  0.87809786  0.12139047  1
  Ti  Ti49  1  0.86076465  0.35447755  0.62090462  1
  Ti  Ti50  1  0.61938495  0.62624742  0.62879161  1
  Ti  Ti51  1  0.87688794  0.88759874  0.64352814  1
  Ti  Ti52  1  0.63978698  0.61882631  0.86180925  1
  Ti  Ti53  1  0.39297785  0.62487071  0.61602050  1
  Ti  Ti54  1  0.62713383  0.12353254  0.87407939  1
  Ti  Ti55  1  0.62080383  0.38227537  0.61991563  1
  Ti  Ti56  1  0.13041384  0.39635518  0.62729003  1
  Ti  Ti57  1  0.87234055  0.87710470  0.38019701  1
  Ti  Ti58  1  0.38149573  0.64479896  0.38266490  1
  Ti  Ti59  1  0.87881576  0.62243092  0.37871591  1
  Ti  Ti60  1  0.36211148  0.86562563  0.37612423  1
  Ti  Ti61  1  0.38865358  0.13078126  0.62593837  1
  Ti  Ti62  1  0.86599529  0.11336484  0.61474170  1
  Ti  Ti63  1  0.62403120  0.38120093  0.12097733  1
  Ti  Ti64  1  0.87698771  0.62844310  0.88719460  1
  Ti  Ti65  1  0.62722985  0.63981594  0.39157738  1
  Ti  Ti66  1  0.61844556  0.09919928  0.12015133  1
  Ti  Ti67  1  0.37238957  0.38902001  0.62303842  1
  Ti  Ti68  1  0.87805709  0.11860705  0.37283189  1
  Ti  Ti69  1  0.63258182  0.86670451  0.13322537  1
  Ti  Ti70  1  0.37755571  0.13062419  0.37432940  1
  Ti  Ti71  1  0.13471703  0.12889285  0.37703648  1
  Ti  Ti72  1  0.87254900  0.12617449  0.85490253  1
  Ti  Ti73  1  0.63455245  0.87448022  0.36941756  1
  Bi  Bi74  1  0.24542890  0.51723487  -0.02383522  1
  Bi  Bi75  1  0.77136379  -0.00460749  0.25737448  1
  Bi  Bi76  1  0.51417460  0.52110483  0.23867463  1
  Bi  Bi77  1  0.24753424  0.73119273  0.22979496  1
  Bi  Bi78  1  0.52473921  -0.01351990  0.70200909  1
  Bi  Bi79  1  0.49832616  0.73513861  -0.00662858  1
  Bi  Bi80  1  0.00903616  0.76262030  -0.01770671  1
  Bi  Bi81  1  -0.03087886  0.50791164  0.52707658  1
  Bi  Bi82  1  0.26201947  0.01670027  0.23300452  1
  Bi  Bi83  1  0.73105459  0.78438436  -0.05041221  1
  Bi  Bi84  1  0.02550511  0.25350096  0.73693683  1
  Bi  Bi85  1  0.47244987  0.50080852  -0.00003579  1
  Bi  Bi86  1  0.49928725  0.75295494  0.23795567  1
  Bi  Bi87  1  0.00965917  0.01346043  -0.02470833  1
  Bi  Bi88  1  0.01869571  0.26125243  0.24614566  1
  Bi  Bi89  1  -0.00968800  0.25911056  0.47391010  1
  Bi  Bi90  1  0.02788161  0.00886923  0.73381503  1
  Bi  Bi91  1  0.78381609  0.49373938  0.01646037  1
  Bi  Bi92  1  0.76784943  0.73698093  0.25857571  1
  Bi  Bi93  1  0.24664130  0.51903515  0.47342344  1
  Bi  Bi94  1  0.01200379  0.47940217  -0.02099741  1
  Bi  Bi95  1  0.25066305  0.25224519  0.24107839  1
  Bi  Bi96  1  0.01522200  0.74181895  0.22385095  1
  Bi  Bi97  1  0.03066928  -0.00300515  0.50124871  1
  Bi  Bi98  1  0.51732796  0.25899534  0.47258786  1
  Bi  Bi99  1  0.24555706  0.28247449  0.49616297  1
  Bi  Bi100  1  0.25862474  0.27388200  0.75591802  1
  Bi  Bi101  1  0.78652550  0.73593725  0.54247923  1
  Bi  Bi102  1  0.52366106  0.24204522  0.23352101  1
  Bi  Bi103  1  0.02001132  0.75632140  0.75547646  1
  Bi  Bi104  1  0.51384513  0.48217418  0.77709673  1
  Bi  Bi105  1  0.25341449  0.21428879  0.01720359  1
  Bi  Bi106  1  0.78170027  0.52483034  0.71153935  1
  Bi  Bi107  1  -0.00502267  0.76806389  0.51737209  1
  Bi  Bi108  1  0.76678692  0.25849793  -0.02386598  1
  Bi  Bi109  1  0.53465578  -0.01247693  0.48796711  1
  Bi  Bi110  1  0.49339562  0.21759899  -0.00402715  1
  Bi  Bi111  1  0.27406013  0.01305161  0.52346585  1
  Bi  Bi112  1  0.73782459  0.50238354  0.24919871  1
  Bi  Bi113  1  0.02060995  0.24571164  -0.02641917  1
  Bi  Bi114  1  0.00538852  0.52827193  0.75320611  1
  Bi  Bi115  1  0.71189195  0.26420690  0.74758854  1
  Bi  Bi116  1  0.48060610  -0.01835863  0.26802794  1
  Bi  Bi117  1  0.25789738  -0.00086643  -0.05149391  1
  Bi  Bi118  1  0.01752839  -0.01641864  0.25956129  1
  Bi  Bi119  1  0.51528077  0.50495381  0.48512337  1
  Bi  Bi120  1  0.78425145  0.02170432  0.00749854  1
  Bi  Bi121  1  -0.00915611  0.49481133  0.20731033  1
  Bi  Bi122  1  0.75926922  0.24920131  0.45941870  1
  Bi  Bi123  1  0.52486433  -0.04382292  -0.02595434  1
  Bi  Bi124  1  0.51147639  0.77467780  0.77265433  1
  O  O125  1  0.11771654  0.14540616  -0.00099893  1
  O  O126  1  0.13424731  0.15538666  0.25635338  1
  O  O127  1  0.12425173  0.10887328  0.50253030  1
  O  O128  1  0.10586870  0.13518968  0.74112656  1
  O  O129  1  0.10924788  0.36174687  0.00685761  1
  O  O130  1  0.12994527  0.35163222  0.24724687  1
  O  O131  1  0.15684748  0.39110866  0.50728802  1
  O  O132  1  0.12563948  0.35516378  0.74195796  1
  O  O133  1  0.17732155  0.63562995  0.00122569  1
  O  O134  1  0.12097472  0.64887232  0.26559806  1
  O  O135  1  0.12996252  0.59989113  0.50581117  1
  O  O136  1  0.10233202  0.63243440  0.74974660  1
  O  O137  1  0.15374444  0.85004423  0.00896157  1
  O  O138  1  0.09307425  0.86820146  0.24948720  1
  O  O139  1  0.13558503  0.89295348  0.50050181  1
  O  O140  1  0.09339319  0.87261180  0.74893553  1
  O  O141  1  0.38165903  0.12948346  -0.00399928  1
  O  O142  1  0.35266663  0.13258480  0.25345414  1
  O  O143  1  0.37646817  0.09872053  0.49833834  1
  O  O144  1  0.40091335  0.15096984  0.74669210  1
  O  O145  1  0.38108940  0.39059648  -0.00346454  1
  O  O146  1  0.38105736  0.36097262  0.24900323  1
  O  O147  1  0.35170390  0.38366000  0.50522559  1
  O  O148  1  0.38183988  0.34445897  0.74336188  1
  O  O149  1  0.37150649  0.60045578  -0.00343016  1
  O  O150  1  0.38822565  0.65644415  0.26199822  1
  O  O151  1  0.37887556  0.59633520  0.50204799  1
  O  O152  1  0.36484020  0.64368686  0.74657149  1
  O  O153  1  0.35302206  0.89160994  0.00522101  1
  O  O154  1  0.39482051  0.85058619  0.25590545  1
  O  O155  1  0.34724096  0.89449280  0.49441870  1
  O  O156  1  0.37848793  0.84478096  0.74617642  1
  O  O157  1  0.62519533  0.14897349  0.01256670  1
  O  O158  1  0.61276326  0.12756328  0.23892428  1
  O  O159  1  0.62517363  0.15240906  0.49773329  1
  O  O160  1  0.63017314  0.07588185  0.76576605  1
  O  O161  1  0.63887226  0.36310604  0.01010562  1
  O  O162  1  0.61159586  0.42367245  0.25594991  1
  O  O163  1  0.62446088  0.34167145  0.50664397  1
  O  O164  1  0.63229168  0.38503334  0.74247205  1
  O  O165  1  0.62082786  0.65093775  -0.00406571  1
  O  O166  1  0.62939669  0.60579253  0.26478654  1
  O  O167  1  0.59896211  0.66477079  0.50962905  1
  O  O168  1  0.63067764  0.59264230  0.74585791  1
  O  O169  1  0.61689411  0.84804186  0.00838530  1
  O  O170  1  0.59583338  0.88200109  0.24594346  1
  O  O171  1  0.64178715  0.86897009  0.48958871  1
  O  O172  1  0.60378211  0.88863653  0.75675983  1
  O  O173  1  0.86004856  0.14541771  0.01727959  1
  O  O174  1  0.87910458  0.09756648  0.25108086  1
  O  O175  1  0.86163674  0.13937329  0.49755512  1
  O  O176  1  0.87973791  0.10922301  0.74610209  1
  O  O177  1  0.85368780  0.36044544  0.00940265  1
  O  O178  1  0.87507950  0.40983073  0.26243010  1
  O  O179  1  0.86910148  0.34741185  0.50386691  1
  O  O180  1  0.87450813  0.39669585  0.74300268  1
  O  O181  1  0.85633363  0.62629700  0.00030882  1
  O  O182  1  0.84992855  0.61562823  0.26139329  1
  O  O183  1  0.89372505  0.65463384  0.49451415  1
  O  O184  1  0.88569513  0.60078547  0.75822585  1
  O  O185  1  0.83455609  0.87039395  0.00586881  1
  O  O186  1  0.88285585  0.90595235  0.24282157  1
  O  O187  1  0.84037223  0.86554790  0.48990956  1
  O  O188  1  0.91010893  0.89652163  0.74913507  1
  O  O189  1  -0.00336251  0.16538908  0.13715413  1
  O  O190  1  -0.00472552  0.12155100  0.38315514  1
  O  O191  1  -0.01540364  0.08726834  0.61499724  1
  O  O192  1  -0.00870711  0.12551594  0.88601643  1
  O  O193  1  -0.00390201  0.35976498  0.15026539  1
  O  O194  1  -0.00458919  0.38091168  0.39603899  1
  O  O195  1  0.01167491  0.40365036  0.61496165  1
  O  O196  1  -0.00795222  0.37859004  0.88055481  1
  O  O197  1  -0.00049547  0.63481546  0.13661909  1
  O  O198  1  -0.00555936  0.60237026  0.37054486  1
  O  O199  1  0.00966573  0.58851957  0.62769895  1
  O  O200  1  -0.00377426  0.59920237  0.88917163  1
  O  O201  1  -0.00897541  0.84915401  0.10774126  1
  O  O202  1  -0.01190373  0.89445419  0.38629787  1
  O  O203  1  -0.00838095  0.89584661  0.59463652  1
  O  O204  1  -0.00051664  0.88238037  0.91948951  1
  O  O205  1  0.24956909  0.10335434  0.10562886  1
  O  O206  1  0.24950359  0.13439382  0.38858682  1
  O  O207  1  0.25209120  0.14414537  0.62005002  1
  O  O208  1  0.26028646  0.12245622  0.86773656  1
  O  O209  1  0.25392610  0.40392025  0.12254534  1
  O  O210  1  0.25738241  0.34523658  0.37218658  1
  O  O211  1  0.25378139  0.34609075  0.63623379  1
  O  O212  1  0.26047723  0.37101520  0.85769975  1
  O  O213  1  0.25105944  0.60469531  0.17353248  1
  O  O214  1  0.26013179  0.63412381  0.37796788  1
  O  O215  1  0.24500760  0.64914326  0.63914387  1
  O  O216  1  0.25440895  0.58174300  0.85125684  1
  O  O217  1  0.24379819  0.88969669  0.15863844  1
  O  O218  1  0.25019270  0.84147870  0.37385509  1
  O  O219  1  0.25142987  0.84517103  0.63281090  1
  O  O220  1  0.24697257  0.90546266  0.84802859  1
  O  O221  1  0.50105439  0.14784802  0.12220731  1
  O  O222  1  0.49017749  0.09543027  0.36760152  1
  O  O223  1  0.50185262  0.10475905  0.61495540  1
  O  O224  1  0.50687573  0.12249265  0.89222780  1
  O  O225  1  0.49880530  0.35311616  0.12217353  1
  O  O226  1  0.49086542  0.39105540  0.40049299  1
  O  O227  1  0.49681306  0.38146917  0.62597752  1
  O  O228  1  0.50112981  0.37045309  0.85980827  1
  O  O229  1  0.50246614  0.65034613  0.13316253  1
  O  O230  1  0.50054943  0.59847149  0.38072062  1
  O  O231  1  0.50203313  0.59400424  0.63254769  1
  O  O232  1  0.48988541  0.65896075  0.87050486  1
  O  O233  1  0.48201296  0.83782425  0.11479602  1
  O  O234  1  0.49897570  0.89694112  0.38577517  1
  O  O235  1  0.50526668  0.89073740  0.59476014  1
  O  O236  1  0.48599714  0.83974470  0.89503774  1
  O  O237  1  0.73754515  0.10093249  0.13979523  1
  O  O238  1  0.75239027  0.15643856  0.34881502  1
  O  O239  1  0.74599466  0.15171712  0.63017522  1
  O  O240  1  0.75275452  0.12253620  0.88262458  1
  O  O241  1  0.74039212  0.41479637  0.13923900  1
  O  O242  1  0.75413107  0.36200633  0.37406900  1
  O  O243  1  0.74541023  0.34523918  0.62864489  1
  O  O244  1  0.75174201  0.35905750  0.86869494  1
  O  O245  1  0.73886312  0.59509257  0.13026955  1
  O  O246  1  0.74509115  0.63921029  0.40852098  1
  O  O247  1  0.73996361  0.61402173  0.60635834  1
  O  O248  1  0.75171356  0.61432273  0.86995043  1
  O  O249  1  0.74060509  0.89708677  0.14423026  1
  O  O250  1  0.74772073  0.86715173  0.33621998  1
  O  O251  1  0.76085498  0.85130934  0.64448975  1
  O  O252  1  0.75575414  0.86792108  0.84367669  1
  O  O253  1  0.09921400  -0.00631447  0.13444720  1
  O  O254  1  0.12357286  0.00856829  0.35395753  1
  O  O255  1  0.13105788  0.00515628  0.63883381  1
  O  O256  1  0.11598915  0.00424323  0.88717312  1
  O  O257  1  0.16712748  0.25426725  0.12354207  1
  O  O258  1  0.11280356  0.24991698  0.40083120  1
  O  O259  1  0.09956466  0.24505526  0.61554869  1
  O  O260  1  0.10630194  0.25176111  0.86658617  1
  O  O261  1  0.10122325  0.49375004  0.11845590  1
  O  O262  1  0.15781332  0.50731421  0.36197120  1
  O  O263  1  0.16244932  0.50290933  0.65572743  1
  O  O264  1  0.12422896  0.49635850  0.90079686  1
  O  O265  1  0.13223256  0.75134598  0.14091184  1
  O  O266  1  0.10531054  0.74135252  0.40792977  1
  O  O267  1  0.09165809  0.74401483  0.61711666  1
  O  O268  1  0.09852743  0.74957985  0.87399087  1
  O  O269  1  0.37752281  -0.01067054  0.15565798  1
  O  O270  1  0.35563891  -0.01209680  0.34229168  1
  O  O271  1  0.34759459  0.00122441  0.64310403  1
  O  O272  1  0.38142633  0.00375059  0.86746162  1
  O  O273  1  0.34603330  0.25665105  0.11925998  1
  O  O274  1  0.39557286  0.24382959  0.38415729  1
  O  O275  1  0.39693828  0.24318437  0.60680820  1
  O  O276  1  0.38166371  0.25042080  0.88893119  1
  O  O277  1  0.40364597  0.49580302  0.12956008  1
  O  O278  1  0.34684932  0.49424512  0.35300716  1
  O  O279  1  0.35140398  0.49860678  0.64938579  1
  O  O280  1  0.40499166  0.50255658  0.86464312  1
  O  O281  1  0.32382981  0.75070655  0.10661898  1
  O  O282  1  0.39731413  0.75251311  0.40546948  1
  O  O283  1  0.40146930  0.73735803  0.60828069  1
  O  O284  1  0.32600638  0.73611657  0.90379448  1
  O  O285  1  0.59159285  -0.01268911  0.10514330  1
  O  O286  1  0.63727718  -0.00533589  0.38045279  1
  O  O287  1  0.63543120  0.00946029  0.60623103  1
  O  O288  1  0.63553797  0.00202532  0.91657456  1
  O  O289  1  0.64225496  0.27426348  0.17032798  1
  O  O290  1  0.59434970  0.25368433  0.35993591  1
  O  O291  1  0.59724940  0.23649704  0.66608106  1
  O  O292  1  0.62778877  0.24016365  0.85954389  1
  O  O293  1  0.58985604  0.51125650  0.11502349  1
  O  O294  1  0.64030086  0.51043424  0.42255280  1
  O  O295  1  0.63712464  0.49182219  0.59637048  1
  O  O296  1  0.59929733  0.50677352  0.88573361  1
  O  O297  1  0.64306124  0.74699335  0.14725706  1
  O  O298  1  0.61362235  0.75176151  0.35860965  1
  O  O299  1  0.61993652  0.73908987  0.65591979  1
  O  O300  1  0.63897617  0.73893915  0.84074962  1
  O  O301  1  0.88491048  0.00207179  0.10352335  1
  O  O302  1  0.85127583  0.00251762  0.38176672  1
  O  O303  1  0.83493116  -0.00131435  0.60754055  1
  O  O304  1  0.87989711  0.00882099  0.90329720  1
  O  O305  1  0.83723384  0.24174368  0.16681305  1
  O  O306  1  0.88892467  0.25216841  0.37275455  1
  O  O307  1  0.89890187  0.24665052  0.63752462  1
  O  O308  1  0.87315884  0.24906477  0.87169176  1
  O  O309  1  0.89152310  0.49844874  0.11108866  1
  O  O310  1  0.85019103  0.50591554  0.41100065  1
  O  O311  1  0.84810405  0.48458585  0.59453627  1
  O  O312  1  0.86818528  0.49002799  0.89603668  1
  O  O313  1  0.85338299  0.75794680  0.15186568  1
  O  O314  1  0.87728485  0.75444471  0.35105038  1
  O  O315  1  0.89761100  0.76415282  0.62178362  1
  O  O316  1  0.89880259  0.74456283  0.88103366  1
