# generated using pymatgen
data_Mg32Ti42(Bi17O64)3
_symmetry_space_group_name_H-M   'P 1'
_cell_length_a   15.96896073
_cell_length_b   15.95452049
_cell_length_c   15.97145458
_cell_angle_alpha   89.87713004
_cell_angle_beta   89.95925104
_cell_angle_gamma   90.05516411
_symmetry_Int_Tables_number   1
_chemical_formula_structural   Mg32Ti42(Bi17O64)3
_chemical_formula_sum   'Mg32 Ti42 Bi51 O192'
_cell_volume   4069.14878157
_cell_formula_units_Z   1
loop_
 _symmetry_equiv_pos_site_id
 _symmetry_equiv_pos_as_xyz
  1  'x, y, z'
loop_
 _atom_site_type_symbol
 _atom_site_label
 _atom_site_symmetry_multiplicity
 _atom_site_fract_x
 _atom_site_fract_y
 _atom_site_fract_z
 _atom_site_occupancy
  Mg  Mg0  1  0.12802970  0.12882657  0.12461830  1
  Mg  Mg1  1  0.13444140  0.38124180  0.87074719  1
  Mg  Mg2  1  0.38706251  0.37104267  0.37729823  1
  Mg  Mg3  1  0.88839549  0.87528978  0.62015598  1
  Mg  Mg4  1  0.88449767  0.61580206  0.61002166  1
  Mg  Mg5  1  0.37822372  0.86782356  0.13505400  1
  Mg  Mg6  1  0.37845679  0.38026919  0.62255737  1
  Mg  Mg7  1  0.37826994  0.12072096  0.37702330  1
  Mg  Mg8  1  0.61693913  0.88365707  0.36683354  1
  Mg  Mg9  1  0.86583432  0.87584028  0.36035150  1
  Mg  Mg10  1  0.12845737  0.87935219  0.36106627  1
  Mg  Mg11  1  0.13529668  0.63274419  0.39429298  1
  Mg  Mg12  1  0.13215217  0.36452527  0.62925342  1
  Mg  Mg13  1  0.12974644  0.12057216  0.87642422  1
  Mg  Mg14  1  0.37695024  0.37445903  0.12031441  1
  Mg  Mg15  1  0.62223463  0.86476729  0.88696548  1
  Mg  Mg16  1  0.37545913  0.12800856  0.11737890  1
  Mg  Mg17  1  0.87631818  0.12345138  0.62113277  1
  Mg  Mg18  1  0.61828494  0.62736236  0.11746066  1
  Mg  Mg19  1  -0.00385925  -0.06135762  0.45321121  1
  Mg  Mg20  1  0.22591466  0.54751909  0.75231752  1
  Mg  Mg21  1  0.19913060  0.78842617  0.48808162  1
  Mg  Mg22  1  -0.05593401  0.53747946  0.02263750  1
  Mg  Mg23  1  -0.04291943  0.75377379  0.45960842  1
  Mg  Mg24  1  0.76750437  0.69025393  0.04189103  1
  Mg  Mg25  1  -0.00605834  0.72256701  0.71208125  1
  Mg  Mg26  1  0.56498489  0.55415464  0.27540867  1
  Mg  Mg27  1  0.47256354  0.74398726  -0.06217399  1
  Mg  Mg28  1  0.47441692  -0.05498921  0.00138380  1
  Mg  Mg29  1  -0.00853764  0.55441451  0.46857084  1
  Mg  Mg30  1  0.27339346  0.25497470  -0.04766802  1
  Mg  Mg31  1  0.27596152  0.28990528  0.74846112  1
  Ti  Ti32  1  0.10333409  0.62024051  0.88166549  1
  Ti  Ti33  1  0.36820848  0.38864402  0.88212347  1
  Ti  Ti34  1  0.11638058  0.39889876  0.38697649  1
  Ti  Ti35  1  0.12851033  0.38044563  0.12627380  1
  Ti  Ti36  1  0.63085114  0.12841246  0.11726847  1
  Ti  Ti37  1  0.87965078  0.38343170  0.36578820  1
  Ti  Ti38  1  0.09998728  0.87091957  0.87647815  1
  Ti  Ti39  1  0.63262134  0.63287117  0.88069414  1
  Ti  Ti40  1  0.37589109  0.62429628  0.39360748  1
  Ti  Ti41  1  0.89281365  0.37207102  0.87922474  1
  Ti  Ti42  1  0.62417032  0.12730269  0.37500382  1
  Ti  Ti43  1  0.86904414  0.85613447  0.88577564  1
  Ti  Ti44  1  0.13095933  0.11980675  0.62362664  1
  Ti  Ti45  1  0.62952391  0.35985836  0.36693173  1
  Ti  Ti46  1  0.37517383  0.87852125  0.37335210  1
  Ti  Ti47  1  0.87863610  0.11316988  0.38580784  1
  Ti  Ti48  1  0.11362757  0.87792643  0.62353119  1
  Ti  Ti49  1  0.62792852  0.37203773  0.62701652  1
  Ti  Ti50  1  0.89077205  0.37359329  0.61983124  1
  Ti  Ti51  1  0.37591247  0.12411075  0.86629337  1
  Ti  Ti52  1  0.13481700  0.62700829  0.11678968  1
  Ti  Ti53  1  0.86714858  0.62318465  0.87220657  1
  Ti  Ti54  1  0.62015150  0.86869555  0.11251041  1
  Ti  Ti55  1  0.88079254  0.12693205  0.87700114  1
  Ti  Ti56  1  0.37640536  0.88295252  0.86673299  1
  Ti  Ti57  1  0.37778362  0.62827613  0.13075713  1
  Ti  Ti58  1  0.37403878  0.62010494  0.62940729  1
  Ti  Ti59  1  0.13104929  0.64659199  0.61686381  1
  Ti  Ti60  1  0.88217157  0.12629262  0.11694776  1
  Ti  Ti61  1  0.61668154  0.38343654  0.12603138  1
  Ti  Ti62  1  0.62775103  0.37795447  0.87029282  1
  Ti  Ti63  1  0.63670608  0.61678866  0.62788713  1
  Ti  Ti64  1  0.36600013  0.62332586  0.86052495  1
  Ti  Ti65  1  0.37506883  0.12642249  0.63663699  1
  Ti  Ti66  1  0.87175300  0.87983381  0.12191615  1
  Ti  Ti67  1  0.12165769  0.11409439  0.38032731  1
  Ti  Ti68  1  0.62755353  0.13383771  0.62922676  1
  Ti  Ti69  1  0.36165182  0.85529256  0.62908235  1
  Ti  Ti70  1  0.12756907  0.87133291  0.12296423  1
  Ti  Ti71  1  0.86754990  0.62775909  0.36706134  1
  Ti  Ti72  1  0.61812351  0.13133189  0.86514892  1
  Ti  Ti73  1  0.88251929  0.37156483  0.12289000  1
  Bi  Bi74  1  0.52623966  0.76282273  0.50344297  1
  Bi  Bi75  1  0.53585561  -0.02346315  0.74517711  1
  Bi  Bi76  1  -0.01673032  0.01274686  0.73423070  1
  Bi  Bi77  1  0.76849329  0.21867173  0.25476880  1
  Bi  Bi78  1  0.26017987  0.03051457  0.00136205  1
  Bi  Bi79  1  0.49744750  0.24059489  0.49418916  1
  Bi  Bi80  1  0.50817207  0.74385302  0.28332417  1
  Bi  Bi81  1  0.25579094  -0.00688715  0.49993192  1
  Bi  Bi82  1  0.22690098  -0.00262314  0.75899624  1
  Bi  Bi83  1  0.53419294  0.76425223  0.73371685  1
  Bi  Bi84  1  0.01799695  0.01315303  0.01003214  1
  Bi  Bi85  1  0.27310679  0.27008337  0.24555177  1
  Bi  Bi86  1  0.25058681  0.73319658  0.27339654  1
  Bi  Bi87  1  0.04194735  0.26462812  -0.00239887  1
  Bi  Bi88  1  0.51058201  0.24763813  0.22611666  1
  Bi  Bi89  1  0.50784916  0.26689126  -0.01173640  1
  Bi  Bi90  1  0.47957325  0.27981529  0.74796005  1
  Bi  Bi91  1  0.77166702  0.47705301  0.73796167  1
  Bi  Bi92  1  0.51702457  0.49912849  0.47920161  1
  Bi  Bi93  1  0.76031669  -0.03307392  0.74590860  1
  Bi  Bi94  1  0.25700477  0.01429437  0.24731938  1
  Bi  Bi95  1  0.27305409  0.49655149  0.28330562  1
  Bi  Bi96  1  0.73564330  -0.01709248  0.23043290  1
  Bi  Bi97  1  0.02604710  0.24748967  0.48897151  1
  Bi  Bi98  1  0.78302218  0.74573361  0.71401025  1
  Bi  Bi99  1  0.47890528  -0.01887299  0.52480646  1
  Bi  Bi100  1  0.51645914  0.52175229  0.75168213  1
  Bi  Bi101  1  0.75323960  -0.01176220  -0.02226288  1
  Bi  Bi102  1  0.03323874  0.25776746  0.26454642  1
  Bi  Bi103  1  0.69899965  -0.01581823  0.50714974  1
  Bi  Bi104  1  0.76873558  0.78079050  0.49525185  1
  Bi  Bi105  1  0.27328952  0.25437246  0.49410178  1
  Bi  Bi106  1  0.00198056  0.01852946  0.24712286  1
  Bi  Bi107  1  0.72531017  0.51438151  0.46070215  1
  Bi  Bi108  1  0.48156996  0.53332174  0.00125905  1
  Bi  Bi109  1  0.77408116  0.24074217  0.73707004  1
  Bi  Bi110  1  0.24301210  0.49667540  0.02379910  1
  Bi  Bi111  1  0.02202997  0.74175860  0.27502603  1
  Bi  Bi112  1  -0.00969587  0.52477821  0.21862806  1
  Bi  Bi113  1  0.23809360  0.48487196  0.53111324  1
  Bi  Bi114  1  0.75062721  0.23804871  -0.02031212  1
  Bi  Bi115  1  0.04010665  0.25072248  0.74232019  1
  Bi  Bi116  1  0.03042299  0.51029385  0.72370138  1
  Bi  Bi117  1  0.23633005  0.76270722  0.78090198  1
  Bi  Bi118  1  -0.01667991  0.74341349  0.03342104  1
  Bi  Bi119  1  0.73125511  0.73610814  0.23274520  1
  Bi  Bi120  1  0.75877902  0.50410998  0.21526311  1
  Bi  Bi121  1  0.27206021  0.76603140  0.01277506  1
  Bi  Bi122  1  0.75455997  0.48575496  -0.01413740  1
  Bi  Bi123  1  0.77822139  0.25854487  0.49549487  1
  Bi  Bi124  1  0.48840363  0.00408243  0.21392425  1
  O  O125  1  0.13455303  0.08946448  0.00196060  1
  O  O126  1  0.10074543  0.12133899  0.25115317  1
  O  O127  1  0.11455829  0.12442961  0.49764300  1
  O  O128  1  0.12660342  0.13237814  0.74617847  1
  O  O129  1  0.10769296  0.38699378  0.00845640  1
  O  O130  1  0.12557947  0.37389279  0.25942515  1
  O  O131  1  0.10708861  0.36423480  0.49911099  1
  O  O132  1  0.15376763  0.32645089  0.75285862  1
  O  O133  1  0.13935493  0.60670840  -0.01117136  1
  O  O134  1  0.13300854  0.64256822  0.23604688  1
  O  O135  1  0.16487549  0.66563382  0.51135132  1
  O  O136  1  0.08356280  0.63713477  0.74850816  1
  O  O137  1  0.09967078  0.88627645  -0.00767636  1
  O  O138  1  0.14214124  0.86031021  0.23548931  1
  O  O139  1  0.09809521  0.87381256  0.50687455  1
  O  O140  1  0.15140906  0.86935496  0.74992496  1
  O  O141  1  0.34054439  0.14646206  -0.00690232  1
  O  O142  1  0.37301126  0.08445964  0.25400553  1
  O  O143  1  0.37625248  0.15934297  0.50525832  1
  O  O144  1  0.38078385  0.09083652  0.75116721  1
  O  O145  1  0.37951616  0.33453346  -0.00810138  1
  O  O146  1  0.35162538  0.38540286  0.25480579  1
  O  O147  1  0.38818793  0.33569716  0.50082461  1
  O  O148  1  0.37149593  0.37868560  0.76005130  1
  O  O149  1  0.39578405  0.64633996  -0.01550967  1
  O  O150  1  0.36068341  0.60581551  0.24046754  1
  O  O151  1  0.38438859  0.64075270  0.50474800  1
  O  O152  1  0.37197898  0.57898302  0.74960879  1
  O  O153  1  0.39830368  0.83815835  -0.01225649  1
  O  O154  1  0.34626776  0.89804302  0.25851313  1
  O  O155  1  0.40728676  0.85968693  0.50767847  1
  O  O156  1  0.33749653  0.88396997  0.74931449  1
  O  O157  1  0.64086270  0.12022567  0.00533264  1
  O  O158  1  0.62856960  0.15249269  0.26005412  1
  O  O159  1  0.63201279  0.11195498  0.50738635  1
  O  O160  1  0.60792421  0.15244050  0.75253983  1
  O  O161  1  0.60382916  0.39419579  0.01080276  1
  O  O162  1  0.63897300  0.34801106  0.25589893  1
  O  O163  1  0.61942052  0.40784740  0.51207723  1
  O  O164  1  0.63158656  0.35398776  0.75821964  1
  O  O165  1  0.64758091  0.60871194  -0.00467386  1
  O  O166  1  0.61490190  0.66314240  0.24133041  1
  O  O167  1  0.61151113  0.59568328  0.51050950  1
  O  O168  1  0.61209475  0.63691744  0.74928720  1
  O  O169  1  0.59513485  0.90497867  0.00465820  1
  O  O170  1  0.65706970  0.86572286  0.24221207  1
  O  O171  1  0.59308378  0.89003700  0.49926986  1
  O  O172  1  0.62422582  0.86741618  0.75657081  1
  O  O173  1  0.84444936  0.11596216  -0.00012375  1
  O  O174  1  0.89160152  0.13971569  0.24038833  1
  O  O175  1  0.85906616  0.13435247  0.49712989  1
  O  O176  1  0.88321755  0.15400216  0.76167432  1
  O  O177  1  0.88862425  0.41510197  0.00187243  1
  O  O178  1  0.86295020  0.37455104  0.25088023  1
  O  O179  1  0.88566802  0.36989146  0.50524860  1
  O  O180  1  0.85766855  0.36538977  0.76348700  1
  O  O181  1  0.84365562  0.60378315  -0.00596506  1
  O  O182  1  0.91610449  0.63578755  0.25738627  1
  O  O183  1  0.88561039  0.62844039  0.48678761  1
  O  O184  1  0.89796165  0.64800755  0.76129301  1
  O  O185  1  0.87773558  0.90906852  -0.00583836  1
  O  O186  1  0.84617962  0.88063849  0.23642351  1
  O  O187  1  0.89648966  0.85693606  0.49672373  1
  O  O188  1  0.85244116  0.85959920  0.76144392  1
  O  O189  1  -0.00379118  0.13453058  0.09284033  1
  O  O190  1  -0.00791958  0.15052526  0.37638086  1
  O  O191  1  0.00289836  0.10060581  0.63306711  1
  O  O192  1  -0.00582298  0.11616323  0.89268394  1
  O  O193  1  -0.00313532  0.37885300  0.14420380  1
  O  O194  1  -0.00330626  0.35217727  0.36876544  1
  O  O195  1  0.00245772  0.37105421  0.65201601  1
  O  O196  1  0.00458925  0.36236137  0.86400562  1
  O  O197  1  0.00897967  0.61628463  0.10350870  1
  O  O198  1  0.01256551  0.66313251  0.39269064  1
  O  O199  1  0.02173140  0.58927573  0.59418091  1
  O  O200  1  -0.00941896  0.60515799  0.91109069  1
  O  O201  1  -0.00780944  0.84868064  0.12730661  1
  O  O202  1  -0.00263493  0.84574697  0.36427329  1
  O  O203  1  0.00542696  0.90022708  0.65502840  1
  O  O204  1  -0.01123259  0.87523322  0.85930813  1
  O  O205  1  0.25040436  0.09616721  0.13359012  1
  O  O206  1  0.23657301  0.09331135  0.37190051  1
  O  O207  1  0.24799003  0.13576000  0.61307805  1
  O  O208  1  0.25587470  0.08784102  0.87046688  1
  O  O209  1  0.24564451  0.38074207  0.11622481  1
  O  O210  1  0.23511795  0.40202176  0.39529996  1
  O  O211  1  0.25365215  0.36425760  0.59711034  1
  O  O212  1  0.25636948  0.37382517  0.89399946  1
  O  O213  1  0.25357211  0.61689002  0.10112479  1
  O  O214  1  0.25696004  0.62104371  0.36360178  1
  O  O215  1  0.24483052  0.63264193  0.65751705  1
  O  O216  1  0.24935003  0.62656331  0.85335132  1
  O  O217  1  0.24464149  0.87677711  0.09417678  1
  O  O218  1  0.25121695  0.88355452  0.41071370  1
  O  O219  1  0.24780086  0.85428390  0.58972345  1
  O  O220  1  0.25663789  0.85061924  0.89159319  1
  O  O221  1  0.50545414  0.13269291  0.14024424  1
  O  O222  1  0.50775113  0.14723482  0.38265263  1
  O  O223  1  0.49248933  0.12588790  0.61898633  1
  O  O224  1  0.49412063  0.14832812  0.89072857  1
  O  O225  1  0.50201054  0.36431352  0.14301610  1
  O  O226  1  0.51216907  0.34809604  0.38209266  1
  O  O227  1  0.50369701  0.37630879  0.64796801  1
  O  O228  1  0.49805907  0.36006455  0.87535677  1
  O  O229  1  0.49449533  0.61909124  0.11839466  1
  O  O230  1  0.48885953  0.62122785  0.35449288  1
  O  O231  1  0.49012816  0.60566355  0.63858084  1
  O  O232  1  0.50248681  0.60495625  0.86898311  1
  O  O233  1  0.51017865  0.86134838  0.14704694  1
  O  O234  1  0.48841120  0.88292994  0.34893186  1
  O  O235  1  0.48175454  0.88902856  0.64899741  1
  O  O236  1  0.49131121  0.87070652  0.85314257  1
  O  O237  1  0.75034960  0.12177901  0.14587858  1
  O  O238  1  0.76156092  0.11838076  0.35216563  1
  O  O239  1  0.74434070  0.13923534  0.64212258  1
  O  O240  1  0.74310507  0.15633768  0.86661545  1
  O  O241  1  0.74960529  0.40327290  0.11291334  1
  O  O242  1  0.75318939  0.39627787  0.39247428  1
  O  O243  1  0.74873417  0.37552225  0.63426760  1
  O  O244  1  0.74513066  0.36703633  0.90153304  1
  O  O245  1  0.74585561  0.62110467  0.14584862  1
  O  O246  1  0.75703581  0.59765574  0.35119317  1
  O  O247  1  0.75119092  0.62902734  0.62313793  1
  O  O248  1  0.74787939  0.64009840  0.85471689  1
  O  O249  1  0.74944341  0.91633954  0.10563865  1
  O  O250  1  0.74429630  0.88217297  0.40888363  1
  O  O251  1  0.76096206  0.85396927  0.61541446  1
  O  O252  1  0.74829422  0.87578004  0.89265612  1
  O  O253  1  0.09143840  -0.01129318  0.13449485  1
  O  O254  1  0.08529248  -0.00207538  0.37180387  1
  O  O255  1  0.14725497  -0.00373511  0.63181796  1
  O  O256  1  0.12279612  -0.01255053  0.85279200  1
  O  O257  1  0.11797035  0.25675456  0.12154989  1
  O  O258  1  0.12455931  0.24189071  0.37546081  1
  O  O259  1  0.10070178  0.23853061  0.61565445  1
  O  O260  1  0.14777198  0.24073369  0.91796870  1
  O  O261  1  0.13264507  0.50342417  0.13054260  1
  O  O262  1  0.09610074  0.51033032  0.40649148  1
  O  O263  1  0.15317138  0.49362235  0.65579155  1
  O  O264  1  0.12945705  0.50741001  0.83544210  1
  O  O265  1  0.12533823  0.74727606  0.09409917  1
  O  O266  1  0.15349943  0.75594414  0.36688762  1
  O  O267  1  0.09416059  0.75516944  0.63679656  1
  O  O268  1  0.12043999  0.74583641  0.87178190  1
  O  O269  1  0.40962475  -0.00865102  0.10121254  1
  O  O270  1  0.37629484  -0.00340929  0.41872050  1
  O  O271  1  0.35691531  0.00008594  0.60088958  1
  O  O272  1  0.39052465  -0.00947891  0.90715437  1
  O  O273  1  0.37538269  0.24641902  0.16125000  1
  O  O274  1  0.34237921  0.24600179  0.36012617  1
  O  O275  1  0.36724178  0.24420951  0.66419210  1
  O  O276  1  0.34451898  0.23473931  0.84470680  1
  O  O277  1  0.37234299  0.50195469  0.08824258  1
  O  O278  1  0.37255972  0.50193454  0.38463584  1
  O  O279  1  0.35665488  0.50347589  0.59471125  1
  O  O280  1  0.37341038  0.50066525  0.90650835  1
  O  O281  1  0.35612577  0.74431694  0.13212364  1
  O  O282  1  0.36948503  0.75174875  0.36149297  1
  O  O283  1  0.38131158  0.74426115  0.64610678  1
  O  O284  1  0.38525875  0.73738520  0.84266743  1
  O  O285  1  0.61824554  0.00764202  0.14932075  1
  O  O286  1  0.63355345  0.00986268  0.37614955  1
  O  O287  1  0.62908886  0.01259508  0.64532717  1
  O  O288  1  0.63056297  0.01598327  0.85859278  1
  O  O289  1  0.62185284  0.25314171  0.11879100  1
  O  O290  1  0.65474648  0.25004952  0.40651247  1
  O  O291  1  0.62099114  0.25657317  0.60637964  1
  O  O292  1  0.62247607  0.25598881  0.90654580  1
  O  O293  1  0.61786168  0.49845434  0.17177764  1
  O  O294  1  0.61195347  0.49030976  0.37306282  1
  O  O295  1  0.63064462  0.49941912  0.65752669  1
  O  O296  1  0.63310949  0.49543873  0.85970106  1
  O  O297  1  0.66679273  0.75927080  0.10324934  1
  O  O298  1  0.59873868  0.75849967  0.38598848  1
  O  O299  1  0.60808919  0.73718408  0.61507731  1
  O  O300  1  0.59292793  0.74132702  0.89362435  1
  O  O301  1  0.89785158  0.00731171  0.13027748  1
  O  O302  1  0.90323428  0.00013917  0.38165300  1
  O  O303  1  0.86470550  0.00008375  0.65863695  1
  O  O304  1  0.84721458  0.01268699  0.85613099  1
  O  O305  1  0.86472159  0.25756581  0.11138150  1
  O  O306  1  0.85149700  0.25937014  0.37908666  1
  O  O307  1  0.86944656  0.25498650  0.62697632  1
  O  O308  1  0.87603737  0.25728585  0.90753452  1
  O  O309  1  0.88401031  0.50187156  0.13999803  1
  O  O310  1  0.90741552  0.50177424  0.37538090  1
  O  O311  1  0.87290983  0.49352797  0.64609294  1
  O  O312  1  0.85475999  0.50032584  0.86135260  1
  O  O313  1  0.85609235  0.76485033  0.09375731  1
  O  O314  1  0.85192789  0.74556963  0.37314809  1
  O  O315  1  0.89677366  0.74344104  0.63257619  1
  O  O316  1  0.87720274  0.74656815  0.90877491  1
