# generated using pymatgen
data_Mg32Ti42(Bi17O64)3
_symmetry_space_group_name_H-M   'P 1'
_cell_length_a   15.90394143
_cell_length_b   15.96704242
_cell_length_c   15.88979139
_cell_angle_alpha   89.95259856
_cell_angle_beta   89.83707627
_cell_angle_gamma   89.98008194
_symmetry_Int_Tables_number   1
_chemical_formula_structural   Mg32Ti42(Bi17O64)3
_chemical_formula_sum   'Mg32 Ti42 Bi51 O192'
_cell_volume   4035.01832880
_cell_formula_units_Z   1
loop_
 _symmetry_equiv_pos_site_id
 _symmetry_equiv_pos_as_xyz
  1  'x, y, z'
loop_
 _atom_site_type_symbol
 _atom_site_label
 _atom_site_symmetry_multiplicity
 _atom_site_fract_x
 _atom_site_fract_y
 _atom_site_fract_z
 _atom_site_occupancy
  Mg  Mg0  1  0.12580245  0.86871408  0.37865745  1
  Mg  Mg1  1  0.37831149  0.85705558  0.37419691  1
  Mg  Mg2  1  0.12159904  0.36838069  0.12894841  1
  Mg  Mg3  1  0.37393077  0.62016126  0.62973987  1
  Mg  Mg4  1  0.38101045  0.87040403  0.88469652  1
  Mg  Mg5  1  0.61599377  0.37429346  0.62635087  1
  Mg  Mg6  1  0.37851586  0.12539521  0.87250544  1
  Mg  Mg7  1  0.61861093  0.12022834  0.37850426  1
  Mg  Mg8  1  0.61969064  0.37324003  0.11974045  1
  Mg  Mg9  1  0.87155788  0.37265177  0.87538325  1
  Mg  Mg10  1  0.87471619  0.36562231  0.37199862  1
  Mg  Mg11  1  0.37322622  0.12166058  0.37451547  1
  Mg  Mg12  1  0.61100705  0.37672888  0.37685369  1
  Mg  Mg13  1  0.11664333  0.62746847  0.12194685  1
  Mg  Mg14  1  0.87321945  0.62871496  0.37391600  1
  Mg  Mg15  1  0.12659904  0.38630547  0.61537750  1
  Mg  Mg16  1  0.87676278  0.35351207  0.12246747  1
  Mg  Mg17  1  0.62460217  0.86691877  0.37021239  1
  Mg  Mg18  1  0.63642575  0.88203625  0.63154573  1
  Mg  Mg19  1  -0.03098463  0.48004017  0.47427163  1
  Mg  Mg20  1  0.48160544  0.21968131  0.48102857  1
  Mg  Mg21  1  0.52063043  -0.04570457  -0.01032861  1
  Mg  Mg22  1  0.27937435  0.50110021  0.53769081  1
  Mg  Mg23  1  0.73340489  -0.02180541  0.49187565  1
  Mg  Mg24  1  0.26076235  0.25178359  0.78554730  1
  Mg  Mg25  1  0.46939714  0.50921642  -0.01261179  1
  Mg  Mg26  1  0.27376058  0.19610092  0.00884409  1
  Mg  Mg27  1  0.49639030  0.80173573  0.54952660  1
  Mg  Mg28  1  0.30865417  0.76154572  0.53205477  1
  Mg  Mg29  1  0.72115485  0.77379833  0.22808399  1
  Mg  Mg30  1  0.79751057  0.76226030  0.80006406  1
  Mg  Mg31  1  0.76762512  0.04546289  -0.02865089  1
  Ti  Ti32  1  0.87223115  0.87621718  0.13809831  1
  Ti  Ti33  1  0.37299625  0.37530901  0.12088163  1
  Ti  Ti34  1  0.86873856  0.11531469  0.12923532  1
  Ti  Ti35  1  0.11774570  0.39241408  0.38091534  1
  Ti  Ti36  1  0.13079260  0.87358179  0.87268540  1
  Ti  Ti37  1  0.62344893  0.10558672  0.12448124  1
  Ti  Ti38  1  0.13492094  0.87854778  0.12379195  1
  Ti  Ti39  1  0.63703414  0.61545516  0.87857350  1
  Ti  Ti40  1  0.36084896  0.62753488  0.87822736  1
  Ti  Ti41  1  0.37924553  0.11364267  0.13578840  1
  Ti  Ti42  1  0.11943968  0.63235466  0.87726456  1
  Ti  Ti43  1  0.13411782  0.11740142  0.37604617  1
  Ti  Ti44  1  0.13560979  0.12015485  0.12241562  1
  Ti  Ti45  1  0.11953969  0.87817764  0.60871010  1
  Ti  Ti46  1  0.37745909  0.61607624  0.38653599  1
  Ti  Ti47  1  0.37166024  0.61626212  0.12407795  1
  Ti  Ti48  1  0.88106393  0.14257081  0.86675980  1
  Ti  Ti49  1  0.62549058  0.62173508  0.37226674  1
  Ti  Ti50  1  0.86763459  0.13151155  0.37777027  1
  Ti  Ti51  1  0.61782500  0.12500966  0.62553117  1
  Ti  Ti52  1  0.87043245  0.62005363  0.62561290  1
  Ti  Ti53  1  0.62000168  0.11294846  0.87507871  1
  Ti  Ti54  1  0.88139252  0.37526920  0.61982631  1
  Ti  Ti55  1  0.13850586  0.12655476  0.87150692  1
  Ti  Ti56  1  0.86804222  0.12767003  0.61894591  1
  Ti  Ti57  1  0.61634739  0.85767860  0.86884991  1
  Ti  Ti58  1  0.62659098  0.37190855  0.87833852  1
  Ti  Ti59  1  0.37153563  0.38517881  0.38348171  1
  Ti  Ti60  1  0.38683762  0.37463582  0.88350422  1
  Ti  Ti61  1  0.37800341  0.36820415  0.63020079  1
  Ti  Ti62  1  0.62418134  0.62724733  0.63811258  1
  Ti  Ti63  1  0.87036550  0.62015284  0.88018378  1
  Ti  Ti64  1  0.87981341  0.63774962  0.13738474  1
  Ti  Ti65  1  0.86345482  0.86068842  0.37387236  1
  Ti  Ti66  1  0.13499860  0.61813056  0.61498826  1
  Ti  Ti67  1  0.62268011  0.87661303  0.12034985  1
  Ti  Ti68  1  0.36504350  0.13640309  0.61999181  1
  Ti  Ti69  1  0.63761189  0.62859894  0.12582305  1
  Ti  Ti70  1  0.38168497  0.86503667  0.12385815  1
  Ti  Ti71  1  0.86942902  0.87083916  0.61543180  1
  Ti  Ti72  1  0.12887325  0.61806999  0.37811909  1
  Ti  Ti73  1  0.12807047  0.12025553  0.61651625  1
  Bi  Bi74  1  0.26784776  -0.02371089  0.27450390  1
  Bi  Bi75  1  0.76205291  -0.03734871  0.78528914  1
  Bi  Bi76  1  0.50850770  0.71784285  -0.01294596  1
  Bi  Bi77  1  0.74426594  0.47460169  0.51131937  1
  Bi  Bi78  1  0.22763275  0.74256097  0.73275932  1
  Bi  Bi79  1  0.02452304  0.26688272  0.74737413  1
  Bi  Bi80  1  -0.00768252  0.73353061  0.73403980  1
  Bi  Bi81  1  0.01702833  0.73555615  0.26030993  1
  Bi  Bi82  1  0.46108734  0.75717934  0.73707610  1
  Bi  Bi83  1  0.24251580  0.25757417  0.49058537  1
  Bi  Bi84  1  0.26020813  0.26601564  0.26500449  1
  Bi  Bi85  1  0.27196309  -0.01666364  -0.01667488  1
  Bi  Bi86  1  -0.01152584  -0.00124604  0.48195079  1
  Bi  Bi87  1  -0.02254648  -0.00211103  -0.03028829  1
  Bi  Bi88  1  0.51811005  -0.01811859  0.50667665  1
  Bi  Bi89  1  -0.01090569  0.72476739  0.49106552  1
  Bi  Bi90  1  0.24742481  0.46588872  0.75483598  1
  Bi  Bi91  1  0.46344555  -0.02393644  0.73688214  1
  Bi  Bi92  1  -0.02150087  0.47561234  0.23457603  1
  Bi  Bi93  1  0.22465784  0.49538632  0.23042059  1
  Bi  Bi94  1  0.51295412  0.51879315  0.51696609  1
  Bi  Bi95  1  0.04493488  0.26201207  -0.02225912  1
  Bi  Bi96  1  0.24070361  0.00262948  0.75116667  1
  Bi  Bi97  1  0.74207137  0.47908366  0.75632439  1
  Bi  Bi98  1  0.49499475  0.48795524  0.75877955  1
  Bi  Bi99  1  0.21989718  0.47028173  -0.00469177  1
  Bi  Bi100  1  0.71212249  0.74752416  0.51067112  1
  Bi  Bi101  1  0.49011895  0.23042608  0.75276343  1
  Bi  Bi102  1  0.76766908  0.48769483  0.03542004  1
  Bi  Bi103  1  0.01590499  0.22466875  0.24315013  1
  Bi  Bi104  1  0.72131879  0.24645362  0.49014006  1
  Bi  Bi105  1  0.01019719  -0.02626755  0.25726227  1
  Bi  Bi106  1  0.50592095  -0.02271722  0.26880443  1
  Bi  Bi107  1  0.75342404  0.00693330  0.27828364  1
  Bi  Bi108  1  -0.01827362  0.78424520  -0.01476373  1
  Bi  Bi109  1  0.49428373  0.25263817  0.26747297  1
  Bi  Bi110  1  0.51298885  0.73955870  0.25715260  1
  Bi  Bi111  1  0.73058591  0.27887945  0.25586557  1
  Bi  Bi112  1  0.28763597  -0.03607625  0.51339603  1
  Bi  Bi113  1  -0.00006762  0.47867718  0.00221454  1
  Bi  Bi114  1  0.51678686  0.50099767  0.21802703  1
  Bi  Bi115  1  0.23350376  0.74000563  0.01888929  1
  Bi  Bi116  1  -0.02021354  0.00564881  0.73241119  1
  Bi  Bi117  1  -0.00034771  0.48191581  0.77272959  1
  Bi  Bi118  1  0.26093025  0.73074954  0.27312764  1
  Bi  Bi119  1  0.72701695  0.23317026  0.75217462  1
  Bi  Bi120  1  0.75871531  0.50312038  0.27710537  1
  Bi  Bi121  1  0.48749369  0.23028666  0.01636223  1
  Bi  Bi122  1  0.76242075  0.76343401  -0.00409768  1
  Bi  Bi123  1  0.73465565  0.24582542  0.02928816  1
  Bi  Bi124  1  0.01001028  0.26679657  0.51073127  1
  O  O125  1  0.13394197  0.14971684  -0.00140114  1
  O  O126  1  0.12479136  0.13209211  0.24968045  1
  O  O127  1  0.11490169  0.13234352  0.49743280  1
  O  O128  1  0.14923609  0.11658722  0.74878195  1
  O  O129  1  0.12597439  0.37186530  0.00046832  1
  O  O130  1  0.10899569  0.40033430  0.25630724  1
  O  O131  1  0.14678494  0.35804695  0.49410900  1
  O  O132  1  0.09428360  0.38609789  0.73667333  1
  O  O133  1  0.11848981  0.66012835  -0.00766079  1
  O  O134  1  0.11668352  0.59992776  0.25494109  1
  O  O135  1  0.11335489  0.64155431  0.50221419  1
  O  O136  1  0.15599134  0.62471316  0.74850820  1
  O  O137  1  0.10792596  0.86984896  0.00452935  1
  O  O138  1  0.13563610  0.89725050  0.24618793  1
  O  O139  1  0.08623921  0.87650600  0.50068576  1
  O  O140  1  0.15605875  0.89241957  0.75507477  1
  O  O141  1  0.38918145  0.12583800  0.00534277  1
  O  O142  1  0.36508413  0.16178901  0.24343293  1
  O  O143  1  0.39547380  0.12316605  0.50516952  1
  O  O144  1  0.35895578  0.17455682  0.74377718  1
  O  O145  1  0.37912996  0.41157784  -0.00383727  1
  O  O146  1  0.38134049  0.34728833  0.24722584  1
  O  O147  1  0.33459990  0.39019398  0.50162662  1
  O  O148  1  0.41964495  0.36809831  0.74955124  1
  O  O149  1  0.37807849  0.60082177  -0.00336321  1
  O  O150  1  0.37716550  0.64699926  0.24410703  1
  O  O151  1  0.36982177  0.58440948  0.50021150  1
  O  O152  1  0.37141609  0.65374600  0.75566212  1
  O  O153  1  0.39946823  0.91272694  0.01154112  1
  O  O154  1  0.33961726  0.85272709  0.24554732  1
  O  O155  1  0.39618153  0.87668703  0.49695052  1
  O  O156  1  0.37644902  0.86236440  0.75592184  1
  O  O157  1  0.60548512  0.14786395  -0.01100173  1
  O  O158  1  0.63925021  0.09093466  0.23914991  1
  O  O159  1  0.59996940  0.16891353  0.51216628  1
  O  O160  1  0.65572476  0.11094079  0.75109706  1
  O  O161  1  0.63316053  0.35347254  -0.00865456  1
  O  O162  1  0.61194553  0.35848940  0.24905436  1
  O  O163  1  0.64921543  0.36932184  0.49987710  1
  O  O164  1  0.61126355  0.40790684  0.75104437  1
  O  O165  1  0.64510674  0.64133280  0.00490847  1
  O  O166  1  0.59643797  0.61763639  0.24566541  1
  O  O167  1  0.61798724  0.63897638  0.48865409  1
  O  O168  1  0.63097861  0.61127840  0.75116317  1
  O  O169  1  0.59800474  0.85250639  -0.00051538  1
  O  O170  1  0.64477303  0.89290337  0.23728463  1
  O  O171  1  0.59335297  0.86246131  0.49520898  1
  O  O172  1  0.64416819  0.88878152  0.75655267  1
  O  O173  1  0.88356437  0.09805435  0.01174652  1
  O  O174  1  0.83353827  0.12548425  0.25958525  1
  O  O175  1  0.88943891  0.11163468  0.50376116  1
  O  O176  1  0.88304630  0.14390961  0.75007465  1
  O  O177  1  0.87178911  0.40695543  -0.00008489  1
  O  O178  1  0.89763593  0.36451660  0.24655813  1
  O  O179  1  0.86318295  0.40128764  0.49692663  1
  O  O180  1  0.91237644  0.37417830  0.73701160  1
  O  O181  1  0.86138983  0.59905444  -0.00625535  1
  O  O182  1  0.88784747  0.66236615  0.24839047  1
  O  O183  1  0.91269633  0.60590697  0.50869765  1
  O  O184  1  0.86734087  0.66294751  0.74403494  1
  O  O185  1  0.89390985  0.88977433  0.01355123  1
  O  O186  1  0.83209661  0.84253328  0.25390727  1
  O  O187  1  0.89822796  0.89469333  0.49852176  1
  O  O188  1  0.84291643  0.85998535  0.73604523  1
  O  O189  1  -0.01786529  0.12330928  0.15625103  1
  O  O190  1  -0.01322396  0.14693640  0.36090747  1
  O  O191  1  0.00915471  0.10007319  0.63592092  1
  O  O192  1  0.01045338  0.11186056  0.87740843  1
  O  O193  1  -0.00382059  0.39467105  0.11315351  1
  O  O194  1  0.00432175  0.35927597  0.39523066  1
  O  O195  1  -0.00005306  0.39510154  0.57642184  1
  O  O196  1  -0.00418146  0.40357860  0.88559623  1
  O  O197  1  -0.00876435  0.61959568  0.12034840  1
  O  O198  1  0.00221411  0.65130350  0.37143710  1
  O  O199  1  0.01271245  0.62351531  0.65286550  1
  O  O200  1  -0.00070034  0.62624660  0.85877216  1
  O  O201  1  -0.01068908  0.86802895  0.15542756  1
  O  O202  1  -0.00989928  0.85373782  0.33884063  1
  O  O203  1  -0.00055007  0.90003610  0.64804012  1
  O  O204  1  0.01309724  0.88957217  0.87275149  1
  O  O205  1  0.25187047  0.12341267  0.11241939  1
  O  O206  1  0.24435598  0.09057441  0.37837459  1
  O  O207  1  0.25054082  0.14718408  0.60641752  1
  O  O208  1  0.25499563  0.16489924  0.88611944  1
  O  O209  1  0.25028035  0.38395605  0.13642744  1
  O  O210  1  0.24678044  0.39330356  0.34401784  1
  O  O211  1  0.26381873  0.34596461  0.67412587  1
  O  O212  1  0.27559293  0.35965928  0.85196473  1
  O  O213  1  0.25383790  0.63442026  0.11653246  1
  O  O214  1  0.24484220  0.59884442  0.36331840  1
  O  O215  1  0.24956112  0.66636733  0.60965443  1
  O  O216  1  0.25172330  0.65299548  0.89024023  1
  O  O217  1  0.25081056  0.88718916  0.10271037  1
  O  O218  1  0.25005608  0.89933269  0.39097222  1
  O  O219  1  0.23907078  0.85599286  0.58207307  1
  O  O220  1  0.25245748  0.86568299  0.91441508  1
  O  O221  1  0.49826320  0.14281527  0.13437455  1
  O  O222  1  0.49576684  0.15803580  0.36787218  1
  O  O223  1  0.50613241  0.11369023  0.65371589  1
  O  O224  1  0.50695666  0.11303204  0.84664545  1
  O  O225  1  0.49314267  0.38979413  0.11739663  1
  O  O226  1  0.48310807  0.33487758  0.39355628  1
  O  O227  1  0.49156890  0.41500728  0.60696737  1
  O  O228  1  0.50931860  0.42097426  0.88762365  1
  O  O229  1  0.49836121  0.59934411  0.10854875  1
  O  O230  1  0.48841047  0.64502087  0.37813131  1
  O  O231  1  0.50650583  0.60167464  0.62754139  1
  O  O232  1  0.51626696  0.59988832  0.90126190  1
  O  O233  1  0.49377081  0.86992446  0.15478029  1
  O  O234  1  0.49895202  0.85699522  0.33741947  1
  O  O235  1  0.51104404  0.89664367  0.63646998  1
  O  O236  1  0.50801311  0.90870367  0.86999106  1
  O  O237  1  0.73676563  0.09776859  0.08569583  1
  O  O238  1  0.74830265  0.07892052  0.40469622  1
  O  O239  1  0.75637020  0.14835240  0.61725183  1
  O  O240  1  0.75990788  0.14521546  0.88614246  1
  O  O241  1  0.74952646  0.36778287  0.11550595  1
  O  O242  1  0.74756526  0.38954746  0.35375136  1
  O  O243  1  0.75950713  0.38337555  0.63079256  1
  O  O244  1  0.74795763  0.36619191  0.84167499  1
  O  O245  1  0.74561150  0.65700308  0.15268441  1
  O  O246  1  0.74467033  0.60351954  0.37530043  1
  O  O247  1  0.75403200  0.64452239  0.60282932  1
  O  O248  1  0.75152411  0.65826957  0.86749275  1
  O  O249  1  0.74121976  0.85881188  0.10532480  1
  O  O250  1  0.75071802  0.89523373  0.39769615  1
  O  O251  1  0.75490333  0.87551229  0.58364700  1
  O  O252  1  0.74066111  0.85242279  0.88139148  1
  O  O253  1  0.11183101  0.00834206  0.11375030  1
  O  O254  1  0.09103840  0.00372176  0.37517083  1
  O  O255  1  0.15217837  0.00073069  0.61657592  1
  O  O256  1  0.16036206  0.00663115  0.88158640  1
  O  O257  1  0.10319086  0.24315439  0.12894786  1
  O  O258  1  0.15437973  0.24398681  0.37314268  1
  O  O259  1  0.10014969  0.24641588  0.62699960  1
  O  O260  1  0.11497387  0.24761008  0.85409339  1
  O  O261  1  0.13910296  0.50461849  0.10224930  1
  O  O262  1  0.08873828  0.50069177  0.40722797  1
  O  O263  1  0.16938162  0.50796168  0.60383880  1
  O  O264  1  0.13745099  0.51795182  0.89104478  1
  O  O265  1  0.13861266  0.76009610  0.13600911  1
  O  O266  1  0.13756813  0.74177687  0.35593964  1
  O  O267  1  0.11174098  0.76326075  0.64752223  1
  O  O268  1  0.12371580  0.75890051  0.84896797  1
  O  O269  1  0.37872032  0.00437887  0.15949401  1
  O  O270  1  0.38959499  -0.00430400  0.34749047  1
  O  O271  1  0.36037838  0.01985796  0.64543765  1
  O  O272  1  0.34570026  0.00340459  0.86223839  1
  O  O273  1  0.35833736  0.26381621  0.08622106  1
  O  O274  1  0.33417380  0.25392966  0.38384996  1
  O  O275  1  0.41269509  0.25955108  0.59906175  1
  O  O276  1  0.41700753  0.26195100  0.88970556  1
  O  O277  1  0.36513178  0.50272953  0.15112294  1
  O  O278  1  0.39603411  0.49347262  0.35883918  1
  O  O279  1  0.34325724  0.49336655  0.64880657  1
  O  O280  1  0.36233368  0.50670263  0.84500059  1
  O  O281  1  0.37843576  0.75305612  0.09561551  1
  O  O282  1  0.33585715  0.73385937  0.39796083  1
  O  O283  1  0.40767445  0.74069750  0.60848413  1
  O  O284  1  0.40717861  0.74295014  0.89209524  1
  O  O285  1  0.59117513  -0.00680309  0.09144025  1
  O  O286  1  0.59112003  -0.00320322  0.38634120  1
  O  O287  1  0.64191518  0.01382043  0.57856150  1
  O  O288  1  0.65710197  0.00641374  0.90501709  1
  O  O289  1  0.64402448  0.23381596  0.13327385  1
  O  O290  1  0.65517413  0.24233077  0.36745633  1
  O  O291  1  0.62277602  0.24971674  0.65864721  1
  O  O292  1  0.61744269  0.25653789  0.84543184  1
  O  O293  1  0.63760343  0.50543287  0.13512242  1
  O  O294  1  0.60501727  0.50421102  0.36650152  1
  O  O295  1  0.63764282  0.50971324  0.60201963  1
  O  O296  1  0.66553847  0.50406165  0.88404536  1
  O  O297  1  0.61100087  0.75140897  0.14381400  1
  O  O298  1  0.64221617  0.74415668  0.33356126  1
  O  O299  1  0.61622625  0.74750665  0.61755812  1
  O  O300  1  0.59405592  0.74560818  0.86577548  1
  O  O301  1  0.86117546  -0.01027543  0.15787436  1
  O  O302  1  0.90232940  -0.00821515  0.36328316  1
  O  O303  1  0.86572246  0.00719604  0.64937428  1
  O  O304  1  0.86702086  0.01168915  0.88041740  1
  O  O305  1  0.84858857  0.23081883  0.11858368  1
  O  O306  1  0.84003355  0.24214614  0.39159028  1
  O  O307  1  0.89791903  0.25623884  0.60748528  1
  O  O308  1  0.90215659  0.25094662  0.89163119  1
  O  O309  1  0.85012348  0.51576338  0.14677186  1
  O  O310  1  0.88467712  0.50245301  0.34931540  1
  O  O311  1  0.86430767  0.50911014  0.64221251  1
  O  O312  1  0.86038967  0.50918053  0.84172759  1
  O  O313  1  0.87587460  0.75120982  0.08875591  1
  O  O314  1  0.86312444  0.75233966  0.41322407  1
  O  O315  1  0.90143802  0.75768176  0.61196475  1
  O  O316  1  0.88009916  0.74673754  0.89825871  1
