# generated using pymatgen
data_Mg32Ti42(Bi17O64)3
_symmetry_space_group_name_H-M   'P 1'
_cell_length_a   15.94930333
_cell_length_b   15.96235416
_cell_length_c   15.93321126
_cell_angle_alpha   90.06002743
_cell_angle_beta   89.79141563
_cell_angle_gamma   90.01785471
_symmetry_Int_Tables_number   1
_chemical_formula_structural   Mg32Ti42(Bi17O64)3
_chemical_formula_sum   'Mg32 Ti42 Bi51 O192'
_cell_volume   4056.38191462
_cell_formula_units_Z   1
loop_
 _symmetry_equiv_pos_site_id
 _symmetry_equiv_pos_as_xyz
  1  'x, y, z'
loop_
 _atom_site_type_symbol
 _atom_site_label
 _atom_site_symmetry_multiplicity
 _atom_site_fract_x
 _atom_site_fract_y
 _atom_site_fract_z
 _atom_site_occupancy
  Mg  Mg0  1  0.86875226  0.86563786  0.37331813  1
  Mg  Mg1  1  0.61013485  0.87014830  0.13427000  1
  Mg  Mg2  1  0.36745110  0.12963109  0.12390029  1
  Mg  Mg3  1  0.37781373  0.37712856  0.88508487  1
  Mg  Mg4  1  0.88036339  0.87413560  0.62734200  1
  Mg  Mg5  1  0.38165398  0.11634903  0.37349636  1
  Mg  Mg6  1  0.13356768  0.86312213  0.62988802  1
  Mg  Mg7  1  0.87035088  0.87156533  0.12600287  1
  Mg  Mg8  1  0.13269498  0.87898250  0.12500507  1
  Mg  Mg9  1  0.62893627  0.11873567  0.37606658  1
  Mg  Mg10  1  0.62798093  0.12678852  0.87039689  1
  Mg  Mg11  1  0.63430221  0.36553844  0.86997051  1
  Mg  Mg12  1  0.87354788  0.61491822  0.12330499  1
  Mg  Mg13  1  0.61541488  0.86911688  0.88036416  1
  Mg  Mg14  1  0.38398350  0.12685736  0.87266902  1
  Mg  Mg15  1  0.63498691  0.38589178  0.13005402  1
  Mg  Mg16  1  0.63997079  0.37527360  0.61238694  1
  Mg  Mg17  1  0.63852888  0.38435076  0.37332145  1
  Mg  Mg18  1  0.37468776  0.37467593  0.37558928  1
  Mg  Mg19  1  0.70679736  0.19879959  0.22353538  1
  Mg  Mg20  1  0.74480049  0.25728185  0.75447684  1
  Mg  Mg21  1  0.24287610  0.73874932  0.47395128  1
  Mg  Mg22  1  0.54304262  0.74299079  0.04512103  1
  Mg  Mg23  1  0.49888098  0.04559968  0.04348781  1
  Mg  Mg24  1  -0.03157910  -0.04189898  0.49257875  1
  Mg  Mg25  1  0.75378734  0.48796708  0.23470927  1
  Mg  Mg26  1  0.45644384  0.78414173  0.25705428  1
  Mg  Mg27  1  0.54395872  0.05980784  0.21772157  1
  Mg  Mg28  1  0.80764588  0.47562520  0.50736238  1
  Mg  Mg29  1  -0.02409469  0.49450535  0.29098423  1
  Mg  Mg30  1  0.29763305  0.50506944  0.04965297  1
  Mg  Mg31  1  0.73005216  0.26129497  0.42854275  1
  Ti  Ti32  1  0.11299788  0.11325113  0.88252250  1
  Ti  Ti33  1  0.87751935  0.35724456  0.86262738  1
  Ti  Ti34  1  0.36883485  0.87695805  0.63289785  1
  Ti  Ti35  1  0.35210317  0.87660414  0.39151436  1
  Ti  Ti36  1  0.14287253  0.63001118  0.61546327  1
  Ti  Ti37  1  0.63333512  0.63254566  0.88546868  1
  Ti  Ti38  1  0.87844873  0.62209635  0.38533280  1
  Ti  Ti39  1  0.86588098  0.62935287  0.87945050  1
  Ti  Ti40  1  0.63892184  0.62379054  0.38145421  1
  Ti  Ti41  1  0.63145946  0.61523893  0.13623685  1
  Ti  Ti42  1  0.38181293  0.62644172  0.88893283  1
  Ti  Ti43  1  0.12595206  0.62273537  0.36534087  1
  Ti  Ti44  1  0.87668597  0.38371560  0.14180271  1
  Ti  Ti45  1  0.37798356  0.86870618  0.86644887  1
  Ti  Ti46  1  0.87411291  0.12782414  0.87756251  1
  Ti  Ti47  1  0.61616454  0.86877644  0.62913491  1
  Ti  Ti48  1  0.38945126  0.11262110  0.62606687  1
  Ti  Ti49  1  0.13398586  0.87983197  0.88159556  1
  Ti  Ti50  1  0.38256010  0.87306111  0.10621373  1
  Ti  Ti51  1  0.13473192  0.38071398  0.62733431  1
  Ti  Ti52  1  0.87889766  0.36989111  0.38661559  1
  Ti  Ti53  1  0.63795873  0.62195495  0.62135202  1
  Ti  Ti54  1  0.38397703  0.37861319  0.62158841  1
  Ti  Ti55  1  0.12088870  0.11544792  0.36864796  1
  Ti  Ti56  1  0.87498847  0.12888697  0.14588519  1
  Ti  Ti57  1  0.12386816  0.37981773  0.12933069  1
  Ti  Ti58  1  0.12029804  0.86646832  0.37544170  1
  Ti  Ti59  1  0.88278793  0.88935352  0.88257507  1
  Ti  Ti60  1  0.86219372  0.14572558  0.62259718  1
  Ti  Ti61  1  0.63180437  0.12905924  0.62367357  1
  Ti  Ti62  1  0.39674613  0.63249972  0.13705910  1
  Ti  Ti63  1  0.38056226  0.36762972  0.12535635  1
  Ti  Ti64  1  0.87182529  0.12519760  0.39258658  1
  Ti  Ti65  1  0.37175703  0.64268498  0.62257212  1
  Ti  Ti66  1  0.11864581  0.38024121  0.38064563  1
  Ti  Ti67  1  0.88415503  0.36848797  0.62663964  1
  Ti  Ti68  1  0.37444409  0.63158889  0.37278316  1
  Ti  Ti69  1  0.12766776  0.12486262  0.12534606  1
  Ti  Ti70  1  0.62073500  0.86276002  0.36965501  1
  Ti  Ti71  1  0.87187402  0.62559748  0.62680007  1
  Ti  Ti72  1  0.11163478  0.60844219  0.13437118  1
  Ti  Ti73  1  0.13147296  0.37678539  0.88357574  1
  Bi  Bi74  1  0.25829924  0.47580469  0.25184487  1
  Bi  Bi75  1  0.52363472  0.48906866  0.27186696  1
  Bi  Bi76  1  0.52208744  0.48712899  0.76314254  1
  Bi  Bi77  1  0.53688233  0.23622096  0.04838876  1
  Bi  Bi78  1  0.75645070  0.47891477  0.74206585  1
  Bi  Bi79  1  0.00276952  0.72576385  -0.01030295  1
  Bi  Bi80  1  -0.02518271  0.72888863  0.23982683  1
  Bi  Bi81  1  0.51088799  0.73146806  0.76094170  1
  Bi  Bi82  1  0.73781499  0.78263450  0.01318825  1
  Bi  Bi83  1  0.76424193  0.76713909  0.51573627  1
  Bi  Bi84  1  -0.00165718  0.02597447  0.70858486  1
  Bi  Bi85  1  0.76079236  0.24218015  0.02920787  1
  Bi  Bi86  1  0.24569083  0.76245790  0.22360030  1
  Bi  Bi87  1  0.01614980  0.53234878  0.75201127  1
  Bi  Bi88  1  0.00786466  0.76680378  0.75709916  1
  Bi  Bi89  1  0.19855664  0.00384696  0.52079418  1
  Bi  Bi90  1  0.01231702  0.51773122  0.50860080  1
  Bi  Bi91  1  0.22903512  0.03262694  0.73101443  1
  Bi  Bi92  1  0.52266385  0.46552570  -0.00997826  1
  Bi  Bi93  1  0.50418760  0.52544161  0.50809376  1
  Bi  Bi94  1  0.75798825  0.78413462  0.76658901  1
  Bi  Bi95  1  0.26790029  -0.00958693  0.25357593  1
  Bi  Bi96  1  0.48389080  0.76493329  0.49096908  1
  Bi  Bi97  1  0.27510313  0.23429305  0.51498835  1
  Bi  Bi98  1  0.51431706  -0.00780987  0.49754121  1
  Bi  Bi99  1  0.00283553  -0.02188184  0.02550734  1
  Bi  Bi100  1  0.00621766  0.24923670  0.27507336  1
  Bi  Bi101  1  0.69366471  0.01877177  0.01948617  1
  Bi  Bi102  1  0.26817296  0.50035569  0.49831473  1
  Bi  Bi103  1  0.50550851  0.25060876  0.27910515  1
  Bi  Bi104  1  0.01196582  0.75863114  0.51265613  1
  Bi  Bi105  1  0.52903918  0.24789087  0.75386855  1
  Bi  Bi106  1  0.27759807  0.25321700  0.75394473  1
  Bi  Bi107  1  0.78292201  0.47240099  -0.00523726  1
  Bi  Bi108  1  0.03343160  0.25222638  0.75528446  1
  Bi  Bi109  1  0.01585547  0.51103654  -0.02559037  1
  Bi  Bi110  1  0.27184614  0.49681076  0.77557432  1
  Bi  Bi111  1  0.29261928  0.00399027  -0.01342517  1
  Bi  Bi112  1  0.75026901  0.72431185  0.24727725  1
  Bi  Bi113  1  0.03280283  0.22688403  0.52678425  1
  Bi  Bi114  1  0.74048631  -0.01071551  0.49222892  1
  Bi  Bi115  1  0.26302231  0.23188815  0.27260633  1
  Bi  Bi116  1  0.23105940  0.70478952  0.01216415  1
  Bi  Bi117  1  -0.01630962  -0.02713811  0.24686641  1
  Bi  Bi118  1  0.51679257  0.26301053  0.49972965  1
  Bi  Bi119  1  0.74341289  -0.01274331  0.23051997  1
  Bi  Bi120  1  0.00873792  0.24901296  0.02284587  1
  Bi  Bi121  1  0.25074568  0.23253372  -0.01261459  1
  Bi  Bi122  1  0.23216607  0.72733194  0.78874565  1
  Bi  Bi123  1  0.75356116  0.01223550  0.75863651  1
  Bi  Bi124  1  0.51429648  0.00349323  0.78299436  1
  O  O125  1  0.08408859  0.12003342  0.00213995  1
  O  O126  1  0.13560004  0.15216519  0.24222539  1
  O  O127  1  0.10165728  0.11066376  0.48533583  1
  O  O128  1  0.14714412  0.14125277  0.76640623  1
  O  O129  1  0.10649187  0.39525675  -0.00341399  1
  O  O130  1  0.13953290  0.36607605  0.24339355  1
  O  O131  1  0.10890605  0.39707997  0.49624918  1
  O  O132  1  0.13216606  0.36098144  0.74693831  1
  O  O133  1  0.10507897  0.62420912  0.00942295  1
  O  O134  1  0.10273924  0.64851827  0.25040255  1
  O  O135  1  0.14563653  0.59194796  0.49591416  1
  O  O136  1  0.10250536  0.64608539  0.72926947  1
  O  O137  1  0.11074703  0.89144042  -0.00139009  1
  O  O138  1  0.15262405  0.86343880  0.25949295  1
  O  O139  1  0.08666386  0.90505435  0.49202724  1
  O  O140  1  0.12858913  0.83996208  0.75628673  1
  O  O141  1  0.39337670  0.10358120  -0.00215240  1
  O  O142  1  0.33366778  0.11742582  0.24485135  1
  O  O143  1  0.38832753  0.13384709  0.50661707  1
  O  O144  1  0.34333264  0.12725830  0.74672899  1
  O  O145  1  0.37506378  0.40835576  0.01191383  1
  O  O146  1  0.35115889  0.37716417  0.24547927  1
  O  O147  1  0.36197740  0.35539246  0.50200083  1
  O  O148  1  0.36271880  0.37425547  0.74239595  1
  O  O149  1  0.36476544  0.60442829  0.00150960  1
  O  O150  1  0.39785074  0.66689875  0.25456884  1
  O  O151  1  0.33276767  0.62400353  0.49695875  1
  O  O152  1  0.38956689  0.64424043  0.73749265  1
  O  O153  1  0.38403828  0.87359436  -0.00736649  1
  O  O154  1  0.35124715  0.85743090  0.26752667  1
  O  O155  1  0.40610199  0.88710739  0.49943476  1
  O  O156  1  0.35426722  0.86120874  0.74517930  1
  O  O157  1  0.60303516  0.12702577  -0.00463426  1
  O  O158  1  0.65555021  0.09192644  0.25531703  1
  O  O159  1  0.60133816  0.14648445  0.50670966  1
  O  O160  1  0.63713317  0.08588430  0.74012973  1
  O  O161  1  0.61924257  0.36832127  -0.00272079  1
  O  O162  1  0.64304889  0.42689935  0.25139036  1
  O  O163  1  0.63456817  0.32649573  0.49293353  1
  O  O164  1  0.63325043  0.40447521  0.74001811  1
  O  O165  1  0.63538437  0.65556879  -0.00329139  1
  O  O166  1  0.59971838  0.60806228  0.25032037  1
  O  O167  1  0.63793033  0.63398008  0.49643089  1
  O  O168  1  0.59905585  0.61319823  0.73762779  1
  O  O169  1  0.61333103  0.83672948  0.00229873  1
  O  O170  1  0.64390843  0.88998963  0.25739363  1
  O  O171  1  0.58946998  0.86447474  0.49843455  1
  O  O172  1  0.64359861  0.89096658  0.74113447  1
  O  O173  1  0.87882924  0.15941650  -0.01060422  1
  O  O174  1  0.84909271  0.11668801  0.25626119  1
  O  O175  1  0.89551669  0.15467287  0.50710137  1
  O  O176  1  0.86379575  0.09977969  0.73885041  1
  O  O177  1  0.85728639  0.35224199  -0.01399046  1
  O  O178  1  0.86747281  0.42136426  0.25053758  1
  O  O179  1  0.89268701  0.36341776  0.50311543  1
  O  O180  1  0.88022675  0.40068676  0.74404920  1
  O  O181  1  0.86925649  0.65107621  -0.00432429  1
  O  O182  1  0.91613864  0.60250312  0.25965388  1
  O  O183  1  0.84328714  0.62880926  0.49814533  1
  O  O184  1  0.88536723  0.61055686  0.74233484  1
  O  O185  1  0.89390450  0.86418243  -0.00123235  1
  O  O186  1  0.86422815  0.90306842  0.25341339  1
  O  O187  1  0.89356892  0.84797111  0.49791852  1
  O  O188  1  0.86096433  0.88522500  0.75458115  1
  O  O189  1  -0.00932825  0.16398384  0.13660744  1
  O  O190  1  -0.00138297  0.12839855  0.34822342  1
  O  O191  1  -0.00980670  0.15328106  0.64526548  1
  O  O192  1  -0.00299722  0.14299895  0.85335014  1
  O  O193  1  -0.00779812  0.34940950  0.12893403  1
  O  O194  1  -0.00277366  0.38002018  0.34618946  1
  O  O195  1  0.00001064  0.34022990  0.63498083  1
  O  O196  1  -0.00447446  0.34473195  0.86464256  1
  O  O197  1  -0.00404480  0.66014295  0.11785272  1
  O  O198  1  -0.00329047  0.63732339  0.40843099  1
  O  O199  1  -0.00631076  0.63991078  0.59428150  1
  O  O200  1  -0.01046874  0.63044783  0.88136706  1
  O  O201  1  0.00076951  0.88107564  0.14209761  1
  O  O202  1  0.00389313  0.87501840  0.35038071  1
  O  O203  1  0.00621837  0.83384691  0.63585411  1
  O  O204  1  -0.00144071  0.85935903  0.86467513  1
  O  O205  1  0.23848220  0.11510469  0.09403235  1
  O  O206  1  0.23789949  0.14933548  0.38316565  1
  O  O207  1  0.25960656  0.09758195  0.61033280  1
  O  O208  1  0.23853492  0.11178473  0.91142072  1
  O  O209  1  0.23835720  0.41324152  0.11672025  1
  O  O210  1  0.23697123  0.39725216  0.37648548  1
  O  O211  1  0.24543686  0.40442238  0.61847910  1
  O  O212  1  0.24514878  0.40313710  0.87777672  1
  O  O213  1  0.22876244  0.59784026  0.11411012  1
  O  O214  1  0.24061268  0.62722518  0.35119861  1
  O  O215  1  0.25036605  0.60476946  0.64271660  1
  O  O216  1  0.25694129  0.60835336  0.85853061  1
  O  O217  1  0.26235999  0.88568562  0.13028383  1
  O  O218  1  0.24167619  0.86787896  0.42298337  1
  O  O219  1  0.25734939  0.90406592  0.61013701  1
  O  O220  1  0.24635539  0.90035775  0.88026197  1
  O  O221  1  0.49346971  0.14053433  0.13845241  1
  O  O222  1  0.50458765  0.12140463  0.33219801  1
  O  O223  1  0.50364802  0.14526260  0.64825398  1
  O  O224  1  0.50300538  0.13566072  0.83437958  1
  O  O225  1  0.49644298  0.36859125  0.13653549  1
  O  O226  1  0.50522147  0.36615404  0.36291467  1
  O  O227  1  0.49892490  0.35278538  0.61432752  1
  O  O228  1  0.50405265  0.37947808  0.86501832  1
  O  O229  1  0.50472631  0.64327307  0.10854086  1
  O  O230  1  0.48748856  0.63693174  0.40122640  1
  O  O231  1  0.48871099  0.63904579  0.59167391  1
  O  O232  1  0.49655784  0.65506421  0.88069743  1
  O  O233  1  0.48870138  0.82248349  0.14097864  1
  O  O234  1  0.50177770  0.84179734  0.35891785  1
  O  O235  1  0.50168946  0.85098464  0.64092990  1
  O  O236  1  0.49103666  0.85267305  0.84706157  1
  O  O237  1  0.75597447  0.11901148  0.10748788  1
  O  O238  1  0.75696269  0.13871164  0.40933069  1
  O  O239  1  0.75171926  0.10094129  0.61211340  1
  O  O240  1  0.75614642  0.09745429  0.87393936  1
  O  O241  1  0.75915611  0.40666954  0.12257045  1
  O  O242  1  0.76314479  0.38456058  0.40161717  1
  O  O243  1  0.76373495  0.40940273  0.61409833  1
  O  O244  1  0.75695684  0.38942290  0.85472150  1
  O  O245  1  0.74875480  0.59815190  0.16414478  1
  O  O246  1  0.74845570  0.60099354  0.34602733  1
  O  O247  1  0.74797090  0.59917619  0.63460209  1
  O  O248  1  0.74669147  0.60618491  0.86691647  1
  O  O249  1  0.74435729  0.89673651  0.10369154  1
  O  O250  1  0.74352378  0.87476432  0.40825122  1
  O  O251  1  0.74697501  0.88504853  0.59328093  1
  O  O252  1  0.75349228  0.86970923  0.88631478  1
  O  O253  1  0.10051250  0.01210470  0.13539241  1
  O  O254  1  0.14432972  0.00376057  0.34988429  1
  O  O255  1  0.12070992  -0.00583441  0.64178606  1
  O  O256  1  0.10572252  0.00159642  0.85924648  1
  O  O257  1  0.13283671  0.25882961  0.09543767  1
  O  O258  1  0.10589205  0.26117205  0.38169524  1
  O  O259  1  0.14953475  0.26290530  0.59808564  1
  O  O260  1  0.14075512  0.25447395  0.89615450  1
  O  O261  1  0.08272967  0.49886120  0.14319822  1
  O  O262  1  0.09609209  0.50854990  0.35002884  1
  O  O263  1  0.09660258  0.50191407  0.63401215  1
  O  O264  1  0.09536970  0.49078630  0.85905535  1
  O  O265  1  0.15094826  0.75118510  0.11564679  1
  O  O266  1  0.12897463  0.75022205  0.39919764  1
  O  O267  1  0.15457973  0.74146783  0.57785171  1
  O  O268  1  0.14663439  0.75710594  0.89554283  1
  O  O269  1  0.40506173  -0.01478397  0.12306716  1
  O  O270  1  0.35170308  -0.00718872  0.36783382  1
  O  O271  1  0.40712488  -0.00139707  0.63248546  1
  O  O272  1  0.38633239  -0.00898850  0.86669863  1
  O  O273  1  0.35378688  0.25866893  0.11261895  1
  O  O274  1  0.37913804  0.24584587  0.35532202  1
  O  O275  1  0.35192939  0.24923980  0.63140457  1
  O  O276  1  0.34693986  0.25181895  0.87784546  1
  O  O277  1  0.37534952  0.51910102  0.15454293  1
  O  O278  1  0.36853300  0.51015189  0.37174722  1
  O  O279  1  0.38728929  0.49681302  0.60531870  1
  O  O280  1  0.38904504  0.51041010  0.85078513  1
  O  O281  1  0.33941987  0.73759849  0.11336407  1
  O  O282  1  0.35635966  0.75141648  0.40483408  1
  O  O283  1  0.35778782  0.75597747  0.60068619  1
  O  O284  1  0.34405030  0.74663049  0.87811623  1
  O  O285  1  0.59233787  -0.00711959  0.11115753  1
  O  O286  1  0.62166462  -0.00851324  0.40416820  1
  O  O287  1  0.61126513  -0.00438708  0.59556388  1
  O  O288  1  0.59732776  -0.00604612  0.88956348  1
  O  O289  1  0.64525405  0.25797800  0.13057149  1
  O  O290  1  0.64591611  0.25034970  0.33026102  1
  O  O291  1  0.64900777  0.24039025  0.66051138  1
  O  O292  1  0.64440471  0.24603488  0.83349849  1
  O  O293  1  0.61390000  0.50987816  0.09405360  1
  O  O294  1  0.59693733  0.50823255  0.39017474  1
  O  O295  1  0.60147669  0.50579008  0.60155593  1
  O  O296  1  0.60037030  0.51366003  0.87981815  1
  O  O297  1  0.65226445  0.73989154  0.13418711  1
  O  O298  1  0.64107745  0.74383686  0.36497916  1
  O  O299  1  0.64575280  0.74859883  0.62756821  1
  O  O300  1  0.63496075  0.74457125  0.84203407  1
  O  O301  1  0.89738554  0.01549386  0.12325896  1
  O  O302  1  0.88167810  0.00874114  0.41051356  1
  O  O303  1  0.92065458  -0.00424280  0.60334374  1
  O  O304  1  0.89450851  0.00376433  0.88936593  1
  O  O305  1  0.83971333  0.25827334  0.14071311  1
  O  O306  1  0.87944316  0.25545704  0.35893666  1
  O  O307  1  0.83757389  0.25521108  0.65216227  1
  O  O308  1  0.84839589  0.24525788  0.83662738  1
  O  O309  1  0.89054273  0.49205840  0.08614877  1
  O  O310  1  0.89160307  0.50045251  0.40190424  1
  O  O311  1  0.89851076  0.49980042  0.60055941  1
  O  O312  1  0.88836732  0.49745597  0.89503617  1
  O  O313  1  0.85620646  0.74524168  0.15826469  1
  O  O314  1  0.86196029  0.73761970  0.34973734  1
  O  O315  1  0.84781753  0.74241234  0.63127058  1
  O  O316  1  0.86159370  0.74424013  0.85363129  1
