# generated using pymatgen
data_Mg32Ti42(Bi17O64)3
_symmetry_space_group_name_H-M   'P 1'
_cell_length_a   15.96111831
_cell_length_b   15.97189244
_cell_length_c   15.99180030
_cell_angle_alpha   90.16311473
_cell_angle_beta   90.05462615
_cell_angle_gamma   89.97354851
_symmetry_Int_Tables_number   1
_chemical_formula_structural   Mg32Ti42(Bi17O64)3
_chemical_formula_sum   'Mg32 Ti42 Bi51 O192'
_cell_volume   4076.75908975
_cell_formula_units_Z   1
loop_
 _symmetry_equiv_pos_site_id
 _symmetry_equiv_pos_as_xyz
  1  'x, y, z'
loop_
 _atom_site_type_symbol
 _atom_site_label
 _atom_site_symmetry_multiplicity
 _atom_site_fract_x
 _atom_site_fract_y
 _atom_site_fract_z
 _atom_site_occupancy
  Mg  Mg0  1  0.36384167  0.63254509  0.62141633  1
  Mg  Mg1  1  0.87569110  0.62191411  0.62008325  1
  Mg  Mg2  1  0.37374865  0.13168421  0.12286178  1
  Mg  Mg3  1  0.60335088  0.13622718  0.10688121  1
  Mg  Mg4  1  0.38469423  0.88429720  0.88396266  1
  Mg  Mg5  1  0.60651145  0.86624162  0.38792298  1
  Mg  Mg6  1  0.37073383  0.63774181  0.13004449  1
  Mg  Mg7  1  0.12377700  0.88113219  0.38836763  1
  Mg  Mg8  1  0.87849792  0.11498570  0.12356605  1
  Mg  Mg9  1  0.61704553  0.12623602  0.38500852  1
  Mg  Mg10  1  0.37560356  0.36868457  0.37147112  1
  Mg  Mg11  1  0.37025907  0.35938886  0.88760844  1
  Mg  Mg12  1  0.62641114  0.88421542  0.63170934  1
  Mg  Mg13  1  0.86999019  0.37186803  0.36833062  1
  Mg  Mg14  1  0.38011848  0.11854120  0.62033683  1
  Mg  Mg15  1  0.13372609  0.11949303  0.62035384  1
  Mg  Mg16  1  0.62625591  0.62107500  0.62487083  1
  Mg  Mg17  1  0.87332420  0.37763917  0.12177141  1
  Mg  Mg18  1  0.87560092  0.63206628  0.87286043  1
  Mg  Mg19  1  -0.02285821  0.24284386  0.21001177  1
  Mg  Mg20  1  0.51543531  -0.07845066  0.02009496  1
  Mg  Mg21  1  0.22402872  0.20738392  -0.01005360  1
  Mg  Mg22  1  0.50099595  0.29427657  0.02084029  1
  Mg  Mg23  1  0.00617267  -0.04309914  0.04830792  1
  Mg  Mg24  1  0.24504775  0.78899968  0.29701340  1
  Mg  Mg25  1  0.28958582  0.74052084  -0.03427707  1
  Mg  Mg26  1  0.76257824  0.25305283  0.79293463  1
  Mg  Mg27  1  0.03360764  0.50457083  0.75213227  1
  Mg  Mg28  1  0.20846655  0.71660657  0.48528104  1
  Mg  Mg29  1  0.56188147  0.78040395  0.19094016  1
  Mg  Mg30  1  0.45958114  0.70888048  -0.00560929  1
  Mg  Mg31  1  0.49955608  -0.00651028  0.49376948  1
  Ti  Ti32  1  0.12846727  0.37178675  0.10659719  1
  Ti  Ti33  1  0.11733525  0.11090680  0.11913641  1
  Ti  Ti34  1  0.87793587  0.87603445  0.88125534  1
  Ti  Ti35  1  0.62036776  0.37755937  0.64213814  1
  Ti  Ti36  1  0.12245589  0.36994205  0.62705319  1
  Ti  Ti37  1  0.12195345  0.10848720  0.87714577  1
  Ti  Ti38  1  0.60609961  0.11991257  0.62264391  1
  Ti  Ti39  1  0.62561145  0.36427341  0.36841147  1
  Ti  Ti40  1  0.88529140  0.61541601  0.13213167  1
  Ti  Ti41  1  0.37343621  0.12843945  0.88536475  1
  Ti  Ti42  1  0.63237518  0.37533346  0.88320684  1
  Ti  Ti43  1  0.12198876  0.62150656  0.36016913  1
  Ti  Ti44  1  0.13553791  0.84816984  0.11667621  1
  Ti  Ti45  1  0.63349434  0.63288964  0.87397964  1
  Ti  Ti46  1  0.61278204  0.63581815  0.36925137  1
  Ti  Ti47  1  0.14158520  0.86782219  0.62693319  1
  Ti  Ti48  1  0.89208288  0.38821180  0.63267693  1
  Ti  Ti49  1  0.12876447  0.12556554  0.38022128  1
  Ti  Ti50  1  0.63507183  0.87188556  0.86805838  1
  Ti  Ti51  1  0.87957746  0.88036687  0.13749151  1
  Ti  Ti52  1  0.61642765  0.62672744  0.11868081  1
  Ti  Ti53  1  0.39186161  0.12198189  0.37453138  1
  Ti  Ti54  1  0.64200390  0.13020606  0.87004191  1
  Ti  Ti55  1  0.36538801  0.36757183  0.12028165  1
  Ti  Ti56  1  0.11897314  0.86735627  0.88678584  1
  Ti  Ti57  1  0.38135730  0.87858089  0.63057939  1
  Ti  Ti58  1  0.13152958  0.62240965  0.62935410  1
  Ti  Ti59  1  0.88392675  0.62647757  0.37856366  1
  Ti  Ti60  1  0.12180564  0.63154141  0.88259410  1
  Ti  Ti61  1  0.36268964  0.85944833  0.12432551  1
  Ti  Ti62  1  0.36570061  0.37607859  0.62360038  1
  Ti  Ti63  1  0.86564800  0.12867494  0.37055037  1
  Ti  Ti64  1  0.12073153  0.61159167  0.12143841  1
  Ti  Ti65  1  0.87901553  0.86664747  0.37772342  1
  Ti  Ti66  1  0.37116338  0.87323119  0.39497998  1
  Ti  Ti67  1  0.88227143  0.37013253  0.86863550  1
  Ti  Ti68  1  0.37289960  0.63701497  0.37093246  1
  Ti  Ti69  1  0.12615918  0.36350260  0.87853629  1
  Ti  Ti70  1  0.13147693  0.36613370  0.36345313  1
  Ti  Ti71  1  0.88534944  0.10902694  0.87829207  1
  Ti  Ti72  1  0.87801479  0.86905798  0.63278849  1
  Ti  Ti73  1  0.64125471  0.38248045  0.11846579  1
  Bi  Bi74  1  0.72942493  0.47840211  0.51429538  1
  Bi  Bi75  1  0.72237787  0.21029895  0.24109932  1
  Bi  Bi76  1  0.76741673  0.22781868  0.55382730  1
  Bi  Bi77  1  0.47692536  0.51826534  -0.01925641  1
  Bi  Bi78  1  0.48958721  0.23951623  0.22651794  1
  Bi  Bi79  1  0.75635026  0.22896373  0.02222282  1
  Bi  Bi80  1  0.74781687  0.76706797  0.50397897  1
  Bi  Bi81  1  0.50660145  0.75574064  0.54225525  1
  Bi  Bi82  1  0.01217250  0.75002442  0.51188234  1
  Bi  Bi83  1  0.27459453  -0.00385117  0.00415250  1
  Bi  Bi84  1  0.23773987  0.47261122  0.76701679  1
  Bi  Bi85  1  0.27330944  0.49892276  0.48177007  1
  Bi  Bi86  1  0.50743525  0.46874442  0.24221676  1
  Bi  Bi87  1  0.50027082  0.25314449  0.78499146  1
  Bi  Bi88  1  0.02904652  0.76008764  0.26425056  1
  Bi  Bi89  1  0.27275125  0.49930034  0.25835140  1
  Bi  Bi90  1  -0.04045121  0.02101164  0.52898014  1
  Bi  Bi91  1  0.00412691  0.48243474  0.47612080  1
  Bi  Bi92  1  0.24800445  0.74651811  0.77427775  1
  Bi  Bi93  1  0.75793284  0.71758557  0.24440459  1
  Bi  Bi94  1  0.49760111  0.52825617  0.49831880  1
  Bi  Bi95  1  0.27348753  -0.00525778  0.75176701  1
  Bi  Bi96  1  0.71331870  -0.02965704  0.27279996  1
  Bi  Bi97  1  0.45560649  0.50031748  0.75088180  1
  Bi  Bi98  1  0.72700308  -0.00213680  0.49381692  1
  Bi  Bi99  1  0.25126649  -0.00256289  0.50867329  1
  Bi  Bi100  1  0.70493127  -0.00486237  0.02265039  1
  Bi  Bi101  1  -0.00201794  0.03098830  0.27059398  1
  Bi  Bi102  1  0.73995498  0.77734623  0.02048205  1
  Bi  Bi103  1  0.01439412  -0.02999382  0.74839198  1
  Bi  Bi104  1  0.77471063  0.04445386  0.72206185  1
  Bi  Bi105  1  -0.01396026  0.20598242  0.71417638  1
  Bi  Bi106  1  -0.02436237  0.24770892  0.01208311  1
  Bi  Bi107  1  0.74153927  0.73258348  0.73052331  1
  Bi  Bi108  1  -0.00508986  0.50123617  -0.02962445  1
  Bi  Bi109  1  0.73613736  0.49605836  0.26731369  1
  Bi  Bi110  1  0.26853289  0.22910288  0.50643117  1
  Bi  Bi111  1  -0.02068051  0.25549529  0.47890639  1
  Bi  Bi112  1  0.47388071  0.72329835  0.78811112  1
  Bi  Bi113  1  -0.00661397  0.46293050  0.24635056  1
  Bi  Bi114  1  0.75748494  0.52607354  -0.01693940  1
  Bi  Bi115  1  0.51985439  -0.00126322  0.78751730  1
  Bi  Bi116  1  0.27174697  0.51426371  0.01387184  1
  Bi  Bi117  1  0.24945247  0.22046761  0.75407283  1
  Bi  Bi118  1  0.76986111  0.50390166  0.75081213  1
  Bi  Bi119  1  -0.00129457  0.71969812  0.74118469  1
  Bi  Bi120  1  0.50311636  0.28257977  0.51467615  1
  Bi  Bi121  1  0.50067379  -0.01626803  0.21214855  1
  Bi  Bi122  1  0.22647205  0.22513677  0.23270925  1
  Bi  Bi123  1  0.26833500  -0.01076359  0.26003275  1
  Bi  Bi124  1  -0.02389916  0.75229672  0.01332988  1
  O  O125  1  0.14027582  0.11368488  0.00174635  1
  O  O126  1  0.09717680  0.15716532  0.23930713  1
  O  O127  1  0.15894551  0.12320867  0.49176430  1
  O  O128  1  0.12611229  0.13704819  0.75454835  1
  O  O129  1  0.10895602  0.40237036  -0.00659610  1
  O  O130  1  0.12391187  0.36707533  0.24869832  1
  O  O131  1  0.11682413  0.40074738  0.51410650  1
  O  O132  1  0.14161014  0.37026534  0.75466844  1
  O  O133  1  0.11015793  0.60031671  -0.00561260  1
  O  O134  1  0.12661103  0.62824628  0.24484745  1
  O  O135  1  0.10177561  0.63734176  0.50997533  1
  O  O136  1  0.13857355  0.66104910  0.75178084  1
  O  O137  1  0.10463177  0.89045302  0.00028809  1
  O  O138  1  0.14187123  0.84487046  0.23589950  1
  O  O139  1  0.13740192  0.83518085  0.50876111  1
  O  O140  1  0.12183881  0.87226033  0.75201966  1
  O  O141  1  0.33971935  0.13129537  0.00080137  1
  O  O142  1  0.41655512  0.12594261  0.25677486  1
  O  O143  1  0.33910099  0.10939635  0.49103390  1
  O  O144  1  0.35221174  0.11357000  0.75107527  1
  O  O145  1  0.38307647  0.33926107  0.01065282  1
  O  O146  1  0.36762929  0.40356941  0.24445777  1
  O  O147  1  0.37342784  0.39333633  0.50055258  1
  O  O148  1  0.39236903  0.37037984  0.74251645  1
  O  O149  1  0.37802313  0.61278689  -0.00206475  1
  O  O150  1  0.35919334  0.62072422  0.25477510  1
  O  O151  1  0.37262391  0.60475083  0.49637515  1
  O  O152  1  0.38658502  0.62616146  0.75045737  1
  O  O153  1  0.38518025  0.91380235  0.00911592  1
  O  O154  1  0.34317865  0.85053651  0.23894589  1
  O  O155  1  0.34648948  0.88089564  0.50544130  1
  O  O156  1  0.38189529  0.89576560  0.74993046  1
  O  O157  1  0.64449040  0.13957783  -0.01411759  1
  O  O158  1  0.60798229  0.13629928  0.24146375  1
  O  O159  1  0.66064161  0.12823234  0.50970036  1
  O  O160  1  0.60051031  0.11184527  0.74365885  1
  O  O161  1  0.61040214  0.36756079  0.00309092  1
  O  O162  1  0.63190735  0.38285737  0.24237477  1
  O  O163  1  0.61693683  0.39242084  0.48302133  1
  O  O164  1  0.61140489  0.37933325  0.75383322  1
  O  O165  1  0.63464348  0.61546488  0.00655052  1
  O  O166  1  0.61582675  0.66895841  0.25139234  1
  O  O167  1  0.62933480  0.58735693  0.48485680  1
  O  O168  1  0.64067501  0.62483121  0.75800392  1
  O  O169  1  0.63561069  0.87921073  -0.00527655  1
  O  O170  1  0.61098144  0.87666112  0.26012735  1
  O  O171  1  0.65409979  0.87877877  0.50729152  1
  O  O172  1  0.61153507  0.89384756  0.75523760  1
  O  O173  1  0.86471698  0.13936570  -0.00753235  1
  O  O174  1  0.90370315  0.14336442  0.25288963  1
  O  O175  1  0.86427841  0.11799484  0.49165250  1
  O  O176  1  0.89751878  0.10600245  0.75448313  1
  O  O177  1  0.89717527  0.37851550  -0.01220183  1
  O  O178  1  0.90541237  0.35611384  0.24666936  1
  O  O179  1  0.89768031  0.38780857  0.50920231  1
  O  O180  1  0.84569634  0.37922879  0.74642632  1
  O  O181  1  0.88116425  0.60387862  0.00592148  1
  O  O182  1  0.88524753  0.64880762  0.24614483  1
  O  O183  1  0.88581280  0.62123436  0.49191298  1
  O  O184  1  0.84095232  0.63185695  0.74871254  1
  O  O185  1  0.90798274  0.88258237  -0.00202750  1
  O  O186  1  0.87097872  0.86308633  0.24795577  1
  O  O187  1  0.87494390  0.87143334  0.49718863  1
  O  O188  1  0.89149342  0.88533084  0.74848563  1
  O  O189  1  0.00390458  0.15416874  0.10861399  1
  O  O190  1  0.00733581  0.13982898  0.38978965  1
  O  O191  1  0.01026177  0.10800129  0.62049426  1
  O  O192  1  0.00388016  0.11503959  0.88665116  1
  O  O193  1  0.01557611  0.33436982  0.12179571  1
  O  O194  1  0.00772186  0.36697775  0.39044676  1
  O  O195  1  0.00218086  0.41150914  0.65700843  1
  O  O196  1  -0.00095196  0.40737567  0.85404960  1
  O  O197  1  0.00163595  0.64848725  0.12237475  1
  O  O198  1  0.00320855  0.65398092  0.37031335  1
  O  O199  1  0.00377715  0.60341593  0.66783508  1
  O  O200  1  -0.00044701  0.59884422  0.85610924  1
  O  O201  1  0.00489007  0.84684185  0.12749598  1
  O  O202  1  0.00055362  0.85513448  0.36502446  1
  O  O203  1  0.00175354  0.90529117  0.62033146  1
  O  O204  1  0.00277796  0.89847353  0.86431174  1
  O  O205  1  0.23949627  0.11560607  0.14880212  1
  O  O206  1  0.24532490  0.11747265  0.33326641  1
  O  O207  1  0.25265833  0.15913538  0.62712899  1
  O  O208  1  0.24100441  0.14713675  0.87418438  1
  O  O209  1  0.24924059  0.41118406  0.11684573  1
  O  O210  1  0.24406920  0.39956546  0.37473826  1
  O  O211  1  0.24948593  0.35886131  0.62537743  1
  O  O212  1  0.24353316  0.38400245  0.88301111  1
  O  O213  1  0.24307383  0.59795451  0.11573089  1
  O  O214  1  0.23724216  0.61589151  0.39937870  1
  O  O215  1  0.23861254  0.65882611  0.60135969  1
  O  O216  1  0.23734595  0.65959095  0.88726855  1
  O  O217  1  0.24577270  0.89222357  0.10386729  1
  O  O218  1  0.24646964  0.89446687  0.36891574  1
  O  O219  1  0.25121813  0.84706617  0.64624886  1
  O  O220  1  0.24276467  0.84082154  0.88755778  1
  O  O221  1  0.49157709  0.18800154  0.09917849  1
  O  O222  1  0.49546799  0.10183149  0.41651645  1
  O  O223  1  0.50254546  0.08531715  0.59422276  1
  O  O224  1  0.49131973  0.12650675  0.87362311  1
  O  O225  1  0.49555453  0.36359395  0.13739263  1
  O  O226  1  0.50463131  0.37545295  0.35264545  1
  O  O227  1  0.50257542  0.38712330  0.60852808  1
  O  O228  1  0.50633953  0.34090001  0.88804643  1
  O  O229  1  0.50639623  0.66927127  0.11141423  1
  O  O230  1  0.49305983  0.63139814  0.38465524  1
  O  O231  1  0.50138384  0.61919376  0.60072284  1
  O  O232  1  0.51265886  0.63290433  0.89322623  1
  O  O233  1  0.48796718  0.86523147  0.13403002  1
  O  O234  1  0.48548266  0.88682664  0.41241392  1
  O  O235  1  0.49254028  0.90021910  0.59422813  1
  O  O236  1  0.51155332  0.90196365  0.89146847  1
  O  O237  1  0.74838989  0.12453956  0.12478669  1
  O  O238  1  0.75403211  0.11094249  0.34262978  1
  O  O239  1  0.74624993  0.17315994  0.67587577  1
  O  O240  1  0.75713192  0.13737287  0.84954496  1
  O  O241  1  0.75041113  0.40434364  0.10977973  1
  O  O242  1  0.74665025  0.40473741  0.37274296  1
  O  O243  1  0.73656195  0.35850771  0.60545222  1
  O  O244  1  0.74719839  0.35145719  0.88326000  1
  O  O245  1  0.75684438  0.61325341  0.14566754  1
  O  O246  1  0.75416773  0.61491421  0.34784598  1
  O  O247  1  0.74695607  0.66387329  0.61244990  1
  O  O248  1  0.74978805  0.63649417  0.89937354  1
  O  O249  1  0.76358513  0.89355441  0.10524086  1
  O  O250  1  0.75931536  0.89153785  0.36980845  1
  O  O251  1  0.76207057  0.84169061  0.63412224  1
  O  O252  1  0.75618181  0.86678690  0.87321601  1
  O  O253  1  0.09523152  0.00197163  0.13144650  1
  O  O254  1  0.10989058  0.00897073  0.36298437  1
  O  O255  1  0.15567994  -0.01213958  0.61617216  1
  O  O256  1  0.14450424  -0.00257369  0.86692760  1
  O  O257  1  0.17117409  0.26297371  0.09358709  1
  O  O258  1  0.14516036  0.25462872  0.38570954  1
  O  O259  1  0.09623201  0.26065557  0.61901101  1
  O  O260  1  0.12162814  0.25530681  0.90096905  1
  O  O261  1  0.09770756  0.49822260  0.13141024  1
  O  O262  1  0.10247784  0.50385174  0.37106581  1
  O  O263  1  0.14607777  0.50990359  0.65887567  1
  O  O264  1  0.13468397  0.51514289  0.84204127  1
  O  O265  1  0.14432349  0.74014098  0.09518875  1
  O  O266  1  0.14507013  0.74487658  0.36742056  1
  O  O267  1  0.08440280  0.75124457  0.63275574  1
  O  O268  1  0.09202070  0.75218508  0.88621793  1
  O  O269  1  0.37791840  -0.00032930  0.14900786  1
  O  O270  1  0.37097993  -0.00526467  0.35407805  1
  O  O271  1  0.33761817  -0.00385704  0.62220261  1
  O  O272  1  0.34406394  0.00663525  0.87688623  1
  O  O273  1  0.35433210  0.25689882  0.16439180  1
  O  O274  1  0.37328765  0.23985020  0.38982181  1
  O  O275  1  0.39293295  0.25184485  0.59532346  1
  O  O276  1  0.37149969  0.24112372  0.85161802  1
  O  O277  1  0.38915722  0.49269493  0.09532665  1
  O  O278  1  0.36044897  0.50839172  0.37203462  1
  O  O279  1  0.36433386  0.49721865  0.64163259  1
  O  O280  1  0.39411382  0.48449330  0.87562941  1
  O  O281  1  0.35576347  0.75437869  0.07400127  1
  O  O282  1  0.34307563  0.75188974  0.38195042  1
  O  O283  1  0.40284962  0.75936953  0.63337504  1
  O  O284  1  0.39689692  0.76030392  0.89454684  1
  O  O285  1  0.58094112  0.01050487  0.09400338  1
  O  O286  1  0.63181049  -0.00113482  0.38334024  1
  O  O287  1  0.66348782  0.01033729  0.62167223  1
  O  O288  1  0.63586159  0.00868834  0.87485123  1
  O  O289  1  0.65244227  0.26158703  0.12450811  1
  O  O290  1  0.63726682  0.25256649  0.36759742  1
  O  O291  1  0.59551520  0.24822960  0.61320660  1
  O  O292  1  0.63295917  0.24598324  0.84365380  1
  O  O293  1  0.60564045  0.50791629  0.13683430  1
  O  O294  1  0.61613406  0.51492861  0.33259448  1
  O  O295  1  0.64572878  0.49328070  0.62719743  1
  O  O296  1  0.64240147  0.49436737  0.88446653  1
  O  O297  1  0.65912131  0.74625217  0.12188831  1
  O  O298  1  0.63493283  0.74282438  0.40836331  1
  O  O299  1  0.60351483  0.75495656  0.63280950  1
  O  O300  1  0.62280528  0.75357815  0.87023294  1
  O  O301  1  0.91169432  -0.00677913  0.13024808  1
  O  O302  1  0.89613973  0.00395228  0.36337161  1
  O  O303  1  0.85373265  -0.00843313  0.61460740  1
  O  O304  1  0.86091348  0.00021054  0.88228876  1
  O  O305  1  0.86869229  0.25231241  0.10771656  1
  O  O306  1  0.86687455  0.24828501  0.39803676  1
  O  O307  1  0.89819943  0.26460298  0.61816570  1
  O  O308  1  0.88394864  0.25481015  0.85282698  1
  O  O309  1  0.90348241  0.50092679  0.14341115  1
  O  O310  1  0.90395339  0.50596977  0.35942533  1
  O  O311  1  0.84120258  0.49883771  0.62862717  1
  O  O312  1  0.84544003  0.49651008  0.87225027  1
  O  O313  1  0.86104164  0.75238036  0.09983329  1
  O  O314  1  0.85518603  0.75085080  0.37995393  1
  O  O315  1  0.91122288  0.75116696  0.62428076  1
  O  O316  1  0.89354149  0.75810285  0.88658121  1
