# generated using pymatgen
data_Mg32Ti42(Bi17O64)3
_symmetry_space_group_name_H-M   'P 1'
_cell_length_a   15.96983480
_cell_length_b   15.97382970
_cell_length_c   15.94614301
_cell_angle_alpha   89.84844899
_cell_angle_beta   89.87721417
_cell_angle_gamma   89.89213721
_symmetry_Int_Tables_number   1
_chemical_formula_structural   Mg32Ti42(Bi17O64)3
_chemical_formula_sum   'Mg32 Ti42 Bi51 O192'
_cell_volume   4067.82112211
_cell_formula_units_Z   1
loop_
 _symmetry_equiv_pos_site_id
 _symmetry_equiv_pos_as_xyz
  1  'x, y, z'
loop_
 _atom_site_type_symbol
 _atom_site_label
 _atom_site_symmetry_multiplicity
 _atom_site_fract_x
 _atom_site_fract_y
 _atom_site_fract_z
 _atom_site_occupancy
  Mg  Mg0  1  0.85504904  0.62275527  0.37364430  1
  Mg  Mg1  1  0.11735140  0.87731012  0.87576269  1
  Mg  Mg2  1  0.87755064  0.12597716  0.87697529  1
  Mg  Mg3  1  0.88566980  0.37912501  0.87864548  1
  Mg  Mg4  1  0.86775498  0.87997209  0.36975648  1
  Mg  Mg5  1  0.88360332  0.12584965  0.61620805  1
  Mg  Mg6  1  0.62136312  0.12735044  0.63495340  1
  Mg  Mg7  1  0.36993961  0.87711594  0.62388558  1
  Mg  Mg8  1  0.12242982  0.62505708  0.36903002  1
  Mg  Mg9  1  0.62785817  0.87226334  0.62268526  1
  Mg  Mg10  1  0.38143483  0.38116328  0.88377961  1
  Mg  Mg11  1  0.62721601  0.62502941  0.86598384  1
  Mg  Mg12  1  0.62563113  0.37629602  0.88772715  1
  Mg  Mg13  1  0.38148479  0.63514902  0.37552255  1
  Mg  Mg14  1  0.12017349  0.62202662  0.87668201  1
  Mg  Mg15  1  0.12521703  0.37332836  0.12779340  1
  Mg  Mg16  1  0.62803846  0.14009412  0.37575971  1
  Mg  Mg17  1  0.86532127  0.36974745  0.61329271  1
  Mg  Mg18  1  0.88104037  0.86875599  0.62599058  1
  Mg  Mg19  1  0.69901604  0.56080679  0.24043201  1
  Mg  Mg20  1  0.74468798  0.20289655  0.53759167  1
  Mg  Mg21  1  0.73031733  0.51418372  0.53897161  1
  Mg  Mg22  1  0.72040322  -0.06212904  -0.05449087  1
  Mg  Mg23  1  0.00007729  0.67894967  0.74081213  1
  Mg  Mg24  1  -0.07297867  0.50304339  0.25301262  1
  Mg  Mg25  1  0.73886356  0.25205099  0.24249245  1
  Mg  Mg26  1  -0.00861500  -0.04706123  0.48164606  1
  Mg  Mg27  1  0.00619555  0.49533945  0.07130823  1
  Mg  Mg28  1  0.31408791  -0.00373947  0.51143335  1
  Mg  Mg29  1  0.51963417  0.03408053  0.27899276  1
  Mg  Mg30  1  0.50705569  0.21195653  -0.01017950  1
  Mg  Mg31  1  0.51385389  -0.00928759  0.56745628  1
  Ti  Ti32  1  0.11638697  0.62885218  0.13547445  1
  Ti  Ti33  1  0.38598621  0.12366458  0.63519216  1
  Ti  Ti34  1  0.36905100  0.11884635  0.87803212  1
  Ti  Ti35  1  0.88525527  0.87394684  0.86224829  1
  Ti  Ti36  1  0.36727233  0.12752157  0.11179235  1
  Ti  Ti37  1  0.63702042  0.36584689  0.13083031  1
  Ti  Ti38  1  0.37009849  0.63324979  0.87420194  1
  Ti  Ti39  1  0.38313863  0.38088735  0.62259023  1
  Ti  Ti40  1  0.13306049  0.38301868  0.37007154  1
  Ti  Ti41  1  0.88535243  0.35939044  0.12609933  1
  Ti  Ti42  1  0.62213382  0.64474765  0.38171189  1
  Ti  Ti43  1  0.86082067  0.62649431  0.62990950  1
  Ti  Ti44  1  0.37132532  0.88249507  0.11713344  1
  Ti  Ti45  1  0.87379981  0.12750097  0.37456766  1
  Ti  Ti46  1  0.12669027  0.38411864  0.86993335  1
  Ti  Ti47  1  0.13514378  0.12861616  0.87377919  1
  Ti  Ti48  1  0.89194353  0.11966943  0.11854581  1
  Ti  Ti49  1  0.87120510  0.61596169  0.86639413  1
  Ti  Ti50  1  0.61766671  0.88664896  0.13003330  1
  Ti  Ti51  1  0.62244193  0.63329888  0.63405850  1
  Ti  Ti52  1  0.86025160  0.89169212  0.11662144  1
  Ti  Ti53  1  0.12719730  0.88965877  0.60388199  1
  Ti  Ti54  1  0.37246609  0.63484003  0.12113548  1
  Ti  Ti55  1  0.62831183  0.37634740  0.62661304  1
  Ti  Ti56  1  0.86890743  0.37075914  0.36796605  1
  Ti  Ti57  1  0.38235142  0.38357272  0.12275744  1
  Ti  Ti58  1  0.13567285  0.11379706  0.38025658  1
  Ti  Ti59  1  0.87604943  0.62118683  0.12386237  1
  Ti  Ti60  1  0.13233261  0.36828744  0.61673069  1
  Ti  Ti61  1  0.38793056  0.88208007  0.37312546  1
  Ti  Ti62  1  0.38889784  0.12025379  0.37993782  1
  Ti  Ti63  1  0.37921855  0.37642374  0.37444844  1
  Ti  Ti64  1  0.38319006  0.62765273  0.63310912  1
  Ti  Ti65  1  0.13108366  0.12246789  0.12253087  1
  Ti  Ti66  1  0.36281002  0.87958315  0.87642464  1
  Ti  Ti67  1  0.13280320  0.12705775  0.61115350  1
  Ti  Ti68  1  0.64084940  0.12809415  0.88399342  1
  Ti  Ti69  1  0.64244912  0.37312924  0.37417335  1
  Ti  Ti70  1  0.13310937  0.87107162  0.37290399  1
  Ti  Ti71  1  0.11368962  0.87714681  0.13246991  1
  Ti  Ti72  1  0.62707642  0.13035844  0.12502419  1
  Ti  Ti73  1  0.61075306  0.88949210  0.37775463  1
  Bi  Bi74  1  0.50711282  0.25594431  0.23103382  1
  Bi  Bi75  1  0.25935848  0.27802913  0.74251507  1
  Bi  Bi76  1  0.25901074  0.27015712  0.24014477  1
  Bi  Bi77  1  0.51141198  0.54400446  -0.00302105  1
  Bi  Bi78  1  0.71620847  0.77471088  0.77320556  1
  Bi  Bi79  1  0.23978792  -0.00685591  0.72661812  1
  Bi  Bi80  1  -0.00468864  0.74673075  0.47073692  1
  Bi  Bi81  1  0.00577416  0.01163048  0.27283806  1
  Bi  Bi82  1  0.52472666  0.78081654  -0.02894215  1
  Bi  Bi83  1  0.50379833  0.25736009  0.78760648  1
  Bi  Bi84  1  0.73902937  0.77763771  0.24975322  1
  Bi  Bi85  1  0.27255053  0.76759166  0.26382892  1
  Bi  Bi86  1  -0.03780434  0.50963426  0.48303469  1
  Bi  Bi87  1  -0.02588698  0.75851532  0.22683961  1
  Bi  Bi88  1  0.22406147  -0.01646375  0.00234699  1
  Bi  Bi89  1  0.52442527  0.50763448  0.50744674  1
  Bi  Bi90  1  0.51310363  0.51171448  0.26884192  1
  Bi  Bi91  1  0.76979737  0.27051059  -0.02225591  1
  Bi  Bi92  1  0.26743746  0.53062290  0.25969289  1
  Bi  Bi93  1  0.00025274  0.27780900  0.48111167  1
  Bi  Bi94  1  0.00755601  0.25453085  -0.02006696  1
  Bi  Bi95  1  -0.00486873  -0.02134338  0.72888649  1
  Bi  Bi96  1  0.74076912  0.00957742  0.48018883  1
  Bi  Bi97  1  0.73070760  0.50402508  0.03899831  1
  Bi  Bi98  1  0.77973380  0.23850289  0.73617316  1
  Bi  Bi99  1  0.20735053  0.75388583  0.75106635  1
  Bi  Bi100  1  0.23673757  0.51915221  0.02550868  1
  Bi  Bi101  1  0.76742018  0.46404157  0.75283360  1
  Bi  Bi102  1  0.49586184  0.76764568  0.52374404  1
  Bi  Bi103  1  0.51192920  0.00968423  0.01257348  1
  Bi  Bi104  1  -0.00184812  0.48628626  0.71309029  1
  Bi  Bi105  1  0.01065474  0.23565983  0.73029597  1
  Bi  Bi106  1  0.53758312  0.00308594  0.77959282  1
  Bi  Bi107  1  0.74621930  0.02960347  0.25104894  1
  Bi  Bi108  1  0.28014461  0.24594917  0.49324523  1
  Bi  Bi109  1  0.21641295  0.53674983  0.73233475  1
  Bi  Bi110  1  0.21718700  0.75818673  -0.00166851  1
  Bi  Bi111  1  0.51737727  0.24759064  0.51050153  1
  Bi  Bi112  1  0.23520594  0.72021526  0.51702504  1
  Bi  Bi113  1  0.77362181  0.78034281  0.49759071  1
  Bi  Bi114  1  0.50137686  0.48760526  0.77540763  1
  Bi  Bi115  1  0.24993394  0.28559121  -0.00619106  1
  Bi  Bi116  1  0.01924477  0.24384618  0.24909124  1
  Bi  Bi117  1  0.75490977  -0.00271665  0.71926721  1
  Bi  Bi118  1  0.51861415  0.74089422  0.20745348  1
  Bi  Bi119  1  0.27694791  0.01450898  0.25521561  1
  Bi  Bi120  1  0.25427182  0.51119996  0.49420491  1
  Bi  Bi121  1  -0.00913095  0.00995321  -0.02542616  1
  Bi  Bi122  1  0.48427123  0.78478428  0.75091288  1
  Bi  Bi123  1  -0.01748075  0.73796939  -0.01812502  1
  Bi  Bi124  1  0.74705529  0.71520122  -0.00953930  1
  O  O125  1  0.15205127  0.11506949  0.00930740  1
  O  O126  1  0.09264522  0.12178792  0.25365214  1
  O  O127  1  0.14761311  0.11100972  0.49896562  1
  O  O128  1  0.10703382  0.13788630  0.76105983  1
  O  O129  1  0.15479544  0.38772294  -0.00735811  1
  O  O130  1  0.12745740  0.35005621  0.25616975  1
  O  O131  1  0.13011474  0.36577798  0.50121534  1
  O  O132  1  0.13281600  0.34763949  0.75330807  1
  O  O133  1  0.15075029  0.62189636  -0.00249430  1
  O  O134  1  0.09865675  0.63535828  0.24482418  1
  O  O135  1  0.16133446  0.61164123  0.49326536  1
  O  O136  1  0.12164650  0.64327038  0.74714635  1
  O  O137  1  0.12861529  0.88008192  0.00902251  1
  O  O138  1  0.12748365  0.85321009  0.25018892  1
  O  O139  1  0.11641355  0.90624744  0.49074457  1
  O  O140  1  0.13714991  0.88021027  0.74626169  1
  O  O141  1  0.34189431  0.12726371  -0.00091390  1
  O  O142  1  0.39574005  0.09360990  0.25439151  1
  O  O143  1  0.35026859  0.12021430  0.49561457  1
  O  O144  1  0.40063868  0.12832930  0.75136666  1
  O  O145  1  0.36752483  0.36818808  0.00745303  1
  O  O146  1  0.36139011  0.36917936  0.25463531  1
  O  O147  1  0.36314864  0.36394883  0.49805301  1
  O  O148  1  0.38572220  0.35545856  0.74066126  1
  O  O149  1  0.35278695  0.62060129  -0.00063108  1
  O  O150  1  0.38780246  0.60705538  0.24386361  1
  O  O151  1  0.34447807  0.61817310  0.49824885  1
  O  O152  1  0.40544319  0.62546839  0.74711057  1
  O  O153  1  0.39125171  0.87044648  -0.00072218  1
  O  O154  1  0.35406224  0.89029949  0.24585576  1
  O  O155  1  0.38967074  0.88106181  0.48873343  1
  O  O156  1  0.36316026  0.87046547  0.75289668  1
  O  O157  1  0.63082972  0.09645231  0.00777593  1
  O  O158  1  0.58941256  0.13964830  0.24491126  1
  O  O159  1  0.65999410  0.11739940  0.49706090  1
  O  O160  1  0.60094981  0.13323430  0.76744833  1
  O  O161  1  0.63933966  0.39370893  0.01455732  1
  O  O162  1  0.62775314  0.32131660  0.24940480  1
  O  O163  1  0.63833682  0.41429746  0.48365760  1
  O  O164  1  0.62484557  0.35728754  0.73800464  1
  O  O165  1  0.64258963  0.59956379  -0.00044169  1
  O  O166  1  0.59532683  0.63087560  0.25760931  1
  O  O167  1  0.63907128  0.59109847  0.48771953  1
  O  O168  1  0.60875337  0.65834411  0.74343682  1
  O  O169  1  0.62532686  0.89683376  0.01281046  1
  O  O170  1  0.61995696  0.85271578  0.25641036  1
  O  O171  1  0.59932950  0.90962517  0.49466145  1
  O  O172  1  0.60997534  0.85090609  0.74795857  1
  O  O173  1  0.86997182  0.10340480  0.00910429  1
  O  O174  1  0.91629329  0.12452940  0.25746072  1
  O  O175  1  0.83586330  0.11822325  0.49071211  1
  O  O176  1  0.89199540  0.15944356  0.75209372  1
  O  O177  1  0.85649796  0.37829959  0.01253045  1
  O  O178  1  0.89818714  0.37687506  0.25050239  1
  O  O179  1  0.88544089  0.38052197  0.48884054  1
  O  O180  1  0.86044511  0.35808010  0.74846880  1
  O  O181  1  0.86505354  0.61958406  -0.00242294  1
  O  O182  1  0.90160711  0.63080438  0.24432965  1
  O  O183  1  0.84546178  0.58019597  0.51052472  1
  O  O184  1  0.87401321  0.65396269  0.75109106  1
  O  O185  1  0.83713608  0.90560991  0.00595551  1
  O  O186  1  0.86773491  0.84454972  0.24887674  1
  O  O187  1  0.86503095  0.88870846  0.49929504  1
  O  O188  1  0.91718723  0.85777595  0.75299513  1
  O  O189  1  0.00515570  0.10115394  0.10561029  1
  O  O190  1  -0.01759232  0.06316466  0.40183695  1
  O  O191  1  0.01098763  0.15148576  0.61662155  1
  O  O192  1  0.00919199  0.13105656  0.90561810  1
  O  O193  1  0.00055255  0.37608840  0.10492457  1
  O  O194  1  0.01169271  0.38079015  0.38684544  1
  O  O195  1  0.00531093  0.36580667  0.63185466  1
  O  O196  1  0.01174791  0.36620038  0.88738789  1
  O  O197  1  0.00385608  0.61858823  0.09568222  1
  O  O198  1  -0.00586950  0.62386420  0.40638616  1
  O  O199  1  -0.01771431  0.60793579  0.63488940  1
  O  O200  1  -0.00810585  0.64703138  0.86923094  1
  O  O201  1  -0.00506303  0.88133412  0.13320267  1
  O  O202  1  -0.00348020  0.87202025  0.38188086  1
  O  O203  1  0.00575798  0.90093919  0.60805963  1
  O  O204  1  -0.00554399  0.86549674  0.91051493  1
  O  O205  1  0.24863853  0.12767889  0.15489324  1
  O  O206  1  0.24208112  0.13490418  0.35033143  1
  O  O207  1  0.25528885  0.10758256  0.64484732  1
  O  O208  1  0.25406309  0.13179930  0.85158026  1
  O  O209  1  0.25233617  0.35481640  0.12798893  1
  O  O210  1  0.24502870  0.33865461  0.37570334  1
  O  O211  1  0.25454803  0.37797027  0.63712313  1
  O  O212  1  0.25829333  0.35404492  0.86576859  1
  O  O213  1  0.24633236  0.61906529  0.13834064  1
  O  O214  1  0.25274872  0.64090081  0.33937405  1
  O  O215  1  0.26275264  0.63607134  0.64221778  1
  O  O216  1  0.25880206  0.61763914  0.84769237  1
  O  O217  1  0.25306408  0.86762059  0.10834484  1
  O  O218  1  0.24795037  0.85392710  0.37634016  1
  O  O219  1  0.25019263  0.92092286  0.60536530  1
  O  O220  1  0.24870631  0.87727903  0.89830780  1
  O  O221  1  0.48640525  0.12430814  0.08638649  1
  O  O222  1  0.49869033  0.10466870  0.38916129  1
  O  O223  1  0.50134527  0.12859534  0.59675928  1
  O  O224  1  0.49726614  0.09530942  0.90484754  1
  O  O225  1  0.49907899  0.37836060  0.14559538  1
  O  O226  1  0.49224311  0.39735886  0.36932181  1
  O  O227  1  0.50199990  0.36391397  0.60059458  1
  O  O228  1  0.50345720  0.37579075  0.85987699  1
  O  O229  1  0.48940037  0.63279494  0.10368066  1
  O  O230  1  0.50365042  0.59197806  0.38522824  1
  O  O231  1  0.50062372  0.63140052  0.58894734  1
  O  O232  1  0.50391905  0.64793440  0.90753466  1
  O  O233  1  0.49732377  0.86929541  0.13192635  1
  O  O234  1  0.49737708  0.91928933  0.34578994  1
  O  O235  1  0.49802578  0.86499642  0.62580839  1
  O  O236  1  0.49288158  0.86797953  0.86610654  1
  O  O237  1  0.73824210  0.14734550  0.15067214  1
  O  O238  1  0.75708259  0.15161847  0.32633937  1
  O  O239  1  0.74727472  0.12013692  0.64989967  1
  O  O240  1  0.75087314  0.15334248  0.87491588  1
  O  O241  1  0.75203225  0.33768344  0.14363547  1
  O  O242  1  0.75750627  0.34607892  0.35453993  1
  O  O243  1  0.74159861  0.40852918  0.61707319  1
  O  O244  1  0.74940853  0.35760814  0.87556571  1
  O  O245  1  0.76134833  0.61293781  0.14071043  1
  O  O246  1  0.73365791  0.63425886  0.34158516  1
  O  O247  1  0.73856141  0.60579421  0.63519806  1
  O  O248  1  0.75412698  0.63546551  0.87416012  1
  O  O249  1  0.74472313  0.87845504  0.14687742  1
  O  O250  1  0.73573280  0.85469809  0.37413503  1
  O  O251  1  0.75293313  0.87870220  0.64477436  1
  O  O252  1  0.76599272  0.88226898  0.84520333  1
  O  O253  1  0.13971165  -0.00659462  0.13340044  1
  O  O254  1  0.13101477  -0.00450742  0.34896450  1
  O  O255  1  0.12084554  0.01196567  0.65019773  1
  O  O256  1  0.12207676  0.00578358  0.89131065  1
  O  O257  1  0.11024567  0.23794253  0.13013424  1
  O  O258  1  0.08607836  0.22571817  0.38049872  1
  O  O259  1  0.14957084  0.24460969  0.62439511  1
  O  O260  1  0.12900610  0.24605569  0.90246074  1
  O  O261  1  0.12548198  0.50307445  0.11989255  1
  O  O262  1  0.15601851  0.49372340  0.36817463  1
  O  O263  1  0.12015634  0.48608331  0.63914792  1
  O  O264  1  0.12633671  0.49668991  0.84647388  1
  O  O265  1  0.11984278  0.74969107  0.10675591  1
  O  O266  1  0.11716413  0.75299391  0.40317586  1
  O  O267  1  0.14463249  0.77388971  0.61504946  1
  O  O268  1  0.13816399  0.75138510  0.88051560  1
  O  O269  1  0.36643510  -0.00032012  0.11351258  1
  O  O270  1  0.34182382  -0.00037471  0.38431286  1
  O  O271  1  0.39573784  0.00542822  0.61039743  1
  O  O272  1  0.36499292  -0.00108697  0.87425248  1
  O  O273  1  0.37776505  0.24125853  0.14146789  1
  O  O274  1  0.38323839  0.24204066  0.38307713  1
  O  O275  1  0.36421944  0.24290867  0.61290585  1
  O  O276  1  0.41160188  0.23477036  0.89173890  1
  O  O277  1  0.36537068  0.49634208  0.12239449  1
  O  O278  1  0.34230146  0.49102122  0.37852622  1
  O  O279  1  0.38509424  0.49678561  0.62140552  1
  O  O280  1  0.40757771  0.51049062  0.87685755  1
  O  O281  1  0.37015146  0.74885840  0.13969261  1
  O  O282  1  0.38960400  0.76263127  0.34999510  1
  O  O283  1  0.38118562  0.74677715  0.61190193  1
  O  O284  1  0.37145818  0.74975081  0.87393388  1
  O  O285  1  0.60379120  0.00574332  0.15421924  1
  O  O286  1  0.64533480  0.00388655  0.35536190  1
  O  O287  1  0.61111315  0.00001292  0.65364869  1
  O  O288  1  0.64640521  0.00696536  0.86511424  1
  O  O289  1  0.58995700  0.24385475  0.10512711  1
  O  O290  1  0.60538186  0.26164203  0.40248274  1
  O  O291  1  0.63583354  0.25846186  0.58875470  1
  O  O292  1  0.59550281  0.24047378  0.90351255  1
  O  O293  1  0.65046270  0.48166262  0.15143102  1
  O  O294  1  0.63772265  0.48095497  0.32360980  1
  O  O295  1  0.60204411  0.50319450  0.62956662  1
  O  O296  1  0.60987315  0.50247092  0.85467728  1
  O  O297  1  0.62390508  0.76123322  0.12194456  1
  O  O298  1  0.59900994  0.75462748  0.39765154  1
  O  O299  1  0.62385157  0.74455270  0.59202869  1
  O  O300  1  0.64555696  0.75378109  0.89853627  1
  O  O301  1  0.86465089  0.00234953  0.15305999  1
  O  O302  1  0.83062691  0.00576563  0.35982352  1
  O  O303  1  0.88010545  0.00403424  0.65506172  1
  O  O304  1  0.90222370  -0.00196109  0.86146292  1
  O  O305  1  0.89599101  0.24123834  0.12659671  1
  O  O306  1  0.90354065  0.24590925  0.38131112  1
  O  O307  1  0.83849404  0.24881267  0.60945623  1
  O  O308  1  0.88637429  0.25142319  0.90785858  1
  O  O309  1  0.89375567  0.50001593  0.13358085  1
  O  O310  1  0.88007939  0.49450499  0.36618160  1
  O  O311  1  0.87037036  0.49675353  0.65970978  1
  O  O312  1  0.87399861  0.50309530  0.84911869  1
  O  O313  1  0.88845889  0.74973834  0.11198466  1
  O  O314  1  0.86870175  0.74454396  0.40550947  1
  O  O315  1  0.86912946  0.73929097  0.59641098  1
  O  O316  1  0.86492600  0.75981299  0.90878841  1
