# generated using pymatgen
data_Mg32Ti42(Bi17O64)3
_symmetry_space_group_name_H-M   'P 1'
_cell_length_a   15.91287495
_cell_length_b   15.92065305
_cell_length_c   15.93104367
_cell_angle_alpha   89.96712665
_cell_angle_beta   89.81297336
_cell_angle_gamma   89.88943391
_symmetry_Int_Tables_number   1
_chemical_formula_structural   Mg32Ti42(Bi17O64)3
_chemical_formula_sum   'Mg32 Ti42 Bi51 O192'
_cell_volume   4035.99448070
_cell_formula_units_Z   1
loop_
 _symmetry_equiv_pos_site_id
 _symmetry_equiv_pos_as_xyz
  1  'x, y, z'
loop_
 _atom_site_type_symbol
 _atom_site_label
 _atom_site_symmetry_multiplicity
 _atom_site_fract_x
 _atom_site_fract_y
 _atom_site_fract_z
 _atom_site_occupancy
  Mg  Mg0  1  0.87211101  0.88312141  0.12733590  1
  Mg  Mg1  1  0.13811412  0.61334581  0.62492517  1
  Mg  Mg2  1  0.37796794  0.12763685  0.86555720  1
  Mg  Mg3  1  0.13481628  0.62495705  0.87581672  1
  Mg  Mg4  1  0.62034760  0.37264882  0.13017917  1
  Mg  Mg5  1  0.88336218  0.62313172  0.11307743  1
  Mg  Mg6  1  0.12071577  0.87266822  0.86576904  1
  Mg  Mg7  1  0.86634931  0.37260437  0.86849511  1
  Mg  Mg8  1  0.12603539  0.87473682  0.37211655  1
  Mg  Mg9  1  0.61686286  0.87531169  0.37438670  1
  Mg  Mg10  1  0.13330457  0.12963971  0.62462850  1
  Mg  Mg11  1  0.12270690  0.12131746  0.87797340  1
  Mg  Mg12  1  0.63487593  0.88085512  0.87643851  1
  Mg  Mg13  1  0.63219656  0.13457781  0.62262837  1
  Mg  Mg14  1  0.38575891  0.37105903  0.87978612  1
  Mg  Mg15  1  0.62094448  0.62727033  0.11925716  1
  Mg  Mg16  1  0.86921378  0.38560645  0.38485852  1
  Mg  Mg17  1  0.38158876  0.87679826  0.61861142  1
  Mg  Mg18  1  0.87661100  0.12776028  0.37795726  1
  Mg  Mg19  1  0.21757259  0.01793471  0.00700285  1
  Mg  Mg20  1  0.52676108  0.03383109  0.52024162  1
  Mg  Mg21  1  0.52231806  0.25084914  0.25826443  1
  Mg  Mg22  1  0.75053348  0.02257327  0.24832052  1
  Mg  Mg23  1  0.24717025  0.70105176  0.01232230  1
  Mg  Mg24  1  0.50256677  0.73584145  0.51846336  1
  Mg  Mg25  1  0.02574542  0.68284991  0.75736061  1
  Mg  Mg26  1  0.71864297  0.76357927  0.70232320  1
  Mg  Mg27  1  0.07260367  0.47987468  0.77646098  1
  Mg  Mg28  1  0.78060866  0.51472125  0.53867855  1
  Mg  Mg29  1  0.27556285  0.50831364  0.78497784  1
  Mg  Mg30  1  0.72013331  0.23840122  0.74137515  1
  Mg  Mg31  1  0.24844810  0.22474739  0.45750202  1
  Ti  Ti32  1  0.37524330  0.63447786  0.37492473  1
  Ti  Ti33  1  0.87632838  0.13036395  0.85965816  1
  Ti  Ti34  1  0.13365185  0.87834807  0.62309383  1
  Ti  Ti35  1  0.37290248  0.38316024  0.12234046  1
  Ti  Ti36  1  0.62223621  0.37142665  0.61583082  1
  Ti  Ti37  1  0.88628873  0.60292780  0.86520660  1
  Ti  Ti38  1  0.37708297  0.63226791  0.88710398  1
  Ti  Ti39  1  0.86855234  0.62422016  0.38456916  1
  Ti  Ti40  1  0.61773538  0.88681251  0.61328991  1
  Ti  Ti41  1  0.63349063  0.12872777  0.11949902  1
  Ti  Ti42  1  0.87356901  0.64336769  0.64866623  1
  Ti  Ti43  1  0.12276739  0.11700803  0.36727873  1
  Ti  Ti44  1  0.11659884  0.86891695  0.13018686  1
  Ti  Ti45  1  0.86769999  0.86066635  0.37920176  1
  Ti  Ti46  1  0.13436886  0.37439969  0.62502622  1
  Ti  Ti47  1  0.38346960  0.10147574  0.37923250  1
  Ti  Ti48  1  0.37293281  0.62465411  0.13031884  1
  Ti  Ti49  1  0.36094376  0.86940680  0.86806180  1
  Ti  Ti50  1  0.12120603  0.13500349  0.13258819  1
  Ti  Ti51  1  0.62999573  0.88313909  0.12124120  1
  Ti  Ti52  1  0.63999072  0.63029147  0.87372639  1
  Ti  Ti53  1  0.87832477  0.88321369  0.85993185  1
  Ti  Ti54  1  0.86061796  0.35920079  0.62655810  1
  Ti  Ti55  1  0.61974430  0.12270762  0.87401046  1
  Ti  Ti56  1  0.11885152  0.37268104  0.37571440  1
  Ti  Ti57  1  0.37550041  0.62012977  0.63174514  1
  Ti  Ti58  1  0.87055656  0.12146076  0.61619218  1
  Ti  Ti59  1  0.37865379  0.37774286  0.64064174  1
  Ti  Ti60  1  0.12055073  0.37349256  0.13463447  1
  Ti  Ti61  1  0.38596945  0.86903949  0.38981244  1
  Ti  Ti62  1  0.61808695  0.62175989  0.36809269  1
  Ti  Ti63  1  0.86999593  0.37029706  0.12201222  1
  Ti  Ti64  1  0.87201772  0.87462198  0.61817173  1
  Ti  Ti65  1  0.34176693  0.85287736  0.10279497  1
  Ti  Ti66  1  0.38099936  0.11649230  0.61245231  1
  Ti  Ti67  1  0.87559950  0.12487551  0.12921910  1
  Ti  Ti68  1  0.62235049  0.36086232  0.88090327  1
  Ti  Ti69  1  0.62597858  0.38307916  0.36971818  1
  Ti  Ti70  1  0.62095748  0.62090779  0.62817564  1
  Ti  Ti71  1  0.11905064  0.63045966  0.37727432  1
  Ti  Ti72  1  0.61703825  0.12737557  0.37652475  1
  Ti  Ti73  1  0.12127475  0.62287702  0.12925682  1
  Bi  Bi74  1  0.50440979  0.77898582  0.23500179  1
  Bi  Bi75  1  0.74977208  0.53364583  0.22944985  1
  Bi  Bi76  1  0.24184999  0.00910580  0.51317639  1
  Bi  Bi77  1  0.02824333  0.23729535  0.50403617  1
  Bi  Bi78  1  0.74556423  0.75704372  0.22897255  1
  Bi  Bi79  1  0.48062496  0.22600190  0.03630999  1
  Bi  Bi80  1  0.30845445  0.22298611  0.24203412  1
  Bi  Bi81  1  0.01072122  -0.02262936  0.49336179  1
  Bi  Bi82  1  0.51063886  0.01626468  0.22961632  1
  Bi  Bi83  1  0.74375003  0.00092777  0.73060503  1
  Bi  Bi84  1  0.48736564  0.23070279  0.72869969  1
  Bi  Bi85  1  0.51087708  0.50016406  0.76778930  1
  Bi  Bi86  1  0.76191278  -0.00651347  -0.01770999  1
  Bi  Bi87  1  0.23463084  0.46487200  -0.02729192  1
  Bi  Bi88  1  0.26205695  0.46190494  0.48325012  1
  Bi  Bi89  1  0.72987150  0.48165900  0.01092897  1
  Bi  Bi90  1  0.73885408  -0.00700690  0.46539721  1
  Bi  Bi91  1  0.74337226  0.46875854  0.74502238  1
  Bi  Bi92  1  0.47071026  0.26866921  0.46280908  1
  Bi  Bi93  1  0.00458876  0.01011570  0.72342341  1
  Bi  Bi94  1  0.75924412  0.23795255  -0.01837767  1
  Bi  Bi95  1  0.44015956  0.00836186  0.00351241  1
  Bi  Bi96  1  0.47880565  0.48762276  0.48399817  1
  Bi  Bi97  1  0.52439721  0.76854469  0.76373676  1
  Bi  Bi98  1  0.00908319  0.46856179  -0.02852529  1
  Bi  Bi99  1  0.48461260  -0.01604593  0.75634656  1
  Bi  Bi100  1  0.49820915  0.50385414  0.01463452  1
  Bi  Bi101  1  -0.02639033  0.51612395  0.25665169  1
  Bi  Bi102  1  0.76640033  0.24415010  0.47811794  1
  Bi  Bi103  1  0.27249243  0.73688791  0.51965738  1
  Bi  Bi104  1  0.72526665  0.73105853  0.49447627  1
  Bi  Bi105  1  0.01987991  0.73945920  -0.01522133  1
  Bi  Bi106  1  0.23172156  0.49817341  0.25264915  1
  Bi  Bi107  1  -0.01671201  0.49279073  0.55267519  1
  Bi  Bi108  1  0.75708681  0.24874120  0.25189988  1
  Bi  Bi109  1  0.25743389  0.00304221  0.21400588  1
  Bi  Bi110  1  0.26121544  0.26820185  0.77736978  1
  Bi  Bi111  1  0.00810738  0.23187003  -0.01499758  1
  Bi  Bi112  1  0.23308776  0.01680727  0.77506639  1
  Bi  Bi113  1  0.24763719  0.76586998  0.27637445  1
  Bi  Bi114  1  -0.03097072  0.00207208  0.26183223  1
  Bi  Bi115  1  0.78906340  0.74358038  -0.01854948  1
  Bi  Bi116  1  0.47653010  0.48252017  0.25694569  1
  Bi  Bi117  1  0.25264043  0.73050928  0.76251803  1
  Bi  Bi118  1  -0.02448416  0.75426373  0.23254327  1
  Bi  Bi119  1  0.26163725  0.24200649  0.00412708  1
  Bi  Bi120  1  0.02123693  0.73733937  0.52585749  1
  Bi  Bi121  1  0.51547298  0.76964744  -0.00007216  1
  Bi  Bi122  1  0.02039900  0.28403386  0.76535969  1
  Bi  Bi123  1  0.00760516  -0.01469515  -0.01047554  1
  Bi  Bi124  1  -0.01484041  0.27333923  0.26191217  1
  O  O125  1  0.13908653  0.12802695  0.01179451  1
  O  O126  1  0.11422594  0.10031904  0.25078655  1
  O  O127  1  0.14739501  0.15581440  0.49401747  1
  O  O128  1  0.11781622  0.09554179  0.74835667  1
  O  O129  1  0.10365632  0.37528560  0.01280872  1
  O  O130  1  0.15159680  0.37846080  0.25770544  1
  O  O131  1  0.08457152  0.37513746  0.50574162  1
  O  O132  1  0.12686817  0.36591206  0.74524610  1
  O  O133  1  0.13381525  0.63655639  0.00628995  1
  O  O134  1  0.13899588  0.60659680  0.25228910  1
  O  O135  1  0.11905418  0.63735836  0.49676056  1
  O  O136  1  0.14733870  0.63580537  0.74777507  1
  O  O137  1  0.08514795  0.86109005  0.00429299  1
  O  O138  1  0.15912768  0.87878731  0.24228919  1
  O  O139  1  0.09514729  0.86425291  0.49714575  1
  O  O140  1  0.13092831  0.91033343  0.73741860  1
  O  O141  1  0.37411640  0.14140638  -0.00336482  1
  O  O142  1  0.37638522  0.09298724  0.25657029  1
  O  O143  1  0.35662243  0.16035702  0.48903529  1
  O  O144  1  0.40151028  0.10981209  0.73370073  1
  O  O145  1  0.38653738  0.32863243  0.00622543  1
  O  O146  1  0.36338167  0.40185413  0.23797813  1
  O  O147  1  0.38700790  0.38162959  0.51519931  1
  O  O148  1  0.34108845  0.40438317  0.75169856  1
  O  O149  1  0.37565228  0.64995169  -0.00089315  1
  O  O150  1  0.37774082  0.59508982  0.24719627  1
  O  O151  1  0.39477995  0.66153556  0.49061731  1
  O  O152  1  0.34459620  0.61084220  0.74761178  1
  O  O153  1  0.39547051  0.86108587  -0.00978399  1
  O  O154  1  0.33392302  0.87981208  0.21904623  1
  O  O155  1  0.41363920  0.83560547  0.49431666  1
  O  O156  1  0.36850099  0.90562538  0.74795123  1
  O  O157  1  0.65930581  0.11894718  0.00531111  1
  O  O158  1  0.58743938  0.13904882  0.25730800  1
  O  O159  1  0.63979007  0.10160058  0.49521801  1
  O  O160  1  0.61594532  0.15368396  0.76118164  1
  O  O161  1  0.61232186  0.41148083  -0.00146796  1
  O  O162  1  0.60597034  0.35343021  0.25748648  1
  O  O163  1  0.59888154  0.38496762  0.50485290  1
  O  O164  1  0.65327302  0.35568731  0.76388374  1
  O  O165  1  0.62703156  0.59837089  -0.01180945  1
  O  O166  1  0.62564284  0.64403141  0.25711932  1
  O  O167  1  0.66541338  0.59812454  0.51724532  1
  O  O168  1  0.63064913  0.66369251  0.74513588  1
  O  O169  1  0.60119872  0.88607587  0.00585568  1
  O  O170  1  0.63529596  0.84306974  0.24900639  1
  O  O171  1  0.60280944  0.92213806  0.50103105  1
  O  O172  1  0.64215558  0.85006211  0.74940014  1
  O  O173  1  0.84197425  0.11129889  0.01409224  1
  O  O174  1  0.87814651  0.16784295  0.25270955  1
  O  O175  1  0.83869052  0.11195908  0.50427756  1
  O  O176  1  0.90895039  0.13709349  0.75341176  1
  O  O177  1  0.90089079  0.39687744  0.00634644  1
  O  O178  1  0.86402684  0.34756964  0.24744616  1
  O  O179  1  0.86943587  0.41510132  0.51149675  1
  O  O180  1  0.82709629  0.34593832  0.74246307  1
  O  O181  1  0.88545497  0.62142892  -0.01749291  1
  O  O182  1  0.88829275  0.63882385  0.25164589  1
  O  O183  1  0.86503140  0.60666026  0.49993419  1
  O  O184  1  0.89177346  0.66626624  0.76022628  1
  O  O185  1  0.88624580  0.92203198  0.00581642  1
  O  O186  1  0.86075419  0.84599841  0.25763524  1
  O  O187  1  0.88110935  0.90092863  0.49937094  1
  O  O188  1  0.85974003  0.86805768  0.74980039  1
  O  O189  1  -0.00691819  0.10985724  0.12124384  1
  O  O190  1  0.00456515  0.10946343  0.38758034  1
  O  O191  1  -0.00986972  0.10948982  0.60638398  1
  O  O192  1  -0.01156937  0.10906072  0.90815474  1
  O  O193  1  0.00408344  0.38037434  0.15726624  1
  O  O194  1  0.00076763  0.38938550  0.35052025  1
  O  O195  1  -0.02776082  0.38538613  0.64602936  1
  O  O196  1  -0.00672276  0.40138581  0.84928175  1
  O  O197  1  0.00998639  0.59513562  0.12821579  1
  O  O198  1  0.00466334  0.60549332  0.37199934  1
  O  O199  1  0.00115514  0.64000231  0.63283202  1
  O  O200  1  0.00562258  0.58351000  0.84553307  1
  O  O201  1  0.00497253  0.89154260  0.16210139  1
  O  O202  1  -0.01049451  0.90229495  0.36143880  1
  O  O203  1  -0.00412096  0.89880607  0.62744107  1
  O  O204  1  -0.00705001  0.92432894  0.86375018  1
  O  O205  1  0.24254726  0.13780914  0.14509112  1
  O  O206  1  0.25196069  0.14672603  0.35673904  1
  O  O207  1  0.26233024  0.10158017  0.62695940  1
  O  O208  1  0.25048943  0.14632869  0.85199662  1
  O  O209  1  0.25355721  0.34169818  0.10993934  1
  O  O210  1  0.23391683  0.34433230  0.41862012  1
  O  O211  1  0.24639031  0.37794230  0.61086841  1
  O  O212  1  0.25701931  0.34427060  0.90127852  1
  O  O213  1  0.25640284  0.63746836  0.12405452  1
  O  O214  1  0.25821550  0.64898662  0.38161671  1
  O  O215  1  0.26372718  0.61291828  0.59183049  1
  O  O216  1  0.25534954  0.66354090  0.88614545  1
  O  O217  1  0.24004749  0.81541373  0.07579664  1
  O  O218  1  0.26106887  0.84644357  0.38658197  1
  O  O219  1  0.25047383  0.88805469  0.59301045  1
  O  O220  1  0.24997286  0.84656552  0.86678320  1
  O  O221  1  0.51495840  0.09277061  0.11003597  1
  O  O222  1  0.49921908  0.08408650  0.40381715  1
  O  O223  1  0.50186230  0.14921000  0.59978588  1
  O  O224  1  0.50794723  0.10123610  0.88926569  1
  O  O225  1  0.49512652  0.41188009  0.12381355  1
  O  O226  1  0.49728630  0.39391113  0.38015030  1
  O  O227  1  0.50101388  0.36881918  0.65675960  1
  O  O228  1  0.50713013  0.39736718  0.86219173  1
  O  O229  1  0.49542903  0.59428073  0.11977074  1
  O  O230  1  0.50304997  0.59896251  0.37492727  1
  O  O231  1  0.50544922  0.64174612  0.61448538  1
  O  O232  1  0.49280669  0.60747040  0.86154217  1
  O  O233  1  0.50161126  0.89291171  0.14852861  1
  O  O234  1  0.49252601  0.88363681  0.33797303  1
  O  O235  1  0.50631846  0.87775710  0.65254868  1
  O  O236  1  0.50317003  0.88314217  0.85200778  1
  O  O237  1  0.74485723  0.13101984  0.16729116  1
  O  O238  1  0.73950528  0.16199793  0.36348499  1
  O  O239  1  0.75705619  0.13110892  0.66907069  1
  O  O240  1  0.75688113  0.17110352  0.85669625  1
  O  O241  1  0.75450858  0.36687874  0.10187145  1
  O  O242  1  0.73897321  0.34910433  0.38208184  1
  O  O243  1  0.73962204  0.41083285  0.60978363  1
  O  O244  1  0.74387385  0.36907697  0.91094729  1
  O  O245  1  0.75335083  0.63918016  0.13207969  1
  O  O246  1  0.75164099  0.64853161  0.37200181  1
  O  O247  1  0.75542631  0.66101972  0.64032844  1
  O  O248  1  0.75465799  0.65382132  0.87635287  1
  O  O249  1  0.74554513  0.84932949  0.11711154  1
  O  O250  1  0.74778497  0.85721856  0.39901840  1
  O  O251  1  0.74751046  0.87041599  0.61959517  1
  O  O252  1  0.75989176  0.86327868  0.90537598  1
  O  O253  1  0.15017051  -0.01574191  0.10966848  1
  O  O254  1  0.14071978  0.00454538  0.39982715  1
  O  O255  1  0.12444897  0.00189965  0.58868068  1
  O  O256  1  0.16028701  -0.00307358  0.89637223  1
  O  O257  1  0.10518455  0.24710379  0.14132865  1
  O  O258  1  0.09815142  0.25244528  0.37102239  1
  O  O259  1  0.10082517  0.25449611  0.62889662  1
  O  O260  1  0.09110127  0.24356172  0.87564855  1
  O  O261  1  0.15221195  0.49049875  0.13116231  1
  O  O262  1  0.15803315  0.49461330  0.38087235  1
  O  O263  1  0.10457286  0.49142977  0.64296966  1
  O  O264  1  0.17025625  0.50235751  0.85744608  1
  O  O265  1  0.09849866  0.74230185  0.14073267  1
  O  O266  1  0.11576499  0.74466746  0.35366394  1
  O  O267  1  0.12711220  0.76026317  0.62228407  1
  O  O268  1  0.07892193  0.74806990  0.86004898  1
  O  O269  1  0.32059243  -0.02096417  0.08167418  1
  O  O270  1  0.35818561  -0.01193958  0.39475382  1
  O  O271  1  0.40823198  0.00898835  0.57983215  1
  O  O272  1  0.36367330  -0.00400469  0.88654100  1
  O  O273  1  0.42673052  0.25932539  0.15999963  1
  O  O274  1  0.41966427  0.22700826  0.34117752  1
  O  O275  1  0.36944235  0.25947080  0.65093372  1
  O  O276  1  0.38796753  0.25203162  0.83390631  1
  O  O277  1  0.35729112  0.49572227  0.08839405  1
  O  O278  1  0.36482090  0.51101087  0.39995573  1
  O  O279  1  0.39822691  0.50556088  0.61886961  1
  O  O280  1  0.34724242  0.50718339  0.89296412  1
  O  O281  1  0.39728134  0.74486468  0.13249881  1
  O  O282  1  0.38836568  0.75000340  0.33668077  1
  O  O283  1  0.35804702  0.74605234  0.63550005  1
  O  O284  1  0.39222172  0.75050423  0.84727046  1
  O  O285  1  0.64670810  -0.00442945  0.15916370  1
  O  O286  1  0.66215898  0.00928120  0.34793752  1
  O  O287  1  0.62648856  0.00386339  0.64724561  1
  O  O288  1  0.65817568  0.01115076  0.86526058  1
  O  O289  1  0.61310753  0.24311584  0.12063443  1
  O  O290  1  0.59140619  0.24483620  0.38860701  1
  O  O291  1  0.65098461  0.26191910  0.62280839  1
  O  O292  1  0.61204413  0.25185419  0.90963591  1
  O  O293  1  0.65539398  0.49963301  0.13539170  1
  O  O294  1  0.64074555  0.49812525  0.36025940  1
  O  O295  1  0.61579101  0.50721862  0.65961463  1
  O  O296  1  0.63294516  0.51202731  0.83880210  1
  O  O297  1  0.59691857  0.75339414  0.11152802  1
  O  O298  1  0.60221423  0.73458325  0.42072138  1
  O  O299  1  0.61872139  0.76152138  0.59266958  1
  O  O300  1  0.60217900  0.74644970  0.88904268  1
  O  O301  1  0.85660431  0.00827261  0.16776823  1
  O  O302  1  0.84583019  0.00449030  0.34373464  1
  O  O303  1  0.86145894  0.00307235  0.64401701  1
  O  O304  1  0.83911263  0.01248976  0.86398813  1
  O  O305  1  0.88016482  0.25031679  0.10398542  1
  O  O306  1  0.88340554  0.25645662  0.40940365  1
  O  O307  1  0.86831186  0.24903210  0.59892567  1
  O  O308  1  0.89297545  0.24894810  0.90432437  1
  O  O309  1  0.86288377  0.49474324  0.15155263  1
  O  O310  1  0.86324439  0.50867894  0.35017277  1
  O  O311  1  0.86455871  0.52520203  0.64443725  1
  O  O312  1  0.84541853  0.50030314  0.85450236  1
  O  O313  1  0.90258064  0.75339135  0.11562401  1
  O  O314  1  0.89511079  0.74982121  0.39558019  1
  O  O315  1  0.88727882  0.76073017  0.60437810  1
  O  O316  1  0.90081206  0.77494013  0.90525994  1
