# generated using pymatgen
data_Mg32Ti42(Bi17O64)3
_symmetry_space_group_name_H-M   'P 1'
_cell_length_a   15.92239791
_cell_length_b   15.94631309
_cell_length_c   15.93326295
_cell_angle_alpha   90.16939908
_cell_angle_beta   90.07173973
_cell_angle_gamma   89.99880055
_symmetry_Int_Tables_number   1
_chemical_formula_structural   Mg32Ti42(Bi17O64)3
_chemical_formula_sum   'Mg32 Ti42 Bi51 O192'
_cell_volume   4045.49104927
_cell_formula_units_Z   1
loop_
 _symmetry_equiv_pos_site_id
 _symmetry_equiv_pos_as_xyz
  1  'x, y, z'
loop_
 _atom_site_type_symbol
 _atom_site_label
 _atom_site_symmetry_multiplicity
 _atom_site_fract_x
 _atom_site_fract_y
 _atom_site_fract_z
 _atom_site_occupancy
  Mg  Mg0  1  0.36976658  0.37294070  0.13029406  1
  Mg  Mg1  1  0.63029580  0.10908204  0.62241082  1
  Mg  Mg2  1  0.37987791  0.13157767  0.37382553  1
  Mg  Mg3  1  0.37523520  0.12333054  0.63604070  1
  Mg  Mg4  1  0.12287520  0.62570382  0.63250405  1
  Mg  Mg5  1  0.62122331  0.87000662  0.86814149  1
  Mg  Mg6  1  0.12867999  0.12181686  0.37720519  1
  Mg  Mg7  1  0.87360027  0.62723063  0.13282103  1
  Mg  Mg8  1  0.11756611  0.38907197  0.37345619  1
  Mg  Mg9  1  0.38052456  0.37662285  0.86924043  1
  Mg  Mg10  1  0.37208928  0.12317961  0.11969530  1
  Mg  Mg11  1  0.87126528  0.12567541  0.37755838  1
  Mg  Mg12  1  0.87658839  0.88257481  0.87217904  1
  Mg  Mg13  1  0.12751579  0.12666294  0.62694203  1
  Mg  Mg14  1  0.88162528  0.87389784  0.37581339  1
  Mg  Mg15  1  0.62668003  0.87063680  0.12627575  1
  Mg  Mg16  1  0.36560228  0.87504244  0.88279168  1
  Mg  Mg17  1  0.62682707  0.61657370  0.62699537  1
  Mg  Mg18  1  0.13304412  0.63506205  0.37610634  1
  Mg  Mg19  1  0.31143558  0.73218501  0.06012798  1
  Mg  Mg20  1  0.22639958  0.03517467  0.76020987  1
  Mg  Mg21  1  0.03691424  0.53700877  0.48595509  1
  Mg  Mg22  1  0.53176559  0.46707763  0.75007677  1
  Mg  Mg23  1  0.72509652  0.53684763  0.48584422  1
  Mg  Mg24  1  0.44483237  0.78592127  0.75454372  1
  Mg  Mg25  1  0.48451106  0.25299607  0.77156439  1
  Mg  Mg26  1  -0.04388799  0.24340361  0.79009420  1
  Mg  Mg27  1  0.77025315  0.30556602  0.48849426  1
  Mg  Mg28  1  0.23523723  0.73499402  0.76933480  1
  Mg  Mg29  1  0.69669924  0.24671581  0.02790643  1
  Mg  Mg30  1  0.22438190  0.72578039  0.53416496  1
  Mg  Mg31  1  -0.00153514  0.30638742  0.23047146  1
  Ti  Ti32  1  0.62807105  0.37549873  0.13334690  1
  Ti  Ti33  1  0.62266684  0.36675032  0.87251005  1
  Ti  Ti34  1  0.86861608  0.86590737  0.12466816  1
  Ti  Ti35  1  0.38633058  0.88434040  0.12612396  1
  Ti  Ti36  1  0.12330304  0.12930112  0.88163940  1
  Ti  Ti37  1  0.13307316  0.88179590  0.85641121  1
  Ti  Ti38  1  0.87405822  0.63101114  0.38057847  1
  Ti  Ti39  1  0.37473598  0.62891175  0.86497987  1
  Ti  Ti40  1  0.36589282  0.87340060  0.62140089  1
  Ti  Ti41  1  0.62918592  0.13117969  0.38090679  1
  Ti  Ti42  1  0.62804592  0.37929797  0.38768493  1
  Ti  Ti43  1  0.61515017  0.88275502  0.37019963  1
  Ti  Ti44  1  0.63238163  0.12477888  0.13480274  1
  Ti  Ti45  1  0.60752378  0.61512809  0.85671652  1
  Ti  Ti46  1  0.86548131  0.13319991  0.13056754  1
  Ti  Ti47  1  0.88525691  0.88558525  0.62787532  1
  Ti  Ti48  1  0.87857423  0.62236797  0.60904202  1
  Ti  Ti49  1  0.61886107  0.62748755  0.38042990  1
  Ti  Ti50  1  0.37188876  0.38201320  0.38405220  1
  Ti  Ti51  1  0.37605131  0.37193001  0.63180681  1
  Ti  Ti52  1  0.37862704  0.87595292  0.38271346  1
  Ti  Ti53  1  0.87906887  0.36714677  0.63244984  1
  Ti  Ti54  1  0.87377322  0.13867165  0.61514277  1
  Ti  Ti55  1  0.64421760  0.38516554  0.62518103  1
  Ti  Ti56  1  0.88133188  0.38907976  0.37972758  1
  Ti  Ti57  1  0.86316675  0.38039049  0.12258869  1
  Ti  Ti58  1  0.12543394  0.86822233  0.63428417  1
  Ti  Ti59  1  0.12436299  0.63347656  0.87255475  1
  Ti  Ti60  1  0.36579509  0.62584751  0.64059056  1
  Ti  Ti61  1  0.12775021  0.38871544  0.13145372  1
  Ti  Ti62  1  0.61210766  0.12914979  0.86819355  1
  Ti  Ti63  1  0.36143290  0.63393019  0.38889823  1
  Ti  Ti64  1  0.62719275  0.63185968  0.13060782  1
  Ti  Ti65  1  0.13481763  0.87377493  0.38270172  1
  Ti  Ti66  1  0.11373057  0.62955447  0.10836132  1
  Ti  Ti67  1  0.86898114  0.12313758  0.89321348  1
  Ti  Ti68  1  0.12836150  0.13419135  0.13407525  1
  Ti  Ti69  1  0.11513482  0.37461633  0.62076899  1
  Ti  Ti70  1  0.36194784  0.12279364  0.88020520  1
  Ti  Ti71  1  0.62068885  0.87762174  0.62660402  1
  Ti  Ti72  1  0.86264619  0.36555047  0.87796266  1
  Ti  Ti73  1  0.11366883  0.37625463  0.87360485  1
  Bi  Bi74  1  0.48028323  0.01944297  0.51072531  1
  Bi  Bi75  1  0.46739890  0.00390460  0.76841402  1
  Bi  Bi76  1  0.78091007  0.52639468  0.75710789  1
  Bi  Bi77  1  0.25828137  0.78075947  0.23928905  1
  Bi  Bi78  1  0.74030642  0.51671929  0.24501562  1
  Bi  Bi79  1  0.26830466  0.52260838  -0.01592268  1
  Bi  Bi80  1  0.01857115  0.00523398  0.24997474  1
  Bi  Bi81  1  0.23281485  0.25772134  0.28544922  1
  Bi  Bi82  1  0.23877000  0.24551509  0.75259905  1
  Bi  Bi83  1  0.72749171  0.50982643  -0.01336536  1
  Bi  Bi84  1  0.49865277  0.02046514  0.26013995  1
  Bi  Bi85  1  0.48826938  0.50160486  0.27247209  1
  Bi  Bi86  1  0.01470865  0.76387253  0.49098303  1
  Bi  Bi87  1  0.48160480  0.25145413  0.02794406  1
  Bi  Bi88  1  -0.01634889  0.03421549  0.74793634  1
  Bi  Bi89  1  0.00833727  0.00064877  0.03414810  1
  Bi  Bi90  1  0.48942757  0.26341621  0.26526261  1
  Bi  Bi91  1  0.27687187  0.54493274  0.21768425  1
  Bi  Bi92  1  0.50905066  0.76581910  -0.02503988  1
  Bi  Bi93  1  -0.03729965  0.74225199  0.77502023  1
  Bi  Bi94  1  0.26163245  0.02587469  0.24608466  1
  Bi  Bi95  1  0.72345898  0.23458499  0.72697327  1
  Bi  Bi96  1  0.00484620  0.78223922  -0.00763910  1
  Bi  Bi97  1  0.75849708  -0.02035558  0.01412473  1
  Bi  Bi98  1  0.01907045  0.76654387  0.23003096  1
  Bi  Bi99  1  0.74344595  0.76160217  0.25511930  1
  Bi  Bi100  1  0.52428880  -0.00062196  0.01670745  1
  Bi  Bi101  1  0.00893083  0.25549831  0.47197833  1
  Bi  Bi102  1  0.76063213  0.72065725  -0.04498949  1
  Bi  Bi103  1  0.50845664  0.23323613  0.54607566  1
  Bi  Bi104  1  0.48373053  0.73077991  0.25592187  1
  Bi  Bi105  1  -0.00173266  0.27567142  0.02063504  1
  Bi  Bi106  1  0.77452337  -0.00197770  0.26512157  1
  Bi  Bi107  1  -0.03887849  0.54174531  -0.02700503  1
  Bi  Bi108  1  0.24865228  0.28524644  -0.00733479  1
  Bi  Bi109  1  -0.00364745  0.51394593  0.73446940  1
  Bi  Bi110  1  0.00658441  0.52809172  0.25776953  1
  Bi  Bi111  1  0.24054908  0.23525789  0.51439437  1
  Bi  Bi112  1  0.23207441  0.49431416  0.51279021  1
  Bi  Bi113  1  0.73773086  -0.00201952  0.78506157  1
  Bi  Bi114  1  0.73509530  0.76556118  0.48836900  1
  Bi  Bi115  1  0.75961669  -0.00365235  0.50000137  1
  Bi  Bi116  1  0.74120633  0.76299871  0.72397570  1
  Bi  Bi117  1  0.23090419  -0.00727557  0.51929995  1
  Bi  Bi118  1  -0.00528302  0.01750867  0.49123991  1
  Bi  Bi119  1  0.48726588  0.49841227  0.52352817  1
  Bi  Bi120  1  0.76651252  0.26271156  0.27507152  1
  Bi  Bi121  1  0.24156403  0.48553749  0.75810906  1
  Bi  Bi122  1  0.22204821  -0.04972776  0.02681931  1
  Bi  Bi123  1  0.50348376  0.74907703  0.53825432  1
  Bi  Bi124  1  0.48124583  0.50726207  0.02856637  1
  O  O125  1  0.10847076  0.11651282  -0.00215644  1
  O  O126  1  0.11211206  0.12885838  0.24958271  1
  O  O127  1  0.15705997  0.11179629  0.50265047  1
  O  O128  1  0.14732757  0.13795916  0.75172014  1
  O  O129  1  0.11835916  0.36414626  -0.00059165  1
  O  O130  1  0.11582223  0.36267512  0.24510661  1
  O  O131  1  0.10794432  0.41626602  0.50509456  1
  O  O132  1  0.14754857  0.36584051  0.74740042  1
  O  O133  1  0.13843795  0.61403021  -0.00329580  1
  O  O134  1  0.09079569  0.64449952  0.24923551  1
  O  O135  1  0.15071165  0.60519293  0.50664033  1
  O  O136  1  0.09165833  0.62213804  0.75444591  1
  O  O137  1  0.10025598  0.88851646  -0.01579849  1
  O  O138  1  0.13449519  0.84523102  0.26400525  1
  O  O139  1  0.11890689  0.90485484  0.50891095  1
  O  O140  1  0.16339368  0.84469539  0.74399591  1
  O  O141  1  0.38424935  0.15033754  -0.00599491  1
  O  O142  1  0.37955745  0.09251709  0.24523030  1
  O  O143  1  0.40119334  0.13800236  0.49897068  1
  O  O144  1  0.35173374  0.08017896  0.75283345  1
  O  O145  1  0.38048511  0.34284233  -0.00392787  1
  O  O146  1  0.38995142  0.40324947  0.25380932  1
  O  O147  1  0.39428418  0.36559208  0.49872517  1
  O  O148  1  0.35343565  0.39851089  0.74237236  1
  O  O149  1  0.34469183  0.64437617  -0.01849204  1
  O  O150  1  0.39810517  0.60607796  0.25761967  1
  O  O151  1  0.33424544  0.65784224  0.49722808  1
  O  O152  1  0.38422022  0.58928868  0.74627817  1
  O  O153  1  0.39154647  0.83817919  0.00723390  1
  O  O154  1  0.34861064  0.89652902  0.24781680  1
  O  O155  1  0.40664438  0.85636158  0.49467169  1
  O  O156  1  0.37293781  0.89149277  0.73852339  1
  O  O157  1  0.61241664  0.14774454  -0.01657862  1
  O  O158  1  0.64372907  0.10177236  0.24492092  1
  O  O159  1  0.60438812  0.13472357  0.49386936  1
  O  O160  1  0.65425913  0.11528847  0.74626456  1
  O  O161  1  0.62502798  0.34406257  -0.01503535  1
  O  O162  1  0.62954143  0.38337242  0.24726801  1
  O  O163  1  0.63891856  0.34395860  0.49665487  1
  O  O164  1  0.64517800  0.40728259  0.73866610  1
  O  O165  1  0.64865509  0.62507187  0.01338639  1
  O  O166  1  0.61753775  0.59883587  0.25974145  1
  O  O167  1  0.65068052  0.64034651  0.49492267  1
  O  O168  1  0.59369382  0.58349881  0.74970721  1
  O  O169  1  0.59333495  0.87330252  -0.00339237  1
  O  O170  1  0.65822742  0.88000989  0.25507199  1
  O  O171  1  0.61501203  0.84866500  0.49344463  1
  O  O172  1  0.64956387  0.87932529  0.74239513  1
  O  O173  1  0.88883416  0.10558857  0.00273662  1
  O  O174  1  0.84162927  0.13724003  0.24708639  1
  O  O175  1  0.87280106  0.08578824  0.50211717  1
  O  O176  1  0.89311032  0.14511810  0.73506162  1
  O  O177  1  0.88398980  0.37881053  -0.00406154  1
  O  O178  1  0.87510333  0.35548771  0.24462625  1
  O  O179  1  0.87833827  0.38079251  0.49403784  1
  O  O180  1  0.87554659  0.33493811  0.74509102  1
  O  O181  1  0.84403580  0.60691295  0.00629493  1
  O  O182  1  0.90763214  0.63347286  0.26445728  1
  O  O183  1  0.83755090  0.59706983  0.50232667  1
  O  O184  1  0.89533543  0.61079655  0.74109941  1
  O  O185  1  0.90026859  0.88943055  0.00242910  1
  O  O186  1  0.84372844  0.86411265  0.24563943  1
  O  O187  1  0.89047550  0.90229408  0.50632998  1
  O  O188  1  0.86814211  0.84706693  0.74150348  1
  O  O189  1  -0.01782918  0.09390717  0.14282702  1
  O  O190  1  0.00081787  0.13579057  0.40186211  1
  O  O191  1  0.00349040  0.09806310  0.60870456  1
  O  O192  1  0.00606466  0.13835908  0.85409466  1
  O  O193  1  -0.00305594  0.38059914  0.12186115  1
  O  O194  1  -0.00831081  0.34105538  0.36002009  1
  O  O195  1  0.00409008  0.38029418  0.63905907  1
  O  O196  1  0.00524050  0.33888034  0.86056883  1
  O  O197  1  -0.00219310  0.59788272  0.10118721  1
  O  O198  1  -0.01059488  0.64332977  0.42422816  1
  O  O199  1  -0.00290677  0.58253919  0.60249295  1
  O  O200  1  0.00366689  0.64945490  0.90043938  1
  O  O201  1  -0.01664948  0.90547285  0.14778621  1
  O  O202  1  0.00933558  0.85026845  0.37439713  1
  O  O203  1  0.00960543  0.88790384  0.64506259  1
  O  O204  1  0.00766117  0.84804802  0.85738335  1
  O  O205  1  0.24357479  0.13997031  0.14240359  1
  O  O206  1  0.25496793  0.12988222  0.34910326  1
  O  O207  1  0.25891267  0.16434044  0.62953531  1
  O  O208  1  0.24913586  0.09984080  0.88332992  1
  O  O209  1  0.24173048  0.35455663  0.11901345  1
  O  O210  1  0.25573677  0.38069805  0.37418187  1
  O  O211  1  0.26023918  0.35538728  0.60262322  1
  O  O212  1  0.24672136  0.38469739  0.89276439  1
  O  O213  1  0.23897820  0.65282476  0.14201808  1
  O  O214  1  0.25532504  0.61784273  0.34306632  1
  O  O215  1  0.25274603  0.66146252  0.65711942  1
  O  O216  1  0.24296846  0.60205950  0.85264003  1
  O  O217  1  0.25723723  0.84044534  0.10578247  1
  O  O218  1  0.25964743  0.87827524  0.38806923  1
  O  O219  1  0.25908386  0.84579756  0.59139209  1
  O  O220  1  0.24332591  0.88948883  0.89596130  1
  O  O221  1  0.51019572  0.09910638  0.12677323  1
  O  O222  1  0.50835477  0.13857991  0.34095396  1
  O  O223  1  0.50301502  0.11462982  0.62639569  1
  O  O224  1  0.49994659  0.14016687  0.83406367  1
  O  O225  1  0.50967313  0.39307429  0.10982725  1
  O  O226  1  0.51000975  0.36874948  0.36963321  1
  O  O227  1  0.50131604  0.41589887  0.63573121  1
  O  O228  1  0.50664923  0.36798597  0.83155734  1
  O  O229  1  0.51472226  0.59404509  0.12844406  1
  O  O230  1  0.50373901  0.64012769  0.39073833  1
  O  O231  1  0.49325521  0.61491217  0.59739074  1
  O  O232  1  0.49270608  0.63716174  0.88561745  1
  O  O233  1  0.49964846  0.91263983  0.13426558  1
  O  O234  1  0.50292991  0.85493591  0.33960976  1
  O  O235  1  0.50531147  0.86886857  0.63405954  1
  O  O236  1  0.49288778  0.83759792  0.85840240  1
  O  O237  1  0.74616760  0.15066514  0.09674091  1
  O  O238  1  0.74106886  0.08674122  0.39080043  1
  O  O239  1  0.75606179  0.14428318  0.61474320  1
  O  O240  1  0.75405823  0.10663415  0.88173060  1
  O  O241  1  0.74940496  0.34314535  0.10783417  1
  O  O242  1  0.75428391  0.38436582  0.37243124  1
  O  O243  1  0.75688827  0.34435171  0.61258252  1
  O  O244  1  0.74996059  0.38371140  0.87349840  1
  O  O245  1  0.74915047  0.63031717  0.16612559  1
  O  O246  1  0.75526688  0.59775077  0.36182793  1
  O  O247  1  0.75713619  0.62753408  0.65705796  1
  O  O248  1  0.73516983  0.60624135  0.87118480  1
  O  O249  1  0.75180797  0.86073526  0.08770382  1
  O  O250  1  0.74740442  0.89198659  0.40201272  1
  O  O251  1  0.75995404  0.85129810  0.61230700  1
  O  O252  1  0.74830667  0.89851911  0.88628554  1
  O  O253  1  0.12431003  0.00718039  0.12602480  1
  O  O254  1  0.12330345  -0.00879660  0.36392440  1
  O  O255  1  0.17387140  -0.00728505  0.64562029  1
  O  O256  1  0.12017498  -0.00390208  0.83629316  1
  O  O257  1  0.08975577  0.24563418  0.12360439  1
  O  O258  1  0.13980858  0.25590950  0.39444457  1
  O  O259  1  0.12089230  0.25955108  0.58729132  1
  O  O260  1  0.15290383  0.24376444  0.87827942  1
  O  O261  1  0.14147221  0.50265236  0.13916791  1
  O  O262  1  0.08914858  0.51278035  0.36723342  1
  O  O263  1  0.16277465  0.49465420  0.63805774  1
  O  O264  1  0.10279012  0.49048378  0.86393461  1
  O  O265  1  0.08876105  0.74424642  0.11027160  1
  O  O266  1  0.14133514  0.75509343  0.42578420  1
  O  O267  1  0.11435287  0.75358547  0.60222040  1
  O  O268  1  0.14907257  0.74234204  0.86809674  1
  O  O269  1  0.34467231  -0.00647751  0.10727437  1
  O  O270  1  0.40249082  -0.00619384  0.38726967  1
  O  O271  1  0.37003728  -0.00884211  0.59482979  1
  O  O272  1  0.40692078  0.00228150  0.89078794  1
  O  O273  1  0.40580375  0.24866067  0.14416822  1
  O  O274  1  0.37295673  0.26056822  0.34463524  1
  O  O275  1  0.41504962  0.26245977  0.65728333  1
  O  O276  1  0.36489598  0.23822553  0.84019603  1
  O  O277  1  0.36007538  0.49721943  0.09514406  1
  O  O278  1  0.39257189  0.50657436  0.39374837  1
  O  O279  1  0.35985598  0.50944699  0.59454003  1
  O  O280  1  0.37778572  0.50321371  0.90130172  1
  O  O281  1  0.39155175  0.76191022  0.15719555  1
  O  O282  1  0.37479886  0.74882435  0.34716346  1
  O  O283  1  0.40347088  0.74634049  0.64213573  1
  O  O284  1  0.34977323  0.73875033  0.82647608  1
  O  O285  1  0.64341427  0.00530470  0.09436571  1
  O  O286  1  0.59616842  -0.00516053  0.38152167  1
  O  O287  1  0.63769653  -0.01262103  0.60059637  1
  O  O288  1  0.61043367  0.00670590  0.86532756  1
  O  O289  1  0.60993389  0.24649823  0.12962622  1
  O  O290  1  0.64537045  0.24427451  0.35918176  1
  O  O291  1  0.60486937  0.26297747  0.65296795  1
  O  O292  1  0.63159184  0.25166212  0.83958865  1
  O  O293  1  0.65669586  0.49013171  0.11501758  1
  O  O294  1  0.62436748  0.49715627  0.40183028  1
  O  O295  1  0.65173446  0.49418361  0.58456114  1
  O  O296  1  0.60993203  0.49575486  0.89824229  1
  O  O297  1  0.61271361  0.74407839  0.14774171  1
  O  O298  1  0.64998163  0.74455736  0.36274590  1
  O  O299  1  0.62667472  0.74757119  0.63160739  1
  O  O300  1  0.63694631  0.73537480  0.87141762  1
  O  O301  1  0.83675308  0.00246490  0.13485781  1
  O  O302  1  0.89577844  -0.00001925  0.34127229  1
  O  O303  1  0.86633121  -0.00499652  0.65397361  1
  O  O304  1  0.88819593  0.00851911  0.84835983  1
  O  O305  1  0.90135976  0.24494655  0.12147831  1
  O  O306  1  0.83716238  0.24666423  0.39163367  1
  O  O307  1  0.89644733  0.24589305  0.58756836  1
  O  O308  1  0.86970133  0.24164387  0.88574098  1
  O  O309  1  0.85154495  0.49094230  0.14088357  1
  O  O310  1  0.90415543  0.49979599  0.36298049  1
  O  O311  1  0.86500893  0.48116829  0.64698195  1
  O  O312  1  0.89226452  0.47887934  0.84951524  1
  O  O313  1  0.89719124  0.75421778  0.11795549  1
  O  O314  1  0.84405073  0.74548940  0.38247525  1
  O  O315  1  0.89509984  0.73457049  0.60837167  1
  O  O316  1  0.86161368  0.75253619  0.87090378  1
