# generated using pymatgen
data_Mg32Ti42(Bi17O64)3
_symmetry_space_group_name_H-M   'P 1'
_cell_length_a   15.94780818
_cell_length_b   15.95496162
_cell_length_c   15.95839094
_cell_angle_alpha   90.03036702
_cell_angle_beta   89.85810021
_cell_angle_gamma   89.95063203
_symmetry_Int_Tables_number   1
_chemical_formula_structural   Mg32Ti42(Bi17O64)3
_chemical_formula_sum   'Mg32 Ti42 Bi51 O192'
_cell_volume   4060.54485718
_cell_formula_units_Z   1
loop_
 _symmetry_equiv_pos_site_id
 _symmetry_equiv_pos_as_xyz
  1  'x, y, z'
loop_
 _atom_site_type_symbol
 _atom_site_label
 _atom_site_symmetry_multiplicity
 _atom_site_fract_x
 _atom_site_fract_y
 _atom_site_fract_z
 _atom_site_occupancy
  Mg  Mg0  1  0.37569768  0.13334645  0.37470566  1
  Mg  Mg1  1  0.62377561  0.87347152  0.87513828  1
  Mg  Mg2  1  0.36909939  0.62233168  0.37242801  1
  Mg  Mg3  1  0.63318520  0.62630573  0.37632014  1
  Mg  Mg4  1  0.86919494  0.61855885  0.62130901  1
  Mg  Mg5  1  0.37078626  0.13416748  0.12349928  1
  Mg  Mg6  1  0.12926114  0.87216309  0.86426257  1
  Mg  Mg7  1  0.62068801  0.11891502  0.86862957  1
  Mg  Mg8  1  0.87344772  0.87696789  0.62107062  1
  Mg  Mg9  1  0.12409017  0.87741690  0.37689918  1
  Mg  Mg10  1  0.62298090  0.12717614  0.37735988  1
  Mg  Mg11  1  0.86985270  0.12148330  0.87251371  1
  Mg  Mg12  1  0.63079172  0.87184816  0.12618794  1
  Mg  Mg13  1  0.87405796  0.86588362  0.87645375  1
  Mg  Mg14  1  0.12360812  0.12695465  0.62873936  1
  Mg  Mg15  1  0.87964950  0.36574392  0.12078270  1
  Mg  Mg16  1  0.37316019  0.38892177  0.87653005  1
  Mg  Mg17  1  0.87662840  0.38796605  0.87806634  1
  Mg  Mg18  1  0.38792680  0.62422818  0.62739944  1
  Mg  Mg19  1  0.24147761  0.25934791  0.18848795  1
  Mg  Mg20  1  -0.03759997  0.27301467  0.77233582  1
  Mg  Mg21  1  0.74822334  0.45154341  0.05700794  1
  Mg  Mg22  1  0.01261856  0.69449723  0.49581847  1
  Mg  Mg23  1  0.24521464  0.51098624  0.19282930  1
  Mg  Mg24  1  0.49889363  0.55140378  0.77658373  1
  Mg  Mg25  1  0.20130050  0.74066073  0.47191600  1
  Mg  Mg26  1  0.24492458  0.30405522  -0.04128952  1
  Mg  Mg27  1  0.20883295  0.48932492  -0.04902854  1
  Mg  Mg28  1  0.50572996  0.33498732  0.76561300  1
  Mg  Mg29  1  0.29356087  0.55077555  0.50636703  1
  Mg  Mg30  1  0.76599172  0.43355795  0.49449366  1
  Mg  Mg31  1  -0.03401924  0.72511583  0.06094690  1
  Ti  Ti32  1  0.11609622  0.36580030  0.85107152  1
  Ti  Ti33  1  0.62944914  0.37141092  0.37765495  1
  Ti  Ti34  1  0.11807852  0.87898148  0.13350872  1
  Ti  Ti35  1  0.62864346  0.61517348  0.62621015  1
  Ti  Ti36  1  0.87406094  0.60515029  0.39309114  1
  Ti  Ti37  1  0.37978543  0.88175768  0.61085950  1
  Ti  Ti38  1  0.12693110  0.38760887  0.12147237  1
  Ti  Ti39  1  0.62527993  0.63560568  0.88171287  1
  Ti  Ti40  1  0.85689004  0.62514262  0.87486781  1
  Ti  Ti41  1  0.37135587  0.37867212  0.37129802  1
  Ti  Ti42  1  0.12881696  0.13050355  0.86472076  1
  Ti  Ti43  1  0.87378144  0.86943339  0.37310087  1
  Ti  Ti44  1  0.35859377  0.86896389  0.37652547  1
  Ti  Ti45  1  0.37313334  0.13165865  0.88511171  1
  Ti  Ti46  1  0.13475105  0.36725774  0.61961123  1
  Ti  Ti47  1  0.87738324  0.12060019  0.11903147  1
  Ti  Ti48  1  0.63328080  0.63481158  0.12257229  1
  Ti  Ti49  1  0.87249724  0.12539023  0.36862363  1
  Ti  Ti50  1  0.12858288  0.61166767  0.62100142  1
  Ti  Ti51  1  0.62646616  0.86710240  0.36556713  1
  Ti  Ti52  1  0.61253543  0.12728779  0.62721017  1
  Ti  Ti53  1  0.13137166  0.59823834  0.37808393  1
  Ti  Ti54  1  0.14160405  0.36465186  0.37528348  1
  Ti  Ti55  1  0.12964636  0.13242160  0.37848341  1
  Ti  Ti56  1  0.36208169  0.38369772  0.11006731  1
  Ti  Ti57  1  0.61732609  0.37868006  0.61575494  1
  Ti  Ti58  1  0.12484445  0.12482384  0.11946189  1
  Ti  Ti59  1  0.12534871  0.62922349  0.10566737  1
  Ti  Ti60  1  0.87441570  0.36584442  0.63139700  1
  Ti  Ti61  1  0.87650196  0.88176895  0.13894839  1
  Ti  Ti62  1  0.37442144  0.88427955  0.87146553  1
  Ti  Ti63  1  0.37105689  0.88057637  0.12757080  1
  Ti  Ti64  1  0.87875475  0.11808406  0.62809237  1
  Ti  Ti65  1  0.13568560  0.64028440  0.86402180  1
  Ti  Ti66  1  0.11698990  0.87049737  0.62050773  1
  Ti  Ti67  1  0.61656664  0.11735953  0.11713967  1
  Ti  Ti68  1  0.38389655  0.61626457  0.11900074  1
  Ti  Ti69  1  0.62679223  0.87389838  0.61956329  1
  Ti  Ti70  1  0.38053634  0.12209099  0.62858797  1
  Ti  Ti71  1  0.37400729  0.37952191  0.62232799  1
  Ti  Ti72  1  0.88512731  0.35746566  0.38268604  1
  Ti  Ti73  1  0.37717220  0.63686350  0.88301972  1
  Bi  Bi74  1  0.74746060  0.28405050  -0.03759069  1
  Bi  Bi75  1  0.50019740  0.75680525  0.72561452  1
  Bi  Bi76  1  0.49747943  0.51490069  0.47302280  1
  Bi  Bi77  1  0.70705113  0.47623147  0.77770620  1
  Bi  Bi78  1  0.73645636  -0.00175590  -0.01001559  1
  Bi  Bi79  1  0.73863216  0.24633734  0.21290069  1
  Bi  Bi80  1  0.23158938  -0.00633182  0.73374714  1
  Bi  Bi81  1  -0.02187997  0.50461150  0.73984411  1
  Bi  Bi82  1  0.49561937  0.76267599  0.02006805  1
  Bi  Bi83  1  -0.01775402  -0.01629710  0.76935747  1
  Bi  Bi84  1  0.74166020  -0.01203929  0.48567671  1
  Bi  Bi85  1  0.73674252  0.75715170  0.74993043  1
  Bi  Bi86  1  0.00209912  0.23588051  0.52000922  1
  Bi  Bi87  1  0.00538239  0.52895244  -0.03135058  1
  Bi  Bi88  1  0.71482224  0.25462481  0.74476803  1
  Bi  Bi89  1  0.75737974  -0.00232066  0.76224389  1
  Bi  Bi90  1  0.24532486  0.78662239  -0.00856356  1
  Bi  Bi91  1  -0.02305239  0.23869400  -0.02907680  1
  Bi  Bi92  1  -0.03022931  0.74064842  0.73236701  1
  Bi  Bi93  1  0.55384959  0.47165215  0.00856039  1
  Bi  Bi94  1  0.27758070  0.51469108  0.75871206  1
  Bi  Bi95  1  0.48895781  0.25966042  0.47857464  1
  Bi  Bi96  1  -0.02013225  -0.01548737  0.48770687  1
  Bi  Bi97  1  0.74282031  0.21695838  0.50401011  1
  Bi  Bi98  1  0.01216608  0.47199355  0.50661312  1
  Bi  Bi99  1  0.47336239  0.74014702  0.25475395  1
  Bi  Bi100  1  0.02226133  0.74009000  0.28797223  1
  Bi  Bi101  1  0.01700460  0.25459293  0.22584203  1
  Bi  Bi102  1  0.51219900  -0.01319828  -0.01779118  1
  Bi  Bi103  1  0.50832911  -0.01092005  0.47235678  1
  Bi  Bi104  1  0.53987384  0.50959502  0.25103358  1
  Bi  Bi105  1  0.77029703  0.73420120  0.50560877  1
  Bi  Bi106  1  0.72740565  0.00984391  0.24423133  1
  Bi  Bi107  1  0.76741683  0.47378150  0.24744828  1
  Bi  Bi108  1  0.27960123  0.25396905  0.75363259  1
  Bi  Bi109  1  0.53199685  0.26038452  -0.03090805  1
  Bi  Bi110  1  0.01658913  0.01570288  0.26518546  1
  Bi  Bi111  1  0.49258443  0.02879196  0.24903136  1
  Bi  Bi112  1  0.79174321  0.71874576  0.23550513  1
  Bi  Bi113  1  0.00469226  -0.03890867  -0.02128438  1
  Bi  Bi114  1  0.22321961  0.00237110  0.51314591  1
  Bi  Bi115  1  0.25561231  0.74179979  0.70546372  1
  Bi  Bi116  1  0.24609709  0.74116750  0.23611177  1
  Bi  Bi117  1  0.26154622  0.03180942  0.25749192  1
  Bi  Bi118  1  0.49997372  0.73848872  0.48866257  1
  Bi  Bi119  1  -0.02959026  0.51417888  0.20516782  1
  Bi  Bi120  1  0.77559694  0.75578042  0.00720625  1
  Bi  Bi121  1  0.24956199  0.01530833  -0.00792866  1
  Bi  Bi122  1  0.49281964  0.28721548  0.21806864  1
  Bi  Bi123  1  0.51037893  -0.01693373  0.74191039  1
  Bi  Bi124  1  0.26570621  0.23409042  0.51391263  1
  O  O125  1  0.13703602  0.11319262  0.00728650  1
  O  O126  1  0.09858162  0.14391483  0.25766506  1
  O  O127  1  0.12701368  0.10030256  0.49358176  1
  O  O128  1  0.14647748  0.12427707  0.75327916  1
  O  O129  1  0.15413883  0.38893718  0.01040693  1
  O  O130  1  0.11504182  0.34781356  0.26307750  1
  O  O131  1  0.13854776  0.39816190  0.50337771  1
  O  O132  1  0.09239048  0.34647144  0.74264760  1
  O  O133  1  0.13984235  0.59566699  -0.00442542  1
  O  O134  1  0.13039134  0.64615384  0.26544926  1
  O  O135  1  0.10853209  0.60794515  0.50228624  1
  O  O136  1  0.14740814  0.64062068  0.74495607  1
  O  O137  1  0.13467532  0.88573957  0.01129143  1
  O  O138  1  0.12799527  0.83552799  0.25083942  1
  O  O139  1  0.11750713  0.90510647  0.50311988  1
  O  O140  1  0.15116227  0.87577518  0.74089286  1
  O  O141  1  0.35616711  0.11091042  0.00042298  1
  O  O142  1  0.38194671  0.11209461  0.25082199  1
  O  O143  1  0.37840283  0.14657070  0.50198270  1
  O  O144  1  0.36079590  0.13417775  0.75082619  1
  O  O145  1  0.33381538  0.38631904  0.00090884  1
  O  O146  1  0.40437364  0.39084787  0.26056253  1
  O  O147  1  0.36662077  0.34573990  0.50675064  1
  O  O148  1  0.38334770  0.35325191  0.74806418  1
  O  O149  1  0.38257811  0.61753485  -0.00250005  1
  O  O150  1  0.36885760  0.64336987  0.24671967  1
  O  O151  1  0.40519981  0.62639574  0.50211001  1
  O  O152  1  0.34696170  0.63998784  0.75022887  1
  O  O153  1  0.35475545  0.87704021  0.00853196  1
  O  O154  1  0.37416677  0.84682694  0.25336511  1
  O  O155  1  0.39416743  0.88115197  0.49610677  1
  O  O156  1  0.38166127  0.87514501  0.75680337  1
  O  O157  1  0.62633225  0.09682664  -0.00013592  1
  O  O158  1  0.61835835  0.10643005  0.25089942  1
  O  O159  1  0.63749132  0.11764979  0.50839637  1
  O  O160  1  0.63025167  0.14198593  0.74385636  1
  O  O161  1  0.65380719  0.38425622  -0.00141463  1
  O  O162  1  0.60060976  0.36748125  0.26226160  1
  O  O163  1  0.64547967  0.39641529  0.50431819  1
  O  O164  1  0.62380782  0.36431244  0.74217090  1
  O  O165  1  0.60702939  0.62866006  -0.00643705  1
  O  O166  1  0.63445785  0.61901059  0.24140242  1
  O  O167  1  0.59154801  0.62719950  0.50697050  1
  O  O168  1  0.66019803  0.63838127  0.74565227  1
  O  O169  1  0.62859390  0.90411471  -0.00166607  1
  O  O170  1  0.64528326  0.88034844  0.25522488  1
  O  O171  1  0.60935294  0.88361091  0.50355218  1
  O  O172  1  0.60860327  0.87392631  0.74874748  1
  O  O173  1  0.87552850  0.13964874  0.00446932  1
  O  O174  1  0.87991723  0.10030094  0.25614071  1
  O  O175  1  0.87396782  0.15583762  0.50287732  1
  O  O176  1  0.87485080  0.08849509  0.74627552  1
  O  O177  1  0.84276575  0.38090877  0.00165914  1
  O  O178  1  0.88515231  0.40429368  0.27170201  1
  O  O179  1  0.85966997  0.34938385  0.50515595  1
  O  O180  1  0.90509742  0.38787830  0.74913960  1
  O  O181  1  0.88355215  0.65851064  -0.01568838  1
  O  O182  1  0.85948406  0.60000729  0.27127921  1
  O  O183  1  0.89127013  0.66094515  0.50106445  1
  O  O184  1  0.89070164  0.61475668  0.74923718  1
  O  O185  1  0.89624633  0.83575073  0.01002963  1
  O  O186  1  0.85355074  0.89881082  0.25341663  1
  O  O187  1  0.89688414  0.86564881  0.49280776  1
  O  O188  1  0.86818027  0.90655814  0.74911753  1
  O  O189  1  0.00055204  0.13017249  0.12651439  1
  O  O190  1  -0.00466925  0.09940297  0.38383771  1
  O  O191  1  -0.00076394  0.13291562  0.61606408  1
  O  O192  1  0.01024659  0.16362190  0.86122094  1
  O  O193  1  0.00482948  0.38697726  0.13030713  1
  O  O194  1  -0.00102384  0.37853561  0.40118566  1
  O  O195  1  0.00346674  0.36310536  0.59493343  1
  O  O196  1  0.00435491  0.35005836  0.88887856  1
  O  O197  1  0.00453378  0.60914820  0.10694861  1
  O  O198  1  -0.00133929  0.61207042  0.37703787  1
  O  O199  1  0.01461008  0.65991109  0.62629429  1
  O  O200  1  0.01904316  0.63629919  0.88031913  1
  O  O201  1  0.00338892  0.88758925  0.13888457  1
  O  O202  1  -0.00772824  0.90395522  0.35953459  1
  O  O203  1  0.00615038  0.85897801  0.64365971  1
  O  O204  1  0.00352609  0.87041790  0.86569874  1
  O  O205  1  0.23946979  0.13790403  0.15404823  1
  O  O206  1  0.24554335  0.13516601  0.36249987  1
  O  O207  1  0.25564609  0.10996457  0.60662852  1
  O  O208  1  0.24756768  0.09001534  0.87775046  1
  O  O209  1  0.24446413  0.38260661  0.16178511  1
  O  O210  1  0.25582129  0.34980052  0.36777899  1
  O  O211  1  0.24645997  0.37879830  0.64784764  1
  O  O212  1  0.24055487  0.39872193  0.86029113  1
  O  O213  1  0.24372779  0.63404195  0.13730988  1
  O  O214  1  0.24350056  0.63373229  0.41181880  1
  O  O215  1  0.24924860  0.62142479  0.60808093  1
  O  O216  1  0.25167075  0.58640205  0.87801280  1
  O  O217  1  0.24698251  0.84099464  0.13395658  1
  O  O218  1  0.25142705  0.83247369  0.39639828  1
  O  O219  1  0.26402266  0.89826344  0.62115349  1
  O  O220  1  0.25307440  0.89610040  0.88865705  1
  O  O221  1  0.50029711  0.10745760  0.12425735  1
  O  O222  1  0.49813722  0.09058743  0.37650029  1
  O  O223  1  0.49921524  0.14414938  0.62464536  1
  O  O224  1  0.48817231  0.15594702  0.88888258  1
  O  O225  1  0.48465732  0.37937048  0.10447074  1
  O  O226  1  0.50100220  0.38443523  0.40774990  1
  O  O227  1  0.49930320  0.36765560  0.62712153  1
  O  O228  1  0.49323910  0.35806451  0.88887736  1
  O  O229  1  0.49796374  0.60478669  0.13289783  1
  O  O230  1  0.49683756  0.59461873  0.35635096  1
  O  O231  1  0.50630835  0.62332136  0.67163651  1
  O  O232  1  0.49610734  0.65200716  0.85567629  1
  O  O233  1  0.49106330  0.88080089  0.10606071  1
  O  O234  1  0.50520150  0.90228252  0.36683129  1
  O  O235  1  0.49825439  0.87608561  0.63536293  1
  O  O236  1  0.49030017  0.86154691  0.90546729  1
  O  O237  1  0.75292937  0.12276430  0.14028246  1
  O  O238  1  0.75374314  0.13562717  0.38235814  1
  O  O239  1  0.75737340  0.13805258  0.62338824  1
  O  O240  1  0.74746716  0.08517943  0.87259461  1
  O  O241  1  0.75375596  0.36970887  0.15659299  1
  O  O242  1  0.75051049  0.37195753  0.37364743  1
  O  O243  1  0.75903424  0.38626351  0.63370948  1
  O  O244  1  0.75542779  0.36965941  0.85198812  1
  O  O245  1  0.74692984  0.66191678  0.11172927  1
  O  O246  1  0.75645166  0.64777902  0.40008328  1
  O  O247  1  0.74323099  0.62955177  0.59499166  1
  O  O248  1  0.74672863  0.59863486  0.88585151  1
  O  O249  1  0.76195751  0.84745974  0.11381969  1
  O  O250  1  0.74920188  0.86675652  0.40197080  1
  O  O251  1  0.74189350  0.88134085  0.61602414  1
  O  O252  1  0.75102465  0.90874544  0.87606354  1
  O  O253  1  0.13269202  -0.00096037  0.14824042  1
  O  O254  1  0.13404811  0.00396344  0.34503018  1
  O  O255  1  0.13583484  -0.00192212  0.63302840  1
  O  O256  1  0.09475538  0.00973521  0.87727346  1
  O  O257  1  0.12299576  0.25430571  0.12712891  1
  O  O258  1  0.11539923  0.24801485  0.40559521  1
  O  O259  1  0.13606027  0.25141751  0.59874480  1
  O  O260  1  0.15284791  0.25314204  0.88868388  1
  O  O261  1  0.13018440  0.50400349  0.14851050  1
  O  O262  1  0.14229110  0.49057269  0.35822407  1
  O  O263  1  0.10742603  0.50066571  0.63889858  1
  O  O264  1  0.10225463  0.48733685  0.87088401  1
  O  O265  1  0.09880056  0.74196222  0.09882954  1
  O  O266  1  0.08960342  0.75220733  0.41002223  1
  O  O267  1  0.15861124  0.76092440  0.59242915  1
  O  O268  1  0.15523606  0.74835705  0.88186524  1
  O  O269  1  0.35276906  -0.00917064  0.14095679  1
  O  O270  1  0.34316382  -0.01583410  0.36997499  1
  O  O271  1  0.39483501  0.00570787  0.62583021  1
  O  O272  1  0.39819116  0.00061425  0.87491144  1
  O  O273  1  0.36107321  0.26496833  0.13934087  1
  O  O274  1  0.41024831  0.25658825  0.36678554  1
  O  O275  1  0.34579391  0.24716339  0.62886371  1
  O  O276  1  0.33656533  0.24615678  0.88693869  1
  O  O277  1  0.35437147  0.50381354  0.13546497  1
  O  O278  1  0.36081123  0.49266899  0.41121842  1
  O  O279  1  0.36643373  0.49413876  0.61221154  1
  O  O280  1  0.39455692  0.51004563  0.83491064  1
  O  O281  1  0.39398838  0.74322041  0.11745079  1
  O  O282  1  0.40994566  0.74912849  0.37959772  1
  O  O283  1  0.38049945  0.75839720  0.62995009  1
  O  O284  1  0.35029341  0.75003688  0.88821084  1
  O  O285  1  0.64984131  -0.00327651  0.13310451  1
  O  O286  1  0.64318288  -0.00477930  0.38701793  1
  O  O287  1  0.61143288  0.00603001  0.64040204  1
  O  O288  1  0.58466449  -0.00056807  0.86167679  1
  O  O289  1  0.62484289  0.23494015  0.12859652  1
  O  O290  1  0.61140576  0.25400289  0.39713332  1
  O  O291  1  0.63780286  0.25773457  0.61645314  1
  O  O292  1  0.63715157  0.24317528  0.88031460  1
  O  O293  1  0.64456773  0.51190985  0.10764352  1
  O  O294  1  0.62609656  0.49663860  0.36575432  1
  O  O295  1  0.62356807  0.50072495  0.64197396  1
  O  O296  1  0.59648259  0.51655314  0.84932130  1
  O  O297  1  0.59697028  0.74904349  0.11753469  1
  O  O298  1  0.59553695  0.75221957  0.37836622  1
  O  O299  1  0.61186085  0.75352037  0.62834560  1
  O  O300  1  0.65254712  0.74998391  0.87214570  1
  O  O301  1  0.87294639  -0.00330992  0.10731947  1
  O  O302  1  0.85825885  0.00423749  0.40456974  1
  O  O303  1  0.87995242  0.00554583  0.59541010  1
  O  O304  1  0.90956345  0.00127999  0.88776413  1
  O  O305  1  0.86873402  0.24200362  0.14886380  1
  O  O306  1  0.89080799  0.24746211  0.35576704  1
  O  O307  1  0.89098508  0.25270009  0.66235464  1
  O  O308  1  0.87421332  0.24971816  0.87317491  1
  O  O309  1  0.85304991  0.49494131  0.13491743  1
  O  O310  1  0.85642156  0.49955639  0.42783436  1
  O  O311  1  0.90488713  0.49534551  0.61818831  1
  O  O312  1  0.90213998  0.51100936  0.87514572  1
  O  O313  1  0.89893261  0.75646147  0.16309951  1
  O  O314  1  0.88530662  0.75634568  0.35327596  1
  O  O315  1  0.86190584  0.75174670  0.65195973  1
  O  O316  1  0.84562058  0.74468885  0.84142458  1
