# generated using pymatgen
data_Mg32Ti42(Bi17O64)3
_symmetry_space_group_name_H-M   'P 1'
_cell_length_a   15.95341582
_cell_length_b   15.93870546
_cell_length_c   15.91608416
_cell_angle_alpha   89.90427262
_cell_angle_beta   90.21689154
_cell_angle_gamma   89.97213119
_symmetry_Int_Tables_number   1
_chemical_formula_structural   Mg32Ti42(Bi17O64)3
_chemical_formula_sum   'Mg32 Ti42 Bi51 O192'
_cell_volume   4047.05574544
_cell_formula_units_Z   1
loop_
 _symmetry_equiv_pos_site_id
 _symmetry_equiv_pos_as_xyz
  1  'x, y, z'
loop_
 _atom_site_type_symbol
 _atom_site_label
 _atom_site_symmetry_multiplicity
 _atom_site_fract_x
 _atom_site_fract_y
 _atom_site_fract_z
 _atom_site_occupancy
  Mg  Mg0  1  0.11951068  0.88128721  0.63080267  1
  Mg  Mg1  1  0.62868844  0.38294302  0.62751101  1
  Mg  Mg2  1  0.36923249  0.38014452  0.62121458  1
  Mg  Mg3  1  0.37582893  0.11929890  0.37983066  1
  Mg  Mg4  1  0.87439819  0.12262502  0.12066732  1
  Mg  Mg5  1  0.62937110  0.12557479  0.37756541  1
  Mg  Mg6  1  0.11965521  0.37943949  0.37899155  1
  Mg  Mg7  1  0.36972947  0.63266194  0.37501971  1
  Mg  Mg8  1  0.11959781  0.37999266  0.87407426  1
  Mg  Mg9  1  0.62583362  0.62569303  0.87437241  1
  Mg  Mg10  1  0.85836279  0.62539022  0.11676763  1
  Mg  Mg11  1  0.36864078  0.12458108  0.12264484  1
  Mg  Mg12  1  0.88475825  0.63088872  0.37520303  1
  Mg  Mg13  1  0.37087664  0.62378163  0.87440636  1
  Mg  Mg14  1  0.61862619  0.87681567  0.62668100  1
  Mg  Mg15  1  0.38256397  0.63145956  0.62317448  1
  Mg  Mg16  1  0.37821147  0.37429501  0.87669444  1
  Mg  Mg17  1  0.11532469  0.87203175  0.12908273  1
  Mg  Mg18  1  0.12204853  0.61178032  0.12964012  1
  Mg  Mg19  1  -0.01343672  0.29946645  0.75169017  1
  Mg  Mg20  1  0.44753245  0.69974652  0.02628930  1
  Mg  Mg21  1  0.03020504  0.73671794  0.23350059  1
  Mg  Mg22  1  0.32117059  0.53673812  0.22898784  1
  Mg  Mg23  1  0.46369388  0.24479377  0.02086451  1
  Mg  Mg24  1  0.44829697  0.74117783  0.20108459  1
  Mg  Mg25  1  0.04538528  0.50276842  0.49874987  1
  Mg  Mg26  1  0.71243874  0.52657474  -0.01451673  1
  Mg  Mg27  1  -0.00557791  -0.04675451  0.45952367  1
  Mg  Mg28  1  0.26696721  0.02018840  -0.04448923  1
  Mg  Mg29  1  0.75739028  0.75225650  -0.00767407  1
  Mg  Mg30  1  0.55102115  0.71567386  0.42530213  1
  Mg  Mg31  1  -0.02280343  0.54952853  0.23629541  1
  Ti  Ti32  1  0.38118653  0.13407030  0.87462607  1
  Ti  Ti33  1  0.12441678  0.38697939  0.13787060  1
  Ti  Ti34  1  0.88044957  0.62151822  0.61165860  1
  Ti  Ti35  1  0.86869531  0.87448024  0.11867175  1
  Ti  Ti36  1  0.87069376  0.37710392  0.12466577  1
  Ti  Ti37  1  0.14128194  0.11202198  0.11322986  1
  Ti  Ti38  1  0.61403635  0.87558662  0.12106676  1
  Ti  Ti39  1  0.87730015  0.38367639  0.60988330  1
  Ti  Ti40  1  0.88077267  0.86769801  0.62726014  1
  Ti  Ti41  1  0.63121071  0.87992687  0.88369763  1
  Ti  Ti42  1  0.87973920  0.13016028  0.64018053  1
  Ti  Ti43  1  0.63822382  0.12988060  0.62880501  1
  Ti  Ti44  1  0.11710170  0.85948335  0.35924236  1
  Ti  Ti45  1  0.61374139  0.62850095  0.63223086  1
  Ti  Ti46  1  0.13441943  0.12928725  0.87455586  1
  Ti  Ti47  1  0.63666651  0.37367994  0.12385627  1
  Ti  Ti48  1  0.11772914  0.37778152  0.62424337  1
  Ti  Ti49  1  0.36522734  0.12439121  0.61866083  1
  Ti  Ti50  1  0.38495636  0.36434156  0.12779645  1
  Ti  Ti51  1  0.12199745  0.89203707  0.87687364  1
  Ti  Ti52  1  0.86873611  0.11752575  0.38715710  1
  Ti  Ti53  1  0.37021785  0.87613146  0.11163544  1
  Ti  Ti54  1  0.62118216  0.37564432  0.35858512  1
  Ti  Ti55  1  0.11378386  0.62208378  0.36577875  1
  Ti  Ti56  1  0.88301793  0.39559495  0.37029398  1
  Ti  Ti57  1  0.39824496  0.85863355  0.36952855  1
  Ti  Ti58  1  0.89162599  0.12581712  0.87292516  1
  Ti  Ti59  1  0.62710216  0.87970266  0.36690575  1
  Ti  Ti60  1  0.87423048  0.87178076  0.35818781  1
  Ti  Ti61  1  0.62490258  0.13650936  0.11700648  1
  Ti  Ti62  1  0.12415803  0.62499474  0.62617778  1
  Ti  Ti63  1  0.63581244  0.64468711  0.10485440  1
  Ti  Ti64  1  0.87743990  0.38094823  0.88099901  1
  Ti  Ti65  1  0.13175976  0.61300888  0.89276938  1
  Ti  Ti66  1  0.62757315  0.37838945  0.87813832  1
  Ti  Ti67  1  0.12305280  0.11861840  0.64528533  1
  Ti  Ti68  1  0.38015496  0.87747166  0.60766934  1
  Ti  Ti69  1  0.87511492  0.86439547  0.87999221  1
  Ti  Ti70  1  0.39174757  0.88176634  0.88238258  1
  Ti  Ti71  1  0.35663162  0.37663330  0.37238380  1
  Ti  Ti72  1  0.86544616  0.62400024  0.87953330  1
  Ti  Ti73  1  0.62674831  0.14356188  0.87098667  1
  Bi  Bi74  1  0.73351024  0.75359610  0.75239313  1
  Bi  Bi75  1  0.74879374  0.53167487  0.25950675  1
  Bi  Bi76  1  0.49441676  0.74617852  0.78759825  1
  Bi  Bi77  1  -0.00791313  -0.01028889  0.75297314  1
  Bi  Bi78  1  -0.00019500  0.00701624  0.02663598  1
  Bi  Bi79  1  0.25042825  0.75639287  0.48054593  1
  Bi  Bi80  1  0.48793304  0.50196612  0.75704787  1
  Bi  Bi81  1  0.50007086  0.02671914  0.00183572  1
  Bi  Bi82  1  0.77256257  0.23990038  -0.01802478  1
  Bi  Bi83  1  0.75574956  0.27595967  0.74750583  1
  Bi  Bi84  1  0.28972091  0.52052209  0.03034339  1
  Bi  Bi85  1  0.21374705  0.22027839  0.28324508  1
  Bi  Bi86  1  0.74415884  -0.00830217  0.49908260  1
  Bi  Bi87  1  -0.00092822  0.26467549  0.25917358  1
  Bi  Bi88  1  0.01366988  0.74128369  0.50614535  1
  Bi  Bi89  1  0.01736506  0.03916266  0.26793475  1
  Bi  Bi90  1  0.77164691  0.24947780  0.24718797  1
  Bi  Bi91  1  0.71914617  0.52920313  0.48913308  1
  Bi  Bi92  1  0.50452691  0.01108116  0.72796017  1
  Bi  Bi93  1  0.21947078  0.22421195  0.50134535  1
  Bi  Bi94  1  0.25890932  0.75762503  0.71977479  1
  Bi  Bi95  1  0.47847175  0.24871388  0.28206819  1
  Bi  Bi96  1  0.27305688  -0.00626712  0.25306991  1
  Bi  Bi97  1  0.48172976  0.25955259  0.72627203  1
  Bi  Bi98  1  0.74387621  0.02201240  0.24386767  1
  Bi  Bi99  1  0.50308559  0.51998616  0.46464565  1
  Bi  Bi100  1  0.50756503  0.03004619  0.49227553  1
  Bi  Bi101  1  -0.00972664  0.49818841  0.02424173  1
  Bi  Bi102  1  0.00354573  0.51362354  0.75402519  1
  Bi  Bi103  1  0.21795504  0.78186722  -0.00605167  1
  Bi  Bi104  1  0.26619665  -0.02328989  0.74642110  1
  Bi  Bi105  1  0.74903493  0.74710015  0.27331780  1
  Bi  Bi106  1  0.25597119  0.72321029  0.20700818  1
  Bi  Bi107  1  0.24377271  0.29305151  0.00532325  1
  Bi  Bi108  1  0.26984381  0.51434971  0.48594691  1
  Bi  Bi109  1  0.74598022  0.51178187  0.74665152  1
  Bi  Bi110  1  0.49773369  0.01754965  0.24773033  1
  Bi  Bi111  1  0.74858864  0.00605305  0.00053996  1
  Bi  Bi112  1  -0.00778141  0.22261233  0.51111913  1
  Bi  Bi113  1  0.74057955  0.77077419  0.51209469  1
  Bi  Bi114  1  0.74372005  0.28476275  0.47978395  1
  Bi  Bi115  1  0.50634326  0.28732372  0.51050276  1
  Bi  Bi116  1  0.26981302  0.51929990  0.74018504  1
  Bi  Bi117  1  0.02894277  0.74004866  0.77326288  1
  Bi  Bi118  1  0.52558417  0.55291739  0.24301497  1
  Bi  Bi119  1  -0.01087287  0.73638368  0.03470324  1
  Bi  Bi120  1  0.24073010  0.28082502  0.75425499  1
  Bi  Bi121  1  0.20703641  -0.00327818  0.47158069  1
  Bi  Bi122  1  0.74467217  -0.01798886  0.74517439  1
  Bi  Bi123  1  0.02199481  0.25414881  0.01331252  1
  Bi  Bi124  1  0.50890167  0.48631957  0.01580158  1
  O  O125  1  0.15854713  0.08029836  -0.00019067  1
  O  O126  1  0.10565465  0.14528416  0.23577979  1
  O  O127  1  0.14047760  0.11007362  0.51513288  1
  O  O128  1  0.11708223  0.15168864  0.75914930  1
  O  O129  1  0.11834602  0.37941565  0.01056696  1
  O  O130  1  0.11862298  0.33852528  0.24951064  1
  O  O131  1  0.11506635  0.40026029  0.50905357  1
  O  O132  1  0.11179403  0.33954305  0.74729554  1
  O  O133  1  0.09949457  0.59019764  0.00226438  1
  O  O134  1  0.14223502  0.64994489  0.25734233  1
  O  O135  1  0.08690006  0.61919828  0.50760240  1
  O  O136  1  0.13904710  0.65015563  0.74567300  1
  O  O137  1  0.10867572  0.87318827  -0.00298021  1
  O  O138  1  0.11951891  0.83178104  0.25157034  1
  O  O139  1  0.10344785  0.91013694  0.50626509  1
  O  O140  1  0.14145679  0.85040795  0.76593948  1
  O  O141  1  0.36746040  0.08810806  -0.00380634  1
  O  O142  1  0.41143625  0.13084652  0.24799938  1
  O  O143  1  0.35878376  0.09798804  0.50670033  1
  O  O144  1  0.39648045  0.14630234  0.75539610  1
  O  O145  1  0.35935339  0.39476338  0.00126277  1
  O  O146  1  0.38611414  0.35016943  0.24502458  1
  O  O147  1  0.37632940  0.39572403  0.49078758  1
  O  O148  1  0.37771024  0.34058959  0.75175796  1
  O  O149  1  0.40012501  0.59130001  -0.00698865  1
  O  O150  1  0.36940993  0.65140555  0.25191953  1
  O  O151  1  0.38521797  0.58949668  0.50131425  1
  O  O152  1  0.34022456  0.64555055  0.74981177  1
  O  O153  1  0.39156503  0.90345685  0.00146342  1
  O  O154  1  0.37966038  0.83755694  0.25617158  1
  O  O155  1  0.38493845  0.89704041  0.49803638  1
  O  O156  1  0.34867517  0.85476170  0.76923095  1
  O  O157  1  0.63664898  0.10149476  -0.00499485  1
  O  O158  1  0.62960898  0.11935639  0.24033554  1
  O  O159  1  0.63568698  0.09024504  0.50956792  1
  O  O160  1  0.61184159  0.14154383  0.75159933  1
  O  O161  1  0.64230534  0.40754522  0.00225702  1
  O  O162  1  0.62018024  0.35378206  0.24407910  1
  O  O163  1  0.62193616  0.37913735  0.49446980  1
  O  O164  1  0.63844610  0.36042750  0.75740938  1
  O  O165  1  0.60130049  0.59825252  -0.00276967  1
  O  O166  1  0.64582698  0.62676761  0.23251353  1
  O  O167  1  0.60032800  0.61873082  0.50568402  1
  O  O168  1  0.66172963  0.62752876  0.74673114  1
  O  O169  1  0.61162565  0.89252590  -0.00203103  1
  O  O170  1  0.64265302  0.86629876  0.24919985  1
  O  O171  1  0.64105423  0.88890064  0.49881743  1
  O  O172  1  0.65682379  0.87173816  0.75416770  1
  O  O173  1  0.85245170  0.10978075  -0.00794418  1
  O  O174  1  0.84574271  0.12499912  0.24869895  1
  O  O175  1  0.88282705  0.11660868  0.50270764  1
  O  O176  1  0.89785019  0.16770105  0.75248687  1
  O  O177  1  0.87348343  0.38709921  0.00669918  1
  O  O178  1  0.87209673  0.34908542  0.25380175  1
  O  O179  1  0.87815265  0.39792504  0.49492986  1
  O  O180  1  0.87005699  0.35638045  0.75632646  1
  O  O181  1  0.90875493  0.60685102  -0.00167883  1
  O  O182  1  0.83747700  0.63646447  0.24218959  1
  O  O183  1  0.91857083  0.61731006  0.50379592  1
  O  O184  1  0.83605720  0.62585017  0.76163562  1
  O  O185  1  0.88914613  0.90150968  -0.00402535  1
  O  O186  1  0.85372362  0.86007928  0.24565505  1
  O  O187  1  0.90100818  0.88910946  0.51481107  1
  O  O188  1  0.84478648  0.86737860  0.76138122  1
  O  O189  1  0.00403968  0.13339121  0.09246335  1
  O  O190  1  -0.01817376  0.14266225  0.35911689  1
  O  O191  1  0.00461462  0.13491891  0.61890774  1
  O  O192  1  0.00360672  0.11671748  0.89705952  1
  O  O193  1  -0.00369325  0.34193897  0.12878578  1
  O  O194  1  -0.00868304  0.34803997  0.37406374  1
  O  O195  1  -0.00612626  0.36969743  0.64008151  1
  O  O196  1  -0.00791908  0.37221949  0.86537515  1
  O  O197  1  -0.00594888  0.64827940  0.14837455  1
  O  O198  1  0.00108219  0.64850152  0.33001502  1
  O  O199  1  -0.00774314  0.63283494  0.66441417  1
  O  O200  1  -0.00699703  0.62067239  0.84621741  1
  O  O201  1  -0.01133938  0.83072359  0.13840988  1
  O  O202  1  -0.00653761  0.85339327  0.37291785  1
  O  O203  1  -0.00596026  0.87808817  0.66768811  1
  O  O204  1  -0.00455696  0.88221916  0.85601943  1
  O  O205  1  0.24935802  0.09986702  0.15868808  1
  O  O206  1  0.25437660  0.09710451  0.34704965  1
  O  O207  1  0.25011266  0.13402320  0.64251658  1
  O  O208  1  0.25527174  0.11924177  0.86634133  1
  O  O209  1  0.24145190  0.38551039  0.12581379  1
  O  O210  1  0.24654858  0.36906932  0.37363258  1
  O  O211  1  0.23978740  0.38140933  0.64786576  1
  O  O212  1  0.24674107  0.36037282  0.86504200  1
  O  O213  1  0.24798588  0.59701555  0.14299738  1
  O  O214  1  0.23935277  0.63032283  0.40857184  1
  O  O215  1  0.23843721  0.60464703  0.60320166  1
  O  O216  1  0.24433574  0.61956713  0.90769167  1
  O  O217  1  0.25412097  0.88044879  0.11138452  1
  O  O218  1  0.23731661  0.86789922  0.38629563  1
  O  O219  1  0.25317782  0.88699888  0.63014051  1
  O  O220  1  0.24408009  0.89911377  0.90571015  1
  O  O221  1  0.50537809  0.14237150  0.08825456  1
  O  O222  1  0.50310647  0.13450884  0.40327174  1
  O  O223  1  0.49859457  0.10330435  0.61664001  1
  O  O224  1  0.50315033  0.10518104  0.88621653  1
  O  O225  1  0.49817479  0.34600369  0.09442709  1
  O  O226  1  0.50358382  0.36424513  0.37542572  1
  O  O227  1  0.50042532  0.36851116  0.62439611  1
  O  O228  1  0.51264180  0.40681852  0.87785810  1
  O  O229  1  0.51555839  0.65740196  0.13389231  1
  O  O230  1  0.49565547  0.62230863  0.37198276  1
  O  O231  1  0.50510319  0.63508742  0.65736809  1
  O  O232  1  0.50152032  0.61644952  0.83817242  1
  O  O233  1  0.50608420  0.84201739  0.13531172  1
  O  O234  1  0.51273873  0.83232942  0.37930866  1
  O  O235  1  0.49316808  0.88905031  0.64643330  1
  O  O236  1  0.50546058  0.88745693  0.85525391  1
  O  O237  1  0.74243533  0.08973734  0.11835343  1
  O  O238  1  0.75017004  0.08284318  0.37718148  1
  O  O239  1  0.75544885  0.13236857  0.63799064  1
  O  O240  1  0.74577019  0.15454834  0.86555681  1
  O  O241  1  0.75032099  0.39092104  0.13969683  1
  O  O242  1  0.75312242  0.38978825  0.38108992  1
  O  O243  1  0.75850388  0.36737602  0.62889531  1
  O  O244  1  0.75437398  0.34403373  0.87766200  1
  O  O245  1  0.73934869  0.58531597  0.09569211  1
  O  O246  1  0.76044688  0.59955489  0.38318380  1
  O  O247  1  0.75971188  0.62692962  0.57891360  1
  O  O248  1  0.75530486  0.64191173  0.92096246  1
  O  O249  1  0.75343963  0.90521848  0.11196255  1
  O  O250  1  0.75572276  0.90327108  0.38482350  1
  O  O251  1  0.76152223  0.89178614  0.61578200  1
  O  O252  1  0.75009377  0.84923119  0.90672860  1
  O  O253  1  0.09659296  -0.00178313  0.14040160  1
  O  O254  1  0.10739652  -0.01612814  0.36108335  1
  O  O255  1  0.11884478  0.00721642  0.66430983  1
  O  O256  1  0.11921875  0.00239074  0.85334829  1
  O  O257  1  0.14071370  0.23321628  0.09350315  1
  O  O258  1  0.13724830  0.24381486  0.39537160  1
  O  O259  1  0.12216526  0.25413901  0.59335740  1
  O  O260  1  0.12732531  0.23846866  0.91051420  1
  O  O261  1  0.08316343  0.49250665  0.15672512  1
  O  O262  1  0.10066651  0.50902893  0.37893405  1
  O  O263  1  0.09794940  0.50448559  0.63765575  1
  O  O264  1  0.11725545  0.50486142  0.84227072  1
  O  O265  1  0.14118640  0.74016196  0.10262356  1
  O  O266  1  0.11950823  0.74854310  0.41210625  1
  O  O267  1  0.11612824  0.74929661  0.60615010  1
  O  O268  1  0.11176079  0.73579443  0.89574231  1
  O  O269  1  0.38752927  -0.01110591  0.15915221  1
  O  O270  1  0.38881689  -0.01698525  0.34560625  1
  O  O271  1  0.37171747  0.00129344  0.65935810  1
  O  O272  1  0.36992062  -0.00352253  0.85342016  1
  O  O273  1  0.35870645  0.24978697  0.09674325  1
  O  O274  1  0.37536121  0.24984157  0.37475207  1
  O  O275  1  0.39325288  0.24129548  0.61070929  1
  O  O276  1  0.39689882  0.24232953  0.91151101  1
  O  O277  1  0.38751157  0.48673040  0.13679782  1
  O  O278  1  0.35456361  0.49881982  0.34756430  1
  O  O279  1  0.37709753  0.50303318  0.65805749  1
  O  O280  1  0.37152160  0.49830921  0.83343057  1
  O  O281  1  0.36582540  0.75542741  0.10193043  1
  O  O282  1  0.36675398  0.75275557  0.41027069  1
  O  O283  1  0.35974054  0.75913983  0.61393984  1
  O  O284  1  0.40967574  0.75362768  0.90420800  1
  O  O285  1  0.59393459  -0.00816256  0.13182102  1
  O  O286  1  0.59453928  -0.00857669  0.36733975  1
  O  O287  1  0.62847853  0.00494436  0.65451427  1
  O  O288  1  0.65572650  -0.00466730  0.86192668  1
  O  O289  1  0.64775722  0.24735424  0.11063257  1
  O  O290  1  0.64884849  0.25123100  0.38400023  1
  O  O291  1  0.61579907  0.24156548  0.60189505  1
  O  O292  1  0.60761155  0.25350281  0.89799896  1
  O  O293  1  0.59361970  0.48623247  0.13768188  1
  O  O294  1  0.61451432  0.49459538  0.35235814  1
  O  O295  1  0.63524466  0.50990967  0.63701669  1
  O  O296  1  0.66604740  0.49782424  0.86522751  1
  O  O297  1  0.66541891  0.75281080  0.08629702  1
  O  O298  1  0.66094042  0.75699975  0.39092500  1
  O  O299  1  0.64886651  0.74952105  0.62529130  1
  O  O300  1  0.61576307  0.75321503  0.85767740  1
  O  O301  1  0.90795973  -0.00751930  0.13227617  1
  O  O302  1  0.90607354  -0.00596357  0.37260352  1
  O  O303  1  0.88403580  0.01399081  0.65532135  1
  O  O304  1  0.86899155  0.01141073  0.84997965  1
  O  O305  1  0.84718612  0.25046255  0.12148836  1
  O  O306  1  0.83741925  0.23805707  0.38087081  1
  O  O307  1  0.88475982  0.25436621  0.59672310  1
  O  O308  1  0.88570593  0.24887676  0.90658631  1
  O  O309  1  0.90368939  0.49297736  0.14291179  1
  O  O310  1  0.90271848  0.50047986  0.33560569  1
  O  O311  1  0.87519921  0.50357025  0.63712089  1
  O  O312  1  0.85985524  0.49783037  0.86948906  1
  O  O313  1  0.85132228  0.75513280  0.07918876  1
  O  O314  1  0.84434324  0.75763932  0.38392049  1
  O  O315  1  0.86989088  0.75077491  0.61933264  1
  O  O316  1  0.88728034  0.74938718  0.89163201  1
