# generated using pymatgen
data_Mg32Ti42(Bi17O64)3
_symmetry_space_group_name_H-M   'P 1'
_cell_length_a   15.95055792
_cell_length_b   15.95525011
_cell_length_c   15.99293993
_cell_angle_alpha   89.87568001
_cell_angle_beta   89.83158196
_cell_angle_gamma   90.01335550
_symmetry_Int_Tables_number   1
_chemical_formula_structural   Mg32Ti42(Bi17O64)3
_chemical_formula_sum   'Mg32 Ti42 Bi51 O192'
_cell_volume   4070.09822021
_cell_formula_units_Z   1
loop_
 _symmetry_equiv_pos_site_id
 _symmetry_equiv_pos_as_xyz
  1  'x, y, z'
loop_
 _atom_site_type_symbol
 _atom_site_label
 _atom_site_symmetry_multiplicity
 _atom_site_fract_x
 _atom_site_fract_y
 _atom_site_fract_z
 _atom_site_occupancy
  Mg  Mg0  1  0.11739129  0.12645126  0.62484350  1
  Mg  Mg1  1  0.11768280  0.61408487  0.87985965  1
  Mg  Mg2  1  0.62557470  0.62793632  0.36603039  1
  Mg  Mg3  1  0.37029927  0.62163480  0.86722466  1
  Mg  Mg4  1  0.37429175  0.37311027  0.37218656  1
  Mg  Mg5  1  0.36716774  0.37705047  0.62828649  1
  Mg  Mg6  1  0.87692519  0.61295377  0.38306585  1
  Mg  Mg7  1  0.11776951  0.61295984  0.35751976  1
  Mg  Mg8  1  0.37342564  0.87483657  0.12357752  1
  Mg  Mg9  1  0.63544288  0.87383320  0.37233589  1
  Mg  Mg10  1  0.87462514  0.87460590  0.88654940  1
  Mg  Mg11  1  0.37911433  0.11943463  0.62228246  1
  Mg  Mg12  1  0.12526641  0.61785264  0.12548825  1
  Mg  Mg13  1  0.37596111  0.62672229  0.36761237  1
  Mg  Mg14  1  0.89305647  0.38993005  0.59671909  1
  Mg  Mg15  1  0.36220889  0.87802962  0.38782594  1
  Mg  Mg16  1  0.12727983  0.61333245  0.62832167  1
  Mg  Mg17  1  0.12170036  0.13993689  0.36485522  1
  Mg  Mg18  1  0.62950614  0.11784714  0.62092320  1
  Mg  Mg19  1  0.00107293  0.48732566  0.44902672  1
  Mg  Mg20  1  0.20606291  0.52529028  0.76052501  1
  Mg  Mg21  1  -0.02187542  -0.05626798  0.75344651  1
  Mg  Mg22  1  -0.02039694  0.07144429  0.19288476  1
  Mg  Mg23  1  0.24396584  0.69563949  0.45981010  1
  Mg  Mg24  1  0.48368097  0.77717773  0.28797051  1
  Mg  Mg25  1  0.01185787  0.04660685  0.47628081  1
  Mg  Mg26  1  -0.00886950  0.24631243  0.23839485  1
  Mg  Mg27  1  0.69248586  0.47140360  0.51635342  1
  Mg  Mg28  1  -0.02302411  0.53151182  0.24345854  1
  Mg  Mg29  1  -0.04297367  0.24509628  0.03563156  1
  Mg  Mg30  1  0.79914234  0.70320427  0.25178706  1
  Mg  Mg31  1  -0.05799447  0.28608635  0.74062321  1
  Ti  Ti32  1  0.37800682  0.12871309  0.38476471  1
  Ti  Ti33  1  0.61408562  0.62556217  0.12708845  1
  Ti  Ti34  1  0.62096703  0.36795669  0.12414256  1
  Ti  Ti35  1  0.62140170  0.11600136  0.12482739  1
  Ti  Ti36  1  0.89142989  0.37474668  0.36013153  1
  Ti  Ti37  1  0.63171238  0.11298324  0.87597684  1
  Ti  Ti38  1  0.36673609  0.87361111  0.61925227  1
  Ti  Ti39  1  0.89583171  0.87641970  0.12896997  1
  Ti  Ti40  1  0.36488496  0.62469177  0.13013213  1
  Ti  Ti41  1  0.37475068  0.86893537  0.87037575  1
  Ti  Ti42  1  0.13361779  0.14442661  0.12929573  1
  Ti  Ti43  1  0.62599241  0.12085614  0.38228996  1
  Ti  Ti44  1  0.12276425  0.87282768  0.62107108  1
  Ti  Ti45  1  0.13082465  0.37783515  0.63212159  1
  Ti  Ti46  1  0.62954124  0.62266601  0.62749830  1
  Ti  Ti47  1  0.87160836  0.61965151  0.61844093  1
  Ti  Ti48  1  0.63385407  0.86819979  0.87702880  1
  Ti  Ti49  1  0.38231952  0.12282443  0.11772072  1
  Ti  Ti50  1  0.36476297  0.60886293  0.62707319  1
  Ti  Ti51  1  0.88594384  0.13740091  0.38626532  1
  Ti  Ti52  1  0.38305957  0.36834350  0.11763136  1
  Ti  Ti53  1  0.62549153  0.62872005  0.86709023  1
  Ti  Ti54  1  0.88317199  0.86458814  0.62043953  1
  Ti  Ti55  1  0.63279216  0.37748597  0.37287274  1
  Ti  Ti56  1  0.86500151  0.37402802  0.89140131  1
  Ti  Ti57  1  0.62687896  0.36930079  0.88386940  1
  Ti  Ti58  1  0.88975803  0.12028628  0.86318169  1
  Ti  Ti59  1  0.11565462  0.88453403  0.86644333  1
  Ti  Ti60  1  0.88362330  0.85996637  0.37727155  1
  Ti  Ti61  1  0.37992001  0.37391486  0.86529113  1
  Ti  Ti62  1  0.13205829  0.37366438  0.34583323  1
  Ti  Ti63  1  0.87158246  0.61353850  0.87568084  1
  Ti  Ti64  1  0.63836358  0.87816966  0.62610259  1
  Ti  Ti65  1  0.12442622  0.88686715  0.14057673  1
  Ti  Ti66  1  0.12219310  0.12910801  0.86558433  1
  Ti  Ti67  1  0.85473518  0.37280970  0.12822542  1
  Ti  Ti68  1  0.62016320  0.86262067  0.13388684  1
  Ti  Ti69  1  0.11710268  0.87275966  0.37205879  1
  Ti  Ti70  1  0.10654964  0.37172838  0.11510193  1
  Ti  Ti71  1  0.88541771  0.12616405  0.62168922  1
  Ti  Ti72  1  0.11104693  0.36017938  0.86517928  1
  Ti  Ti73  1  0.38196894  0.11614214  0.87508697  1
  Bi  Bi74  1  0.24669936  -0.01626447  -0.01149881  1
  Bi  Bi75  1  0.02393512  0.03207065  0.00806708  1
  Bi  Bi76  1  0.27596983  0.23724137  0.25428522  1
  Bi  Bi77  1  0.50987790  -0.02926799  0.49139845  1
  Bi  Bi78  1  0.51615676  0.74562747  0.48385924  1
  Bi  Bi79  1  0.77447430  -0.00622968  0.48050292  1
  Bi  Bi80  1  0.03874555  0.72057382  0.49075687  1
  Bi  Bi81  1  0.72128212  0.50608806  -0.00038958  1
  Bi  Bi82  1  0.77191631  -0.00230296  0.03511248  1
  Bi  Bi83  1  0.24259514  -0.01032097  0.73267160  1
  Bi  Bi84  1  0.48153502  0.50783254  -0.02386643  1
  Bi  Bi85  1  0.50254934  0.22837074  0.73980799  1
  Bi  Bi86  1  0.27271569  0.76370306  0.26728183  1
  Bi  Bi87  1  0.52967301  0.45981742  0.72382156  1
  Bi  Bi88  1  0.22725357  0.47758225  -0.01958175  1
  Bi  Bi89  1  0.48723015  0.73616913  0.71741701  1
  Bi  Bi90  1  0.50533858  -0.02868124  0.73381888  1
  Bi  Bi91  1  0.77250897  0.74866741  0.78225619  1
  Bi  Bi92  1  0.76674494  0.22801300  0.26262106  1
  Bi  Bi93  1  0.50843023  0.24144612  -0.01530469  1
  Bi  Bi94  1  0.01659581  0.73669748  -0.01157366  1
  Bi  Bi95  1  0.25692100  0.23929293  -0.01663846  1
  Bi  Bi96  1  0.75856036  0.27193077  0.52801403  1
  Bi  Bi97  1  0.26418449  0.48112529  0.22170454  1
  Bi  Bi98  1  0.21290161  0.00334662  0.48924044  1
  Bi  Bi99  1  0.22652200  0.50338030  0.47067826  1
  Bi  Bi100  1  0.48986345  0.49585057  0.48452712  1
  Bi  Bi101  1  0.25450337  0.23120667  0.74958598  1
  Bi  Bi102  1  0.77178382  0.71940703  0.04287041  1
  Bi  Bi103  1  0.23081905  0.71990848  0.75996161  1
  Bi  Bi104  1  0.76753316  0.21489726  -0.00084283  1
  Bi  Bi105  1  0.77057548  -0.01025277  0.73802791  1
  Bi  Bi106  1  0.02926222  0.27487954  0.49861084  1
  Bi  Bi107  1  0.75665525  0.46458327  0.71927087  1
  Bi  Bi108  1  0.74393031  0.52008483  0.24287282  1
  Bi  Bi109  1  0.50872015  0.48286994  0.26203507  1
  Bi  Bi110  1  0.46667576  0.73248374  0.00113721  1
  Bi  Bi111  1  0.73754914  0.22611587  0.73966854  1
  Bi  Bi112  1  0.00380913  0.72612562  0.72693232  1
  Bi  Bi113  1  -0.00391190  0.48421977  0.74632426  1
  Bi  Bi114  1  0.50819483  -0.03647599  0.00009389  1
  Bi  Bi115  1  0.74351674  0.72050852  0.50167303  1
  Bi  Bi116  1  0.78726908  -0.00855549  0.24977010  1
  Bi  Bi117  1  0.25415243  0.23719296  0.52516610  1
  Bi  Bi118  1  -0.03376243  0.51937608  0.03741895  1
  Bi  Bi119  1  0.51356573  0.24255016  0.26385827  1
  Bi  Bi120  1  -0.00445456  0.72426781  0.22336386  1
  Bi  Bi121  1  0.22789469  0.75521910  0.01055341  1
  Bi  Bi122  1  0.49890229  0.27419046  0.52836201  1
  Bi  Bi123  1  0.27395493  0.00349293  0.25442824  1
  Bi  Bi124  1  0.51212896  -0.00576079  0.25139230  1
  O  O125  1  0.14506189  0.10398375  0.01246256  1
  O  O126  1  0.07918203  0.15313091  0.23942677  1
  O  O127  1  0.14394469  0.12035397  0.49293449  1
  O  O128  1  0.12456886  0.13622984  0.75441601  1
  O  O129  1  0.11883950  0.38780434  -0.00409850  1
  O  O130  1  0.14987635  0.36947369  0.23342943  1
  O  O131  1  0.08790923  0.40368560  0.52131136  1
  O  O132  1  0.14942839  0.34821095  0.75628596  1
  O  O133  1  0.13209183  0.64874150  -0.00101710  1
  O  O134  1  0.07744471  0.61523707  0.24256823  1
  O  O135  1  0.14881325  0.62744545  0.50850110  1
  O  O136  1  0.10872809  0.63716757  0.75660047  1
  O  O137  1  0.14558597  0.88130353  -0.00278006  1
  O  O138  1  0.10691469  0.86952459  0.25406871  1
  O  O139  1  0.14125681  0.87108519  0.50722205  1
  O  O140  1  0.10823949  0.90753191  0.75032485  1
  O  O141  1  0.35246321  0.11216955  0.00173190  1
  O  O142  1  0.38980465  0.15933861  0.23931253  1
  O  O143  1  0.35621131  0.10976894  0.49326242  1
  O  O144  1  0.38125707  0.15358707  0.75937924  1
  O  O145  1  0.40242352  0.39180138  0.00539094  1
  O  O146  1  0.34998474  0.36640218  0.24032904  1
  O  O147  1  0.41275382  0.38217951  0.49623886  1
  O  O148  1  0.35815355  0.35126131  0.75727051  1
  O  O149  1  0.38317084  0.61054709  0.00183118  1
  O  O150  1  0.37152825  0.66285136  0.24197371  1
  O  O151  1  0.33967391  0.61579937  0.51184490  1
  O  O152  1  0.39125129  0.64769469  0.74515721  1
  O  O153  1  0.36819790  0.90318712  -0.00634705  1
  O  O154  1  0.38319129  0.84680762  0.25149724  1
  O  O155  1  0.36379843  0.90358269  0.50994385  1
  O  O156  1  0.40767917  0.86003378  0.75449924  1
  O  O157  1  0.63644700  0.12163725  -0.00082095  1
  O  O158  1  0.59401907  0.11908431  0.24442020  1
  O  O159  1  0.63272806  0.11180226  0.49279904  1
  O  O160  1  0.61926216  0.14727881  0.75864952  1
  O  O161  1  0.60271887  0.37341601  0.00614119  1
  O  O162  1  0.63677387  0.40457671  0.24576326  1
  O  O163  1  0.59637924  0.38590614  0.48847268  1
  O  O164  1  0.64729236  0.38435803  0.76394973  1
  O  O165  1  0.65898015  0.63526614  0.00080703  1
  O  O166  1  0.61561977  0.59616229  0.24078122  1
  O  O167  1  0.66021581  0.60574515  0.50649864  1
  O  O168  1  0.60799975  0.62638057  0.75053998  1
  O  O169  1  0.63637473  0.89186488  -0.00414660  1
  O  O170  1  0.58284061  0.85979871  0.24962170  1
  O  O171  1  0.63193223  0.90431464  0.50556341  1
  O  O172  1  0.60552395  0.86660652  0.74786734  1
  O  O173  1  0.85355846  0.10453806  -0.01389354  1
  O  O174  1  0.89827196  0.14756427  0.26360937  1
  O  O175  1  0.84098912  0.13434883  0.51004221  1
  O  O176  1  0.90142093  0.16837623  0.75541771  1
  O  O177  1  0.89598019  0.39645333  0.01017809  1
  O  O178  1  0.83898635  0.35528284  0.24741371  1
  O  O179  1  0.91990133  0.38756620  0.47631437  1
  O  O180  1  0.84438804  0.36123441  0.77129421  1
  O  O181  1  0.84626472  0.60434985  -0.00263600  1
  O  O182  1  0.90441483  0.63424105  0.25885083  1
  O  O183  1  0.85040641  0.61144158  0.50747020  1
  O  O184  1  0.89459854  0.64185593  0.75628845  1
  O  O185  1  0.85892709  0.88573502  0.01539938  1
  O  O186  1  0.89021765  0.89686884  0.26167181  1
  O  O187  1  0.85758954  0.88132826  0.50153147  1
  O  O188  1  0.88155045  0.86144986  0.74513755  1
  O  O189  1  0.00502046  0.14237109  0.08978024  1
  O  O190  1  -0.00363993  0.15009092  0.40573818  1
  O  O191  1  -0.00535315  0.11267257  0.58797270  1
  O  O192  1  0.00461708  0.12603702  0.89727538  1
  O  O193  1  0.00264426  0.32242286  0.13290377  1
  O  O194  1  -0.00417482  0.33702777  0.32698263  1
  O  O195  1  -0.00204574  0.37037287  0.66674265  1
  O  O196  1  -0.00285063  0.36035023  0.84429953  1
  O  O197  1  -0.00329255  0.65828188  0.09930236  1
  O  O198  1  0.00119314  0.61616987  0.41689199  1
  O  O199  1  -0.00076439  0.63826432  0.61931198  1
  O  O200  1  -0.00784902  0.63151866  0.90175962  1
  O  O201  1  0.00456650  0.85353529  0.10796838  1
  O  O202  1  -0.00196705  0.84159558  0.39261377  1
  O  O203  1  0.00157644  0.88212167  0.62624119  1
  O  O204  1  0.00145160  0.88462998  0.87732392  1
  O  O205  1  0.24660487  0.11649607  0.15491064  1
  O  O206  1  0.24952133  0.11529377  0.33982482  1
  O  O207  1  0.25119020  0.14808875  0.63608604  1
  O  O208  1  0.25479894  0.13934627  0.86798145  1
  O  O209  1  0.25514335  0.40850822  0.10281543  1
  O  O210  1  0.24448856  0.39764932  0.37759838  1
  O  O211  1  0.24340613  0.37128389  0.60021702  1
  O  O212  1  0.26106987  0.36751597  0.90523042  1
  O  O213  1  0.25015381  0.59873381  0.13004885  1
  O  O214  1  0.24449849  0.59301454  0.36869768  1
  O  O215  1  0.25223793  0.60659136  0.66707672  1
  O  O216  1  0.24514749  0.61311887  0.84779180  1
  O  O217  1  0.24078983  0.91316478  0.12958728  1
  O  O218  1  0.23810539  0.89470402  0.35375496  1
  O  O219  1  0.25231929  0.87246963  0.65787729  1
  O  O220  1  0.25852763  0.89778723  0.85816700  1
  O  O221  1  0.49519007  0.14620155  0.09845338  1
  O  O222  1  0.49710948  0.15756806  0.38130194  1
  O  O223  1  0.50464348  0.14724852  0.62975396  1
  O  O224  1  0.50260231  0.13273627  0.89180372  1
  O  O225  1  0.49997106  0.36430573  0.14759682  1
  O  O226  1  0.50263772  0.36021547  0.34174891  1
  O  O227  1  0.50089022  0.35008113  0.64835133  1
  O  O228  1  0.50627184  0.37792469  0.85754546  1
  O  O229  1  0.50096018  0.64717445  0.11383914  1
  O  O230  1  0.49752029  0.67601914  0.36845433  1
  O  O231  1  0.51038175  0.63367420  0.60986950  1
  O  O232  1  0.50963889  0.63363953  0.89509060  1
  O  O233  1  0.50121372  0.86391828  0.09620063  1
  O  O234  1  0.49367701  0.85909168  0.40096314  1
  O  O235  1  0.50071435  0.89153695  0.61281506  1
  O  O236  1  0.50375972  0.87202604  0.89491392  1
  O  O237  1  0.73591944  0.10535209  0.13481943  1
  O  O238  1  0.74324421  0.11167854  0.35622883  1
  O  O239  1  0.76202465  0.11456224  0.66411535  1
  O  O240  1  0.75274522  0.13507372  0.85941508  1
  O  O241  1  0.74459751  0.39506981  0.10804173  1
  O  O242  1  0.73924578  0.40859300  0.40269066  1
  O  O243  1  0.76626773  0.40182970  0.59369974  1
  O  O244  1  0.74983509  0.37573707  0.91144538  1
  O  O245  1  0.74677981  0.63146334  0.15076794  1
  O  O246  1  0.75266123  0.61545158  0.33827129  1
  O  O247  1  0.75472573  0.63132686  0.64799718  1
  O  O248  1  0.75225908  0.61818169  0.84928496  1
  O  O249  1  0.73354433  0.90732630  0.15143267  1
  O  O250  1  0.75738252  0.91201318  0.36698409  1
  O  O251  1  0.75422748  0.88228930  0.63758639  1
  O  O252  1  0.74873989  0.87932362  0.85514985  1
  O  O253  1  0.08370082  0.00233899  0.14005727  1
  O  O254  1  0.09884707  -0.00956482  0.39990016  1
  O  O255  1  0.15254682  -0.00040948  0.61740323  1
  O  O256  1  0.13200920  0.00887763  0.88486556  1
  O  O257  1  0.15646944  0.25355481  0.10606263  1
  O  O258  1  0.13162050  0.26810351  0.39960860  1
  O  O259  1  0.11996132  0.25594226  0.60296183  1
  O  O260  1  0.13240138  0.24617414  0.89706514  1
  O  O261  1  0.08191370  0.48776690  0.12461925  1
  O  O262  1  0.10348301  0.48357099  0.37641825  1
  O  O263  1  0.12252369  0.49227992  0.66980202  1
  O  O264  1  0.13301956  0.48480501  0.86022675  1
  O  O265  1  0.15317453  0.76227107  0.12570484  1
  O  O266  1  0.14093066  0.74642771  0.38764297  1
  O  O267  1  0.12684581  0.75715304  0.64393041  1
  O  O268  1  0.13638649  0.76685377  0.86719943  1
  O  O269  1  0.38910048  0.01048866  0.14899953  1
  O  O270  1  0.38695435  0.01030900  0.34641314  1
  O  O271  1  0.37017201  -0.00377250  0.66015921  1
  O  O272  1  0.38806444  0.00614036  0.85619375  1
  O  O273  1  0.35500138  0.25567838  0.10468579  1
  O  O274  1  0.34645811  0.24658964  0.37731505  1
  O  O275  1  0.37532354  0.25135585  0.59509083  1
  O  O276  1  0.38591684  0.25337112  0.90644320  1
  O  O277  1  0.38769275  0.50696228  0.15200306  1
  O  O278  1  0.40968867  0.50387297  0.36890290  1
  O  O279  1  0.39762908  0.50057645  0.63758296  1
  O  O280  1  0.38655418  0.49388233  0.87279339  1
  O  O281  1  0.35344403  0.74773244  0.09224555  1
  O  O282  1  0.33140023  0.75029044  0.38896544  1
  O  O283  1  0.38853573  0.75662407  0.61728035  1
  O  O284  1  0.36497917  0.75532622  0.89319459  1
  O  O285  1  0.59242486  0.00144202  0.12772390  1
  O  O286  1  0.59469597  0.00345970  0.36686595  1
  O  O287  1  0.62678268  -0.00403454  0.65028548  1
  O  O288  1  0.62231401  0.00176088  0.86034499  1
  O  O289  1  0.63572786  0.25402727  0.13432461  1
  O  O290  1  0.64257374  0.25449363  0.35047044  1
  O  O291  1  0.66330932  0.24309847  0.61864051  1
  O  O292  1  0.62265963  0.25355680  0.88975992  1
  O  O293  1  0.61772262  0.50819467  0.10011462  1
  O  O294  1  0.58845674  0.50297811  0.37805054  1
  O  O295  1  0.63018249  0.50224128  0.63157854  1
  O  O296  1  0.62554873  0.50447043  0.89261096  1
  O  O297  1  0.64279863  0.75361681  0.11966368  1
  O  O298  1  0.63936461  0.75150307  0.41155599  1
  O  O299  1  0.63457135  0.75307707  0.60214573  1
  O  O300  1  0.64510686  0.75024051  0.87047791  1
  O  O301  1  0.88325055  -0.00008951  0.13520058  1
  O  O302  1  0.89448141  0.01777904  0.40627888  1
  O  O303  1  0.87997793  0.00392818  0.65019132  1
  O  O304  1  0.88917976  0.00977949  0.83342322  1
  O  O305  1  0.85153093  0.25549545  0.10454268  1
  O  O306  1  0.84177176  0.25375408  0.37920609  1
  O  O307  1  0.86600413  0.25692045  0.61920671  1
  O  O308  1  0.88316739  0.25512138  0.92260386  1
  O  O309  1  0.90387659  0.48320769  0.15304469  1
  O  O310  1  0.91212453  0.48880937  0.34763786  1
  O  O311  1  0.89063644  0.50515015  0.64995607  1
  O  O312  1  0.88430441  0.49584008  0.86652728  1
  O  O313  1  0.85376958  0.77005628  0.15682525  1
  O  O314  1  0.84467544  0.75499992  0.36788137  1
  O  O315  1  0.87986327  0.75077211  0.61524388  1
  O  O316  1  0.85860980  0.74539811  0.88931273  1
