# generated using pymatgen
data_Mg32Ti42(Bi17O64)3
_symmetry_space_group_name_H-M   'P 1'
_cell_length_a   15.96741554
_cell_length_b   15.94089222
_cell_length_c   15.90931336
_cell_angle_alpha   89.94742137
_cell_angle_beta   89.97110941
_cell_angle_gamma   90.05936098
_symmetry_Int_Tables_number   1
_chemical_formula_structural   Mg32Ti42(Bi17O64)3
_chemical_formula_sum   'Mg32 Ti42 Bi51 O192'
_cell_volume   4049.47029558
_cell_formula_units_Z   1
loop_
 _symmetry_equiv_pos_site_id
 _symmetry_equiv_pos_as_xyz
  1  'x, y, z'
loop_
 _atom_site_type_symbol
 _atom_site_label
 _atom_site_symmetry_multiplicity
 _atom_site_fract_x
 _atom_site_fract_y
 _atom_site_fract_z
 _atom_site_occupancy
  Mg  Mg0  1  0.62876280  0.36715572  0.37325447  1
  Mg  Mg1  1  0.37948896  0.62196835  0.87520215  1
  Mg  Mg2  1  0.63340935  0.36572398  0.11296366  1
  Mg  Mg3  1  0.86754452  0.61280022  0.62551344  1
  Mg  Mg4  1  0.37030531  0.13361541  0.86608397  1
  Mg  Mg5  1  0.13166842  0.86806441  0.63465129  1
  Mg  Mg6  1  0.61745473  0.61630825  0.63474065  1
  Mg  Mg7  1  0.12271502  0.62094765  0.12306787  1
  Mg  Mg8  1  0.86355531  0.37276453  0.86249869  1
  Mg  Mg9  1  0.37893914  0.12356616  0.37393997  1
  Mg  Mg10  1  0.87116465  0.37903491  0.11900404  1
  Mg  Mg11  1  0.88431762  0.37454884  0.62852340  1
  Mg  Mg12  1  0.62014672  0.88302291  0.62278050  1
  Mg  Mg13  1  0.12474773  0.38600207  0.61762852  1
  Mg  Mg14  1  0.13144044  0.37159330  0.13077410  1
  Mg  Mg15  1  0.88385243  0.87662723  0.12932799  1
  Mg  Mg16  1  0.13160616  0.12368015  0.63589275  1
  Mg  Mg17  1  0.87182161  0.62603104  0.87850636  1
  Mg  Mg18  1  0.62222581  0.87591328  0.11438639  1
  Mg  Mg19  1  0.04532149  0.24864059  0.30226162  1
  Mg  Mg20  1  0.18833222  0.53726567  0.28040485  1
  Mg  Mg21  1  0.81639800  0.26882255  0.23335293  1
  Mg  Mg22  1  0.43129291  0.00744596  -0.02113413  1
  Mg  Mg23  1  0.78387730  0.20088334  0.75503816  1
  Mg  Mg24  1  0.23711880  0.49280032  0.07256372  1
  Mg  Mg25  1  0.51396453  0.21372423  0.76323786  1
  Mg  Mg26  1  0.21507840  0.00731570  -0.05108592  1
  Mg  Mg27  1  0.49660571  0.49221807  0.77606472  1
  Mg  Mg28  1  0.77690600  0.52551983  0.75272192  1
  Mg  Mg29  1  -0.04619953  0.46023308  -0.00464387  1
  Mg  Mg30  1  0.30584813  0.50193597  0.71141225  1
  Mg  Mg31  1  0.50105538  0.69426652  0.00551076  1
  Ti  Ti32  1  0.37354155  0.87244353  0.11654697  1
  Ti  Ti33  1  0.12584092  0.14232627  0.87379875  1
  Ti  Ti34  1  0.86443514  0.13878415  0.36476769  1
  Ti  Ti35  1  0.37819299  0.37597014  0.35872136  1
  Ti  Ti36  1  0.88331207  0.62021105  0.13158212  1
  Ti  Ti37  1  0.37921925  0.37387059  0.85960830  1
  Ti  Ti38  1  0.36916490  0.86487953  0.87784223  1
  Ti  Ti39  1  0.38655202  0.63078953  0.61344612  1
  Ti  Ti40  1  0.38392837  0.86941900  0.37243656  1
  Ti  Ti41  1  0.11909817  0.87775995  0.36409905  1
  Ti  Ti42  1  0.63044163  0.10628979  0.86725257  1
  Ti  Ti43  1  0.61266829  0.62442516  0.86232913  1
  Ti  Ti44  1  0.12527239  0.86120516  0.88256158  1
  Ti  Ti45  1  0.63238424  0.12268198  0.10211862  1
  Ti  Ti46  1  0.37240582  0.12514611  0.63109947  1
  Ti  Ti47  1  0.11493824  0.61320503  0.64188428  1
  Ti  Ti48  1  0.13319534  0.87074587  0.12781057  1
  Ti  Ti49  1  0.36985835  0.36646099  0.61327174  1
  Ti  Ti50  1  0.13632915  0.12290712  0.11834996  1
  Ti  Ti51  1  0.13790813  0.38423719  0.37214319  1
  Ti  Ti52  1  0.38705332  0.62533980  0.36730395  1
  Ti  Ti53  1  0.88592576  0.11952868  0.87860791  1
  Ti  Ti54  1  0.60620843  0.86976635  0.87636280  1
  Ti  Ti55  1  0.37910165  0.36246347  0.12265477  1
  Ti  Ti56  1  0.63471921  0.62353521  0.12173429  1
  Ti  Ti57  1  0.36418449  0.86998045  0.62434839  1
  Ti  Ti58  1  0.87723854  0.36830883  0.38190907  1
  Ti  Ti59  1  0.13575543  0.60756607  0.88521399  1
  Ti  Ti60  1  0.88379035  0.86661379  0.88000651  1
  Ti  Ti61  1  0.86430608  0.60777824  0.38435904  1
  Ti  Ti62  1  0.63574460  0.88539951  0.37737571  1
  Ti  Ti63  1  0.63354905  0.11912455  0.38021127  1
  Ti  Ti64  1  0.62580061  0.36736089  0.86304581  1
  Ti  Ti65  1  0.12831776  0.38390237  0.88486956  1
  Ti  Ti66  1  0.88051927  0.88807599  0.36778465  1
  Ti  Ti67  1  0.37773365  0.61898833  0.12636034  1
  Ti  Ti68  1  0.89140824  0.13260584  0.63071743  1
  Ti  Ti69  1  0.62878220  0.62057113  0.37447845  1
  Ti  Ti70  1  0.38183037  0.12433971  0.11907089  1
  Ti  Ti71  1  0.61891290  0.12417235  0.63055345  1
  Ti  Ti72  1  0.87559090  0.12156669  0.12053142  1
  Ti  Ti73  1  0.60646624  0.36523027  0.64156163  1
  Bi  Bi74  1  -0.03256602  0.75684331  0.71975780  1
  Bi  Bi75  1  0.74613412  0.47140865  0.53308342  1
  Bi  Bi76  1  0.00483921  0.46370128  0.22720330  1
  Bi  Bi77  1  0.22280044  0.71508117  0.47794449  1
  Bi  Bi78  1  0.01578295  0.04696445  0.27235559  1
  Bi  Bi79  1  0.24881544  0.28447005  0.00185139  1
  Bi  Bi80  1  0.76744612  0.74331453  0.25910098  1
  Bi  Bi81  1  0.76433214  0.74843208  0.50430145  1
  Bi  Bi82  1  0.27988409  0.49974191  0.48972129  1
  Bi  Bi83  1  0.02049212  -0.01242165  0.02244501  1
  Bi  Bi84  1  0.01708292  0.76097082  0.51640563  1
  Bi  Bi85  1  0.25733295  0.70581502  0.74632033  1
  Bi  Bi86  1  0.76221202  0.74280247  0.02955460  1
  Bi  Bi87  1  0.00303877  0.26993339  0.73725313  1
  Bi  Bi88  1  0.25281230  0.71838544  0.00653884  1
  Bi  Bi89  1  0.52142562  0.47305167  0.49721243  1
  Bi  Bi90  1  0.53310444  0.22782039  0.23902686  1
  Bi  Bi91  1  0.03578666  0.52134030  0.47608050  1
  Bi  Bi92  1  0.74764562  -0.03505351  -0.01379058  1
  Bi  Bi93  1  0.26077191  -0.00912773  0.48077489  1
  Bi  Bi94  1  0.01666274  -0.01297786  0.51762843  1
  Bi  Bi95  1  0.01637122  0.71957830  0.28734977  1
  Bi  Bi96  1  0.52522617  0.75599586  0.49526754  1
  Bi  Bi97  1  0.24797799  0.21499385  0.26522481  1
  Bi  Bi98  1  -0.00637570  0.72519782  -0.00521692  1
  Bi  Bi99  1  0.73925786  0.46830172  0.24625885  1
  Bi  Bi100  1  0.75724037  -0.00978734  0.22784835  1
  Bi  Bi101  1  0.23639399  0.21227745  0.48437245  1
  Bi  Bi102  1  0.76437137  0.24672058  0.53469203  1
  Bi  Bi103  1  0.51287620  -0.00556245  0.21231850  1
  Bi  Bi104  1  0.51190246  0.48455551  0.21706234  1
  Bi  Bi105  1  0.52813972  0.74374529  0.23627675  1
  Bi  Bi106  1  0.24597627  0.72404851  0.24921914  1
  Bi  Bi107  1  -0.01357219  0.50483872  0.78208256  1
  Bi  Bi108  1  0.00544207  0.25530835  0.02588851  1
  Bi  Bi109  1  0.49837307  0.23288681  -0.03475628  1
  Bi  Bi110  1  0.23145919  0.26852558  0.72574586  1
  Bi  Bi111  1  0.49450132  0.48876308  -0.01578472  1
  Bi  Bi112  1  0.77449646  0.25391732  -0.00619032  1
  Bi  Bi113  1  0.51239650  0.76798166  0.73057399  1
  Bi  Bi114  1  0.25139444  0.00142104  0.76263402  1
  Bi  Bi115  1  0.27551542  -0.00739068  0.25557720  1
  Bi  Bi116  1  0.77797035  -0.02034742  0.52015961  1
  Bi  Bi117  1  0.78554656  -0.02861014  0.74245574  1
  Bi  Bi118  1  0.01761953  -0.01828736  0.75903638  1
  Bi  Bi119  1  0.74392324  0.73606483  0.73575820  1
  Bi  Bi120  1  0.47830184  -0.00259080  0.75958802  1
  Bi  Bi121  1  0.52169943  0.24283287  0.48852904  1
  Bi  Bi122  1  0.49871368  0.01409774  0.50278869  1
  Bi  Bi123  1  0.74451518  0.48984479  -0.04186120  1
  Bi  Bi124  1  0.02025531  0.23042185  0.50314907  1
  O  O125  1  0.13311285  0.09499807  -0.00207319  1
  O  O126  1  0.11131289  0.15646578  0.23667628  1
  O  O127  1  0.13304216  0.12414151  0.50753364  1
  O  O128  1  0.11926813  0.16507379  0.75900247  1
  O  O129  1  0.17218047  0.40109861  -0.00309447  1
  O  O130  1  0.08935019  0.35635032  0.25201719  1
  O  O131  1  0.13137688  0.41141121  0.48847851  1
  O  O132  1  0.11574543  0.34936442  0.75997884  1
  O  O133  1  0.17009232  0.60058897  0.00329822  1
  O  O134  1  0.12626953  0.64828762  0.24699786  1
  O  O135  1  0.14275848  0.60204318  0.50907062  1
  O  O136  1  0.11130645  0.64759401  0.75776594  1
  O  O137  1  0.14053990  0.91496592  -0.00223357  1
  O  O138  1  0.11922807  0.85424370  0.24524986  1
  O  O139  1  0.10799790  0.88657457  0.49646397  1
  O  O140  1  0.09798310  0.86361010  0.76407587  1
  O  O141  1  0.37999487  0.13454781  -0.00057489  1
  O  O142  1  0.37144834  0.10784028  0.24494511  1
  O  O143  1  0.34102841  0.10950683  0.50866909  1
  O  O144  1  0.41439484  0.13009711  0.74260125  1
  O  O145  1  0.37643227  0.35784371  -0.00216973  1
  O  O146  1  0.39619368  0.39147394  0.24520382  1
  O  O147  1  0.34243432  0.37251571  0.49776217  1
  O  O148  1  0.39499600  0.40881899  0.74561628  1
  O  O149  1  0.37670747  0.64381344  0.00850404  1
  O  O150  1  0.39539622  0.62558509  0.25037001  1
  O  O151  1  0.34822376  0.63394900  0.49657070  1
  O  O152  1  0.37472968  0.61384001  0.73933877  1
  O  O153  1  0.36652166  0.88686092  -0.00150905  1
  O  O154  1  0.37502497  0.89562756  0.25393786  1
  O  O155  1  0.35404124  0.88394324  0.50351542  1
  O  O156  1  0.39717654  0.87227472  0.75245378  1
  O  O157  1  0.63706298  0.14424547  -0.01046974  1
  O  O158  1  0.60770197  0.10930787  0.26226863  1
  O  O159  1  0.63431383  0.16163301  0.50783651  1
  O  O160  1  0.59318877  0.11046437  0.74906497  1
  O  O161  1  0.66562552  0.36390344  -0.01734082  1
  O  O162  1  0.61272636  0.40132763  0.25118082  1
  O  O163  1  0.61473800  0.36284098  0.49995816  1
  O  O164  1  0.58748214  0.40381143  0.75167326  1
  O  O165  1  0.62870296  0.65638519  0.00898016  1
  O  O166  1  0.60431139  0.61678516  0.25167026  1
  O  O167  1  0.64449658  0.66540116  0.49003451  1
  O  O168  1  0.57406893  0.59518469  0.75857836  1
  O  O169  1  0.64944971  0.86355752  -0.01094509  1
  O  O170  1  0.62953834  0.91654989  0.25779542  1
  O  O171  1  0.62995040  0.84793127  0.49707209  1
  O  O172  1  0.59087643  0.88385246  0.75279877  1
  O  O173  1  0.85938401  0.12918222  -0.00327175  1
  O  O174  1  0.85842943  0.14498585  0.24460908  1
  O  O175  1  0.88106912  0.15626942  0.50368171  1
  O  O176  1  0.88693037  0.12130193  0.75146170  1
  O  O177  1  0.84884679  0.37257837  -0.00862551  1
  O  O178  1  0.89376750  0.37438092  0.25229471  1
  O  O179  1  0.84891764  0.36440678  0.50163934  1
  O  O180  1  0.91941288  0.38675608  0.75176544  1
  O  O181  1  0.86709210  0.65340661  0.00331932  1
  O  O182  1  0.88688713  0.62867752  0.25228010  1
  O  O183  1  0.83343654  0.62384610  0.49936834  1
  O  O184  1  0.89079066  0.59959452  0.75441646  1
  O  O185  1  0.85240484  0.86722140  -0.00259254  1
  O  O186  1  0.84359733  0.87474509  0.25339557  1
  O  O187  1  0.88474216  0.90014901  0.49077230  1
  O  O188  1  0.89716654  0.88712306  0.75689523  1
  O  O189  1  -0.00504671  0.13841986  0.10687038  1
  O  O190  1  -0.01432891  0.15419159  0.36173265  1
  O  O191  1  0.00409685  0.14935967  0.62428829  1
  O  O192  1  -0.00000816  0.13650225  0.88762845  1
  O  O193  1  0.00209660  0.38217339  0.09365724  1
  O  O194  1  -0.00907021  0.33789464  0.39378537  1
  O  O195  1  0.00527237  0.33071365  0.61128591  1
  O  O196  1  0.01702877  0.38782843  0.90801540  1
  O  O197  1  -0.00089260  0.64333409  0.11059275  1
  O  O198  1  -0.01982610  0.64081935  0.39729357  1
  O  O199  1  -0.00385350  0.65260417  0.61050617  1
  O  O200  1  0.01749954  0.61837080  0.91164129  1
  O  O201  1  0.01145205  0.87264473  0.10275892  1
  O  O202  1  -0.00979803  0.85551418  0.35979290  1
  O  O203  1  0.00257707  0.84773536  0.62136085  1
  O  O204  1  0.00417769  0.88691051  0.90247156  1
  O  O205  1  0.25098919  0.12340185  0.13331320  1
  O  O206  1  0.24881066  0.12384646  0.36432971  1
  O  O207  1  0.25777064  0.11095046  0.66232789  1
  O  O208  1  0.24531711  0.11287460  0.87020875  1
  O  O209  1  0.26053456  0.36917457  0.12555369  1
  O  O210  1  0.24187591  0.42317145  0.34558505  1
  O  O211  1  0.25499158  0.39697237  0.65510689  1
  O  O212  1  0.26602577  0.35532111  0.86244870  1
  O  O213  1  0.25789023  0.63204408  0.14061909  1
  O  O214  1  0.25677893  0.62434366  0.35037062  1
  O  O215  1  0.23524931  0.59964428  0.65727361  1
  O  O216  1  0.25208495  0.63221494  0.86402931  1
  O  O217  1  0.25280512  0.90007749  0.14004003  1
  O  O218  1  0.23571396  0.89250922  0.36779462  1
  O  O219  1  0.25302387  0.89609678  0.64704451  1
  O  O220  1  0.24633469  0.89154682  0.86959429  1
  O  O221  1  0.50252559  0.13552580  0.13024433  1
  O  O222  1  0.49887592  0.12475172  0.40725648  1
  O  O223  1  0.49120566  0.13138609  0.58727663  1
  O  O224  1  0.50435126  0.11261026  0.89399223  1
  O  O225  1  0.50252361  0.38687791  0.11434767  1
  O  O226  1  0.48852968  0.37142654  0.38905588  1
  O  O227  1  0.48686213  0.37597636  0.60018361  1
  O  O228  1  0.51125573  0.37737999  0.90253007  1
  O  O229  1  0.50128213  0.64707715  0.12060173  1
  O  O230  1  0.50234782  0.64240376  0.38936702  1
  O  O231  1  0.49656224  0.64781791  0.60116100  1
  O  O232  1  0.50226240  0.62638623  0.90539901  1
  O  O233  1  0.49627799  0.86510043  0.13986633  1
  O  O234  1  0.49659925  0.86881200  0.38674213  1
  O  O235  1  0.49193754  0.84537112  0.61127523  1
  O  O236  1  0.49543732  0.88766418  0.89748956  1
  O  O237  1  0.74502528  0.10360617  0.12281595  1
  O  O238  1  0.74836939  0.10522315  0.38390053  1
  O  O239  1  0.73445114  0.13930578  0.64543030  1
  O  O240  1  0.74274798  0.11996239  0.84407549  1
  O  O241  1  0.75285954  0.36654078  0.16038370  1
  O  O242  1  0.75234275  0.39110338  0.35467531  1
  O  O243  1  0.72318106  0.35953801  0.62312022  1
  O  O244  1  0.74248936  0.41831932  0.83695004  1
  O  O245  1  0.75197005  0.62551268  0.13092726  1
  O  O246  1  0.74644907  0.62059598  0.34867178  1
  O  O247  1  0.73682784  0.61697464  0.67361155  1
  O  O248  1  0.73923999  0.60489440  0.85805699  1
  O  O249  1  0.74692399  0.90868055  0.11899268  1
  O  O250  1  0.74851661  0.90151752  0.39057822  1
  O  O251  1  0.74583039  0.89892747  0.62991370  1
  O  O252  1  0.75929783  0.88113698  0.85273141  1
  O  O253  1  0.10708215  0.00829420  0.14198263  1
  O  O254  1  0.09019268  -0.00566678  0.37211457  1
  O  O255  1  0.09446210  -0.00295455  0.64132264  1
  O  O256  1  0.12651617  0.01015101  0.84583000  1
  O  O257  1  0.12819759  0.24868193  0.08962639  1
  O  O258  1  0.15128360  0.26609176  0.37607319  1
  O  O259  1  0.15949618  0.25693410  0.60949457  1
  O  O260  1  0.13101339  0.25506206  0.90974761  1
  O  O261  1  0.14320169  0.49854183  0.16231808  1
  O  O262  1  0.08634414  0.49627295  0.34818585  1
  O  O263  1  0.07960741  0.50438131  0.64067414  1
  O  O264  1  0.13912535  0.49808550  0.85375667  1
  O  O265  1  0.14732510  0.75929244  0.10058902  1
  O  O266  1  0.11838151  0.75579132  0.38832109  1
  O  O267  1  0.13871288  0.74307574  0.59375576  1
  O  O268  1  0.13081542  0.75174342  0.90948663  1
  O  O269  1  0.40023223  0.00494494  0.10659174  1
  O  O270  1  0.35943960  -0.00461641  0.38306509  1
  O  O271  1  0.39498217  -0.00271612  0.63823708  1
  O  O272  1  0.37265556  0.00161031  0.86269802  1
  O  O273  1  0.37972734  0.24909782  0.13917372  1
  O  O274  1  0.35314630  0.26122958  0.35988911  1
  O  O275  1  0.35811469  0.25126091  0.62846133  1
  O  O276  1  0.41591338  0.25581026  0.85284833  1
  O  O277  1  0.36509071  0.50541550  0.10821610  1
  O  O278  1  0.38235367  0.50695547  0.39026176  1
  O  O279  1  0.37355506  0.50860220  0.60115163  1
  O  O280  1  0.40276395  0.49514161  0.87803454  1
  O  O281  1  0.35760834  0.76007610  0.12788780  1
  O  O282  1  0.36158774  0.75524547  0.36809383  1
  O  O283  1  0.34878890  0.74758520  0.62883825  1
  O  O284  1  0.36843250  0.75386202  0.87251127  1
  O  O285  1  0.60150586  0.00609625  0.10736570  1
  O  O286  1  0.60998650  0.00324988  0.41237181  1
  O  O287  1  0.60482885  0.01059637  0.60140052  1
  O  O288  1  0.63334259  -0.00662827  0.88217970  1
  O  O289  1  0.62778258  0.24045575  0.14172893  1
  O  O290  1  0.61196858  0.24105392  0.36216588  1
  O  O291  1  0.58557823  0.25065639  0.65689445  1
  O  O292  1  0.60626282  0.25227912  0.85197870  1
  O  O293  1  0.62074479  0.50696573  0.11565900  1
  O  O294  1  0.62110954  0.50910055  0.39926313  1
  O  O295  1  0.61765330  0.49418790  0.59981363  1
  O  O296  1  0.61102366  0.50421566  0.90324417  1
  O  O297  1  0.63838583  0.75391237  0.15386990  1
  O  O298  1  0.63266149  0.76515815  0.34162828  1
  O  O299  1  0.63214849  0.74967394  0.65505077  1
  O  O300  1  0.61296932  0.74925537  0.85180657  1
  O  O301  1  0.89026654  0.00725256  0.13940924  1
  O  O302  1  0.89357065  0.00968011  0.35735457  1
  O  O303  1  0.87531810  0.01734235  0.61755074  1
  O  O304  1  0.87835502  0.00306387  0.88101505  1
  O  O305  1  0.86461094  0.24926303  0.11267409  1
  O  O306  1  0.83871199  0.25367339  0.36282242  1
  O  O307  1  0.85201394  0.24954651  0.65055424  1
  O  O308  1  0.84549032  0.24687031  0.86380732  1
  O  O309  1  0.88807451  0.50749322  0.10417869  1
  O  O310  1  0.88654110  0.49593025  0.38636055  1
  O  O311  1  0.83551247  0.48931874  0.63416125  1
  O  O312  1  0.88854473  0.49977045  0.89274896  1
  O  O313  1  0.85489882  0.75195523  0.13440755  1
  O  O314  1  0.84302010  0.75811461  0.38255208  1
  O  O315  1  0.84920097  0.74224661  0.64385692  1
  O  O316  1  0.89427972  0.75254019  0.86693811  1
