# generated using pymatgen
data_Mg32Ti42(Bi17O64)3
_symmetry_space_group_name_H-M   'P 1'
_cell_length_a   15.94243235
_cell_length_b   15.92307367
_cell_length_c   15.95998520
_cell_angle_alpha   89.93169057
_cell_angle_beta   89.89141569
_cell_angle_gamma   89.83102142
_symmetry_Int_Tables_number   1
_chemical_formula_structural   Mg32Ti42(Bi17O64)3
_chemical_formula_sum   'Mg32 Ti42 Bi51 O192'
_cell_volume   4051.45478931
_cell_formula_units_Z   1
loop_
 _symmetry_equiv_pos_site_id
 _symmetry_equiv_pos_as_xyz
  1  'x, y, z'
loop_
 _atom_site_type_symbol
 _atom_site_label
 _atom_site_symmetry_multiplicity
 _atom_site_fract_x
 _atom_site_fract_y
 _atom_site_fract_z
 _atom_site_occupancy
  Mg  Mg0  1  0.13069984  0.12647476  0.13011615  1
  Mg  Mg1  1  0.11620394  0.63809305  0.62190058  1
  Mg  Mg2  1  0.37572642  0.61706860  0.36462527  1
  Mg  Mg3  1  0.12393705  0.37570502  0.87728196  1
  Mg  Mg4  1  0.87427518  0.87162187  0.13017565  1
  Mg  Mg5  1  0.12273529  0.63302020  0.88211841  1
  Mg  Mg6  1  0.89378441  0.36394747  0.38711950  1
  Mg  Mg7  1  0.63407494  0.87557330  0.36924812  1
  Mg  Mg8  1  0.88592516  0.12399869  0.38159582  1
  Mg  Mg9  1  0.12030192  0.37215999  0.62694591  1
  Mg  Mg10  1  0.86834915  0.61917616  0.87417107  1
  Mg  Mg11  1  0.37471321  0.13031389  0.61952983  1
  Mg  Mg12  1  0.61839580  0.10978977  0.87333947  1
  Mg  Mg13  1  0.61749373  0.37625726  0.87598554  1
  Mg  Mg14  1  0.63068276  0.11531478  0.12438525  1
  Mg  Mg15  1  0.36781654  0.36684110  0.36195221  1
  Mg  Mg16  1  0.36837853  0.87698737  0.35966723  1
  Mg  Mg17  1  0.62401102  0.38089621  0.62100871  1
  Mg  Mg18  1  0.62925973  0.38636816  0.37843099  1
  Mg  Mg19  1  0.03576194  0.78081418  0.01282522  1
  Mg  Mg20  1  0.30765131  0.75046616  0.45925154  1
  Mg  Mg21  1  0.72225673  -0.00390255  0.70428851  1
  Mg  Mg22  1  0.03840364  0.21020874  0.50517395  1
  Mg  Mg23  1  0.01456561  0.02551069  0.53118366  1
  Mg  Mg24  1  0.48822960  0.75955228  -0.04165239  1
  Mg  Mg25  1  0.49010482  0.71626467  0.49549361  1
  Mg  Mg26  1  0.19810179  0.25463899  0.30022649  1
  Mg  Mg27  1  0.75955450  -0.00361218  -0.07607002  1
  Mg  Mg28  1  0.54153035  0.24416586  0.22557137  1
  Mg  Mg29  1  0.49870450  0.55939092  -0.02988404  1
  Mg  Mg30  1  0.00101380  0.52448844  0.49941117  1
  Mg  Mg31  1  0.49702572  0.76357974  0.29290324  1
  Ti  Ti32  1  0.37754248  0.11940509  0.87541705  1
  Ti  Ti33  1  0.38782378  0.61435310  0.12159839  1
  Ti  Ti34  1  0.12251498  0.11111231  0.37798059  1
  Ti  Ti35  1  0.37106213  0.63290240  0.86885049  1
  Ti  Ti36  1  0.36479929  0.87545027  0.88240820  1
  Ti  Ti37  1  0.63226007  0.86696790  0.61354140  1
  Ti  Ti38  1  0.88184547  0.13506610  0.86754333  1
  Ti  Ti39  1  0.12805247  0.12582992  0.64366056  1
  Ti  Ti40  1  0.61589373  0.11710989  0.37672815  1
  Ti  Ti41  1  0.11913906  0.86588669  0.36774874  1
  Ti  Ti42  1  0.87250345  0.37525080  0.12860140  1
  Ti  Ti43  1  0.13481358  0.12016402  0.88352800  1
  Ti  Ti44  1  0.37054999  0.62616180  0.61492778  1
  Ti  Ti45  1  0.88294193  0.37749268  0.61880709  1
  Ti  Ti46  1  0.37698907  0.37480733  0.11854722  1
  Ti  Ti47  1  0.64278427  0.86287399  0.11731724  1
  Ti  Ti48  1  0.87847201  0.88221182  0.60451073  1
  Ti  Ti49  1  0.61566573  0.11967243  0.61798949  1
  Ti  Ti50  1  0.11976474  0.61831695  0.13002523  1
  Ti  Ti51  1  0.10674452  0.88189651  0.61705348  1
  Ti  Ti52  1  0.86988519  0.87967900  0.37027733  1
  Ti  Ti53  1  0.61207288  0.62445063  0.37771825  1
  Ti  Ti54  1  0.86556452  0.62254286  0.12322345  1
  Ti  Ti55  1  0.87967228  0.63335831  0.63270598  1
  Ti  Ti56  1  0.61946583  0.62476020  0.61975552  1
  Ti  Ti57  1  0.37819178  0.14508254  0.13569955  1
  Ti  Ti58  1  0.87095901  0.37133520  0.88675730  1
  Ti  Ti59  1  0.62283084  0.63870559  0.85792515  1
  Ti  Ti60  1  0.87586610  0.14119888  0.61837661  1
  Ti  Ti61  1  0.62509385  0.87350299  0.86484446  1
  Ti  Ti62  1  0.11431822  0.36759509  0.11838991  1
  Ti  Ti63  1  0.38230103  0.39357661  0.88346694  1
  Ti  Ti64  1  0.11535991  0.38181959  0.39686173  1
  Ti  Ti65  1  0.13433740  0.62231591  0.37464227  1
  Ti  Ti66  1  0.38306204  0.12698107  0.37993335  1
  Ti  Ti67  1  0.12728014  0.88612255  0.87657877  1
  Ti  Ti68  1  0.36838511  0.38045790  0.62397207  1
  Ti  Ti69  1  0.13214693  0.88559894  0.13277004  1
  Ti  Ti70  1  0.87107594  0.12014076  0.11906377  1
  Ti  Ti71  1  0.61062436  0.63458552  0.13013926  1
  Ti  Ti72  1  0.38585086  0.86569003  0.13307922  1
  Ti  Ti73  1  0.63365768  0.35976213  0.11986281  1
  Bi  Bi74  1  -0.01651902  0.23352431  0.23993394  1
  Bi  Bi75  1  0.75176721  0.48363041  0.75555410  1
  Bi  Bi76  1  0.48267695  -0.00725076  0.71538032  1
  Bi  Bi77  1  0.46566313  0.76288507  0.72282105  1
  Bi  Bi78  1  0.48665217  -0.06770710  0.49255318  1
  Bi  Bi79  1  -0.01652629  0.51427151  0.00413480  1
  Bi  Bi80  1  0.50318012  0.22357472  0.00088847  1
  Bi  Bi81  1  -0.04109962  -0.02021951  0.76278780  1
  Bi  Bi82  1  -0.02460930  0.72480884  0.46114982  1
  Bi  Bi83  1  0.23925328  0.22609976  0.49651676  1
  Bi  Bi84  1  0.73783823  0.73061416  0.27514037  1
  Bi  Bi85  1  0.51999731  -0.02026960  0.23616351  1
  Bi  Bi86  1  0.80173261  0.78063625  -0.02131582  1
  Bi  Bi87  1  -0.01361036  -0.01216781  0.23656540  1
  Bi  Bi88  1  0.76445789  0.02451108  0.50238942  1
  Bi  Bi89  1  0.74389403  0.73158322  0.50510722  1
  Bi  Bi90  1  0.23701748  0.46426430  0.25301729  1
  Bi  Bi91  1  -0.00864400  0.74345566  0.23577588  1
  Bi  Bi92  1  0.70514746  0.51265620  -0.01297513  1
  Bi  Bi93  1  0.73665847  0.50000264  0.22516424  1
  Bi  Bi94  1  0.23004170  0.76393638  0.71785171  1
  Bi  Bi95  1  0.23921698  -0.02602486  0.49009196  1
  Bi  Bi96  1  -0.03854633  0.51190239  0.28479181  1
  Bi  Bi97  1  0.50614510  0.26287692  0.45933976  1
  Bi  Bi98  1  0.27570067  0.00642581  0.02057959  1
  Bi  Bi99  1  0.74202749  0.02042437  0.26617227  1
  Bi  Bi100  1  0.21783434  0.50587910  0.52695493  1
  Bi  Bi101  1  0.27273712  -0.00789944  0.71716807  1
  Bi  Bi102  1  0.25820144  0.26546743  -0.01450085  1
  Bi  Bi103  1  0.22058430  0.50111914  0.00489100  1
  Bi  Bi104  1  0.01548231  0.26716693  0.75119257  1
  Bi  Bi105  1  0.47517007  0.47995063  0.47618458  1
  Bi  Bi106  1  -0.01802568  -0.02474070  -0.01152179  1
  Bi  Bi107  1  0.76414143  0.26210192  0.27850989  1
  Bi  Bi108  1  0.26642895  0.01499748  0.25713095  1
  Bi  Bi109  1  -0.00931653  0.50669898  0.77219012  1
  Bi  Bi110  1  0.77030970  0.79137678  0.75673698  1
  Bi  Bi111  1  0.01990692  0.22548875  0.00355004  1
  Bi  Bi112  1  0.73310948  0.22840758  -0.02641094  1
  Bi  Bi113  1  0.26768607  0.72524128  0.25367856  1
  Bi  Bi114  1  0.50915949  0.46890543  0.22935642  1
  Bi  Bi115  1  0.25680957  0.74353530  0.02459455  1
  Bi  Bi116  1  0.49875506  0.25512623  0.73601302  1
  Bi  Bi117  1  0.72964057  0.21352986  0.75076087  1
  Bi  Bi118  1  0.51688066  0.48608694  0.74279393  1
  Bi  Bi119  1  -0.00135057  0.75554665  0.79292463  1
  Bi  Bi120  1  0.26346826  0.26915446  0.75237078  1
  Bi  Bi121  1  0.22213594  0.52834292  0.75223541  1
  Bi  Bi122  1  0.79100488  0.51751927  0.48883381  1
  Bi  Bi123  1  0.74991041  0.28324916  0.50979894  1
  Bi  Bi124  1  0.51153926  -0.03316015  -0.00227994  1
  O  O125  1  0.10416364  0.11039769  -0.00151976  1
  O  O126  1  0.11816382  0.15534639  0.26562232  1
  O  O127  1  0.15192710  0.11383383  0.50128223  1
  O  O128  1  0.12195165  0.14806904  0.75755142  1
  O  O129  1  0.11057276  0.40698190  0.00198447  1
  O  O130  1  0.15762244  0.35127403  0.22918896  1
  O  O131  1  0.09315177  0.42244966  0.50331572  1
  O  O132  1  0.13294116  0.34097500  0.75290822  1
  O  O133  1  0.10825654  0.59986278  0.00570928  1
  O  O134  1  0.14034590  0.63618524  0.24910971  1
  O  O135  1  0.11678079  0.60016509  0.49807861  1
  O  O136  1  0.14994704  0.64955321  0.75064025  1
  O  O137  1  0.10065890  0.88998217  0.00629574  1
  O  O138  1  0.14976501  0.86346890  0.25392970  1
  O  O139  1  0.09700391  0.91260565  0.50529000  1
  O  O140  1  0.13401417  0.86390793  0.76047081  1
  O  O141  1  0.38460446  0.14149917  0.00987039  1
  O  O142  1  0.37756452  0.10021583  0.24993753  1
  O  O143  1  0.35986882  0.14009801  0.49559053  1
  O  O144  1  0.37752702  0.09683573  0.76183353  1
  O  O145  1  0.40031430  0.35349682  -0.00416165  1
  O  O146  1  0.36950713  0.39808947  0.23646707  1
  O  O147  1  0.40018652  0.36005868  0.51183305  1
  O  O148  1  0.33893084  0.38605448  0.75933279  1
  O  O149  1  0.40867115  0.64733259  0.00562713  1
  O  O150  1  0.34357226  0.60920691  0.23752617  1
  O  O151  1  0.37991118  0.65006470  0.50182121  1
  O  O152  1  0.38078698  0.61478317  0.75574445  1
  O  O153  1  0.40456128  0.85057800  0.00209166  1
  O  O154  1  0.34192199  0.90006464  0.23836266  1
  O  O155  1  0.41222811  0.82268434  0.48501941  1
  O  O156  1  0.37503570  0.89632567  0.76513314  1
  O  O157  1  0.62238330  0.14574970  0.00126780  1
  O  O158  1  0.61745798  0.09046704  0.25268110  1
  O  O159  1  0.63375863  0.13878820  0.50148479  1
  O  O160  1  0.64215054  0.10041286  0.74808703  1
  O  O161  1  0.62236486  0.35310979  0.00524251  1
  O  O162  1  0.63401888  0.39374608  0.25283282  1
  O  O163  1  0.61423850  0.34546301  0.49990560  1
  O  O164  1  0.63279728  0.40727690  0.74908418  1
  O  O165  1  0.60445463  0.62607399  0.01498362  1
  O  O166  1  0.64781456  0.61079797  0.25681998  1
  O  O167  1  0.61022215  0.66337781  0.50153790  1
  O  O168  1  0.62027457  0.61258062  0.74645628  1
  O  O169  1  0.58656116  0.84348458  0.01215127  1
  O  O170  1  0.64359212  0.90952132  0.23852717  1
  O  O171  1  0.60357997  0.85550399  0.49966789  1
  O  O172  1  0.65203155  0.89866448  0.75344331  1
  O  O173  1  0.87551117  0.14786907  0.00559103  1
  O  O174  1  0.90566925  0.10850258  0.25064261  1
  O  O175  1  0.84773684  0.14261593  0.50325955  1
  O  O176  1  0.88400145  0.11658794  0.75123210  1
  O  O177  1  0.88426774  0.36144073  0.00007044  1
  O  O178  1  0.86366161  0.39984936  0.24705079  1
  O  O179  1  0.88731631  0.33568289  0.50966360  1
  O  O180  1  0.85448310  0.39697287  0.74381209  1
  O  O181  1  0.89625835  0.62938605  0.00491985  1
  O  O182  1  0.85727594  0.59467745  0.24524453  1
  O  O183  1  0.86312242  0.64585429  0.50500754  1
  O  O184  1  0.86471454  0.59398337  0.74105678  1
  O  O185  1  0.91890038  0.84631914  0.01005308  1
  O  O186  1  0.87043640  0.90478203  0.25215124  1
  O  O187  1  0.88870937  0.84473320  0.49431493  1
  O  O188  1  0.83855565  0.91859880  0.72906035  1
  O  O189  1  0.00122167  0.15215155  0.12430270  1
  O  O190  1  0.01141455  0.11055436  0.42101038  1
  O  O191  1  -0.00536574  0.13804277  0.59939081  1
  O  O192  1  -0.00324802  0.15189099  0.87748320  1
  O  O193  1  0.00062636  0.35778207  0.13502189  1
  O  O194  1  0.01650482  0.37811477  0.34420143  1
  O  O195  1  -0.00551281  0.36700317  0.65198535  1
  O  O196  1  -0.00886636  0.35818055  0.85255526  1
  O  O197  1  0.00432089  0.62370769  0.14478268  1
  O  O198  1  0.01041839  0.61353661  0.37702279  1
  O  O199  1  -0.00799898  0.62901765  0.61979867  1
  O  O200  1  -0.00177446  0.62562683  0.84671049  1
  O  O201  1  0.01094102  0.85926696  0.15315542  1
  O  O202  1  0.00661488  0.89574790  0.35501947  1
  O  O203  1  -0.01105994  0.87151965  0.65329030  1
  O  O204  1  -0.00269277  0.88525109  0.85931075  1
  O  O205  1  0.25949478  0.10309381  0.12440473  1
  O  O206  1  0.24593172  0.15757448  0.36817699  1
  O  O207  1  0.24511360  0.11445659  0.64170324  1
  O  O208  1  0.24899483  0.10924169  0.89537503  1
  O  O209  1  0.26377444  0.39316076  0.09529424  1
  O  O210  1  0.23886412  0.35888709  0.36867409  1
  O  O211  1  0.25298008  0.37474669  0.60588826  1
  O  O212  1  0.25763557  0.38356835  0.90602638  1
  O  O213  1  0.25694741  0.61878001  0.09241569  1
  O  O214  1  0.24739484  0.65732074  0.38737507  1
  O  O215  1  0.25360270  0.61465721  0.61818809  1
  O  O216  1  0.25784929  0.61762603  0.89022217  1
  O  O217  1  0.24793225  0.87956627  0.09440420  1
  O  O218  1  0.24248408  0.85567474  0.41801150  1
  O  O219  1  0.22937345  0.89895805  0.62302534  1
  O  O220  1  0.24814080  0.87846763  0.89706414  1
  O  O221  1  0.49914247  0.15848121  0.13610877  1
  O  O222  1  0.49799636  0.09353557  0.39066378  1
  O  O223  1  0.50218683  0.12629227  0.63607904  1
  O  O224  1  0.49441749  0.13997613  0.88134560  1
  O  O225  1  0.50808043  0.35293687  0.15157883  1
  O  O226  1  0.49832468  0.38092876  0.37845542  1
  O  O227  1  0.49467883  0.37140482  0.66038546  1
  O  O228  1  0.49062365  0.36372992  0.84068175  1
  O  O229  1  0.49887060  0.64355336  0.16043984  1
  O  O230  1  0.49802136  0.65179026  0.37585543  1
  O  O231  1  0.49870014  0.66724448  0.62326522  1
  O  O232  1  0.50722166  0.65685501  0.87763432  1
  O  O233  1  0.49023430  0.84584959  0.17786590  1
  O  O234  1  0.50129361  0.89239185  0.35530393  1
  O  O235  1  0.50987172  0.87075521  0.64147035  1
  O  O236  1  0.50820879  0.86078674  0.86687433  1
  O  O237  1  0.75869043  0.10060567  0.13848622  1
  O  O238  1  0.74347220  0.14197330  0.35231725  1
  O  O239  1  0.75875196  0.09737977  0.63555804  1
  O  O240  1  0.75253227  0.11695175  0.88796464  1
  O  O241  1  0.75201993  0.39211822  0.11817539  1
  O  O242  1  0.75490440  0.35734159  0.39118336  1
  O  O243  1  0.75179796  0.39474052  0.59747726  1
  O  O244  1  0.75211973  0.41365329  0.88105358  1
  O  O245  1  0.75084964  0.60447626  0.11396803  1
  O  O246  1  0.73628139  0.64834011  0.39373155  1
  O  O247  1  0.74033579  0.61271699  0.60140392  1
  O  O248  1  0.73954862  0.60397091  0.88915191  1
  O  O249  1  0.75186295  0.87546761  0.08588295  1
  O  O250  1  0.75954627  0.84255244  0.37601282  1
  O  O251  1  0.75016608  0.89564233  0.59723875  1
  O  O252  1  0.75275761  0.87564454  0.89707563  1
  O  O253  1  0.11969454  -0.00254747  0.14802965  1
  O  O254  1  0.15222538  -0.00004743  0.36798543  1
  O  O255  1  0.09384056  0.01072014  0.63870920  1
  O  O256  1  0.11297284  0.00265717  0.86549419  1
  O  O257  1  0.13851731  0.25593382  0.08878497  1
  O  O258  1  0.11499744  0.25971946  0.41549878  1
  O  O259  1  0.12222756  0.24223771  0.59989059  1
  O  O260  1  0.14142610  0.24690693  0.90549178  1
  O  O261  1  0.13879743  0.49852062  0.13925183  1
  O  O262  1  0.14617096  0.50198818  0.35971299  1
  O  O263  1  0.13741493  0.50136888  0.64567265  1
  O  O264  1  0.11909610  0.50162266  0.84283774  1
  O  O265  1  0.13232725  0.74453354  0.09801603  1
  O  O266  1  0.10193573  0.75231962  0.38316735  1
  O  O267  1  0.13357353  0.76511113  0.61707812  1
  O  O268  1  0.09336557  0.75924480  0.89958519  1
  O  O269  1  0.39261849  -0.01241319  0.09920633  1
  O  O270  1  0.33812446  0.00188062  0.38237239  1
  O  O271  1  0.37852687  -0.00027111  0.62565531  1
  O  O272  1  0.37874523  -0.00345491  0.90800075  1
  O  O273  1  0.35654627  0.25560216  0.13956920  1
  O  O274  1  0.39887749  0.24058082  0.36008857  1
  O  O275  1  0.37528832  0.25507186  0.65750231  1
  O  O276  1  0.34957099  0.24082584  0.86526295  1
  O  O277  1  0.41420902  0.50056184  0.10501581  1
  O  O278  1  0.36952244  0.49598797  0.39596546  1
  O  O279  1  0.38748740  0.50149723  0.61507948  1
  O  O280  1  0.40311815  0.50679618  0.89737685  1
  O  O281  1  0.34896569  0.74924760  0.13231366  1
  O  O282  1  0.37500594  0.75357748  0.33469215  1
  O  O283  1  0.35598961  0.74489598  0.64565582  1
  O  O284  1  0.36921496  0.75382395  0.86677451  1
  O  O285  1  0.59384156  -0.01455078  0.10787829  1
  O  O286  1  0.65760571  0.00226249  0.38920849  1
  O  O287  1  0.61708170  -0.00150762  0.61611196  1
  O  O288  1  0.63108579  -0.01359147  0.90681695  1
  O  O289  1  0.64475524  0.24994269  0.15058440  1
  O  O290  1  0.59128290  0.23466897  0.34466784  1
  O  O291  1  0.62840245  0.24362761  0.65542691  1
  O  O292  1  0.64838048  0.25059152  0.86091534  1
  O  O293  1  0.61179875  0.50159738  0.13132688  1
  O  O294  1  0.61189102  0.51224100  0.39872437  1
  O  O295  1  0.58982612  0.51342508  0.61576246  1
  O  O296  1  0.59552013  0.50872686  0.89714060  1
  O  O297  1  0.64715374  0.74751243  0.14909174  1
  O  O298  1  0.61702080  0.75502126  0.33359295  1
  O  O299  1  0.65289935  0.75750043  0.64332215  1
  O  O300  1  0.65025405  0.75200447  0.85944707  1
  O  O301  1  0.90680671  0.00195918  0.11109611  1
  O  O302  1  0.85466137  -0.00384254  0.39486624  1
  O  O303  1  0.89678660  -0.00487840  0.57864842  1
  O  O304  1  0.88234635  0.01304302  0.88846392  1
  O  O305  1  0.86370880  0.25181272  0.15707756  1
  O  O306  1  0.88365702  0.24631295  0.34471338  1
  O  O307  1  0.85499027  0.25001708  0.64506656  1
  O  O308  1  0.84441857  0.25494675  0.86555846  1
  O  O309  1  0.89230813  0.49564727  0.11034717  1
  O  O310  1  0.90554806  0.48907838  0.41126769  1
  O  O311  1  0.89154807  0.49757674  0.58453058  1
  O  O312  1  0.90341642  0.49406978  0.88373575  1
  O  O313  1  0.87665733  0.74002570  0.15377675  1
  O  O314  1  0.90487391  0.75800601  0.34940731  1
  O  O315  1  0.85821934  0.75172033  0.64738400  1
  O  O316  1  0.86796067  0.74604501  0.85224862  1
