# generated using pymatgen
data_Mg32Ti42(Bi17O64)3
_symmetry_space_group_name_H-M   'P 1'
_cell_length_a   15.89981207
_cell_length_b   15.93569812
_cell_length_c   15.96203388
_cell_angle_alpha   89.97137028
_cell_angle_beta   90.05250769
_cell_angle_gamma   90.03687159
_symmetry_Int_Tables_number   1
_chemical_formula_structural   Mg32Ti42(Bi17O64)3
_chemical_formula_sum   'Mg32 Ti42 Bi51 O192'
_cell_volume   4044.37099524
_cell_formula_units_Z   1
loop_
 _symmetry_equiv_pos_site_id
 _symmetry_equiv_pos_as_xyz
  1  'x, y, z'
loop_
 _atom_site_type_symbol
 _atom_site_label
 _atom_site_symmetry_multiplicity
 _atom_site_fract_x
 _atom_site_fract_y
 _atom_site_fract_z
 _atom_site_occupancy
  Mg  Mg0  1  0.62500169  0.62773174  0.63425172  1
  Mg  Mg1  1  0.37211914  0.62261681  0.62332926  1
  Mg  Mg2  1  0.13859080  0.87511195  0.38619855  1
  Mg  Mg3  1  0.61467551  0.87978124  0.12572092  1
  Mg  Mg4  1  0.87302156  0.86861320  0.37701089  1
  Mg  Mg5  1  0.89439161  0.87274512  0.12166779  1
  Mg  Mg6  1  0.62393585  0.36990544  0.38377652  1
  Mg  Mg7  1  0.37474177  0.87009426  0.37123533  1
  Mg  Mg8  1  0.37694025  0.87448333  0.62596661  1
  Mg  Mg9  1  0.87818049  0.37168504  0.12730436  1
  Mg  Mg10  1  0.62398123  0.11947139  0.36645905  1
  Mg  Mg11  1  0.13405303  0.38089193  0.12228008  1
  Mg  Mg12  1  0.37366060  0.14827594  0.11391816  1
  Mg  Mg13  1  0.62419085  0.12843952  0.87607121  1
  Mg  Mg14  1  0.13117580  0.62886386  0.11916103  1
  Mg  Mg15  1  0.38012416  0.61853778  0.88170058  1
  Mg  Mg16  1  0.60586375  0.37762905  0.11388271  1
  Mg  Mg17  1  0.87669440  0.87432919  0.88142459  1
  Mg  Mg18  1  0.86512381  0.12233723  0.62134563  1
  Mg  Mg19  1  0.48067098  0.53288668  0.73806370  1
  Mg  Mg20  1  0.51572376  0.69955224  0.51379351  1
  Mg  Mg21  1  0.25484626  0.74816912  -0.00387999  1
  Mg  Mg22  1  0.72416617  0.54038730  0.50311324  1
  Mg  Mg23  1  0.22137768  0.05785722  0.18774801  1
  Mg  Mg24  1  0.51933377  0.25961606  -0.00570360  1
  Mg  Mg25  1  0.50545241  0.22428383  0.45493685  1
  Mg  Mg26  1  0.28669948  0.50888919  0.76137941  1
  Mg  Mg27  1  0.20827370  0.21989371  0.04999450  1
  Mg  Mg28  1  0.00243653  0.79431944  0.29425502  1
  Mg  Mg29  1  0.48783514  0.54397429  0.02868987  1
  Mg  Mg30  1  0.75387146  0.79303805  0.21918958  1
  Mg  Mg31  1  0.32479771  0.76237995  0.49413225  1
  Ti  Ti32  1  0.38079268  0.38531320  0.63178131  1
  Ti  Ti33  1  0.12882757  0.13655554  0.86675952  1
  Ti  Ti34  1  0.62443455  0.12298899  0.13051455  1
  Ti  Ti35  1  0.11783609  0.38261968  0.63449347  1
  Ti  Ti36  1  0.12820452  0.11485614  0.38499065  1
  Ti  Ti37  1  0.36966059  0.87468116  0.13343867  1
  Ti  Ti38  1  0.87793421  0.62034086  0.87981938  1
  Ti  Ti39  1  0.36950075  0.12868521  0.38375124  1
  Ti  Ti40  1  0.63119254  0.61410843  0.12418901  1
  Ti  Ti41  1  0.37572457  0.13423613  0.63115522  1
  Ti  Ti42  1  0.87938641  0.13097494  0.38171144  1
  Ti  Ti43  1  0.38304753  0.38600707  0.87624668  1
  Ti  Ti44  1  0.61101862  0.88122428  0.36706343  1
  Ti  Ti45  1  0.61706870  0.12226696  0.61702012  1
  Ti  Ti46  1  0.86540880  0.12015403  0.88415280  1
  Ti  Ti47  1  0.12445488  0.62090717  0.87471655  1
  Ti  Ti48  1  0.12411703  0.87890673  0.87517879  1
  Ti  Ti49  1  0.61776251  0.37423644  0.87412860  1
  Ti  Ti50  1  0.86753654  0.12891603  0.13562322  1
  Ti  Ti51  1  0.85846526  0.37239391  0.62563573  1
  Ti  Ti52  1  0.88551863  0.63109970  0.35706262  1
  Ti  Ti53  1  0.61931420  0.37552957  0.62174596  1
  Ti  Ti54  1  0.36967802  0.13839299  0.87843225  1
  Ti  Ti55  1  0.13305363  0.38087270  0.87337341  1
  Ti  Ti56  1  0.37085071  0.87078598  0.87978240  1
  Ti  Ti57  1  0.37102266  0.62798049  0.13390179  1
  Ti  Ti58  1  0.85841604  0.36689197  0.87141490  1
  Ti  Ti59  1  0.61991545  0.86859774  0.61258159  1
  Ti  Ti60  1  0.13056774  0.12628612  0.63146169  1
  Ti  Ti61  1  0.12185581  0.86076910  0.63463856  1
  Ti  Ti62  1  0.86412351  0.62897307  0.63021884  1
  Ti  Ti63  1  0.86419837  0.87009068  0.62325847  1
  Ti  Ti64  1  0.61946666  0.86259242  0.88559676  1
  Ti  Ti65  1  0.12575590  0.61542771  0.64315099  1
  Ti  Ti66  1  0.61520161  0.61916132  0.88949592  1
  Ti  Ti67  1  0.13266439  0.87306237  0.13916706  1
  Ti  Ti68  1  0.11336557  0.37704726  0.38714232  1
  Ti  Ti69  1  0.88392763  0.63084354  0.12696966  1
  Ti  Ti70  1  0.38775507  0.63361628  0.38639977  1
  Ti  Ti71  1  0.37248611  0.37604131  0.38803913  1
  Ti  Ti72  1  0.37211881  0.36639215  0.11419407  1
  Ti  Ti73  1  0.88118011  0.37163010  0.35763812  1
  Bi  Bi74  1  0.25795402  0.72307928  0.76759239  1
  Bi  Bi75  1  0.76295322  0.75193323  0.01428415  1
  Bi  Bi76  1  0.46807559  -0.01468020  0.50167818  1
  Bi  Bi77  1  0.75882492  0.49176999  0.03153433  1
  Bi  Bi78  1  0.53925390  0.74202346  0.24415146  1
  Bi  Bi79  1  -0.02182348  0.75371625  0.76171948  1
  Bi  Bi80  1  -0.02496896  0.49372076  0.74951126  1
  Bi  Bi81  1  0.72215485  0.73443814  0.45206538  1
  Bi  Bi82  1  -0.03717506  0.00042757  0.74634999  1
  Bi  Bi83  1  0.24872748  -0.01283632  0.52550986  1
  Bi  Bi84  1  0.21205139  0.72653291  0.29264722  1
  Bi  Bi85  1  0.49347384  0.27170240  0.25799910  1
  Bi  Bi86  1  0.02124982  0.50503115  0.23061201  1
  Bi  Bi87  1  0.03704796  0.21542447  0.23309470  1
  Bi  Bi88  1  0.76194776  -0.01692117  0.03235142  1
  Bi  Bi89  1  0.24617102  -0.01253735  0.75049647  1
  Bi  Bi90  1  0.24590157  0.24869767  0.27807746  1
  Bi  Bi91  1  0.74495951  0.26023658  0.02762821  1
  Bi  Bi92  1  0.72489518  -0.01215182  0.76982943  1
  Bi  Bi93  1  0.74326789  -0.00946632  0.49399881  1
  Bi  Bi94  1  -0.02816621  0.23550358  0.75279840  1
  Bi  Bi95  1  0.75449691  -0.00863865  0.26533344  1
  Bi  Bi96  1  0.48335411  0.50488384  0.25479000  1
  Bi  Bi97  1  0.50450634  0.24649776  0.75452669  1
  Bi  Bi98  1  0.26361490  0.27437913  0.75567747  1
  Bi  Bi99  1  -0.01039819  -0.01524558  0.27232234  1
  Bi  Bi100  1  0.02040001  0.26665924  0.00112345  1
  Bi  Bi101  1  0.03437421  0.70945177  0.48514499  1
  Bi  Bi102  1  0.70585985  0.50348816  0.75927012  1
  Bi  Bi103  1  0.24370506  0.00281255  -0.00054223  1
  Bi  Bi104  1  0.49813895  -0.00492825  0.77870204  1
  Bi  Bi105  1  0.47643538  0.75867666  0.01281104  1
  Bi  Bi106  1  0.73044684  0.23912843  0.48697449  1
  Bi  Bi107  1  0.45097610  0.01924535  0.24559842  1
  Bi  Bi108  1  0.73272684  0.23327328  0.73684737  1
  Bi  Bi109  1  0.72240167  0.27033690  0.25072481  1
  Bi  Bi110  1  -0.00455071  0.48369749  0.00312402  1
  Bi  Bi111  1  0.22663849  0.53617257  0.49086918  1
  Bi  Bi112  1  0.74664117  0.74279538  0.77177844  1
  Bi  Bi113  1  0.73423571  0.51076539  0.29994878  1
  Bi  Bi114  1  0.48265054  0.75561795  0.72884204  1
  Bi  Bi115  1  0.25543002  0.50750603  0.01725527  1
  Bi  Bi116  1  0.04221809  0.75939908  0.01085700  1
  Bi  Bi117  1  0.00995667  -0.03386469  0.50899094  1
  Bi  Bi118  1  0.50134025  0.03889953  0.01328961  1
  Bi  Bi119  1  -0.04592653  0.49819222  0.50748906  1
  Bi  Bi120  1  0.24651083  0.26726343  0.53143634  1
  Bi  Bi121  1  0.23034218  0.50283607  0.26847245  1
  Bi  Bi122  1  0.52888161  0.50329545  0.50433659  1
  Bi  Bi123  1  0.02438624  0.03591610  0.02758470  1
  Bi  Bi124  1  -0.00583747  0.23322261  0.52387022  1
  O  O125  1  0.11384477  0.14609187  -0.01226192  1
  O  O126  1  0.13925376  0.12031121  0.25844916  1
  O  O127  1  0.10727377  0.15044139  0.49727813  1
  O  O128  1  0.15189395  0.10296190  0.74599560  1
  O  O129  1  0.14781122  0.33466893  -0.01037699  1
  O  O130  1  0.11615349  0.40717963  0.25129883  1
  O  O131  1  0.13865262  0.36093412  0.49929791  1
  O  O132  1  0.10711190  0.38750860  0.75088601  1
  O  O133  1  0.16052202  0.65111819  -0.01140172  1
  O  O134  1  0.12284815  0.59440500  0.24299606  1
  O  O135  1  0.15207959  0.64570172  0.52044886  1
  O  O136  1  0.09323065  0.60068503  0.75438030  1
  O  O137  1  0.16173607  0.83792700  -0.01677751  1
  O  O138  1  0.10488716  0.88142681  0.24951057  1
  O  O139  1  0.12094595  0.87097306  0.51346206  1
  O  O140  1  0.12562218  0.90845708  0.75246171  1
  O  O141  1  0.41216092  0.14969210  -0.01161014  1
  O  O142  1  0.34144179  0.10367981  0.23783165  1
  O  O143  1  0.40206031  0.15054982  0.49236395  1
  O  O144  1  0.35126218  0.13335142  0.74435592  1
  O  O145  1  0.36057327  0.40710817  -0.01036013  1
  O  O146  1  0.40033700  0.37307872  0.23467697  1
  O  O147  1  0.35830748  0.37885484  0.50122167  1
  O  O148  1  0.38706760  0.35247804  0.74672479  1
  O  O149  1  0.36545994  0.59258336  0.00794099  1
  O  O150  1  0.40475782  0.62830247  0.25398949  1
  O  O151  1  0.34027786  0.63148915  0.49936100  1
  O  O152  1  0.40600495  0.64466807  0.75351065  1
  O  O153  1  0.37590609  0.87535540  -0.00444131  1
  O  O154  1  0.38709630  0.88260508  0.24725679  1
  O  O155  1  0.36237852  0.88749013  0.50038635  1
  O  O156  1  0.38565156  0.85657556  0.75032588  1
  O  O157  1  0.58956352  0.15025446  -0.00438639  1
  O  O158  1  0.65012452  0.11437679  0.24134813  1
  O  O159  1  0.60676859  0.16333960  0.50260812  1
  O  O160  1  0.64875206  0.10778056  0.73972079  1
  O  O161  1  0.62668851  0.34364400  -0.01316200  1
  O  O162  1  0.60819710  0.36577475  0.24681846  1
  O  O163  1  0.63085578  0.34518061  0.51101249  1
  O  O164  1  0.59634816  0.41049986  0.75198072  1
  O  O165  1  0.65052688  0.64298628  -0.00117850  1
  O  O166  1  0.59591970  0.60241960  0.23641643  1
  O  O167  1  0.64498307  0.64145927  0.50847023  1
  O  O168  1  0.59623504  0.59448737  0.75775168  1
  O  O169  1  0.62672193  0.85095194  -0.00340443  1
  O  O170  1  0.59322731  0.88334719  0.25275455  1
  O  O171  1  0.65801927  0.87212088  0.49277163  1
  O  O172  1  0.62197505  0.89866266  0.73106239  1
  O  O173  1  0.89880347  0.12729028  -0.00591975  1
  O  O174  1  0.85069111  0.13101897  0.24975130  1
  O  O175  1  0.90748972  0.12199463  0.49869063  1
  O  O176  1  0.87728227  0.13006733  0.75093278  1
  O  O177  1  0.85161061  0.37933530  -0.01105328  1
  O  O178  1  0.90693245  0.36937316  0.24985682  1
  O  O179  1  0.85209427  0.38523364  0.51190763  1
  O  O180  1  0.89682522  0.37101918  0.75444324  1
  O  O181  1  0.85044244  0.63800707  -0.00476103  1
  O  O182  1  0.90190893  0.62009705  0.24397147  1
  O  O183  1  0.84056295  0.59800798  0.51637396  1
  O  O184  1  0.90658417  0.62247382  0.75140482  1
  O  O185  1  0.84898881  0.86403736  0.00289481  1
  O  O186  1  0.91598851  0.86968666  0.24433917  1
  O  O187  1  0.87578427  0.88794830  0.50605691  1
  O  O188  1  0.89538793  0.87238188  0.75047431  1
  O  O189  1  -0.01029144  0.11775858  0.14070103  1
  O  O190  1  0.00337319  0.11547346  0.35742131  1
  O  O191  1  0.00951957  0.14334711  0.63764077  1
  O  O192  1  0.01337985  0.12980575  0.84869148  1
  O  O193  1  0.00058741  0.37209902  0.08844825  1
  O  O194  1  -0.00241218  0.38922838  0.39948466  1
  O  O195  1  0.00327338  0.38050493  0.61185989  1
  O  O196  1  0.00746051  0.36435670  0.89909104  1
  O  O197  1  -0.00751403  0.64913291  0.10308327  1
  O  O198  1  -0.01047270  0.60268429  0.41273054  1
  O  O199  1  0.00006525  0.61559525  0.59844278  1
  O  O200  1  0.00178468  0.63308749  0.89626759  1
  O  O201  1  0.01880197  0.87641508  0.08779660  1
  O  O202  1  0.00547388  0.89897903  0.38187150  1
  O  O203  1  0.00301226  0.88700708  0.62709644  1
  O  O204  1  0.01116727  0.84980164  0.88227144  1
  O  O205  1  0.25943454  0.11018239  0.08249710  1
  O  O206  1  0.24830280  0.15198671  0.38839590  1
  O  O207  1  0.25091837  0.12712385  0.59540408  1
  O  O208  1  0.25524334  0.10179997  0.89130168  1
  O  O209  1  0.25875483  0.42265705  0.12728767  1
  O  O210  1  0.25489686  0.36614884  0.35667405  1
  O  O211  1  0.25145124  0.37077584  0.63424480  1
  O  O212  1  0.25304478  0.39582592  0.83892336  1
  O  O213  1  0.25903109  0.59973126  0.13877268  1
  O  O214  1  0.26227122  0.61931910  0.35937942  1
  O  O215  1  0.24440471  0.61733199  0.66811581  1
  O  O216  1  0.24858589  0.60300029  0.84161630  1
  O  O217  1  0.25364901  0.89095208  0.13561668  1
  O  O218  1  0.25510541  0.81739591  0.38691225  1
  O  O219  1  0.24495501  0.89299700  0.63535910  1
  O  O220  1  0.25487879  0.89312988  0.85507712  1
  O  O221  1  0.50008950  0.12224795  0.13923211  1
  O  O222  1  0.49482883  0.13812680  0.35410290  1
  O  O223  1  0.49873503  0.12628747  0.64570405  1
  O  O224  1  0.49374931  0.12849366  0.83779325  1
  O  O225  1  0.48455165  0.32951125  0.09443632  1
  O  O226  1  0.49627358  0.33839798  0.38772760  1
  O  O227  1  0.49893340  0.38817389  0.61241061  1
  O  O228  1  0.49542402  0.34285045  0.88754695  1
  O  O229  1  0.50083835  0.65391720  0.10141085  1
  O  O230  1  0.49651189  0.60825184  0.42022986  1
  O  O231  1  0.50163345  0.59887536  0.59962947  1
  O  O232  1  0.50547444  0.61309790  0.91752018  1
  O  O233  1  0.49331656  0.83570073  0.12112033  1
  O  O234  1  0.50284764  0.89988399  0.39668595  1
  O  O235  1  0.50683603  0.90106992  0.60576313  1
  O  O236  1  0.49973963  0.86542740  0.86574347  1
  O  O237  1  0.74782613  0.11550564  0.09359492  1
  O  O238  1  0.76061133  0.12079574  0.41191320  1
  O  O239  1  0.74066608  0.15433034  0.60711408  1
  O  O240  1  0.75184654  0.11127989  0.88722800  1
  O  O241  1  0.74312221  0.38279050  0.11624773  1
  O  O242  1  0.75824204  0.37161435  0.34322019  1
  O  O243  1  0.74509732  0.36069867  0.65558998  1
  O  O244  1  0.74468314  0.37258518  0.84970317  1
  O  O245  1  0.74636207  0.59101668  0.13577587  1
  O  O246  1  0.76420833  0.63729938  0.35885556  1
  O  O247  1  0.75161365  0.63490596  0.66250797  1
  O  O248  1  0.75334164  0.62401369  0.84694105  1
  O  O249  1  0.74284546  0.89679130  0.14393633  1
  O  O250  1  0.75367027  0.86118836  0.32748142  1
  O  O251  1  0.75086198  0.86394237  0.63375736  1
  O  O252  1  0.73979910  0.87177474  0.85870642  1
  O  O253  1  0.13764552  -0.00402369  0.10364340  1
  O  O254  1  0.14465478  0.00453498  0.40144768  1
  O  O255  1  0.12536147  0.01213959  0.60260021  1
  O  O256  1  0.12047046  -0.00747222  0.90964739  1
  O  O257  1  0.12710029  0.25602585  0.13853512  1
  O  O258  1  0.11945467  0.26051628  0.34913096  1
  O  O259  1  0.13747021  0.25413380  0.63054912  1
  O  O260  1  0.14356269  0.24823982  0.84590121  1
  O  O261  1  0.09419801  0.50503152  0.10197288  1
  O  O262  1  0.14548311  0.49389452  0.38696170  1
  O  O263  1  0.13268118  0.50006448  0.60916224  1
  O  O264  1  0.11814462  0.49493372  0.89975870  1
  O  O265  1  0.13333023  0.75497219  0.12762116  1
  O  O266  1  0.09728911  0.74800943  0.35999883  1
  O  O267  1  0.12205212  0.74944668  0.65514779  1
  O  O268  1  0.14008506  0.73925239  0.84160833  1
  O  O269  1  0.40064069  -0.01065159  0.11577842  1
  O  O270  1  0.37096736  0.01146480  0.38282791  1
  O  O271  1  0.36772298  0.01178355  0.61116280  1
  O  O272  1  0.39167470  -0.00182300  0.86896612  1
  O  O273  1  0.32052959  0.26480110  0.10970331  1
  O  O274  1  0.37150021  0.25074296  0.34568574  1
  O  O275  1  0.36607543  0.25288923  0.62105508  1
  O  O276  1  0.34860833  0.25242904  0.87049646  1
  O  O277  1  0.41880501  0.50979723  0.13406257  1
  O  O278  1  0.38296211  0.49057873  0.36445705  1
  O  O279  1  0.37223164  0.49739857  0.66333708  1
  O  O280  1  0.39736219  0.49421583  0.83712166  1
  O  O281  1  0.35177186  0.74341615  0.09260999  1
  O  O282  1  0.41075987  0.74467591  0.40127369  1
  O  O283  1  0.40566093  0.74875638  0.60662878  1
  O  O284  1  0.34074149  0.74747030  0.89456184  1
  O  O285  1  0.61539721  0.00565859  0.09494464  1
  O  O286  1  0.65710955  -0.00306303  0.38014564  1
  O  O287  1  0.63890811  0.01184486  0.58752306  1
  O  O288  1  0.61385419  -0.00761217  0.86832186  1
  O  O289  1  0.64452254  0.24478132  0.12729009  1
  O  O290  1  0.64654652  0.24434286  0.36362807  1
  O  O291  1  0.61525388  0.25547989  0.66049368  1
  O  O292  1  0.62605175  0.25431909  0.83433105  1
  O  O293  1  0.59691501  0.50530259  0.08741870  1
  O  O294  1  0.65563992  0.49118297  0.40828230  1
  O  O295  1  0.64762732  0.49418546  0.59867076  1
  O  O296  1  0.64021506  0.49689008  0.89062053  1
  O  O297  1  0.64975168  0.74344397  0.16031041  1
  O  O298  1  0.61341809  0.75964829  0.37106585  1
  O  O299  1  0.59421039  0.75597113  0.61807397  1
  O  O300  1  0.62552663  0.74286773  0.85105278  1
  O  O301  1  0.87195629  0.00321356  0.11418386  1
  O  O302  1  0.86867180  0.00196762  0.35548658  1
  O  O303  1  0.86567813  -0.00388969  0.64263916  1
  O  O304  1  0.88568929  0.00144874  0.86394961  1
  O  O305  1  0.85488175  0.24668763  0.11853815  1
  O  O306  1  0.88104153  0.25034522  0.38436332  1
  O  O307  1  0.88629969  0.25439515  0.62828628  1
  O  O308  1  0.87293008  0.24869327  0.86678161  1
  O  O309  1  0.88504107  0.50596434  0.10339467  1
  O  O310  1  0.86159573  0.49860833  0.36668984  1
  O  O311  1  0.87693020  0.49718072  0.64505741  1
  O  O312  1  0.88422860  0.49978884  0.86740805  1
  O  O313  1  0.83790166  0.74478518  0.13401602  1
  O  O314  1  0.90802177  0.74435228  0.37151338  1
  O  O315  1  0.88676410  0.74727193  0.63729422  1
  O  O316  1  0.86831566  0.74427706  0.85474012  1
