# generated using pymatgen
data_Mg32Ti42(Bi17O64)3
_symmetry_space_group_name_H-M   'P 1'
_cell_length_a   15.89656523
_cell_length_b   15.94869883
_cell_length_c   15.93742465
_cell_angle_alpha   90.04113792
_cell_angle_beta   90.08229034
_cell_angle_gamma   90.04449407
_symmetry_Int_Tables_number   1
_chemical_formula_structural   Mg32Ti42(Bi17O64)3
_chemical_formula_sum   'Mg32 Ti42 Bi51 O192'
_cell_volume   4040.60137299
_cell_formula_units_Z   1
loop_
 _symmetry_equiv_pos_site_id
 _symmetry_equiv_pos_as_xyz
  1  'x, y, z'
loop_
 _atom_site_type_symbol
 _atom_site_label
 _atom_site_symmetry_multiplicity
 _atom_site_fract_x
 _atom_site_fract_y
 _atom_site_fract_z
 _atom_site_occupancy
  Mg  Mg0  1  0.12015830  0.37691947  0.38149310  1
  Mg  Mg1  1  0.13175027  0.36887378  0.86925309  1
  Mg  Mg2  1  0.38082086  0.60314131  0.35734280  1
  Mg  Mg3  1  0.12530580  0.62895758  0.87444224  1
  Mg  Mg4  1  0.87915454  0.62991239  0.37589528  1
  Mg  Mg5  1  0.88937652  0.87007204  0.12563939  1
  Mg  Mg6  1  0.37627710  0.12357189  0.37733554  1
  Mg  Mg7  1  0.86668110  0.13184384  0.36786991  1
  Mg  Mg8  1  0.12374081  0.87643118  0.37248107  1
  Mg  Mg9  1  0.36847626  0.86054367  0.87549591  1
  Mg  Mg10  1  0.12721071  0.37571746  0.12909589  1
  Mg  Mg11  1  0.63518206  0.11519825  0.87646635  1
  Mg  Mg12  1  0.62082568  0.38148439  0.87837350  1
  Mg  Mg13  1  0.37846622  0.37422590  0.13436274  1
  Mg  Mg14  1  0.37723257  0.87751093  0.62538251  1
  Mg  Mg15  1  0.86576167  0.37548599  0.62591481  1
  Mg  Mg16  1  0.37152705  0.62559271  0.64179299  1
  Mg  Mg17  1  0.87150811  0.87546098  0.62677764  1
  Mg  Mg18  1  0.87235412  0.37077630  0.88598026  1
  Mg  Mg19  1  -0.01114364  0.48901443  0.53564101  1
  Mg  Mg20  1  0.77821008  0.19782893  -0.01259837  1
  Mg  Mg21  1  0.55180376  0.50250955  0.26879444  1
  Mg  Mg22  1  0.22487483  0.01267165  0.04423622  1
  Mg  Mg23  1  0.77441190  0.75058457  0.21515055  1
  Mg  Mg24  1  0.24015476  0.46244264  0.27726744  1
  Mg  Mg25  1  0.79475541  -0.00505376  0.04453406  1
  Mg  Mg26  1  0.47284984  0.01712929  0.26531443  1
  Mg  Mg27  1  0.48963727  0.54446879  0.53600539  1
  Mg  Mg28  1  0.25981460  -0.00409894  0.79809418  1
  Mg  Mg29  1  0.62620084  -0.11535069  0.63498099  1
  Mg  Mg30  1  0.72822844  0.27773649  0.27809670  1
  Mg  Mg31  1  0.25662758  0.73155217  0.01107299  1
  Ti  Ti32  1  0.62421383  0.88699422  0.88080001  1
  Ti  Ti33  1  0.37516552  0.88385581  0.37990960  1
  Ti  Ti34  1  0.12634662  0.61506522  0.62602380  1
  Ti  Ti35  1  0.13280641  0.87066268  0.12558481  1
  Ti  Ti36  1  0.36271282  0.11442489  0.13647567  1
  Ti  Ti37  1  0.86809304  0.35105597  0.12739872  1
  Ti  Ti38  1  0.87978924  0.62528870  0.88391885  1
  Ti  Ti39  1  0.63178732  0.62624160  0.89254808  1
  Ti  Ti40  1  0.87928324  0.12407633  0.13174947  1
  Ti  Ti41  1  0.36851195  0.87831996  0.12868479  1
  Ti  Ti42  1  0.62835742  0.12657204  0.63313581  1
  Ti  Ti43  1  0.12744794  0.14201105  0.63074286  1
  Ti  Ti44  1  0.12727517  0.37831988  0.62318309  1
  Ti  Ti45  1  0.87441798  0.86109585  0.37429395  1
  Ti  Ti46  1  0.38771969  0.12568496  0.61393942  1
  Ti  Ti47  1  0.62822379  0.61004528  0.62494280  1
  Ti  Ti48  1  0.63654545  0.10844511  0.12505009  1
  Ti  Ti49  1  0.37726263  0.62022214  0.11962340  1
  Ti  Ti50  1  0.12636439  0.12191894  0.87698223  1
  Ti  Ti51  1  0.63280479  0.36702927  0.14085749  1
  Ti  Ti52  1  0.87663364  0.13415907  0.63149740  1
  Ti  Ti53  1  0.88502105  0.62940644  0.12249528  1
  Ti  Ti54  1  0.38976889  0.37888068  0.36451720  1
  Ti  Ti55  1  0.11874476  0.13527793  0.13282888  1
  Ti  Ti56  1  0.62242147  0.38440715  0.38626165  1
  Ti  Ti57  1  0.62090359  0.88317670  0.12726077  1
  Ti  Ti58  1  0.62869036  0.62581264  0.37819870  1
  Ti  Ti59  1  0.87527259  0.11316373  0.87151378  1
  Ti  Ti60  1  0.39086513  0.37208145  0.63006364  1
  Ti  Ti61  1  0.62569634  0.37632376  0.62626479  1
  Ti  Ti62  1  0.38121761  0.37761498  0.87034131  1
  Ti  Ti63  1  0.37385543  0.63042355  0.88538358  1
  Ti  Ti64  1  0.88244727  0.62688401  0.62567947  1
  Ti  Ti65  1  0.86895689  0.37652386  0.37361170  1
  Ti  Ti66  1  0.12585586  0.61372223  0.38315742  1
  Ti  Ti67  1  0.63085465  0.63715741  0.13234840  1
  Ti  Ti68  1  0.12500323  0.12920580  0.38691333  1
  Ti  Ti69  1  0.61788357  0.86706800  0.36895189  1
  Ti  Ti70  1  0.88181449  0.88650525  0.87691154  1
  Ti  Ti71  1  0.63213974  0.11765766  0.36706850  1
  Ti  Ti72  1  0.13725623  0.61649842  0.12497838  1
  Ti  Ti73  1  0.13582589  0.87276034  0.88485466  1
  Bi  Bi74  1  0.52049690  0.23373264  0.47919631  1
  Bi  Bi75  1  0.50750962  -0.02374672  0.51416566  1
  Bi  Bi76  1  0.24478104  0.51821706  0.76981921  1
  Bi  Bi77  1  0.28336357  0.25518079  0.48832417  1
  Bi  Bi78  1  -0.00390039  0.25917444  0.74047191  1
  Bi  Bi79  1  0.21700776  -0.01291432  0.55285631  1
  Bi  Bi80  1  0.03936210  0.77577386  0.52543267  1
  Bi  Bi81  1  0.01406158  -0.00219245  0.02666639  1
  Bi  Bi82  1  0.50891417  0.51753495  0.77550606  1
  Bi  Bi83  1  0.51588465  0.76440350  0.76634218  1
  Bi  Bi84  1  0.53880245  0.23822917  -0.00064774  1
  Bi  Bi85  1  0.02190411  0.48600936  -0.02281368  1
  Bi  Bi86  1  0.47823127  -0.01350217  0.75437485  1
  Bi  Bi87  1  0.28405766  0.49495610  0.51311415  1
  Bi  Bi88  1  0.02947539  0.73777054  0.00023317  1
  Bi  Bi89  1  0.02838449  -0.03052163  0.73298797  1
  Bi  Bi90  1  -0.00681721  0.01258833  0.27809460  1
  Bi  Bi91  1  0.00773119  0.26544144  0.26390925  1
  Bi  Bi92  1  0.00186942  0.24783226  -0.02453046  1
  Bi  Bi93  1  0.74460877  0.25472756  0.77154627  1
  Bi  Bi94  1  0.50801444  0.22899814  0.78120564  1
  Bi  Bi95  1  0.00039782  0.27418242  0.50706755  1
  Bi  Bi96  1  -0.00870004  -0.00822692  0.49569212  1
  Bi  Bi97  1  -0.01165457  0.75428448  0.74626224  1
  Bi  Bi98  1  0.48662451  0.73401466  0.25773968  1
  Bi  Bi99  1  0.27735916  0.23720134  -0.00452497  1
  Bi  Bi100  1  0.27727378  0.21354842  0.76123328  1
  Bi  Bi101  1  0.76100512  0.76260780  0.77501306  1
  Bi  Bi102  1  0.02251583  0.73817067  0.26753207  1
  Bi  Bi103  1  0.76347531  0.23826465  0.48852933  1
  Bi  Bi104  1  0.45002169  0.01773828  -0.02351304  1
  Bi  Bi105  1  0.22438646  0.79048185  0.71828676  1
  Bi  Bi106  1  0.75258385  0.48231177  0.00932071  1
  Bi  Bi107  1  0.76311767  0.00575666  0.53104074  1
  Bi  Bi108  1  -0.01427795  0.47265419  0.75439187  1
  Bi  Bi109  1  0.75238152  0.78540369  0.01151250  1
  Bi  Bi110  1  0.77470340  0.51589394  0.49197672  1
  Bi  Bi111  1  -0.00049232  0.49650333  0.25795841  1
  Bi  Bi112  1  0.74374929  0.48828370  0.75762118  1
  Bi  Bi113  1  0.25002675  0.27460184  0.24429673  1
  Bi  Bi114  1  0.25600173  0.47856468  -0.00433050  1
  Bi  Bi115  1  0.76740972  0.52336835  0.23770970  1
  Bi  Bi116  1  0.50862993  0.23083457  0.23324417  1
  Bi  Bi117  1  0.74109003  0.77165436  0.52094026  1
  Bi  Bi118  1  0.24380938  0.00274129  0.27735608  1
  Bi  Bi119  1  0.50471121  0.74505758  0.53159285  1
  Bi  Bi120  1  0.75750801  -0.03304278  0.26632232  1
  Bi  Bi121  1  0.48594350  0.77110133  0.01165504  1
  Bi  Bi122  1  0.28338473  0.71717447  0.49504573  1
  Bi  Bi123  1  0.25988902  0.74861045  0.27601054  1
  Bi  Bi124  1  0.51032129  0.48190219  0.03422601  1
  O  O125  1  0.14184265  0.09547965  -0.00863753  1
  O  O126  1  0.09687540  0.14368716  0.24519104  1
  O  O127  1  0.13626004  0.10965431  0.49910666  1
  O  O128  1  0.10680694  0.15141639  0.74382860  1
  O  O129  1  0.13480438  0.40602830  0.00544922  1
  O  O130  1  0.12046707  0.34122359  0.25106624  1
  O  O131  1  0.08395287  0.39417793  0.50295143  1
  O  O132  1  0.11203474  0.36253455  0.74189983  1
  O  O133  1  0.10052557  0.61193858  0.00633518  1
  O  O134  1  0.13732270  0.66347066  0.23537086  1
  O  O135  1  0.10544747  0.60210509  0.49316689  1
  O  O136  1  0.14602945  0.63206209  0.74200630  1
  O  O137  1  0.14252715  0.91796588  -0.00922116  1
  O  O138  1  0.12541549  0.85213975  0.23777038  1
  O  O139  1  0.10800663  0.89769918  0.49888967  1
  O  O140  1  0.10493676  0.84573561  0.75847937  1
  O  O141  1  0.33687610  0.08521086  0.01681653  1
  O  O142  1  0.40679661  0.13246108  0.24847308  1
  O  O143  1  0.34722620  0.12176413  0.50349345  1
  O  O144  1  0.39110346  0.14054017  0.73712538  1
  O  O145  1  0.34752157  0.36659228  0.00160194  1
  O  O146  1  0.38942312  0.33351694  0.25586695  1
  O  O147  1  0.36418926  0.37789605  0.49555966  1
  O  O148  1  0.37641072  0.37658764  0.74787132  1
  O  O149  1  0.40024376  0.61403127  0.00229687  1
  O  O150  1  0.36338788  0.65706109  0.23853209  1
  O  O151  1  0.38212841  0.60839537  0.48617704  1
  O  O152  1  0.35166393  0.61145780  0.76294860  1
  O  O153  1  0.39621083  0.89213925  0.00318332  1
  O  O154  1  0.36983275  0.84794582  0.24232621  1
  O  O155  1  0.37381143  0.90073126  0.49304398  1
  O  O156  1  0.40859032  0.86280095  0.74864564  1
  O  O157  1  0.65544537  0.15890360  0.01076321  1
  O  O158  1  0.59178422  0.10720221  0.24681281  1
  O  O159  1  0.64292882  0.15093921  0.49411737  1
  O  O160  1  0.59770157  0.12176113  0.74587585  1
  O  O161  1  0.63380763  0.39520065  0.01103853  1
  O  O162  1  0.62712996  0.39577804  0.25217388  1
  O  O163  1  0.62441366  0.36258985  0.50038303  1
  O  O164  1  0.61797927  0.41411144  0.74524621  1
  O  O165  1  0.61518076  0.64040266  0.00404941  1
  O  O166  1  0.65541243  0.62983267  0.24935398  1
  O  O167  1  0.58438657  0.62305057  0.48661815  1
  O  O168  1  0.63266875  0.59852944  0.74005731  1
  O  O169  1  0.61790736  0.85125633  -0.00016792  1
  O  O170  1  0.63330050  0.88767779  0.24404026  1
  O  O171  1  0.61569402  0.87837161  0.48609864  1
  O  O172  1  0.60102652  0.88021689  0.75691458  1
  O  O173  1  0.85174547  0.09306701  -0.01128020  1
  O  O174  1  0.89678248  0.13730772  0.24068412  1
  O  O175  1  0.84238063  0.12058042  0.49696749  1
  O  O176  1  0.88593406  0.14925882  0.74767670  1
  O  O177  1  0.86463715  0.39771787  0.01330018  1
  O  O178  1  0.84427873  0.33691753  0.24631775  1
  O  O179  1  0.88964540  0.40182685  0.49147412  1
  O  O180  1  0.89111566  0.36249828  0.75682029  1
  O  O181  1  0.88686193  0.61153563  0.00131026  1
  O  O182  1  0.84235116  0.64684957  0.24322086  1
  O  O183  1  0.89458914  0.58564196  0.50324310  1
  O  O184  1  0.86465989  0.64608420  0.74415984  1
  O  O185  1  0.85951578  0.89278380  -0.00798081  1
  O  O186  1  0.85382934  0.85423639  0.24827455  1
  O  O187  1  0.87500492  0.90098643  0.49194720  1
  O  O188  1  0.87716348  0.84898469  0.75445956  1
  O  O189  1  0.00017292  0.13520508  0.09580999  1
  O  O190  1  -0.00298266  0.09825382  0.38730969  1
  O  O191  1  -0.00645355  0.15921800  0.61351455  1
  O  O192  1  0.00037825  0.13248380  0.88863477  1
  O  O193  1  -0.01508419  0.35151661  0.13859492  1
  O  O194  1  -0.01071315  0.38238604  0.34611071  1
  O  O195  1  -0.00621062  0.34831972  0.62940819  1
  O  O196  1  0.00314930  0.36403425  0.89516943  1
  O  O197  1  -0.00103431  0.65492248  0.13645784  1
  O  O198  1  0.00526976  0.61508310  0.33746956  1
  O  O199  1  0.00086940  0.65696682  0.63032541  1
  O  O200  1  -0.00608017  0.65730739  0.87228166  1
  O  O201  1  0.01414556  0.86560245  0.09647350  1
  O  O202  1  -0.00723419  0.90057122  0.36751461  1
  O  O203  1  -0.00561742  0.85106670  0.63367612  1
  O  O204  1  -0.00231817  0.86039439  0.88513343  1
  O  O205  1  0.24604717  0.09993652  0.14989775  1
  O  O206  1  0.24090057  0.12731805  0.35115279  1
  O  O207  1  0.24182094  0.10814927  0.64099377  1
  O  O208  1  0.24123934  0.11151061  0.84301334  1
  O  O209  1  0.25450056  0.39201583  0.17012461  1
  O  O210  1  0.24828191  0.35287274  0.36089080  1
  O  O211  1  0.24017908  0.40740239  0.61881149  1
  O  O212  1  0.25293665  0.41132814  0.87138119  1
  O  O213  1  0.25397441  0.62106718  0.09615962  1
  O  O214  1  0.24523133  0.63856721  0.37464272  1
  O  O215  1  0.24591541  0.60369158  0.60202096  1
  O  O216  1  0.25156133  0.58780925  0.89197834  1
  O  O217  1  0.25383140  0.91094237  0.11882330  1
  O  O218  1  0.25255259  0.87860168  0.36402113  1
  O  O219  1  0.25635858  0.91316307  0.66578409  1
  O  O220  1  0.24599859  0.87949949  0.84418181  1
  O  O221  1  0.51187638  0.15103993  0.10435777  1
  O  O222  1  0.51001465  0.11811274  0.39753620  1
  O  O223  1  0.50133485  0.14906361  0.59743950  1
  O  O224  1  0.50717009  0.15029023  0.89752984  1
  O  O225  1  0.50876054  0.36316815  0.11523808  1
  O  O226  1  0.50147254  0.41100288  0.36914896  1
  O  O227  1  0.50033447  0.35274039  0.62472838  1
  O  O228  1  0.49412113  0.34813582  0.88251152  1
  O  O229  1  0.50272291  0.66286283  0.13840462  1
  O  O230  1  0.50649601  0.60921938  0.32556330  1
  O  O231  1  0.49947855  0.64096922  0.62851297  1
  O  O232  1  0.49435071  0.64279304  0.85378426  1
  O  O233  1  0.50632310  0.84789347  0.12960668  1
  O  O234  1  0.50135857  0.90521653  0.35482433  1
  O  O235  1  0.50374529  0.86845573  0.60423856  1
  O  O236  1  0.50192894  0.83783299  0.88128149  1
  O  O237  1  0.75473457  0.09203014  0.13172048  1
  O  O238  1  0.73975547  0.16920438  0.34733199  1
  O  O239  1  0.74398905  0.10827503  0.63633898  1
  O  O240  1  0.75742604  0.13940283  0.85976226  1
  O  O241  1  0.74812727  0.40896970  0.12883863  1
  O  O242  1  0.74495224  0.36348737  0.37826330  1
  O  O243  1  0.74241521  0.40785729  0.63302938  1
  O  O244  1  0.74824744  0.38657395  0.85540542  1
  O  O245  1  0.74502352  0.59399159  0.10864451  1
  O  O246  1  0.74604894  0.63055245  0.41009728  1
  O  O247  1  0.74747320  0.59830541  0.60367750  1
  O  O248  1  0.74583410  0.60120761  0.88205964  1
  O  O249  1  0.74547155  0.89618697  0.10557729  1
  O  O250  1  0.74751260  0.86791182  0.36998141  1
  O  O251  1  0.74728122  0.87962092  0.61103275  1
  O  O252  1  0.74359162  0.87473121  0.86597182  1
  O  O253  1  0.10787393  0.00327068  0.13028581  1
  O  O254  1  0.12477654  0.00525716  0.34955790  1
  O  O255  1  0.09947234  0.01579362  0.62624561  1
  O  O256  1  0.12312091  -0.00370812  0.83217632  1
  O  O257  1  0.14893281  0.24260356  0.10554148  1
  O  O258  1  0.09383063  0.24407455  0.39048528  1
  O  O259  1  0.13706114  0.25740256  0.59760270  1
  O  O260  1  0.13245694  0.24114412  0.89780471  1
  O  O261  1  0.11661292  0.50917422  0.15125222  1
  O  O262  1  0.13717383  0.50216335  0.34091434  1
  O  O263  1  0.08705728  0.50210661  0.63070369  1
  O  O264  1  0.09705942  0.50354335  0.86463902  1
  O  O265  1  0.15091690  0.76080652  0.08475973  1
  O  O266  1  0.10791598  0.74635168  0.38088780  1
  O  O267  1  0.15007253  0.74162288  0.60115072  1
  O  O268  1  0.14389201  0.75540207  0.91303444  1
  O  O269  1  0.40813826  -0.00223100  0.15057637  1
  O  O270  1  0.36968930  0.00056275  0.34353295  1
  O  O271  1  0.40825568  0.00838928  0.62824415  1
  O  O272  1  0.38242626  -0.00874950  0.85626892  1
  O  O273  1  0.35680128  0.23225026  0.11196012  1
  O  O274  1  0.39052021  0.25038412  0.40076002  1
  O  O275  1  0.35219764  0.25551928  0.61260985  1
  O  O276  1  0.34692560  0.25610146  0.87400043  1
  O  O277  1  0.39855782  0.50781392  0.13144009  1
  O  O278  1  0.34504306  0.48506701  0.34317643  1
  O  O279  1  0.39082083  0.49564115  0.60839765  1
  O  O280  1  0.40525680  0.49393755  0.88098060  1
  O  O281  1  0.35489436  0.76132085  0.09168387  1
  O  O282  1  0.37514685  0.75785960  0.38510456  1
  O  O283  1  0.36593329  0.74944451  0.60292677  1
  O  O284  1  0.34191822  0.73856656  0.90840790  1
  O  O285  1  0.60915863  0.00059708  0.10441306  1
  O  O286  1  0.66084214  0.00918586  0.37534123  1
  O  O287  1  0.60898664  0.01057425  0.60821342  1
  O  O288  1  0.60353307  -0.00419724  0.89130802  1
  O  O289  1  0.65330431  0.25570272  0.16597628  1
  O  O290  1  0.59940058  0.26558413  0.35591320  1
  O  O291  1  0.64546678  0.25978219  0.65094447  1
  O  O292  1  0.63313004  0.25535742  0.85181730  1
  O  O293  1  0.58930975  0.51679404  0.14125962  1
  O  O294  1  0.63832085  0.50558292  0.37056664  1
  O  O295  1  0.59254108  0.50142107  0.59955383  1
  O  O296  1  0.59385544  0.50914492  0.88371962  1
  O  O297  1  0.66847382  0.75301789  0.13560874  1
  O  O298  1  0.60530247  0.75280859  0.36730046  1
  O  O299  1  0.63455897  0.74025589  0.60765708  1
  O  O300  1  0.63824447  0.73875341  0.85218375  1
  O  O301  1  0.89938419  0.00112257  0.12542771  1
  O  O302  1  0.86392752  0.00269432  0.34769764  1
  O  O303  1  0.88376265  0.01022899  0.61774234  1
  O  O304  1  0.88879963  -0.00194811  0.84787529  1
  O  O305  1  0.84649531  0.23929428  0.09388520  1
  O  O306  1  0.88384417  0.25779060  0.40025688  1
  O  O307  1  0.84741289  0.24904759  0.60620448  1
  O  O308  1  0.87462698  0.24264791  0.90986802  1
  O  O309  1  0.88856417  0.51118836  0.15639537  1
  O  O310  1  0.86726331  0.49784702  0.34432965  1
  O  O311  1  0.90263154  0.50352752  0.64254664  1
  O  O312  1  0.89310407  0.50799460  0.85878447  1
  O  O313  1  0.85076982  0.74759451  0.10925079  1
  O  O314  1  0.89990707  0.75382637  0.39173166  1
  O  O315  1  0.85023186  0.73999189  0.59941424  1
  O  O316  1  0.84476873  0.74550328  0.88451745  1
