# generated using pymatgen
data_Mg32Ti42(Bi17O64)3
_symmetry_space_group_name_H-M   'P 1'
_cell_length_a   15.92120122
_cell_length_b   15.93019133
_cell_length_c   15.92730333
_cell_angle_alpha   89.93455992
_cell_angle_beta   90.04052394
_cell_angle_gamma   90.06243775
_symmetry_Int_Tables_number   1
_chemical_formula_structural   Mg32Ti42(Bi17O64)3
_chemical_formula_sum   'Mg32 Ti42 Bi51 O192'
_cell_volume   4039.60057213
_cell_formula_units_Z   1
loop_
 _symmetry_equiv_pos_site_id
 _symmetry_equiv_pos_as_xyz
  1  'x, y, z'
loop_
 _atom_site_type_symbol
 _atom_site_label
 _atom_site_symmetry_multiplicity
 _atom_site_fract_x
 _atom_site_fract_y
 _atom_site_fract_z
 _atom_site_occupancy
  Mg  Mg0  1  0.63700823  0.36617997  0.12570434  1
  Mg  Mg1  1  0.61909931  0.13944315  0.36695347  1
  Mg  Mg2  1  0.61926436  0.87674410  0.37392141  1
  Mg  Mg3  1  0.36153541  0.37442708  0.12959642  1
  Mg  Mg4  1  0.37953404  0.62625165  0.37041369  1
  Mg  Mg5  1  0.38028551  0.12346800  0.13139728  1
  Mg  Mg6  1  0.62069317  0.62398328  0.61317433  1
  Mg  Mg7  1  0.87001932  0.62502050  0.86981074  1
  Mg  Mg8  1  0.37869468  0.62318979  0.87491593  1
  Mg  Mg9  1  0.12886019  0.12597146  0.37844187  1
  Mg  Mg10  1  0.62512105  0.12799959  0.87650977  1
  Mg  Mg11  1  0.62229080  0.86937721  0.62714892  1
  Mg  Mg12  1  0.12567645  0.62136190  0.61470817  1
  Mg  Mg13  1  0.12626336  0.88544314  0.62719602  1
  Mg  Mg14  1  0.12228679  0.12097809  0.12367109  1
  Mg  Mg15  1  0.62019759  0.38306987  0.61818937  1
  Mg  Mg16  1  0.88331990  0.13687607  0.62722919  1
  Mg  Mg17  1  0.62693518  0.63958897  0.12881800  1
  Mg  Mg18  1  0.62219854  0.63080125  0.87756588  1
  Mg  Mg19  1  0.70507554  -0.00319999  -0.04497091  1
  Mg  Mg20  1  0.79568124  -0.01926164  0.30710108  1
  Mg  Mg21  1  0.49596789  0.30287714  0.21261874  1
  Mg  Mg22  1  0.29325876  0.01851134  0.50487292  1
  Mg  Mg23  1  0.25375379  0.21683600  0.21271538  1
  Mg  Mg24  1  0.52696413  0.73448965  0.74100353  1
  Mg  Mg25  1  -0.00464854  0.28027500  0.70486712  1
  Mg  Mg26  1  -0.04525091  0.27190961  0.51141178  1
  Mg  Mg27  1  0.54245203  0.22409339  0.57641118  1
  Mg  Mg28  1  0.74877105  0.45628004  0.46294035  1
  Mg  Mg29  1  0.68324728  0.25460835  0.74584020  1
  Mg  Mg30  1  0.75002444  0.29034040  0.28400476  1
  Mg  Mg31  1  0.55631577  0.50572325  0.23325016  1
  Ti  Ti32  1  0.13738932  0.36841431  0.36908819  1
  Ti  Ti33  1  0.11801301  0.13035054  0.62042419  1
  Ti  Ti34  1  0.37140055  0.61600695  0.12631140  1
  Ti  Ti35  1  0.11837121  0.63015524  0.12923952  1
  Ti  Ti36  1  0.87123730  0.88508562  0.62619025  1
  Ti  Ti37  1  0.63725463  0.13006925  0.12813602  1
  Ti  Ti38  1  0.86709270  0.12504321  0.87425965  1
  Ti  Ti39  1  0.12883647  0.87789882  0.12605074  1
  Ti  Ti40  1  0.86555272  0.12395192  0.13714308  1
  Ti  Ti41  1  0.87455806  0.62987481  0.12733440  1
  Ti  Ti42  1  0.87542119  0.13690706  0.37592448  1
  Ti  Ti43  1  0.11976106  0.13078041  0.87424746  1
  Ti  Ti44  1  0.36720788  0.38521244  0.87944566  1
  Ti  Ti45  1  0.37510021  0.12847327  0.87985885  1
  Ti  Ti46  1  0.62248923  0.37894142  0.87855386  1
  Ti  Ti47  1  0.87061250  0.61722499  0.38435139  1
  Ti  Ti48  1  0.86532739  0.37788942  0.13290983  1
  Ti  Ti49  1  0.37449588  0.87979129  0.12103583  1
  Ti  Ti50  1  0.88305429  0.88289487  0.12040441  1
  Ti  Ti51  1  0.60438651  0.36564582  0.36976038  1
  Ti  Ti52  1  0.11662431  0.37456458  0.12715064  1
  Ti  Ti53  1  0.62002601  0.63169263  0.37326918  1
  Ti  Ti54  1  0.36974329  0.13255125  0.62585082  1
  Ti  Ti55  1  0.87599215  0.88349177  0.86853188  1
  Ti  Ti56  1  0.37662072  0.87696931  0.63702530  1
  Ti  Ti57  1  0.37912698  0.36952921  0.61808918  1
  Ti  Ti58  1  0.87655143  0.37487883  0.85372641  1
  Ti  Ti59  1  0.13026551  0.37951998  0.61506219  1
  Ti  Ti60  1  0.88818433  0.37307220  0.36971194  1
  Ti  Ti61  1  0.85895595  0.38186738  0.61943168  1
  Ti  Ti62  1  0.87579647  0.60995068  0.62008777  1
  Ti  Ti63  1  0.12791344  0.62468052  0.37879921  1
  Ti  Ti64  1  0.61227143  0.87215636  0.86360183  1
  Ti  Ti65  1  0.64127044  0.87155156  0.12154466  1
  Ti  Ti66  1  0.11049958  0.36453271  0.87219536  1
  Ti  Ti67  1  0.37042199  0.88588309  0.87045778  1
  Ti  Ti68  1  0.37858675  0.36923373  0.36605636  1
  Ti  Ti69  1  0.12734060  0.88580996  0.86702290  1
  Ti  Ti70  1  0.12821747  0.88141832  0.37498043  1
  Ti  Ti71  1  0.37543284  0.88104898  0.37763535  1
  Ti  Ti72  1  0.36455061  0.63538186  0.62249401  1
  Ti  Ti73  1  0.37895475  0.12822244  0.37222507  1
  Bi  Bi74  1  -0.01144124  0.02871980  0.74730602  1
  Bi  Bi75  1  0.23433808  0.52362298  0.77224006  1
  Bi  Bi76  1  0.53964025  0.00851549  0.24179349  1
  Bi  Bi77  1  0.26623573  0.75681234  0.24285671  1
  Bi  Bi78  1  0.51662384  0.00417285  0.02294538  1
  Bi  Bi79  1  0.76272842  0.75761428  -0.03000231  1
  Bi  Bi80  1  0.25226909  0.76131167  -0.01919278  1
  Bi  Bi81  1  0.01925084  0.76435220  -0.02608821  1
  Bi  Bi82  1  0.23892259  0.26657220  0.01282588  1
  Bi  Bi83  1  0.02519482  0.22731417  0.23836393  1
  Bi  Bi84  1  -0.00487474  0.51337736  0.26112699  1
  Bi  Bi85  1  0.47985524  0.52246262  0.73366851  1
  Bi  Bi86  1  -0.01090958  0.01480778  0.49568513  1
  Bi  Bi87  1  -0.02213820  0.26368836  0.01504529  1
  Bi  Bi88  1  0.50571113  0.76537632  0.51698287  1
  Bi  Bi89  1  -0.01383823  0.01589551  0.00930862  1
  Bi  Bi90  1  0.71094368  0.50956761  0.73904761  1
  Bi  Bi91  1  0.00203217  0.76843003  0.51142764  1
  Bi  Bi92  1  0.77202830  0.77937335  0.47145075  1
  Bi  Bi93  1  0.01377873  0.53466473  0.76644909  1
  Bi  Bi94  1  0.73433920  0.73766448  0.72115820  1
  Bi  Bi95  1  0.28204114  0.50868188  0.49246649  1
  Bi  Bi96  1  0.23615944  0.02280683  0.74199937  1
  Bi  Bi97  1  0.01400205  0.76220544  0.26233513  1
  Bi  Bi98  1  0.48147894  0.26341671  0.02596377  1
  Bi  Bi99  1  0.74971799  0.26538810  -0.02938648  1
  Bi  Bi100  1  0.72176987  0.03674024  0.71312923  1
  Bi  Bi101  1  -0.01110857  0.00293052  0.27173889  1
  Bi  Bi102  1  0.52674314  0.02607875  0.51462874  1
  Bi  Bi103  1  0.22761569  0.52350523  0.00126945  1
  Bi  Bi104  1  0.51343234  0.49573773  0.47912475  1
  Bi  Bi105  1  0.24820064  0.03185594  0.01236238  1
  Bi  Bi106  1  0.74991101  0.50953423  0.25599101  1
  Bi  Bi107  1  0.02212006  0.48253888  0.49343604  1
  Bi  Bi108  1  0.72919678  0.00103623  0.48802655  1
  Bi  Bi109  1  0.25525620  0.00341309  0.24836421  1
  Bi  Bi110  1  0.72926694  0.22011922  0.52169342  1
  Bi  Bi111  1  0.21681372  0.73925711  0.75064935  1
  Bi  Bi112  1  0.48872152  0.27388040  0.77130976  1
  Bi  Bi113  1  0.24495548  0.78305351  0.51465092  1
  Bi  Bi114  1  0.50142348  0.03810637  0.74899450  1
  Bi  Bi115  1  -0.00675384  0.52660640  -0.01949782  1
  Bi  Bi116  1  0.24901877  0.50805178  0.24421931  1
  Bi  Bi117  1  0.23418183  0.26914261  0.74077680  1
  Bi  Bi118  1  0.25486251  0.23352604  0.48190932  1
  Bi  Bi119  1  0.72912952  0.52814278  0.00792859  1
  Bi  Bi120  1  0.76415733  0.77931601  0.24273933  1
  Bi  Bi121  1  0.48957779  0.75979853  0.25579808  1
  Bi  Bi122  1  -0.02798396  0.74678947  0.73108975  1
  Bi  Bi123  1  0.48847643  0.74594734  -0.03366643  1
  Bi  Bi124  1  0.51089852  0.50926401  0.03406447  1
  O  O125  1  0.11644443  0.09957220  -0.00702787  1
  O  O126  1  0.14748249  0.15599542  0.24896872  1
  O  O127  1  0.09203337  0.11739209  0.50991460  1
  O  O128  1  0.16022508  0.13763924  0.75319155  1
  O  O129  1  0.14483250  0.37799323  0.00107105  1
  O  O130  1  0.10811669  0.36327605  0.25301001  1
  O  O131  1  0.14578855  0.39902135  0.49997571  1
  O  O132  1  0.10329641  0.33808122  0.75243049  1
  O  O133  1  0.10937861  0.60234211  0.01133163  1
  O  O134  1  0.14399721  0.61037388  0.24866947  1
  O  O135  1  0.09792113  0.61037874  0.49085316  1
  O  O136  1  0.13288892  0.62341351  0.74449005  1
  O  O137  1  0.10384284  0.87516675  0.00519980  1
  O  O138  1  0.14154828  0.86220618  0.24909052  1
  O  O139  1  0.11096311  0.86390177  0.49544384  1
  O  O140  1  0.15075121  0.86358574  0.75394837  1
  O  O141  1  0.38678236  0.12266661  -0.00406834  1
  O  O142  1  0.33506507  0.12137611  0.25745986  1
  O  O143  1  0.38695228  0.12644895  0.50730564  1
  O  O144  1  0.36113602  0.09755987  0.74661138  1
  O  O145  1  0.35896293  0.34798183  -0.00180491  1
  O  O146  1  0.39554218  0.37476743  0.25563975  1
  O  O147  1  0.35357655  0.36812669  0.50678344  1
  O  O148  1  0.40059221  0.38094544  0.75736265  1
  O  O149  1  0.40426796  0.63274403  0.01178276  1
  O  O150  1  0.33812399  0.61744355  0.24540311  1
  O  O151  1  0.38580087  0.61935502  0.50427763  1
  O  O152  1  0.35463642  0.60520374  0.74644625  1
  O  O153  1  0.38688752  0.87025029  0.00637222  1
  O  O154  1  0.33741450  0.88622483  0.25198448  1
  O  O155  1  0.39260717  0.84362039  0.49240873  1
  O  O156  1  0.35280866  0.88090158  0.75152775  1
  O  O157  1  0.61714011  0.09633050  0.00000215  1
  O  O158  1  0.63695919  0.11213281  0.24355805  1
  O  O159  1  0.60483313  0.15228565  0.49666207  1
  O  O160  1  0.64306186  0.13557696  0.75029354  1
  O  O161  1  0.65639706  0.37144797  -0.00339432  1
  O  O162  1  0.59110376  0.37858676  0.25000230  1
  O  O163  1  0.63618400  0.40345321  0.48694696  1
  O  O164  1  0.61440469  0.36117743  0.75586147  1
  O  O165  1  0.60787914  0.60872874  0.00434140  1
  O  O166  1  0.64407146  0.61067786  0.25317420  1
  O  O167  1  0.60118167  0.60835580  0.48981254  1
  O  O168  1  0.63822443  0.63969518  0.75094764  1
  O  O169  1  0.61872193  0.90504591  -0.00393847  1
  O  O170  1  0.64970119  0.87780184  0.24439881  1
  O  O171  1  0.58520621  0.87431725  0.50171630  1
  O  O172  1  0.62500927  0.83371971  0.75296396  1
  O  O173  1  0.90919753  0.13002513  0.00469014  1
  O  O174  1  0.85084407  0.08979490  0.25009173  1
  O  O175  1  0.91634496  0.14665062  0.48937370  1
  O  O176  1  0.86198248  0.10579840  0.75606237  1
  O  O177  1  0.86084807  0.35172966  0.01365313  1
  O  O178  1  0.90696674  0.38715463  0.25385147  1
  O  O179  1  0.84984918  0.37821410  0.49630439  1
  O  O180  1  0.90292556  0.36740664  0.74094536  1
  O  O181  1  0.90140309  0.62826858  0.01057096  1
  O  O182  1  0.86192590  0.59343356  0.25169298  1
  O  O183  1  0.87835518  0.64096444  0.49875791  1
  O  O184  1  0.88794541  0.62158469  0.74269994  1
  O  O185  1  0.90518357  0.85352410  0.00382255  1
  O  O186  1  0.84796959  0.88877878  0.24035935  1
  O  O187  1  0.89101225  0.85751359  0.50785639  1
  O  O188  1  0.88094692  0.89760756  0.75220949  1
  O  O189  1  -0.00171394  0.10290516  0.15784231  1
  O  O190  1  -0.00173999  0.12909544  0.33991484  1
  O  O191  1  0.00814596  0.15600489  0.66540904  1
  O  O192  1  0.00748905  0.13428503  0.85241890  1
  O  O193  1  0.00101959  0.38631701  0.10612080  1
  O  O194  1  -0.00489463  0.34579810  0.41168219  1
  O  O195  1  0.01476076  0.34296259  0.59749034  1
  O  O196  1  -0.00224008  0.35607020  0.89387867  1
  O  O197  1  0.00060173  0.60462243  0.14474004  1
  O  O198  1  -0.00669516  0.63617500  0.34525013  1
  O  O199  1  -0.00293016  0.65978289  0.62473650  1
  O  O200  1  -0.00153457  0.61879649  0.87535000  1
  O  O201  1  0.00001266  0.88185150  0.14986029  1
  O  O202  1  0.00775783  0.85873523  0.35789409  1
  O  O203  1  0.00253446  0.84577632  0.63097303  1
  O  O204  1  0.00858433  0.85619993  0.86705830  1
  O  O205  1  0.24951790  0.14377884  0.10190619  1
  O  O206  1  0.24869176  0.10901717  0.41884974  1
  O  O207  1  0.25303934  0.08836140  0.61076756  1
  O  O208  1  0.25553504  0.10307405  0.88589728  1
  O  O209  1  0.24066849  0.32606364  0.14168447  1
  O  O210  1  0.25004852  0.39455356  0.36127781  1
  O  O211  1  0.24940894  0.38399514  0.65297917  1
  O  O212  1  0.25202158  0.38752786  0.85831418  1
  O  O213  1  0.24559827  0.63593856  0.09498760  1
  O  O214  1  0.24351308  0.60042894  0.39019233  1
  O  O215  1  0.25355981  0.59346437  0.60849115  1
  O  O216  1  0.25278718  0.60140173  0.88586422  1
  O  O217  1  0.24385664  0.84631713  0.11068369  1
  O  O218  1  0.24819908  0.87584206  0.39540154  1
  O  O219  1  0.26049644  0.89899281  0.58687493  1
  O  O220  1  0.25170606  0.88977646  0.90257497  1
  O  O221  1  0.50019425  0.09013979  0.13681137  1
  O  O222  1  0.48833371  0.12567527  0.35154019  1
  O  O223  1  0.48896385  0.13697864  0.64636896  1
  O  O224  1  0.49786992  0.13385771  0.85026831  1
  O  O225  1  0.49695803  0.37967138  0.10284787  1
  O  O226  1  0.49440757  0.34771274  0.39670301  1
  O  O227  1  0.49318843  0.33375150  0.61398756  1
  O  O228  1  0.50594543  0.35145591  0.89149108  1
  O  O229  1  0.48791253  0.58399558  0.15380463  1
  O  O230  1  0.50648446  0.65595546  0.35260349  1
  O  O231  1  0.48987301  0.64325089  0.65359898  1
  O  O232  1  0.50022506  0.66589890  0.85247247  1
  O  O233  1  0.48677576  0.89736075  0.14580968  1
  O  O234  1  0.49213095  0.86869708  0.34467313  1
  O  O235  1  0.48867559  0.82564945  0.64285082  1
  O  O236  1  0.49686822  0.85352888  0.86516129  1
  O  O237  1  0.75310642  0.14129341  0.10881338  1
  O  O238  1  0.76069295  0.10647975  0.39918673  1
  O  O239  1  0.76199463  0.11178465  0.60035403  1
  O  O240  1  0.75950698  0.09959265  0.90194911  1
  O  O241  1  0.75816163  0.34654426  0.16994482  1
  O  O242  1  0.76047882  0.39757007  0.35211938  1
  O  O243  1  0.75180978  0.40912658  0.63750624  1
  O  O244  1  0.75999911  0.37174421  0.86215656  1
  O  O245  1  0.75574216  0.63283667  0.10278632  1
  O  O246  1  0.75493345  0.56975975  0.38819919  1
  O  O247  1  0.75818017  0.60637629  0.63557341  1
  O  O248  1  0.75059895  0.62468234  0.90531179  1
  O  O249  1  0.75542775  0.85255802  0.10557903  1
  O  O250  1  0.74795025  0.89631284  0.39548838  1
  O  O251  1  0.75730952  0.89759803  0.61360408  1
  O  O252  1  0.76232654  0.89322012  0.89914826  1
  O  O253  1  0.15276484  -0.00664762  0.13184203  1
  O  O254  1  0.10965346  -0.00391865  0.36154827  1
  O  O255  1  0.10642776  0.01036375  0.65207931  1
  O  O256  1  0.11699662  0.00088758  0.85013099  1
  O  O257  1  0.09475257  0.24789040  0.10785714  1
  O  O258  1  0.14653608  0.25570256  0.39589099  1
  O  O259  1  0.15914356  0.24428638  0.61896258  1
  O  O260  1  0.14304944  0.24554923  0.89029116  1
  O  O261  1  0.15036901  0.48914488  0.13548752  1
  O  O262  1  0.09522332  0.49242562  0.36944102  1
  O  O263  1  0.10235971  0.48953190  0.63751300  1
  O  O264  1  0.11029726  0.48274743  0.85848982  1
  O  O265  1  0.10381894  0.74365978  0.12571912  1
  O  O266  1  0.12915219  0.74007698  0.36501764  1
  O  O267  1  0.15679892  0.75111921  0.62411422  1
  O  O268  1  0.14509423  0.75923363  0.88723353  1
  O  O269  1  0.33759164  -0.00355777  0.12951860  1
  O  O270  1  0.36953233  -0.00355333  0.39518532  1
  O  O271  1  0.40401447  -0.01420834  0.61333989  1
  O  O272  1  0.39915723  -0.00462781  0.87746455  1
  O  O273  1  0.40482375  0.24682561  0.14074024  1
  O  O274  1  0.34874109  0.24689539  0.37615834  1
  O  O275  1  0.34746814  0.24448784  0.64201852  1
  O  O276  1  0.36907624  0.24395660  0.85766396  1
  O  O277  1  0.33689701  0.50003749  0.12094075  1
  O  O278  1  0.39054980  0.49217609  0.39109763  1
  O  O279  1  0.40283664  0.48796131  0.62244382  1
  O  O280  1  0.39460594  0.49354340  0.89203996  1
  O  O281  1  0.37996988  0.75026246  0.15204183  1
  O  O282  1  0.36969063  0.75343977  0.33965663  1
  O  O283  1  0.33735756  0.74782319  0.62794637  1
  O  O284  1  0.36077675  0.75524113  0.89054708  1
  O  O285  1  0.62483408  -0.00495775  0.12782967  1
  O  O286  1  0.61666325  0.00807208  0.40254350  1
  O  O287  1  0.60830312  -0.00365070  0.62976319  1
  O  O288  1  0.62381267  -0.00968050  0.84791065  1
  O  O289  1  0.59427028  0.24030893  0.12575749  1
  O  O290  1  0.65406089  0.26138479  0.35977309  1
  O  O291  1  0.65338667  0.26236775  0.62301921  1
  O  O292  1  0.65020644  0.25070555  0.87242982  1
  O  O293  1  0.62837242  0.49532713  0.12150253  1
  O  O294  1  0.58302810  0.49960497  0.35983914  1
  O  O295  1  0.60250175  0.50327695  0.65198541  1
  O  O296  1  0.62472512  0.49582414  0.86653598  1
  O  O297  1  0.60296579  0.76204070  0.11891630  1
  O  O298  1  0.65691999  0.74324896  0.37963968  1
  O  O299  1  0.65436402  0.74617411  0.60922892  1
  O  O300  1  0.64130617  0.76091977  0.90482478  1
  O  O301  1  0.87364312  -0.00338873  0.10072368  1
  O  O302  1  0.89600540  0.00901006  0.38514620  1
  O  O303  1  0.91169454  0.00411171  0.61379227  1
  O  O304  1  0.90863169  -0.00033641  0.89201427  1
  O  O305  1  0.90008959  0.23879264  0.13928524  1
  O  O306  1  0.85450223  0.25168430  0.35065630  1
  O  O307  1  0.86717735  0.26189335  0.61290587  1
  O  O308  1  0.86407630  0.24297624  0.87911759  1
  O  O309  1  0.85002452  0.49079885  0.11877246  1
  O  O310  1  0.91208363  0.49621741  0.38544801  1
  O  O311  1  0.90424483  0.49924314  0.61272526  1
  O  O312  1  0.89055219  0.48896181  0.87491857  1
  O  O313  1  0.88286091  0.74230534  0.15669168  1
  O  O314  1  0.84192572  0.73255883  0.36141396  1
  O  O315  1  0.86088784  0.75961294  0.64498074  1
  O  O316  1  0.86029515  0.75866113  0.86450344  1
