# generated using pymatgen
data_Mg32Ti42(Bi17O64)3
_symmetry_space_group_name_H-M   'P 1'
_cell_length_a   15.90160380
_cell_length_b   15.94543661
_cell_length_c   15.91955060
_cell_angle_alpha   90.06032921
_cell_angle_beta   90.11484636
_cell_angle_gamma   89.85994731
_symmetry_Int_Tables_number   1
_chemical_formula_structural   Mg32Ti42(Bi17O64)3
_chemical_formula_sum   'Mg32 Ti42 Bi51 O192'
_cell_volume   4036.50726974
_cell_formula_units_Z   1
loop_
 _symmetry_equiv_pos_site_id
 _symmetry_equiv_pos_as_xyz
  1  'x, y, z'
loop_
 _atom_site_type_symbol
 _atom_site_label
 _atom_site_symmetry_multiplicity
 _atom_site_fract_x
 _atom_site_fract_y
 _atom_site_fract_z
 _atom_site_occupancy
  Mg  Mg0  1  0.12488037  0.37258962  0.11785898  1
  Mg  Mg1  1  0.62407524  0.37065863  0.86779339  1
  Mg  Mg2  1  0.62562424  0.62086490  0.11619788  1
  Mg  Mg3  1  0.37419915  0.37017341  0.36254414  1
  Mg  Mg4  1  0.62522023  0.38730209  0.36821842  1
  Mg  Mg5  1  0.88370881  0.61791126  0.87356246  1
  Mg  Mg6  1  0.86474239  0.88412926  0.87670249  1
  Mg  Mg7  1  0.37796586  0.63228770  0.86771073  1
  Mg  Mg8  1  0.62473410  0.88444415  0.62609260  1
  Mg  Mg9  1  0.12884157  0.62949958  0.38415420  1
  Mg  Mg10  1  0.61102521  0.36711382  0.62810024  1
  Mg  Mg11  1  0.13377217  0.86596040  0.61597270  1
  Mg  Mg12  1  0.62027875  0.63643152  0.87457124  1
  Mg  Mg13  1  0.12420172  0.87707580  0.12927462  1
  Mg  Mg14  1  0.87824683  0.38164980  0.62261235  1
  Mg  Mg15  1  0.61973464  0.13406347  0.63041595  1
  Mg  Mg16  1  0.87408897  0.62751590  0.37982572  1
  Mg  Mg17  1  0.87616158  0.12690844  0.62442221  1
  Mg  Mg18  1  0.12750244  0.12787013  0.62302366  1
  Mg  Mg19  1  -0.06286675  0.75638237  0.50161757  1
  Mg  Mg20  1  0.22434350  -0.06258646  -0.03271627  1
  Mg  Mg21  1  0.55685970  0.72932880  0.70998754  1
  Mg  Mg22  1  0.29627991  0.26571114  -0.02360589  1
  Mg  Mg23  1  0.45535508  0.75560252  0.25542163  1
  Mg  Mg24  1  -0.05313283  0.25747651  0.01770422  1
  Mg  Mg25  1  0.65632484  0.75506114  0.23143802  1
  Mg  Mg26  1  0.27512906  0.81027333  0.50062280  1
  Mg  Mg27  1  0.04482741  0.49529406  0.77173458  1
  Mg  Mg28  1  -0.02021080  0.26349825  0.50673487  1
  Mg  Mg29  1  0.51404082  0.30969578  0.23923102  1
  Mg  Mg30  1  0.46857920  0.21180275  0.79080569  1
  Mg  Mg31  1  0.75233835  -0.07728178  0.24848710  1
  Ti  Ti32  1  0.12577234  0.87572835  0.38751412  1
  Ti  Ti33  1  0.61655448  0.86805052  0.38015377  1
  Ti  Ti34  1  0.87993462  0.36884140  0.86660822  1
  Ti  Ti35  1  0.12515922  0.13168091  0.11175876  1
  Ti  Ti36  1  0.38390517  0.85487815  0.87826162  1
  Ti  Ti37  1  0.62872905  0.63632725  0.37976666  1
  Ti  Ti38  1  0.89030358  0.12271881  0.87487814  1
  Ti  Ti39  1  0.11705627  0.37089124  0.36940200  1
  Ti  Ti40  1  0.12075222  0.61085560  0.12628463  1
  Ti  Ti41  1  0.85760273  0.12357761  0.36422656  1
  Ti  Ti42  1  0.87087295  0.88206009  0.62135229  1
  Ti  Ti43  1  0.37562050  0.63403033  0.12655368  1
  Ti  Ti44  1  0.62101033  0.86826410  0.86324112  1
  Ti  Ti45  1  0.62446080  0.12581410  0.35483062  1
  Ti  Ti46  1  0.37349746  0.36448414  0.63324686  1
  Ti  Ti47  1  0.37710426  0.38887005  0.12225099  1
  Ti  Ti48  1  0.36805245  0.88385126  0.11704760  1
  Ti  Ti49  1  0.63396747  0.13195874  0.87550224  1
  Ti  Ti50  1  0.12512779  0.37919520  0.63049056  1
  Ti  Ti51  1  0.12487776  0.63341853  0.62516754  1
  Ti  Ti52  1  0.37890692  0.87748006  0.64199401  1
  Ti  Ti53  1  0.87018976  0.88122904  0.37510653  1
  Ti  Ti54  1  0.87597913  0.38149040  0.13119033  1
  Ti  Ti55  1  0.86582531  0.12432167  0.11806599  1
  Ti  Ti56  1  0.62692605  0.38709593  0.12341328  1
  Ti  Ti57  1  0.12983338  0.36654278  0.88208234  1
  Ti  Ti58  1  0.35853753  0.10598250  0.88556557  1
  Ti  Ti59  1  0.89135390  0.87822789  0.12383596  1
  Ti  Ti60  1  0.61331671  0.13926541  0.12862374  1
  Ti  Ti61  1  0.88220324  0.37454144  0.37978846  1
  Ti  Ti62  1  0.88571565  0.61478983  0.62674387  1
  Ti  Ti63  1  0.37795590  0.12221366  0.11625396  1
  Ti  Ti64  1  0.88660727  0.62860076  0.12377733  1
  Ti  Ti65  1  0.38495335  0.37595655  0.86873059  1
  Ti  Ti66  1  0.37805566  0.13465908  0.63069356  1
  Ti  Ti67  1  0.37937236  0.12691880  0.35681998  1
  Ti  Ti68  1  0.11831980  0.61607638  0.88027260  1
  Ti  Ti69  1  0.36337246  0.63855812  0.62763857  1
  Ti  Ti70  1  0.37778491  0.88783134  0.36887182  1
  Ti  Ti71  1  0.37006008  0.63496945  0.38855373  1
  Ti  Ti72  1  0.11973656  0.13427811  0.38419703  1
  Ti  Ti73  1  0.12967857  0.13150699  0.88507528  1
  Bi  Bi74  1  0.52186128  0.76575164  0.03840468  1
  Bi  Bi75  1  0.72661019  0.73291751  0.53831987  1
  Bi  Bi76  1  0.21777083  0.77570310  0.77772289  1
  Bi  Bi77  1  0.75576973  0.74395209  0.02519098  1
  Bi  Bi78  1  0.25130076  0.24910624  0.48424375  1
  Bi  Bi79  1  0.53247916  -0.03452166  0.21739453  1
  Bi  Bi80  1  -0.02459096  0.75361505  0.74721197  1
  Bi  Bi81  1  -0.00577868  0.75783640  0.27924919  1
  Bi  Bi82  1  0.75353638  0.00665623  0.73740187  1
  Bi  Bi83  1  0.72412398  -0.01640905  0.03059997  1
  Bi  Bi84  1  0.23071425  0.73352988  0.01577926  1
  Bi  Bi85  1  0.26739341  0.25928191  0.21522655  1
  Bi  Bi86  1  0.76609369  0.25049677  0.74018006  1
  Bi  Bi87  1  0.23596055  0.01501747  0.49839292  1
  Bi  Bi88  1  0.00668684  0.51723960  0.50484195  1
  Bi  Bi89  1  0.25192476  0.00331493  0.73966516  1
  Bi  Bi90  1  0.50744849  0.52400232  -0.02067667  1
  Bi  Bi91  1  0.24416780  0.47576943  0.49451809  1
  Bi  Bi92  1  0.26741003  0.51076563  -0.01902149  1
  Bi  Bi93  1  0.23008668  0.01008854  0.23014920  1
  Bi  Bi94  1  0.25519806  0.51660419  0.73927475  1
  Bi  Bi95  1  0.75723852  0.74826948  0.77290660  1
  Bi  Bi96  1  0.51803688  0.01416255  0.73937842  1
  Bi  Bi97  1  0.51819455  0.52871341  0.73094033  1
  Bi  Bi98  1  -0.00240849  0.01695187  0.22726278  1
  Bi  Bi99  1  0.00792685  0.52286266  0.26696983  1
  Bi  Bi100  1  0.23009154  0.75984262  0.25106104  1
  Bi  Bi101  1  0.26622232  0.51534096  0.26542226  1
  Bi  Bi102  1  0.01026962  0.25205768  0.71790744  1
  Bi  Bi103  1  0.75327187  0.27971680  0.25957141  1
  Bi  Bi104  1  0.51254907  0.26558552  -0.01041236  1
  Bi  Bi105  1  0.74539158  0.27751967  0.52095725  1
  Bi  Bi106  1  0.00536225  0.77945610  -0.03622187  1
  Bi  Bi107  1  0.02401935  -0.02171633  0.72481700  1
  Bi  Bi108  1  0.23897895  0.23945338  0.76431610  1
  Bi  Bi109  1  0.75189549  0.53145733  0.25537270  1
  Bi  Bi110  1  0.74683201  0.25694420  -0.01014743  1
  Bi  Bi111  1  0.70687570  0.50641776  0.52422426  1
  Bi  Bi112  1  0.47557777  0.48220222  0.51314697  1
  Bi  Bi113  1  0.75919824  0.51894392  -0.01876118  1
  Bi  Bi114  1  0.02357189  -0.01636952  -0.03496003  1
  Bi  Bi115  1  0.50814672  -0.00646265  -0.02293577  1
  Bi  Bi116  1  0.73601224  0.02649750  0.50385564  1
  Bi  Bi117  1  0.51218970  0.26162593  0.47104716  1
  Bi  Bi118  1  0.50818504  0.02274066  0.48921902  1
  Bi  Bi119  1  0.50562623  0.53308786  0.26684348  1
  Bi  Bi120  1  0.48600074  0.76974863  0.51207993  1
  Bi  Bi121  1  0.72707093  0.50082990  0.76104416  1
  Bi  Bi122  1  0.00955388  0.25995176  0.23148781  1
  Bi  Bi123  1  -0.00556793  0.48523713  -0.00753902  1
  Bi  Bi124  1  -0.01895416  0.02026241  0.48909992  1
  O  O125  1  0.10461453  0.14800682  0.00234715  1
  O  O126  1  0.12681840  0.10262518  0.27111486  1
  O  O127  1  0.15715886  0.13928849  0.50144569  1
  O  O128  1  0.15830598  0.11189319  0.76130820  1
  O  O129  1  0.11243769  0.36072665  -0.00836360  1
  O  O130  1  0.09746154  0.37590324  0.25483118  1
  O  O131  1  0.15276209  0.36341362  0.50177232  1
  O  O132  1  0.11031420  0.39022647  0.74794312  1
  O  O133  1  0.10684036  0.63686736  -0.00085348  1
  O  O134  1  0.14465477  0.59980334  0.24521141  1
  O  O135  1  0.10325553  0.62150473  0.50825884  1
  O  O136  1  0.13602726  0.59227980  0.75075390  1
  O  O137  1  0.10950069  0.88021844  0.00316524  1
  O  O138  1  0.16065901  0.88594284  0.25938498  1
  O  O139  1  0.14279450  0.83977650  0.49427683  1
  O  O140  1  0.15319898  0.89151923  0.74541456  1
  O  O141  1  0.38046639  0.10221013  0.00367577  1
  O  O142  1  0.36743733  0.14009305  0.24596204  1
  O  O143  1  0.40217788  0.12064657  0.51877105  1
  O  O144  1  0.35068102  0.13657751  0.76552869  1
  O  O145  1  0.36050032  0.38210798  0.00122133  1
  O  O146  1  0.38863597  0.34211392  0.23578146  1
  O  O147  1  0.35389811  0.38770465  0.49797662  1
  O  O148  1  0.39206123  0.34936221  0.75076130  1
  O  O149  1  0.38885796  0.59784859  0.00487874  1
  O  O150  1  0.34823705  0.64207785  0.24530530  1
  O  O151  1  0.39563087  0.60689006  0.49995837  1
  O  O152  1  0.33583194  0.63449016  0.74409014  1
  O  O153  1  0.40217437  0.88632531  0.00358965  1
  O  O154  1  0.35713461  0.84971064  0.25580398  1
  O  O155  1  0.40604482  0.88059971  0.49765260  1
  O  O156  1  0.35402583  0.85810485  0.75467157  1
  O  O157  1  0.62171725  0.16269151  0.00415652  1
  O  O158  1  0.61958578  0.09357745  0.24247989  1
  O  O159  1  0.62199114  0.12119808  0.49169953  1
  O  O160  1  0.64122840  0.10080116  0.75949848  1
  O  O161  1  0.63287127  0.34321425  0.00360526  1
  O  O162  1  0.61224443  0.39302727  0.24145938  1
  O  O163  1  0.62228278  0.35308796  0.49042894  1
  O  O164  1  0.62803289  0.40622437  0.74664907  1
  O  O165  1  0.58642895  0.63706053  -0.00397546  1
  O  O166  1  0.64495404  0.62408627  0.24301921  1
  O  O167  1  0.61962492  0.64792020  0.49406044  1
  O  O168  1  0.63448969  0.60701451  0.74888421  1
  O  O169  1  0.60038170  0.87218477  -0.01573165  1
  O  O170  1  0.63875495  0.87839498  0.25419314  1
  O  O171  1  0.61079816  0.84722890  0.49885584  1
  O  O172  1  0.63723063  0.91945682  0.75314936  1
  O  O173  1  0.89635085  0.13295353  0.00416803  1
  O  O174  1  0.87960962  0.11812675  0.24868824  1
  O  O175  1  0.85898491  0.10196435  0.49516701  1
  O  O176  1  0.86521965  0.14598266  0.75805261  1
  O  O177  1  0.88524942  0.38259269  0.00458846  1
  O  O178  1  0.89148339  0.35367184  0.25059090  1
  O  O179  1  0.87705886  0.35448472  0.49395986  1
  O  O180  1  0.87035949  0.35464107  0.75057989  1
  O  O181  1  0.89838592  0.59631864  0.00656931  1
  O  O182  1  0.85820213  0.61549502  0.24574601  1
  O  O183  1  0.91077215  0.63014397  0.50478430  1
  O  O184  1  0.86325961  0.64741876  0.74402869  1
  O  O185  1  0.89992685  0.87303359  0.00581904  1
  O  O186  1  0.86780489  0.87739987  0.25663510  1
  O  O187  1  0.90168780  0.88634983  0.50323389  1
  O  O188  1  0.85566759  0.85107926  0.74634093  1
  O  O189  1  0.00453598  0.13617647  0.14531212  1
  O  O190  1  0.00647204  0.14606999  0.40840991  1
  O  O191  1  -0.00094916  0.16554807  0.60736730  1
  O  O192  1  0.00628373  0.10439031  0.86142840  1
  O  O193  1  -0.00651453  0.33295128  0.11627209  1
  O  O194  1  0.00525333  0.33415131  0.39638829  1
  O  O195  1  0.00647591  0.34272147  0.60890952  1
  O  O196  1  -0.00325326  0.40632529  0.86662181  1
  O  O197  1  0.00363503  0.63511527  0.15300316  1
  O  O198  1  0.00173936  0.63328292  0.34922652  1
  O  O199  1  0.00371352  0.64935359  0.64790217  1
  O  O200  1  0.00693632  0.58034430  0.86202254  1
  O  O201  1  0.00207769  0.86907921  0.15904047  1
  O  O202  1  0.01082949  0.86770015  0.36833893  1
  O  O203  1  0.00134213  0.86175001  0.65106729  1
  O  O204  1  -0.00355836  0.88682926  0.86965437  1
  O  O205  1  0.24587113  0.11050526  0.13017112  1
  O  O206  1  0.26632158  0.09878622  0.38627943  1
  O  O207  1  0.26289952  0.09331764  0.62528977  1
  O  O208  1  0.24893996  0.16524229  0.90429895  1
  O  O209  1  0.25462677  0.38114188  0.14218228  1
  O  O210  1  0.24398256  0.40556746  0.36290568  1
  O  O211  1  0.24950894  0.39786013  0.63610191  1
  O  O212  1  0.24921368  0.34489033  0.87760371  1
  O  O213  1  0.24609815  0.61205555  0.09664054  1
  O  O214  1  0.25498113  0.59455912  0.38398220  1
  O  O215  1  0.24686140  0.59071024  0.61375998  1
  O  O216  1  0.24738838  0.63233602  0.90434014  1
  O  O217  1  0.25408578  0.90290832  0.09778428  1
  O  O218  1  0.26430443  0.89507570  0.40056588  1
  O  O219  1  0.26727821  0.89069902  0.60396764  1
  O  O220  1  0.26426503  0.83989631  0.90110155  1
  O  O221  1  0.49555798  0.14503820  0.12477551  1
  O  O222  1  0.50346485  0.13338889  0.37590621  1
  O  O223  1  0.49175975  0.15085256  0.67697228  1
  O  O224  1  0.48145400  0.10061611  0.86661977  1
  O  O225  1  0.50152686  0.35851088  0.11480248  1
  O  O226  1  0.50055749  0.34699374  0.36659887  1
  O  O227  1  0.48494316  0.35073528  0.59343892  1
  O  O228  1  0.49732619  0.38851653  0.89537553  1
  O  O229  1  0.48875956  0.65718287  0.15139484  1
  O  O230  1  0.49152677  0.65334425  0.34159251  1
  O  O231  1  0.48178832  0.64390546  0.65783374  1
  O  O232  1  0.49811211  0.58999498  0.85771676  1
  O  O233  1  0.48694070  0.84209189  0.15737249  1
  O  O234  1  0.50051702  0.83999025  0.35613518  1
  O  O235  1  0.49893289  0.82968742  0.64079357  1
  O  O236  1  0.49481846  0.91020108  0.85906655  1
  O  O237  1  0.74928896  0.10076905  0.10885730  1
  O  O238  1  0.74489434  0.09558102  0.36730590  1
  O  O239  1  0.74663443  0.09198377  0.62628936  1
  O  O240  1  0.74659326  0.15752683  0.88625093  1
  O  O241  1  0.75278747  0.38339067  0.13799246  1
  O  O242  1  0.75822170  0.38646948  0.35428888  1
  O  O243  1  0.74791197  0.39993749  0.60201087  1
  O  O244  1  0.75392996  0.34088880  0.87902902  1
  O  O245  1  0.75850654  0.62131445  0.09837945  1
  O  O246  1  0.74614047  0.59943303  0.37910358  1
  O  O247  1  0.76170506  0.61075576  0.59940009  1
  O  O248  1  0.75019717  0.64294919  0.91253020  1
  O  O249  1  0.76453001  0.89181731  0.12542915  1
  O  O250  1  0.75552929  0.89639077  0.37887859  1
  O  O251  1  0.75669925  0.91532365  0.61605879  1
  O  O252  1  0.73852216  0.85547020  0.88156192  1
  O  O253  1  0.11561993  0.00791111  0.13938779  1
  O  O254  1  0.11681172  -0.00053923  0.41176719  1
  O  O255  1  0.10627063  0.00014745  0.61640733  1
  O  O256  1  0.14610778  0.01523474  0.90534411  1
  O  O257  1  0.13602010  0.24391619  0.15110897  1
  O  O258  1  0.16045596  0.24782172  0.37046921  1
  O  O259  1  0.14031740  0.25228325  0.65648828  1
  O  O260  1  0.11224132  0.24980004  0.84414725  1
  O  O261  1  0.10300069  0.49911397  0.10836168  1
  O  O262  1  0.09434500  0.48983537  0.38598697  1
  O  O263  1  0.09597328  0.49361450  0.61814716  1
  O  O264  1  0.15248194  0.49215030  0.88299541  1
  O  O265  1  0.14757841  0.74714840  0.13639786  1
  O  O266  1  0.12881160  0.75158702  0.34685466  1
  O  O267  1  0.15050532  0.74115238  0.64758414  1
  O  O268  1  0.10234818  0.73201571  0.85213482  1
  O  O269  1  0.39509216  -0.00431289  0.14451025  1
  O  O270  1  0.40457227  -0.00250520  0.35833084  1
  O  O271  1  0.40095052  -0.00796373  0.65019458  1
  O  O272  1  0.32479891  -0.00287499  0.87859541  1
  O  O273  1  0.34324736  0.23935213  0.09719369  1
  O  O274  1  0.36306645  0.24089554  0.39110237  1
  O  O275  1  0.34191683  0.24747390  0.62139353  1
  O  O276  1  0.39431349  0.25230285  0.89246481  1
  O  O277  1  0.38665158  0.50122364  0.14476439  1
  O  O278  1  0.39389150  0.50404772  0.34669976  1
  O  O279  1  0.39613298  0.49160458  0.63063796  1
  O  O280  1  0.34991742  0.49064331  0.86433832  1
  O  O281  1  0.34844713  0.74894783  0.10276028  1
  O  O282  1  0.34771265  0.74596079  0.40389931  1
  O  O283  1  0.35168048  0.74723367  0.59274989  1
  O  O284  1  0.41269010  0.75058693  0.89021885  1
  O  O285  1  0.60353121  0.00636171  0.09962887  1
  O  O286  1  0.60364348  -0.01394261  0.38556928  1
  O  O287  1  0.58509910  0.00572716  0.61139013  1
  O  O288  1  0.63085990  0.01565905  0.90725121  1
  O  O289  1  0.63041853  0.24846766  0.15950083  1
  O  O290  1  0.64111603  0.23926890  0.34676846  1
  O  O291  1  0.66067436  0.25137667  0.63175032  1
  O  O292  1  0.57939117  0.24093499  0.85649123  1
  O  O293  1  0.61706868  0.49669512  0.09944128  1
  O  O294  1  0.59315849  0.51555488  0.37677134  1
  O  O295  1  0.59103782  0.49515774  0.59727484  1
  O  O296  1  0.65654728  0.49898934  0.88605971  1
  O  O297  1  0.64166476  0.74855555  0.11013592  1
  O  O298  1  0.65142679  0.74956034  0.35640441  1
  O  O299  1  0.66587571  0.76407304  0.65472632  1
  O  O300  1  0.60146435  0.75960789  0.82793089  1
  O  O301  1  0.89988427  0.00021927  0.12547651  1
  O  O302  1  0.90660326  0.00148586  0.37259211  1
  O  O303  1  0.90518913  -0.00094266  0.64746559  1
  O  O304  1  0.85617607  0.01297414  0.87719783  1
  O  O305  1  0.85666315  0.24268885  0.11895112  1
  O  O306  1  0.84765108  0.23889052  0.37027058  1
  O  O307  1  0.84061630  0.25097513  0.62242681  1
  O  O308  1  0.90299183  0.25527407  0.89701403  1
  O  O309  1  0.89916279  0.49241829  0.13825531  1
  O  O310  1  0.90537083  0.48765439  0.37141509  1
  O  O311  1  0.90437233  0.50447227  0.62965201  1
  O  O312  1  0.84118162  0.49220033  0.87005381  1
  O  O313  1  0.87180218  0.74568864  0.11683609  1
  O  O314  1  0.88684253  0.75920114  0.38545998  1
  O  O315  1  0.86410837  0.75960667  0.60486955  1
  O  O316  1  0.89902723  0.74546942  0.87943277  1
