# generated using pymatgen
data_Mg32Ti42(Bi17O64)3
_symmetry_space_group_name_H-M   'P 1'
_cell_length_a   15.94264754
_cell_length_b   15.95005065
_cell_length_c   15.93323349
_cell_angle_alpha   89.97014036
_cell_angle_beta   89.84751657
_cell_angle_gamma   90.25006182
_symmetry_Int_Tables_number   1
_chemical_formula_structural   Mg32Ti42(Bi17O64)3
_chemical_formula_sum   'Mg32 Ti42 Bi51 O192'
_cell_volume   4051.54527157
_cell_formula_units_Z   1
loop_
 _symmetry_equiv_pos_site_id
 _symmetry_equiv_pos_as_xyz
  1  'x, y, z'
loop_
 _atom_site_type_symbol
 _atom_site_label
 _atom_site_symmetry_multiplicity
 _atom_site_fract_x
 _atom_site_fract_y
 _atom_site_fract_z
 _atom_site_occupancy
  Mg  Mg0  1  0.87353111  0.86793554  0.12230675  1
  Mg  Mg1  1  0.36847459  0.35815014  0.62156222  1
  Mg  Mg2  1  0.36603546  0.63093383  0.62304377  1
  Mg  Mg3  1  0.87261608  0.63254578  0.37747880  1
  Mg  Mg4  1  0.63598101  0.13466920  0.87497221  1
  Mg  Mg5  1  0.62693859  0.37345995  0.12467664  1
  Mg  Mg6  1  0.87867774  0.62490639  0.88031427  1
  Mg  Mg7  1  0.86637787  0.37740071  0.37941248  1
  Mg  Mg8  1  0.87999788  0.63945953  0.62510756  1
  Mg  Mg9  1  0.36689861  0.87504945  0.37891722  1
  Mg  Mg10  1  0.37622560  0.11267541  0.87959300  1
  Mg  Mg11  1  0.37570220  0.37975059  0.12969418  1
  Mg  Mg12  1  0.12905990  0.88404838  0.62189354  1
  Mg  Mg13  1  0.36718137  0.62096010  0.37114943  1
  Mg  Mg14  1  0.88563513  0.38086818  0.61300863  1
  Mg  Mg15  1  0.13067552  0.62903127  0.63344474  1
  Mg  Mg16  1  0.87747588  0.11766026  0.62772015  1
  Mg  Mg17  1  0.12172883  0.37549938  0.12965142  1
  Mg  Mg18  1  0.87399217  0.12986978  0.12988397  1
  Mg  Mg19  1  0.20761016  -0.01303050  0.48156354  1
  Mg  Mg20  1  0.19446781  0.53095114  0.22837346  1
  Mg  Mg21  1  0.77937599  0.01981134  0.25161980  1
  Mg  Mg22  1  0.22449455  0.48165655  0.72689554  1
  Mg  Mg23  1  0.49638153  0.72866373  0.29006349  1
  Mg  Mg24  1  0.01155702  0.05141715  0.80952351  1
  Mg  Mg25  1  0.24604591  0.77599589  0.77709652  1
  Mg  Mg26  1  0.76353780  0.29879024  0.70450652  1
  Mg  Mg27  1  0.01756433  0.75334948  0.53493228  1
  Mg  Mg28  1  0.05454933  0.75960747  0.72701346  1
  Mg  Mg29  1  0.77167615  0.24797631  0.51186244  1
  Mg  Mg30  1  0.70845285  0.45723683  0.26382390  1
  Mg  Mg31  1  0.23015647  0.26832105  0.47384371  1
  Ti  Ti32  1  0.61676794  0.86488514  0.63277738  1
  Ti  Ti33  1  0.36270107  0.11874983  0.62778051  1
  Ti  Ti34  1  0.86907553  0.38945257  0.12200387  1
  Ti  Ti35  1  0.88237579  0.38648943  0.86556275  1
  Ti  Ti36  1  0.11473483  0.12516780  0.37520979  1
  Ti  Ti37  1  0.63209104  0.87014657  0.13227927  1
  Ti  Ti38  1  0.61948942  0.62448098  0.86183202  1
  Ti  Ti39  1  0.63686002  0.14038421  0.62084108  1
  Ti  Ti40  1  0.62224956  0.34370685  0.38747519  1
  Ti  Ti41  1  0.13380561  0.62781919  0.85873952  1
  Ti  Ti42  1  0.86450703  0.62675287  0.12489479  1
  Ti  Ti43  1  0.63759673  0.87051845  0.86927199  1
  Ti  Ti44  1  0.11998572  0.88865554  0.11435679  1
  Ti  Ti45  1  0.62591253  0.11627533  0.37682833  1
  Ti  Ti46  1  0.37535986  0.37787125  0.38123108  1
  Ti  Ti47  1  0.12662262  0.62533708  0.37451783  1
  Ti  Ti48  1  0.36506704  0.11081860  0.38161855  1
  Ti  Ti49  1  0.11984965  0.12274228  0.60691384  1
  Ti  Ti50  1  0.13440437  0.39636159  0.86843073  1
  Ti  Ti51  1  0.13032340  0.38908717  0.37799338  1
  Ti  Ti52  1  0.13347870  0.36543001  0.61573696  1
  Ti  Ti53  1  0.88511847  0.87798377  0.64196723  1
  Ti  Ti54  1  0.36016811  0.88369209  0.61721984  1
  Ti  Ti55  1  0.61493772  0.38302425  0.62388080  1
  Ti  Ti56  1  0.62383374  0.62994385  0.12963148  1
  Ti  Ti57  1  0.86793450  0.12660225  0.37049889  1
  Ti  Ti58  1  0.36528173  0.11356782  0.13207092  1
  Ti  Ti59  1  0.62853869  0.86656022  0.38813781  1
  Ti  Ti60  1  0.36398517  0.62984859  0.88465016  1
  Ti  Ti61  1  0.61832856  0.62434995  0.61437158  1
  Ti  Ti62  1  0.11655260  0.13542610  0.13887800  1
  Ti  Ti63  1  0.38535451  0.62415535  0.11895364  1
  Ti  Ti64  1  0.63272423  0.37262501  0.85707273  1
  Ti  Ti65  1  0.62409285  0.12115426  0.13602808  1
  Ti  Ti66  1  0.37265594  0.87974857  0.88060149  1
  Ti  Ti67  1  0.11842100  0.87044132  0.87322467  1
  Ti  Ti68  1  0.62635339  0.62922840  0.36948763  1
  Ti  Ti69  1  0.87139984  0.86915138  0.37337474  1
  Ti  Ti70  1  0.11597384  0.86166045  0.36712862  1
  Ti  Ti71  1  0.86656911  0.13925297  0.87004583  1
  Ti  Ti72  1  0.38023033  0.87668075  0.13198986  1
  Ti  Ti73  1  0.89923581  0.87189872  0.86924741  1
  Bi  Bi74  1  0.45877448  0.26878810  0.78019718  1
  Bi  Bi75  1  0.45159888  0.51071821  0.73978091  1
  Bi  Bi76  1  0.77588078  0.75850791  -0.01934380  1
  Bi  Bi77  1  -0.01259799  0.51391823  0.26239710  1
  Bi  Bi78  1  0.27091955  0.72861903  0.23860250  1
  Bi  Bi79  1  0.76223416  0.50260812  0.70877491  1
  Bi  Bi80  1  0.47508358  0.24529773  0.24188971  1
  Bi  Bi81  1  0.52076714  0.75744522  -0.01440511  1
  Bi  Bi82  1  0.47853895  0.46608364  -0.02188170  1
  Bi  Bi83  1  -0.00382815  -0.02937833  0.49355318  1
  Bi  Bi84  1  0.72690404  0.01134566  0.74698148  1
  Bi  Bi85  1  0.21320788  0.03979114  -0.01234909  1
  Bi  Bi86  1  0.26699004  0.49425872  0.52552183  1
  Bi  Bi87  1  0.72404263  0.51032801  -0.02066170  1
  Bi  Bi88  1  0.46784472  0.76027812  0.49425740  1
  Bi  Bi89  1  0.23706822  0.27415433  0.25071892  1
  Bi  Bi90  1  0.01939832  0.51069870  0.02964618  1
  Bi  Bi91  1  0.51515072  0.49070884  0.23369769  1
  Bi  Bi92  1  -0.01800972  0.54096161  0.74588734  1
  Bi  Bi93  1  0.23373467  0.24794036  0.75706794  1
  Bi  Bi94  1  0.74796777  0.28344026  -0.01762409  1
  Bi  Bi95  1  0.21173695  0.01888301  0.76501586  1
  Bi  Bi96  1  0.01727288  0.73305187  0.21587503  1
  Bi  Bi97  1  0.03498393  0.73255595  0.00338241  1
  Bi  Bi98  1  0.46865011  0.23120487  0.49711648  1
  Bi  Bi99  1  0.46902397  0.23119890  0.00644841  1
  Bi  Bi100  1  -0.02075485  -0.01905685  0.24394704  1
  Bi  Bi101  1  0.50997050  -0.03338411  0.26629354  1
  Bi  Bi102  1  0.76774605  0.01485319  0.50512007  1
  Bi  Bi103  1  0.73819523  0.48873164  0.48343198  1
  Bi  Bi104  1  0.23773737  0.51073242  0.03311286  1
  Bi  Bi105  1  0.46320462  0.75486091  0.75415277  1
  Bi  Bi106  1  0.50390556  0.03636156  0.76245649  1
  Bi  Bi107  1  0.76108519  0.72880288  0.75208284  1
  Bi  Bi108  1  0.50804278  0.00324843  0.52637385  1
  Bi  Bi109  1  -0.03259010  0.27838713  0.24436659  1
  Bi  Bi110  1  -0.01434562  0.24028555  0.71555066  1
  Bi  Bi111  1  0.23015722  0.74042610  0.51835027  1
  Bi  Bi112  1  0.48813699  0.51577074  0.47577670  1
  Bi  Bi113  1  0.26999484  0.29302395  -0.01951754  1
  Bi  Bi114  1  -0.00647276  0.26643723  0.48802709  1
  Bi  Bi115  1  -0.01687511  0.54024855  0.49929469  1
  Bi  Bi116  1  0.53238676  0.00677265  -0.00555908  1
  Bi  Bi117  1  0.76271127  0.77195154  0.51990221  1
  Bi  Bi118  1  0.75524165  0.73673193  0.25531761  1
  Bi  Bi119  1  0.03541081  0.25383937  -0.03615494  1
  Bi  Bi120  1  0.74021228  0.25830765  0.23227884  1
  Bi  Bi121  1  0.76359334  0.01217395  0.02253531  1
  Bi  Bi122  1  0.24750012  -0.01771116  0.26723045  1
  Bi  Bi123  1  -0.01423581  0.03119784  0.00795230  1
  Bi  Bi124  1  0.26195373  0.77803233  0.00377023  1
  O  O125  1  0.14197350  0.15094571  0.01509034  1
  O  O126  1  0.12612998  0.10337936  0.25665195  1
  O  O127  1  0.14790271  0.15987662  0.49808810  1
  O  O128  1  0.10413031  0.09195972  0.73355412  1
  O  O129  1  0.10095722  0.40409277  -0.01595219  1
  O  O130  1  0.16239991  0.39960211  0.25864850  1
  O  O131  1  0.11888345  0.34475311  0.49459306  1
  O  O132  1  0.16968711  0.36982786  0.74580141  1
  O  O133  1  0.10581659  0.60849616  -0.01680673  1
  O  O134  1  0.09984415  0.60733038  0.25493776  1
  O  O135  1  0.10505209  0.65412606  0.48949689  1
  O  O136  1  0.16561456  0.67517446  0.75692182  1
  O  O137  1  0.09082793  0.87603553  -0.00277925  1
  O  O138  1  0.13913032  0.89822262  0.24488581  1
  O  O139  1  0.08983649  0.85488623  0.48312942  1
  O  O140  1  0.14879395  0.85769026  0.75600834  1
  O  O141  1  0.38209120  0.11562003  0.01189916  1
  O  O142  1  0.37555324  0.14687965  0.26086478  1
  O  O143  1  0.39499332  0.10073057  0.50098535  1
  O  O144  1  0.39183405  0.13156226  0.74317885  1
  O  O145  1  0.39886376  0.35706752  0.00280439  1
  O  O146  1  0.37560825  0.35002199  0.26126559  1
  O  O147  1  0.39174234  0.40578498  0.50272602  1
  O  O148  1  0.34817359  0.33519602  0.74551430  1
  O  O149  1  0.38563796  0.65195755  0.00263820  1
  O  O150  1  0.39143718  0.66533317  0.24947510  1
  O  O151  1  0.37579759  0.58729841  0.50000642  1
  O  O152  1  0.37739074  0.62566844  0.75471463  1
  O  O153  1  0.38460378  0.86465841  -0.00081132  1
  O  O154  1  0.33637623  0.86537351  0.24644911  1
  O  O155  1  0.41166030  0.89004569  0.50169457  1
  O  O156  1  0.35087080  0.85094507  0.73679841  1
  O  O157  1  0.63756327  0.10009733  0.00439010  1
  O  O158  1  0.62542165  0.13309823  0.25621013  1
  O  O159  1  0.64487857  0.09805221  0.50313124  1
  O  O160  1  0.63027462  0.11717377  0.74303150  1
  O  O161  1  0.64252013  0.38805727  0.00115637  1
  O  O162  1  0.62434418  0.35301144  0.26652119  1
  O  O163  1  0.61908567  0.39130017  0.50192792  1
  O  O164  1  0.65971647  0.36119579  0.74304151  1
  O  O165  1  0.61954452  0.60043978  0.01678281  1
  O  O166  1  0.60609716  0.66828017  0.25729807  1
  O  O167  1  0.62377629  0.60500895  0.49989837  1
  O  O168  1  0.62831530  0.63849330  0.74999622  1
  O  O169  1  0.59640404  0.88244232  -0.00587385  1
  O  O170  1  0.64141234  0.87505917  0.24768527  1
  O  O171  1  0.60069952  0.88276672  0.50133376  1
  O  O172  1  0.64575396  0.84868605  0.75069951  1
  O  O173  1  0.86038473  0.11655446  -0.00427641  1
  O  O174  1  0.88382718  0.09441228  0.25404762  1
  O  O175  1  0.84104251  0.14183387  0.49323823  1
  O  O176  1  0.90973110  0.11402529  0.75906553  1
  O  O177  1  0.87022209  0.36079377  0.00709841  1
  O  O178  1  0.88592465  0.38989558  0.25528452  1
  O  O179  1  0.87011047  0.33061305  0.49584971  1
  O  O180  1  0.85728452  0.38418051  0.75093281  1
  O  O181  1  0.86605160  0.64983676  0.00579146  1
  O  O182  1  0.88599904  0.59896804  0.24660645  1
  O  O183  1  0.91825451  0.66026403  0.50710110  1
  O  O184  1  0.85824849  0.61278430  0.75323092  1
  O  O185  1  0.88917079  0.84508233  -0.01166441  1
  O  O186  1  0.85439449  0.91665551  0.25532629  1
  O  O187  1  0.89838835  0.85118848  0.49076033  1
  O  O188  1  0.86103160  0.89091627  0.75257253  1
  O  O189  1  0.00289912  0.13939130  0.11423639  1
  O  O190  1  0.00188034  0.14620575  0.38285517  1
  O  O191  1  0.00311319  0.15015004  0.60489441  1
  O  O192  1  -0.00606602  0.14228874  0.89752215  1
  O  O193  1  -0.00732883  0.37769268  0.13495668  1
  O  O194  1  0.01312761  0.35727104  0.36708940  1
  O  O195  1  0.00819361  0.34568130  0.61795473  1
  O  O196  1  -0.00221219  0.34808827  0.86020276  1
  O  O197  1  -0.01103972  0.63690078  0.11582974  1
  O  O198  1  -0.00263958  0.59907706  0.37234531  1
  O  O199  1  0.00942700  0.65017955  0.66401920  1
  O  O200  1  0.01373756  0.63826533  0.84400493  1
  O  O201  1  0.00081118  0.86766023  0.15213979  1
  O  O202  1  -0.00291087  0.87929744  0.34438254  1
  O  O203  1  -0.00338548  0.84463651  0.63961646  1
  O  O204  1  0.00678815  0.83568549  0.84084958  1
  O  O205  1  0.25227142  0.11064746  0.13324558  1
  O  O206  1  0.25528544  0.08115440  0.38859600  1
  O  O207  1  0.25019403  0.10582961  0.64383656  1
  O  O208  1  0.25092000  0.10213822  0.86695996  1
  O  O209  1  0.24969978  0.38025950  0.09569462  1
  O  O210  1  0.25773437  0.37574727  0.39599099  1
  O  O211  1  0.24639221  0.35265418  0.58328504  1
  O  O212  1  0.24496309  0.40325051  0.90437404  1
  O  O213  1  0.26829086  0.60213476  0.15299761  1
  O  O214  1  0.24037043  0.60900119  0.34489025  1
  O  O215  1  0.24599573  0.62369628  0.59061889  1
  O  O216  1  0.25353157  0.61018267  0.89883832  1
  O  O217  1  0.23898100  0.88691057  0.09231926  1
  O  O218  1  0.23524775  0.90173881  0.38664985  1
  O  O219  1  0.25391981  0.90181570  0.58018944  1
  O  O220  1  0.24932249  0.88267742  0.89337269  1
  O  O221  1  0.50707958  0.13629041  0.13149604  1
  O  O222  1  0.51211634  0.14833153  0.38405225  1
  O  O223  1  0.52056412  0.13389348  0.61154414  1
  O  O224  1  0.50776806  0.12419979  0.87448755  1
  O  O225  1  0.50373982  0.38766345  0.14040596  1
  O  O226  1  0.50102911  0.33731044  0.38370891  1
  O  O227  1  0.50525067  0.36033311  0.64448873  1
  O  O228  1  0.51530020  0.37688323  0.85770039  1
  O  O229  1  0.49981100  0.60428629  0.14080327  1
  O  O230  1  0.50101314  0.64024945  0.38825538  1
  O  O231  1  0.49806644  0.61569314  0.62908731  1
  O  O232  1  0.50295862  0.65410113  0.87572247  1
  O  O233  1  0.48870402  0.85787521  0.14932561  1
  O  O234  1  0.50481600  0.84848967  0.34497271  1
  O  O235  1  0.50283193  0.84290062  0.64300803  1
  O  O236  1  0.49095238  0.84088081  0.86189930  1
  O  O237  1  0.74709595  0.08125374  0.14270758  1
  O  O238  1  0.75284802  0.08778529  0.35771561  1
  O  O239  1  0.75221977  0.08810222  0.63478023  1
  O  O240  1  0.75806618  0.09313309  0.85708835  1
  O  O241  1  0.75065871  0.38048362  0.16062542  1
  O  O242  1  0.73984692  0.39813581  0.37580142  1
  O  O243  1  0.75633457  0.40175540  0.60697905  1
  O  O244  1  0.75672624  0.39369496  0.88929797  1
  O  O245  1  0.74385165  0.63886207  0.14604096  1
  O  O246  1  0.74646268  0.63181358  0.35890251  1
  O  O247  1  0.74625643  0.60932419  0.62156151  1
  O  O248  1  0.74085199  0.62159274  0.88734207  1
  O  O249  1  0.74346441  0.87956480  0.10189592  1
  O  O250  1  0.75022211  0.88164483  0.39924261  1
  O  O251  1  0.74772398  0.88470192  0.59704260  1
  O  O252  1  0.74718462  0.88533964  0.89239755  1
  O  O253  1  0.11033477  0.00760390  0.10591278  1
  O  O254  1  0.10606970  0.00850045  0.40182334  1
  O  O255  1  0.12051171  0.00610195  0.58071533  1
  O  O256  1  0.11386438  -0.00874866  0.87408094  1
  O  O257  1  0.13076932  0.25159404  0.15988131  1
  O  O258  1  0.16038886  0.24499628  0.35912333  1
  O  O259  1  0.13533614  0.24197075  0.65470076  1
  O  O260  1  0.14525765  0.27073115  0.87977443  1
  O  O261  1  0.12460649  0.50087148  0.12070195  1
  O  O262  1  0.12491544  0.49869295  0.40385132  1
  O  O263  1  0.14104131  0.48658264  0.62838101  1
  O  O264  1  0.13501695  0.50952630  0.82215044  1
  O  O265  1  0.12021463  0.75684103  0.11614645  1
  O  O266  1  0.12705647  0.74932061  0.34637441  1
  O  O267  1  0.13510589  0.75888555  0.61462270  1
  O  O268  1  0.14286324  0.75004231  0.90323898  1
  O  O269  1  0.38447921  -0.00341950  0.14530828  1
  O  O270  1  0.39846454  -0.00037046  0.35182982  1
  O  O271  1  0.40429161  -0.00425144  0.63384146  1
  O  O272  1  0.39665514  -0.01189759  0.86154589  1
  O  O273  1  0.38506279  0.24339732  0.12405305  1
  O  O274  1  0.35384059  0.23866943  0.41454153  1
  O  O275  1  0.37022630  0.23119681  0.60114373  1
  O  O276  1  0.37855234  0.23870802  0.89150634  1
  O  O277  1  0.37784702  0.50592041  0.08446721  1
  O  O278  1  0.40192060  0.49068863  0.36128482  1
  O  O279  1  0.33466658  0.48861490  0.65937751  1
  O  O280  1  0.39960217  0.51263966  0.87501197  1
  O  O281  1  0.34502226  0.75279063  0.12123646  1
  O  O282  1  0.36580807  0.74995029  0.40320202  1
  O  O283  1  0.36034965  0.75619766  0.59269119  1
  O  O284  1  0.34610837  0.74981670  0.86065923  1
  O  O285  1  0.59943645  -0.00941295  0.12322443  1
  O  O286  1  0.59994875  -0.00220231  0.37052495  1
  O  O287  1  0.60701653  -0.01786581  0.64226198  1
  O  O288  1  0.60494615  -0.01417212  0.86079844  1
  O  O289  1  0.65355270  0.23726515  0.12089631  1
  O  O290  1  0.66619385  0.24082805  0.40875711  1
  O  O291  1  0.67731715  0.24894957  0.60979301  1
  O  O292  1  0.64645831  0.25925863  0.88458844  1
  O  O293  1  0.63578194  0.50888769  0.17143939  1
  O  O294  1  0.61848287  0.51120815  0.35109375  1
  O  O295  1  0.61818932  0.49683113  0.64338091  1
  O  O296  1  0.62499354  0.50374719  0.87476107  1
  O  O297  1  0.61775257  0.75046903  0.10414494  1
  O  O298  1  0.63738210  0.75373805  0.39996561  1
  O  O299  1  0.64460864  0.74320474  0.60630444  1
  O  O300  1  0.63522525  0.74881812  0.90103866  1
  O  O301  1  0.88920577  -0.00550118  0.10176097  1
  O  O302  1  0.89269189  0.00150231  0.40030313  1
  O  O303  1  0.88876235  -0.00947799  0.60121090  1
  O  O304  1  0.92166012  -0.01389898  0.88323511  1
  O  O305  1  0.85835068  0.25308561  0.15162630  1
  O  O306  1  0.86302050  0.24146127  0.34341293  1
  O  O307  1  0.86225024  0.24567019  0.65027659  1
  O  O308  1  0.84418426  0.24998855  0.87062623  1
  O  O309  1  0.86196847  0.50442709  0.10470449  1
  O  O310  1  0.87150037  0.50136496  0.42601913  1
  O  O311  1  0.89581496  0.50864220  0.62498523  1
  O  O312  1  0.90421810  0.49708240  0.88374334  1
  O  O313  1  0.86909159  0.74589129  0.16161482  1
  O  O314  1  0.86647007  0.75738413  0.34533390  1
  O  O315  1  0.84304550  0.75893022  0.63894308  1
  O  O316  1  0.84913516  0.75195909  0.85889838  1
