# generated using pymatgen
data_Mg32Ti42(Bi17O64)3
_symmetry_space_group_name_H-M   'P 1'
_cell_length_a   15.94163512
_cell_length_b   15.96345662
_cell_length_c   15.97472303
_cell_angle_alpha   89.97170266
_cell_angle_beta   89.93014004
_cell_angle_gamma   89.96843168
_symmetry_Int_Tables_number   1
_chemical_formula_structural   Mg32Ti42(Bi17O64)3
_chemical_formula_sum   'Mg32 Ti42 Bi51 O192'
_cell_volume   4065.30090193
_cell_formula_units_Z   1
loop_
 _symmetry_equiv_pos_site_id
 _symmetry_equiv_pos_as_xyz
  1  'x, y, z'
loop_
 _atom_site_type_symbol
 _atom_site_label
 _atom_site_symmetry_multiplicity
 _atom_site_fract_x
 _atom_site_fract_y
 _atom_site_fract_z
 _atom_site_occupancy
  Mg  Mg0  1  0.86754429  0.38390723  0.37938820  1
  Mg  Mg1  1  0.11633720  0.37544920  0.86962206  1
  Mg  Mg2  1  0.87459022  0.62596950  0.38168408  1
  Mg  Mg3  1  0.87122963  0.11871146  0.63198679  1
  Mg  Mg4  1  0.38228911  0.37294429  0.38330570  1
  Mg  Mg5  1  0.62655257  0.62314714  0.60063339  1
  Mg  Mg6  1  0.12640562  0.62617273  0.87314717  1
  Mg  Mg7  1  0.87008758  0.86999255  0.87253189  1
  Mg  Mg8  1  0.37466926  0.11614608  0.88042859  1
  Mg  Mg9  1  0.61981055  0.63263381  0.88104540  1
  Mg  Mg10  1  0.12189874  0.61894667  0.63065346  1
  Mg  Mg11  1  0.12127911  0.13266810  0.13263820  1
  Mg  Mg12  1  0.36804705  0.85804124  0.37203855  1
  Mg  Mg13  1  0.61817663  0.87502442  0.61883836  1
  Mg  Mg14  1  0.62332525  0.87561947  0.37272302  1
  Mg  Mg15  1  0.62524695  0.61377531  0.36767923  1
  Mg  Mg16  1  0.36946766  0.86960521  0.62954927  1
  Mg  Mg17  1  0.13169447  0.88108397  0.86835814  1
  Mg  Mg18  1  0.88024233  0.86653959  0.37856588  1
  Mg  Mg19  1  0.50684917  0.51955950  0.03492005  1
  Mg  Mg20  1  0.70826272  0.76087484  -0.00676314  1
  Mg  Mg21  1  0.47927449  -0.06094873  0.49988784  1
  Mg  Mg22  1  0.47650778  -0.01985933  0.69334478  1
  Mg  Mg23  1  0.69843437  -0.01703130  0.73075359  1
  Mg  Mg24  1  0.00496622  0.69121938  0.28876876  1
  Mg  Mg25  1  0.21870657  0.57003236  0.44221335  1
  Mg  Mg26  1  0.56129178  0.23459226  0.51355299  1
  Mg  Mg27  1  0.05332211  0.50901860  0.31016879  1
  Mg  Mg28  1  0.49174370  -0.05720812  0.26217062  1
  Mg  Mg29  1  0.73006881  0.72460870  0.44908439  1
  Mg  Mg30  1  0.30122310  -0.00104712  0.29611369  1
  Mg  Mg31  1  0.50324603  0.74366070  0.66691754  1
  Ti  Ti32  1  0.37271271  0.10742222  0.14430248  1
  Ti  Ti33  1  0.86229628  0.63400386  0.87740662  1
  Ti  Ti34  1  0.61858686  0.38020317  0.62904293  1
  Ti  Ti35  1  0.61938846  0.87241037  0.87203587  1
  Ti  Ti36  1  0.86867435  0.38501751  0.62826743  1
  Ti  Ti37  1  0.62903813  0.36977152  0.39057553  1
  Ti  Ti38  1  0.62699769  0.11328114  0.62541274  1
  Ti  Ti39  1  0.39246001  0.12740829  0.60887922  1
  Ti  Ti40  1  0.13088246  0.37663875  0.63682624  1
  Ti  Ti41  1  0.86462035  0.87862341  0.63211391  1
  Ti  Ti42  1  0.87215606  0.64322155  0.62285811  1
  Ti  Ti43  1  0.86496298  0.37404245  0.12393041  1
  Ti  Ti44  1  0.62400462  0.11642054  0.13621794  1
  Ti  Ti45  1  0.14339084  0.12021561  0.36640694  1
  Ti  Ti46  1  0.37415736  0.63454796  0.12848713  1
  Ti  Ti47  1  0.62454524  0.88074204  0.13080259  1
  Ti  Ti48  1  0.87857282  0.12332323  0.38292758  1
  Ti  Ti49  1  0.10294163  0.62886370  0.11475439  1
  Ti  Ti50  1  0.87266162  0.62274993  0.11318173  1
  Ti  Ti51  1  0.12921104  0.87695270  0.37659923  1
  Ti  Ti52  1  0.37980644  0.61759539  0.35498577  1
  Ti  Ti53  1  0.63711988  0.11845433  0.38073659  1
  Ti  Ti54  1  0.38539490  0.88139942  0.87173168  1
  Ti  Ti55  1  0.36271616  0.87128107  0.13444132  1
  Ti  Ti56  1  0.13030849  0.12438628  0.60900595  1
  Ti  Ti57  1  0.37632244  0.36752637  0.87383654  1
  Ti  Ti58  1  0.63459998  0.62544912  0.11942243  1
  Ti  Ti59  1  0.38452258  0.40007175  0.11196098  1
  Ti  Ti60  1  0.10370757  0.38074692  0.11822940  1
  Ti  Ti61  1  0.12358952  0.12150643  0.87586855  1
  Ti  Ti62  1  0.38974375  0.12247144  0.39068372  1
  Ti  Ti63  1  0.88267834  0.86333552  0.12573531  1
  Ti  Ti64  1  0.62073568  0.36371575  0.11813826  1
  Ti  Ti65  1  0.38175158  0.60556792  0.89536604  1
  Ti  Ti66  1  0.87726132  0.12981611  0.12461997  1
  Ti  Ti67  1  0.86885449  0.12346724  0.87189825  1
  Ti  Ti68  1  0.38518705  0.35860055  0.62204135  1
  Ti  Ti69  1  0.60620339  0.37531475  0.87443550  1
  Ti  Ti70  1  0.13323257  0.86944641  0.63129250  1
  Ti  Ti71  1  0.87199292  0.36620114  0.87352854  1
  Ti  Ti72  1  0.62702795  0.11096068  0.87583223  1
  Ti  Ti73  1  0.12110997  0.87678176  0.13227718  1
  Bi  Bi74  1  -0.00722002  0.25630611  0.51268507  1
  Bi  Bi75  1  0.21946997  0.29420238  0.45889843  1
  Bi  Bi76  1  0.76173325  0.52384539  0.50835992  1
  Bi  Bi77  1  0.49749792  0.21876867  0.77465327  1
  Bi  Bi78  1  0.23333799  0.24217761  -0.01939032  1
  Bi  Bi79  1  0.23899962  0.02037322  0.02398510  1
  Bi  Bi80  1  -0.00724130  0.23232577  -0.00516210  1
  Bi  Bi81  1  0.51417015  0.24258068  0.28127726  1
  Bi  Bi82  1  0.51295023  0.47298586  0.27054271  1
  Bi  Bi83  1  0.00604690  0.75037086  0.75372066  1
  Bi  Bi84  1  0.46590289  0.22745112  0.01642291  1
  Bi  Bi85  1  0.75145848  -0.03411418  0.00038521  1
  Bi  Bi86  1  0.73269680  0.22993803  0.00896490  1
  Bi  Bi87  1  0.48750649  0.73994137  -0.00026655  1
  Bi  Bi88  1  -0.02010050  -0.01323869  -0.00414593  1
  Bi  Bi89  1  0.74173456  -0.03900004  0.48350772  1
  Bi  Bi90  1  0.29224284  0.73257309  0.77179310  1
  Bi  Bi91  1  0.52249294  0.73589783  0.23793516  1
  Bi  Bi92  1  0.01571582  0.76714854  -0.02414420  1
  Bi  Bi93  1  0.24540106  0.75838927  -0.01282687  1
  Bi  Bi94  1  -0.01972588  0.48691799  -0.01532510  1
  Bi  Bi95  1  0.22650350  0.49213211  0.22578765  1
  Bi  Bi96  1  0.26877164  -0.03013711  0.49814387  1
  Bi  Bi97  1  0.78272293  0.51983447  0.25502514  1
  Bi  Bi98  1  0.76582200  0.25292546  0.51399705  1
  Bi  Bi99  1  0.22736447  0.48220863  -0.02446596  1
  Bi  Bi100  1  0.03236436  0.48139824  0.49060149  1
  Bi  Bi101  1  0.27773800  0.00619999  0.75349577  1
  Bi  Bi102  1  0.28017476  0.50363548  0.72545109  1
  Bi  Bi103  1  0.74681830  0.47914695  0.77222846  1
  Bi  Bi104  1  0.50487229  0.54190401  0.72510194  1
  Bi  Bi105  1  0.77569554  0.00517423  0.24711249  1
  Bi  Bi106  1  0.73381592  0.23345774  0.73606210  1
  Bi  Bi107  1  0.24251091  0.23627441  0.73009226  1
  Bi  Bi108  1  0.48612306  -0.01689296  0.01415895  1
  Bi  Bi109  1  0.27899652  0.71044087  0.55751666  1
  Bi  Bi110  1  0.50355020  0.75191369  0.46309824  1
  Bi  Bi111  1  0.02006417  0.00290726  0.27753333  1
  Bi  Bi112  1  0.77906704  0.25628004  0.26389612  1
  Bi  Bi113  1  -0.00151846  -0.03205844  0.51415842  1
  Bi  Bi114  1  0.28946327  0.27536322  0.23848321  1
  Bi  Bi115  1  0.78534570  0.74810576  0.25462771  1
  Bi  Bi116  1  -0.00117073  -0.00737325  0.74201742  1
  Bi  Bi117  1  0.45393251  0.52652289  0.51242039  1
  Bi  Bi118  1  0.20330180  0.72259168  0.25623157  1
  Bi  Bi119  1  0.70831426  0.72995474  0.72819363  1
  Bi  Bi120  1  0.03219113  0.71472094  0.48299252  1
  Bi  Bi121  1  0.72846970  0.49537888  -0.00498456  1
  Bi  Bi122  1  0.00014033  0.24245722  0.73865656  1
  Bi  Bi123  1  0.02313546  0.29713179  0.28585093  1
  Bi  Bi124  1  -0.00029519  0.52254911  0.76067753  1
  O  O125  1  0.14892432  0.12666486  0.00365854  1
  O  O126  1  0.10233778  0.12043820  0.25574691  1
  O  O127  1  0.14316244  0.12516155  0.49733710  1
  O  O128  1  0.10726276  0.14855910  0.76010358  1
  O  O129  1  0.10815027  0.40416609  -0.00059646  1
  O  O130  1  0.11032657  0.41346443  0.23879564  1
  O  O131  1  0.10771187  0.35969969  0.51152564  1
  O  O132  1  0.11114967  0.34961485  0.74832742  1
  O  O133  1  0.13396418  0.65792305  0.00397621  1
  O  O134  1  0.10366981  0.61558589  0.24554436  1
  O  O135  1  0.14750086  0.64729462  0.50778322  1
  O  O136  1  0.08717018  0.62857384  0.74962215  1
  O  O137  1  0.13118174  0.84831195  0.00508063  1
  O  O138  1  0.11668760  0.89587137  0.24799145  1
  O  O139  1  0.14358834  0.88257428  0.49667922  1
  O  O140  1  0.09809068  0.88102719  0.74393580  1
  O  O141  1  0.36356766  0.13606279  0.00612241  1
  O  O142  1  0.39638581  0.07535279  0.25224872  1
  O  O143  1  0.35877702  0.15251065  0.49840286  1
  O  O144  1  0.39899145  0.08930249  0.73619036  1
  O  O145  1  0.37419259  0.34023840  0.01252858  1
  O  O146  1  0.38866456  0.37552798  0.22851832  1
  O  O147  1  0.36787601  0.36511769  0.50984478  1
  O  O148  1  0.36281974  0.37383862  0.76294073  1
  O  O149  1  0.36572405  0.66012166  0.00845111  1
  O  O150  1  0.41779130  0.61956039  0.24179443  1
  O  O151  1  0.33810055  0.59686746  0.48397117  1
  O  O152  1  0.38499359  0.60517818  0.77599315  1
  O  O153  1  0.38671310  0.85915094  0.00138657  1
  O  O154  1  0.37439744  0.89901256  0.24834017  1
  O  O155  1  0.35750356  0.86524295  0.50171572  1
  O  O156  1  0.38229263  0.91029548  0.75125123  1
  O  O157  1  0.64716098  0.11816944  -0.00809742  1
  O  O158  1  0.61797460  0.13543179  0.25098660  1
  O  O159  1  0.64058399  0.12251656  0.50471593  1
  O  O160  1  0.61472141  0.14458977  0.75123016  1
  O  O161  1  0.63453465  0.38433008  -0.01141133  1
  O  O162  1  0.61269485  0.36289399  0.23466575  1
  O  O163  1  0.61426088  0.35973230  0.50317284  1
  O  O164  1  0.62828700  0.38075221  0.74804448  1
  O  O165  1  0.66875728  0.63632236  0.00437273  1
  O  O166  1  0.60336951  0.62396133  0.23977048  1
  O  O167  1  0.66588458  0.62109014  0.48593769  1
  O  O168  1  0.58828728  0.65672599  0.75634202  1
  O  O169  1  0.61226685  0.91053802  0.00530089  1
  O  O170  1  0.60939698  0.87535729  0.24675161  1
  O  O171  1  0.61349068  0.90673274  0.49858066  1
  O  O172  1  0.63603598  0.86597596  0.75828685  1
  O  O173  1  0.85895426  0.15642293  0.00165013  1
  O  O174  1  0.86413874  0.11819902  0.24691594  1
  O  O175  1  0.86580186  0.14856228  0.49903368  1
  O  O176  1  0.90277259  0.12180011  0.76061260  1
  O  O177  1  0.87417364  0.37433401  -0.00590246  1
  O  O178  1  0.85188050  0.39333237  0.24284845  1
  O  O179  1  0.87496888  0.34540579  0.50377175  1
  O  O180  1  0.87275831  0.38967168  0.74650444  1
  O  O181  1  0.85504614  0.64137112  -0.00410732  1
  O  O182  1  0.89289762  0.60579550  0.23982644  1
  O  O183  1  0.83647428  0.64436272  0.50358995  1
  O  O184  1  0.90110830  0.62130822  0.74401519  1
  O  O185  1  0.87762857  0.88553515  0.00668299  1
  O  O186  1  0.86089800  0.89394118  0.24121404  1
  O  O187  1  0.87635924  0.89089909  0.51038853  1
  O  O188  1  0.90075856  0.88729152  0.74856522  1
  O  O189  1  -0.00814580  0.12911142  0.10530404  1
  O  O190  1  -0.01029570  0.10277050  0.38412611  1
  O  O191  1  0.00668189  0.16258668  0.61824868  1
  O  O192  1  0.00188744  0.11930672  0.90993068  1
  O  O193  1  -0.01158748  0.39082880  0.12138680  1
  O  O194  1  -0.00875990  0.40436114  0.36429737  1
  O  O195  1  -0.01165776  0.34024755  0.62520009  1
  O  O196  1  -0.01096147  0.40711273  0.87195088  1
  O  O197  1  -0.00687763  0.61204419  0.09493884  1
  O  O198  1  -0.00131132  0.61155599  0.39364737  1
  O  O199  1  -0.00876388  0.64086820  0.59444117  1
  O  O200  1  -0.00640883  0.58810232  0.88596223  1
  O  O201  1  -0.00170227  0.88753457  0.11725132  1
  O  O202  1  0.00291732  0.89896771  0.38168428  1
  O  O203  1  0.01418524  0.85851725  0.59731909  1
  O  O204  1  0.00366036  0.89217395  0.90060471  1
  O  O205  1  0.25587967  0.11403257  0.13869888  1
  O  O206  1  0.25515741  0.11272130  0.34940791  1
  O  O207  1  0.24762283  0.11326250  0.65285981  1
  O  O208  1  0.24673415  0.15536615  0.86623701  1
  O  O209  1  0.25483817  0.38675266  0.13524372  1
  O  O210  1  0.25898634  0.36314531  0.34943721  1
  O  O211  1  0.24647230  0.39059508  0.63972886  1
  O  O212  1  0.25123947  0.36212729  0.89814122  1
  O  O213  1  0.26194563  0.63488609  0.15205995  1
  O  O214  1  0.26380312  0.61791275  0.33648844  1
  O  O215  1  0.24795423  0.61151893  0.64666014  1
  O  O216  1  0.25904399  0.64985807  0.88338399  1
  O  O217  1  0.24957177  0.85248399  0.13090398  1
  O  O218  1  0.24726726  0.89863635  0.36451909  1
  O  O219  1  0.24782087  0.91625076  0.63734018  1
  O  O220  1  0.25601292  0.84266963  0.86806029  1
  O  O221  1  0.50763153  0.10142460  0.10402484  1
  O  O222  1  0.50477132  0.12757144  0.38842066  1
  O  O223  1  0.50485138  0.15600987  0.60302772  1
  O  O224  1  0.50785605  0.11712604  0.87990270  1
  O  O225  1  0.50421063  0.40484473  0.10044088  1
  O  O226  1  0.50515375  0.36614394  0.35880112  1
  O  O227  1  0.50060258  0.34538900  0.62939840  1
  O  O228  1  0.49479957  0.39739163  0.87834019  1
  O  O229  1  0.51175482  0.62917038  0.09654762  1
  O  O230  1  0.49896367  0.61905707  0.41566129  1
  O  O231  1  0.49694997  0.62313213  0.61226356  1
  O  O232  1  0.49728183  0.60288397  0.92589609  1
  O  O233  1  0.50187026  0.90750591  0.13218883  1
  O  O234  1  0.49403251  0.88278356  0.38047659  1
  O  O235  1  0.49393842  0.86765623  0.62150626  1
  O  O236  1  0.50238104  0.90122126  0.87758869  1
  O  O237  1  0.74329558  0.15641270  0.12663042  1
  O  O238  1  0.74880328  0.15797289  0.36943288  1
  O  O239  1  0.74077935  0.10057260  0.66261103  1
  O  O240  1  0.75355258  0.15061777  0.86244077  1
  O  O241  1  0.74294009  0.36186530  0.11058619  1
  O  O242  1  0.74317143  0.34652932  0.37566289  1
  O  O243  1  0.74587603  0.38798538  0.61973186  1
  O  O244  1  0.75305854  0.36496983  0.85844463  1
  O  O245  1  0.75302964  0.64418596  0.15214916  1
  O  O246  1  0.75233090  0.64942998  0.34348264  1
  O  O247  1  0.75132070  0.61563227  0.65011984  1
  O  O248  1  0.75306856  0.65432296  0.84978406  1
  O  O249  1  0.74464582  0.85746773  0.09930032  1
  O  O250  1  0.75148068  0.84498166  0.40360122  1
  O  O251  1  0.75261826  0.90766212  0.63747420  1
  O  O252  1  0.74333280  0.85759105  0.90854499  1
  O  O253  1  0.13168317  -0.00849212  0.10710575  1
  O  O254  1  0.12103167  0.00447493  0.37321203  1
  O  O255  1  0.09556694  0.01190969  0.63004141  1
  O  O256  1  0.14430885  0.00891001  0.87167327  1
  O  O257  1  0.11719021  0.26769092  0.12095963  1
  O  O258  1  0.11560653  0.24403045  0.37759643  1
  O  O259  1  0.15319295  0.24796739  0.62237130  1
  O  O260  1  0.10968599  0.25214441  0.90797491  1
  O  O261  1  0.14468873  0.51528736  0.11432185  1
  O  O262  1  0.13327165  0.49594801  0.40548517  1
  O  O263  1  0.10107513  0.48982964  0.62357867  1
  O  O264  1  0.15587737  0.50235484  0.86405587  1
  O  O265  1  0.10905093  0.74691701  0.15103168  1
  O  O266  1  0.10448100  0.76079576  0.35356389  1
  O  O267  1  0.16284742  0.76014607  0.63817612  1
  O  O268  1  0.09254033  0.75163094  0.86395135  1
  O  O269  1  0.36269325  -0.00932552  0.10120741  1
  O  O270  1  0.37576359  0.00566159  0.40318172  1
  O  O271  1  0.40523400  0.01034167  0.58818801  1
  O  O272  1  0.34755280  -0.00643341  0.89103398  1
  O  O273  1  0.39752205  0.22582810  0.14748044  1
  O  O274  1  0.38042296  0.23984411  0.34285937  1
  O  O275  1  0.36041318  0.24351741  0.65158605  1
  O  O276  1  0.39908836  0.24854961  0.87481760  1
  O  O277  1  0.38260252  0.51482937  0.09456338  1
  O  O278  1  0.40208050  0.49790604  0.36426499  1
  O  O279  1  0.39161255  0.48378703  0.64473316  1
  O  O280  1  0.35668942  0.49442678  0.90502477  1
  O  O281  1  0.40360888  0.75556671  0.13998096  1
  O  O282  1  0.39683490  0.73651218  0.36925736  1
  O  O283  1  0.37465840  0.74767674  0.65418217  1
  O  O284  1  0.39906953  0.75724078  0.85740182  1
  O  O285  1  0.65490140  0.00517824  0.13849939  1
  O  O286  1  0.65866795  0.00669143  0.36509082  1
  O  O287  1  0.59587607  0.00627870  0.65661112  1
  O  O288  1  0.65684983  0.00305762  0.85200391  1
  O  O289  1  0.60533147  0.24990648  0.10176995  1
  O  O290  1  0.60543142  0.24577467  0.38755165  1
  O  O291  1  0.64806093  0.24548818  0.61945486  1
  O  O292  1  0.59977045  0.25798861  0.87042402  1
  O  O293  1  0.63287229  0.50845542  0.10418249  1
  O  O294  1  0.62296272  0.48570389  0.36155462  1
  O  O295  1  0.60250880  0.49441920  0.61951426  1
  O  O296  1  0.64902672  0.50373323  0.87108222  1
  O  O297  1  0.60762612  0.75993244  0.11538364  1
  O  O298  1  0.60803588  0.74594119  0.37761267  1
  O  O299  1  0.62485578  0.74866509  0.61675084  1
  O  O300  1  0.60914400  0.76190777  0.90872579  1
  O  O301  1  0.85351795  0.01285419  0.11566906  1
  O  O302  1  0.84415558  0.00779830  0.37498144  1
  O  O303  1  0.91301889  -0.00089529  0.62962587  1
  O  O304  1  0.86817786  0.00993121  0.89772273  1
  O  O305  1  0.87903777  0.25916588  0.14230154  1
  O  O306  1  0.89462806  0.25141428  0.34728254  1
  O  O307  1  0.83760371  0.24535507  0.63755502  1
  O  O308  1  0.90239034  0.25431168  0.87061818  1
  O  O309  1  0.84710245  0.50604398  0.10859972  1
  O  O310  1  0.83358352  0.50502014  0.38747508  1
  O  O311  1  0.88358664  0.49699156  0.60287865  1
  O  O312  1  0.84305506  0.50811617  0.87760533  1
  O  O313  1  0.88714076  0.75021807  0.13845317  1
  O  O314  1  0.89922141  0.74694330  0.33927391  1
  O  O315  1  0.86074254  0.75762994  0.63875401  1
  O  O316  1  0.91233358  0.74622478  0.86663068  1
