# generated using pymatgen
data_Mg32Ti42(Bi17O64)3
_symmetry_space_group_name_H-M   'P 1'
_cell_length_a   15.92854841
_cell_length_b   15.95996098
_cell_length_c   15.92209359
_cell_angle_alpha   89.85931135
_cell_angle_beta   90.01843796
_cell_angle_gamma   89.92412567
_symmetry_Int_Tables_number   1
_chemical_formula_structural   Mg32Ti42(Bi17O64)3
_chemical_formula_sum   'Mg32 Ti42 Bi51 O192'
_cell_volume   4047.68292218
_cell_formula_units_Z   1
loop_
 _symmetry_equiv_pos_site_id
 _symmetry_equiv_pos_as_xyz
  1  'x, y, z'
loop_
 _atom_site_type_symbol
 _atom_site_label
 _atom_site_symmetry_multiplicity
 _atom_site_fract_x
 _atom_site_fract_y
 _atom_site_fract_z
 _atom_site_occupancy
  Mg  Mg0  1  0.38527741  0.13430468  0.36789297  1
  Mg  Mg1  1  0.86823267  0.37224655  0.37480226  1
  Mg  Mg2  1  0.87577747  0.12440893  0.13662404  1
  Mg  Mg3  1  0.86282579  0.87495415  0.88076546  1
  Mg  Mg4  1  0.36495237  0.36536763  0.87786863  1
  Mg  Mg5  1  0.12819488  0.13186079  0.86749419  1
  Mg  Mg6  1  0.62891290  0.61766552  0.86426031  1
  Mg  Mg7  1  0.87376318  0.12392819  0.61962973  1
  Mg  Mg8  1  0.37285433  0.62726112  0.38131709  1
  Mg  Mg9  1  0.62632316  0.61422647  0.37736960  1
  Mg  Mg10  1  0.12359018  0.86437550  0.11712352  1
  Mg  Mg11  1  0.86436397  0.12877117  0.87145272  1
  Mg  Mg12  1  0.12482195  0.88127280  0.87826228  1
  Mg  Mg13  1  0.86438033  0.87002197  0.62570227  1
  Mg  Mg14  1  0.13147999  0.36379699  0.36650361  1
  Mg  Mg15  1  0.37725067  0.38075516  0.62357317  1
  Mg  Mg16  1  0.87394042  0.37572568  0.11892095  1
  Mg  Mg17  1  0.11557911  0.62340960  0.86409121  1
  Mg  Mg18  1  0.38633766  0.12456118  0.11853778  1
  Mg  Mg19  1  0.74551421  0.21963112  0.71019038  1
  Mg  Mg20  1  0.78166172  0.00196798  0.51306751  1
  Mg  Mg21  1  0.49810702  0.47130344  -0.04654718  1
  Mg  Mg22  1  0.50385230  0.20023100  0.50054672  1
  Mg  Mg23  1  -0.01800300  0.45546995  0.73657245  1
  Mg  Mg24  1  0.44393745  0.00906793  0.77509267  1
  Mg  Mg25  1  0.72492165  0.19146281  0.50211546  1
  Mg  Mg26  1  0.20859145  0.74881493  -0.03984371  1
  Mg  Mg27  1  0.19446823  0.18780237  0.03765824  1
  Mg  Mg28  1  0.06560966  0.79354306  0.71810269  1
  Mg  Mg29  1  0.06483049  0.20531359  0.23912126  1
  Mg  Mg30  1  0.50209977  0.00707019  0.02649662  1
  Mg  Mg31  1  0.73869028  0.45901633  0.74618587  1
  Ti  Ti32  1  0.89292692  0.62249673  0.63741093  1
  Ti  Ti33  1  0.63418756  0.87565166  0.61595777  1
  Ti  Ti34  1  0.35522372  0.13250687  0.88998977  1
  Ti  Ti35  1  0.87835785  0.62926331  0.12499624  1
  Ti  Ti36  1  0.88329616  0.87077477  0.12803859  1
  Ti  Ti37  1  0.11185421  0.12599758  0.61721004  1
  Ti  Ti38  1  0.62151854  0.37525585  0.10782780  1
  Ti  Ti39  1  0.63253492  0.61198055  0.63237036  1
  Ti  Ti40  1  0.36827364  0.61602614  0.87842003  1
  Ti  Ti41  1  0.87075091  0.88333373  0.37850316  1
  Ti  Ti42  1  0.11860766  0.36733859  0.87227765  1
  Ti  Ti43  1  0.11366185  0.63376973  0.12958423  1
  Ti  Ti44  1  0.63786415  0.36195768  0.62581667  1
  Ti  Ti45  1  0.63648665  0.87117165  0.37484560  1
  Ti  Ti46  1  0.38210460  0.86874251  0.11233510  1
  Ti  Ti47  1  0.63220415  0.35772205  0.86225308  1
  Ti  Ti48  1  0.38819534  0.87636100  0.62980120  1
  Ti  Ti49  1  0.11382831  0.36697474  0.63224529  1
  Ti  Ti50  1  0.37090345  0.62688928  0.12295493  1
  Ti  Ti51  1  0.62397530  0.10481940  0.62510221  1
  Ti  Ti52  1  0.13182714  0.12061893  0.38169704  1
  Ti  Ti53  1  0.62087272  0.12588217  0.37494853  1
  Ti  Ti54  1  0.87299833  0.63201995  0.86642110  1
  Ti  Ti55  1  0.61959764  0.12732499  0.13646699  1
  Ti  Ti56  1  0.36737094  0.87153291  0.38000736  1
  Ti  Ti57  1  0.13190384  0.38177690  0.12468356  1
  Ti  Ti58  1  0.61387604  0.88063011  0.88860328  1
  Ti  Ti59  1  0.87289756  0.36723477  0.87628309  1
  Ti  Ti60  1  0.86552157  0.11522311  0.37898144  1
  Ti  Ti61  1  0.62820642  0.35657808  0.37226733  1
  Ti  Ti62  1  0.13134604  0.61920942  0.63708926  1
  Ti  Ti63  1  0.37323033  0.38789668  0.10563989  1
  Ti  Ti64  1  0.37459631  0.62084693  0.61841533  1
  Ti  Ti65  1  0.36035754  0.37647888  0.37712992  1
  Ti  Ti66  1  0.62480962  0.11093395  0.86955328  1
  Ti  Ti67  1  0.88092817  0.61971246  0.38171416  1
  Ti  Ti68  1  0.62032534  0.87264241  0.12201973  1
  Ti  Ti69  1  0.12627694  0.63102740  0.38739492  1
  Ti  Ti70  1  0.62206769  0.61461378  0.13224087  1
  Ti  Ti71  1  0.38849935  0.86205942  0.87656401  1
  Ti  Ti72  1  0.86854847  0.36952918  0.62890684  1
  Ti  Ti73  1  0.12266291  0.88838271  0.37372771  1
  Bi  Bi74  1  0.51014357  0.47175884  0.47788314  1
  Bi  Bi75  1  0.74538812  0.73441578  -0.00227293  1
  Bi  Bi76  1  0.28862209  0.24418150  0.51063050  1
  Bi  Bi77  1  -0.00020654  0.75155330  0.51949439  1
  Bi  Bi78  1  0.50708895  0.70590521  -0.01050915  1
  Bi  Bi79  1  0.22916291  0.78291667  0.52992671  1
  Bi  Bi80  1  0.00413379  0.76218400  -0.04525540  1
  Bi  Bi81  1  0.78790856  0.00395995  0.00951926  1
  Bi  Bi82  1  0.75654664  0.47763413  0.49388799  1
  Bi  Bi83  1  0.47523908  0.21779521  0.74219898  1
  Bi  Bi84  1  0.22388894  0.48048733  0.51155715  1
  Bi  Bi85  1  0.73881655  0.49499026  -0.03007102  1
  Bi  Bi86  1  0.76566325  0.22703121  0.01210718  1
  Bi  Bi87  1  0.76376446  0.48961037  0.22561355  1
  Bi  Bi88  1  0.77313960  0.24590550  0.25542800  1
  Bi  Bi89  1  0.75611013  0.76730717  0.76364280  1
  Bi  Bi90  1  0.22237864  0.52819021  0.00366221  1
  Bi  Bi91  1  0.49256415  0.72620532  0.26376514  1
  Bi  Bi92  1  0.23732782  0.51728401  0.25518905  1
  Bi  Bi93  1  -0.02069708  -0.01613030  0.77087080  1
  Bi  Bi94  1  0.52290239  0.75338977  0.74527068  1
  Bi  Bi95  1  0.25468323  0.22065696  0.72184673  1
  Bi  Bi96  1  0.76050271  0.00836285  0.75245278  1
  Bi  Bi97  1  0.48134150  0.50006442  0.25326777  1
  Bi  Bi98  1  -0.00788312  0.46237391  0.25063185  1
  Bi  Bi99  1  0.26309126  0.00021146  0.21245827  1
  Bi  Bi100  1  0.49057481  -0.02351410  0.24388646  1
  Bi  Bi101  1  0.27282205  0.74072964  0.74969045  1
  Bi  Bi102  1  0.25199749  0.46987716  0.75686601  1
  Bi  Bi103  1  0.00413611  0.46851422  0.48788965  1
  Bi  Bi104  1  0.51328000  0.71964887  0.50737811  1
  Bi  Bi105  1  0.74955260  -0.01454990  0.23846792  1
  Bi  Bi106  1  0.50672761  -0.02322721  0.47539661  1
  Bi  Bi107  1  0.26365491  -0.02132196  -0.02261851  1
  Bi  Bi108  1  0.23601036  0.76810445  0.25591299  1
  Bi  Bi109  1  0.48514654  0.27162850  0.23670451  1
  Bi  Bi110  1  -0.00828633  0.75179604  0.27140815  1
  Bi  Bi111  1  0.75614047  0.71938786  0.26293289  1
  Bi  Bi112  1  0.50490416  0.22664009  -0.00719034  1
  Bi  Bi113  1  0.30022154  0.03467590  0.50955706  1
  Bi  Bi114  1  -0.01035334  0.23464019  0.45661138  1
  Bi  Bi115  1  0.03041137  0.01652619  0.21944408  1
  Bi  Bi116  1  0.00575302  0.25388151  0.03896165  1
  Bi  Bi117  1  0.00098794  -0.03684398  0.53292757  1
  Bi  Bi118  1  0.21720781  -0.01876757  0.71291163  1
  Bi  Bi119  1  0.26648390  0.22111782  0.22568795  1
  Bi  Bi120  1  0.02829002  0.02332006  -0.00490871  1
  Bi  Bi121  1  -0.00944603  0.49575182  -0.02728109  1
  Bi  Bi122  1  -0.01339860  0.22438225  0.75710456  1
  Bi  Bi123  1  0.76045375  0.72526090  0.52119472  1
  Bi  Bi124  1  0.49081701  0.47913100  0.73641513  1
  O  O125  1  0.08718789  0.14869737  -0.00898717  1
  O  O126  1  0.13814689  0.09814625  0.26099165  1
  O  O127  1  0.09227568  0.14453681  0.49874209  1
  O  O128  1  0.15738567  0.11225753  0.74337468  1
  O  O129  1  0.10399953  0.34599085  -0.00799544  1
  O  O130  1  0.13551161  0.40595934  0.24045287  1
  O  O131  1  0.12259668  0.37313168  0.50406878  1
  O  O132  1  0.11216757  0.41017895  0.74528985  1
  O  O133  1  0.14273437  0.64732494  0.00924703  1
  O  O134  1  0.11976150  0.59089381  0.24453965  1
  O  O135  1  0.12942489  0.66186873  0.49837213  1
  O  O136  1  0.12861811  0.59737129  0.74481525  1
  O  O137  1  0.12060094  0.83256432  -0.00335145  1
  O  O138  1  0.15944737  0.89223411  0.25162291  1
  O  O139  1  0.10877215  0.84743217  0.48713930  1
  O  O140  1  0.11307733  0.90678237  0.75604833  1
  O  O141  1  0.41356916  0.11097906  -0.00659055  1
  O  O142  1  0.36036519  0.12360500  0.24766823  1
  O  O143  1  0.38679329  0.14735728  0.49610174  1
  O  O144  1  0.35810504  0.13857761  0.76279475  1
  O  O145  1  0.40492823  0.39139165  -0.00359848  1
  O  O146  1  0.39363147  0.38726478  0.25609729  1
  O  O147  1  0.35945556  0.37622524  0.49793630  1
  O  O148  1  0.37361119  0.39378367  0.75155642  1
  O  O149  1  0.37466014  0.63010034  0.00626483  1
  O  O150  1  0.39678875  0.62158050  0.25052780  1
  O  O151  1  0.38976823  0.63810541  0.50596799  1
  O  O152  1  0.37322794  0.63568410  0.75843739  1
  O  O153  1  0.40370022  0.89236088  -0.00063591  1
  O  O154  1  0.36187423  0.89896863  0.25777414  1
  O  O155  1  0.39803574  0.87775895  0.50420473  1
  O  O156  1  0.35917564  0.85358353  0.75778296  1
  O  O157  1  0.58143597  0.10707672  -0.01721945  1
  O  O158  1  0.64675668  0.13926781  0.24873411  1
  O  O159  1  0.60796659  0.12860215  0.49861341  1
  O  O160  1  0.65717223  0.13252676  0.73940705  1
  O  O161  1  0.60693492  0.40956776  -0.00331969  1
  O  O162  1  0.61471146  0.34287664  0.25738086  1
  O  O163  1  0.63829134  0.40164485  0.51149549  1
  O  O164  1  0.67241007  0.34478177  0.75263838  1
  O  O165  1  0.63947658  0.62935691  0.00816891  1
  O  O166  1  0.61609142  0.64641840  0.24970292  1
  O  O167  1  0.60245259  0.60713002  0.50931826  1
  O  O168  1  0.62970222  0.65920863  0.74374757  1
  O  O169  1  0.59117731  0.90307468  0.00095737  1
  O  O170  1  0.63927802  0.88731564  0.25022180  1
  O  O171  1  0.60476254  0.88068333  0.49352583  1
  O  O172  1  0.63845208  0.84773317  0.73871730  1
  O  O173  1  0.87696791  0.12733185  0.00205761  1
  O  O174  1  0.83474828  0.11733024  0.25963038  1
  O  O175  1  0.88862390  0.15275688  0.49583525  1
  O  O176  1  0.83779376  0.12746922  0.74414958  1
  O  O177  1  0.90074982  0.36734168  -0.00514406  1
  O  O178  1  0.86752491  0.39341887  0.24805443  1
  O  O179  1  0.86844634  0.38285129  0.50695925  1
  O  O180  1  0.85991896  0.40480761  0.75661545  1
  O  O181  1  0.86118422  0.64897073  0.01081013  1
  O  O182  1  0.87522990  0.62723061  0.25577643  1
  O  O183  1  0.88581457  0.64003087  0.50348524  1
  O  O184  1  0.86596308  0.61810474  0.75262005  1
  O  O185  1  0.86778728  0.87246400  0.01042988  1
  O  O186  1  0.85221736  0.89680433  0.25409903  1
  O  O187  1  0.89764386  0.85813424  0.49245789  1
  O  O188  1  0.84099134  0.88052249  0.74994622  1
  O  O189  1  -0.00283367  0.13574036  0.16090180  1
  O  O190  1  -0.00387099  0.14195386  0.35466436  1
  O  O191  1  0.00031646  0.12709015  0.65143794  1
  O  O192  1  -0.00297629  0.10801095  0.83777404  1
  O  O193  1  0.00689137  0.37429511  0.13949453  1
  O  O194  1  0.00303293  0.38054561  0.36661674  1
  O  O195  1  -0.00740550  0.36868174  0.63851398  1
  O  O196  1  -0.00688592  0.40974556  0.85885391  1
  O  O197  1  -0.00177914  0.64307774  0.12270356  1
  O  O198  1  0.00216428  0.65105461  0.37344151  1
  O  O199  1  0.00495676  0.66541776  0.63813018  1
  O  O200  1  -0.00902516  0.61561287  0.89539089  1
  O  O201  1  -0.00578348  0.86299634  0.14587679  1
  O  O202  1  0.00267460  0.86894005  0.34772437  1
  O  O203  1  -0.00406605  0.85177263  0.62646150  1
  O  O204  1  -0.00722646  0.90050839  0.88209927  1
  O  O205  1  0.25862795  0.12353721  0.11921072  1
  O  O206  1  0.24472190  0.11411063  0.40909142  1
  O  O207  1  0.24027136  0.13941076  0.60242453  1
  O  O208  1  0.24858749  0.15249304  0.92440507  1
  O  O209  1  0.25293513  0.39619591  0.10333381  1
  O  O210  1  0.25018160  0.40974620  0.37104820  1
  O  O211  1  0.23797471  0.39863446  0.63080037  1
  O  O212  1  0.23602246  0.36799555  0.85573631  1
  O  O213  1  0.25438937  0.61115802  0.13891358  1
  O  O214  1  0.24460232  0.61645367  0.35909325  1
  O  O215  1  0.25292124  0.59661307  0.61976315  1
  O  O216  1  0.25390370  0.65412324  0.88513689  1
  O  O217  1  0.26318086  0.89600429  0.11160048  1
  O  O218  1  0.24953961  0.87576101  0.39676843  1
  O  O219  1  0.26214830  0.89251667  0.60719982  1
  O  O220  1  0.26194747  0.85751063  0.90491923  1
  O  O221  1  0.50659540  0.16716759  0.13486987  1
  O  O222  1  0.51059778  0.15942409  0.37094413  1
  O  O223  1  0.51807336  0.16033467  0.62646019  1
  O  O224  1  0.50941237  0.10743630  0.81989969  1
  O  O225  1  0.50361706  0.36291554  0.13259073  1
  O  O226  1  0.51119656  0.34411260  0.41250124  1
  O  O227  1  0.52039833  0.37061979  0.64985863  1
  O  O228  1  0.52127514  0.39846334  0.85195180  1
  O  O229  1  0.50399445  0.63807780  0.12435802  1
  O  O230  1  0.50449087  0.65493122  0.37927357  1
  O  O231  1  0.50098436  0.65203413  0.63602927  1
  O  O232  1  0.50260878  0.59243440  0.90297070  1
  O  O233  1  0.50013836  0.86802620  0.15559053  1
  O  O234  1  0.50205231  0.88119410  0.36542586  1
  O  O235  1  0.50246265  0.84213177  0.63424877  1
  O  O236  1  0.49619854  0.90567294  0.84326387  1
  O  O237  1  0.73362758  0.11478381  0.09450844  1
  O  O238  1  0.75275742  0.10130986  0.41176258  1
  O  O239  1  0.74500678  0.10082351  0.59126812  1
  O  O240  1  0.73593391  0.13863938  0.90132065  1
  O  O241  1  0.74123266  0.39611580  0.12461972  1
  O  O242  1  0.74226977  0.40474386  0.37309694  1
  O  O243  1  0.75583867  0.41601829  0.62592136  1
  O  O244  1  0.75292989  0.36541191  0.90812541  1
  O  O245  1  0.74724137  0.62090741  0.14717245  1
  O  O246  1  0.75657353  0.61893146  0.37382015  1
  O  O247  1  0.74815270  0.60992777  0.60369461  1
  O  O248  1  0.75156375  0.65273097  0.88345854  1
  O  O249  1  0.73296284  0.91273034  0.11551012  1
  O  O250  1  0.75223114  0.90555780  0.39362193  1
  O  O251  1  0.74264931  0.90334382  0.59312860  1
  O  O252  1  0.73163620  0.84570692  0.89040178  1
  O  O253  1  0.10540139  -0.00756396  0.10542695  1
  O  O254  1  0.10972887  -0.00113522  0.39430503  1
  O  O255  1  0.12566166  0.01052582  0.61036643  1
  O  O256  1  0.13908841  0.00434815  0.91197867  1
  O  O257  1  0.13098649  0.25755464  0.13307088  1
  O  O258  1  0.12907566  0.23942548  0.34656109  1
  O  O259  1  0.12334982  0.25484418  0.64482290  1
  O  O260  1  0.09713663  0.25729748  0.84082737  1
  O  O261  1  0.11870045  0.50220903  0.09279391  1
  O  O262  1  0.11193768  0.51418700  0.40608275  1
  O  O263  1  0.10688152  0.51006260  0.59243784  1
  O  O264  1  0.12640157  0.49907383  0.90741198  1
  O  O265  1  0.13877617  0.74395022  0.15829853  1
  O  O266  1  0.12928460  0.75026389  0.34023880  1
  O  O267  1  0.15867205  0.74345600  0.64816803  1
  O  O268  1  0.09636645  0.75284364  0.84687630  1
  O  O269  1  0.40333154  -0.00190406  0.12859694  1
  O  O270  1  0.38461792  0.00516837  0.39525186  1
  O  O271  1  0.39678173  -0.01461575  0.65860523  1
  O  O272  1  0.34943408  0.00739384  0.86575361  1
  O  O273  1  0.36526470  0.26585002  0.13800275  1
  O  O274  1  0.34773629  0.26059357  0.36132559  1
  O  O275  1  0.35660191  0.25871479  0.63056934  1
  O  O276  1  0.40134414  0.24362454  0.88548643  1
  O  O277  1  0.38918829  0.50334940  0.13170607  1
  O  O278  1  0.40798615  0.49740351  0.37703399  1
  O  O279  1  0.40166603  0.50668743  0.62419617  1
  O  O280  1  0.35219901  0.50496188  0.87834003  1
  O  O281  1  0.37009820  0.75396560  0.13153256  1
  O  O282  1  0.37102101  0.75904495  0.35971626  1
  O  O283  1  0.34507953  0.74635434  0.63067915  1
  O  O284  1  0.40708681  0.75015977  0.88737344  1
  O  O285  1  0.58574273  0.01567308  0.13232521  1
  O  O286  1  0.60491626  0.01089842  0.36830933  1
  O  O287  1  0.59976818  -0.00586275  0.63114572  1
  O  O288  1  0.65019602  -0.00424679  0.85743126  1
  O  O289  1  0.63965345  0.25749654  0.08898521  1
  O  O290  1  0.66762389  0.24856735  0.39777435  1
  O  O291  1  0.67235630  0.25600744  0.60557124  1
  O  O292  1  0.60416544  0.24899048  0.88500985  1
  O  O293  1  0.61775221  0.50108968  0.14801927  1
  O  O294  1  0.59076631  0.48968947  0.36837085  1
  O  O295  1  0.62546248  0.50279847  0.66895783  1
  O  O296  1  0.67200331  0.49676758  0.85007630  1
  O  O297  1  0.63603185  0.76310935  0.11277537  1
  O  O298  1  0.65033179  0.76038129  0.37733831  1
  O  O299  1  0.64590011  0.75161445  0.59668832  1
  O  O300  1  0.59077343  0.76012250  0.88570974  1
  O  O301  1  0.87185669  -0.00124049  0.12295612  1
  O  O302  1  0.89154801  0.00099197  0.40510888  1
  O  O303  1  0.88737394  -0.00342051  0.60106065  1
  O  O304  1  0.85108652  0.00160209  0.86162407  1
  O  O305  1  0.84946932  0.24941603  0.13487060  1
  O  O306  1  0.86111916  0.24725943  0.36176794  1
  O  O307  1  0.85016673  0.26075269  0.64573530  1
  O  O308  1  0.88947002  0.25555699  0.86166642  1
  O  O309  1  0.87550088  0.51101272  0.12728063  1
  O  O310  1  0.89548644  0.50730372  0.38604027  1
  O  O311  1  0.91529576  0.51182184  0.63127301  1
  O  O312  1  0.86015097  0.50883478  0.90185289  1
  O  O313  1  0.85133760  0.75697990  0.14806981  1
  O  O314  1  0.86766684  0.76002230  0.35586531  1
  O  O315  1  0.84043688  0.74515198  0.63043699  1
  O  O316  1  0.88745777  0.75003092  0.86513995  1
