# generated using pymatgen
data_Mg32Ti42(Bi17O64)3
_symmetry_space_group_name_H-M   'P 1'
_cell_length_a   15.90535596
_cell_length_b   15.95238663
_cell_length_c   15.97311712
_cell_angle_alpha   90.14521512
_cell_angle_beta   90.02836606
_cell_angle_gamma   89.87541092
_symmetry_Int_Tables_number   1
_chemical_formula_structural   Mg32Ti42(Bi17O64)3
_chemical_formula_sum   'Mg32 Ti42 Bi51 O192'
_cell_volume   4052.81016908
_cell_formula_units_Z   1
loop_
 _symmetry_equiv_pos_site_id
 _symmetry_equiv_pos_as_xyz
  1  'x, y, z'
loop_
 _atom_site_type_symbol
 _atom_site_label
 _atom_site_symmetry_multiplicity
 _atom_site_fract_x
 _atom_site_fract_y
 _atom_site_fract_z
 _atom_site_occupancy
  Mg  Mg0  1  0.87046129  0.86843446  0.85657757  1
  Mg  Mg1  1  0.87584240  0.38270472  0.11162571  1
  Mg  Mg2  1  0.12476508  0.10287823  0.61664855  1
  Mg  Mg3  1  0.86748058  0.12655317  0.61952822  1
  Mg  Mg4  1  0.12023365  0.87529511  0.86683310  1
  Mg  Mg5  1  0.37248088  0.62292326  0.89132391  1
  Mg  Mg6  1  0.37799845  0.37151015  0.62475118  1
  Mg  Mg7  1  0.87678530  0.11974668  0.13543962  1
  Mg  Mg8  1  0.12931910  0.35597394  0.87029800  1
  Mg  Mg9  1  0.63276182  0.38402881  0.88091293  1
  Mg  Mg10  1  0.37725911  0.12975986  0.11986836  1
  Mg  Mg11  1  0.62194214  0.87188581  0.87383193  1
  Mg  Mg12  1  0.36801790  0.87852067  0.88555087  1
  Mg  Mg13  1  0.62470658  0.12031250  0.86922270  1
  Mg  Mg14  1  0.61905480  0.62233016  0.62328049  1
  Mg  Mg15  1  0.37086072  0.37909639  0.89138405  1
  Mg  Mg16  1  0.87698487  0.61975517  0.62671512  1
  Mg  Mg17  1  0.36990014  0.12663621  0.88157752  1
  Mg  Mg18  1  0.62497017  0.62731882  0.13082331  1
  Mg  Mg19  1  0.30905278  0.03482084  0.48047003  1
  Mg  Mg20  1  -0.02235602  0.25426368  0.20237944  1
  Mg  Mg21  1  -0.01209194  0.71486802  0.52022860  1
  Mg  Mg22  1  0.26531021  0.19120746  0.32132769  1
  Mg  Mg23  1  0.48996630  0.45395513  0.78633202  1
  Mg  Mg24  1  0.71659653  0.53410098  0.00247920  1
  Mg  Mg25  1  -0.02251474  0.01268461  0.52494976  1
  Mg  Mg26  1  0.25297860  0.04869836  0.20438805  1
  Mg  Mg27  1  0.01679152  0.44116742  -0.01606900  1
  Mg  Mg28  1  0.74955526  0.70418177  0.51617904  1
  Mg  Mg29  1  0.22513967  0.46949474  -0.01522408  1
  Mg  Mg30  1  0.79597977  0.06812528  0.80164141  1
  Mg  Mg31  1  0.49719769  0.03485323  -0.04698181  1
  Ti  Ti32  1  0.11818831  0.10298779  0.38094592  1
  Ti  Ti33  1  0.37924357  0.61817609  0.62755679  1
  Ti  Ti34  1  0.12596101  0.37728865  0.12439995  1
  Ti  Ti35  1  0.36309819  0.37636065  0.36743184  1
  Ti  Ti36  1  0.36846871  0.62285486  0.12785401  1
  Ti  Ti37  1  0.39697152  0.12351799  0.63675544  1
  Ti  Ti38  1  0.88099268  0.85663989  0.38524428  1
  Ti  Ti39  1  0.61563543  0.87616506  0.13267268  1
  Ti  Ti40  1  0.89769707  0.12678022  0.36920293  1
  Ti  Ti41  1  0.86962901  0.61707260  0.38176956  1
  Ti  Ti42  1  0.11408258  0.14052116  0.14723288  1
  Ti  Ti43  1  0.88218754  0.36872192  0.37221755  1
  Ti  Ti44  1  0.88725834  0.63233254  0.87104730  1
  Ti  Ti45  1  0.62705992  0.87154577  0.37601997  1
  Ti  Ti46  1  0.61143259  0.37822844  0.62357818  1
  Ti  Ti47  1  0.36856130  0.61884079  0.37207857  1
  Ti  Ti48  1  0.36500665  0.38544534  0.11705412  1
  Ti  Ti49  1  0.13162395  0.12040061  0.85238469  1
  Ti  Ti50  1  0.12841132  0.36496071  0.62657724  1
  Ti  Ti51  1  0.63194807  0.11348399  0.63638642  1
  Ti  Ti52  1  0.37568078  0.88679417  0.13767011  1
  Ti  Ti53  1  0.63070623  0.12071402  0.37377545  1
  Ti  Ti54  1  0.12514774  0.61801601  0.63541143  1
  Ti  Ti55  1  0.87127234  0.62128087  0.09955319  1
  Ti  Ti56  1  0.63633545  0.37691463  0.11775807  1
  Ti  Ti57  1  0.87129936  0.38252621  0.88243608  1
  Ti  Ti58  1  0.35591084  0.87400261  0.61789885  1
  Ti  Ti59  1  0.61451136  0.62306310  0.87407063  1
  Ti  Ti60  1  0.87049308  0.86281600  0.61121278  1
  Ti  Ti61  1  0.62507917  0.11288072  0.12918446  1
  Ti  Ti62  1  0.11290978  0.86622050  0.38567738  1
  Ti  Ti63  1  0.11784610  0.87276699  0.61195458  1
  Ti  Ti64  1  0.12410961  0.62427210  0.88606802  1
  Ti  Ti65  1  0.62878040  0.86696413  0.62208070  1
  Ti  Ti66  1  0.12173633  0.61848167  0.11898003  1
  Ti  Ti67  1  0.87249919  0.37455185  0.62671026  1
  Ti  Ti68  1  0.63154561  0.37390535  0.37465834  1
  Ti  Ti69  1  0.12302175  0.36064199  0.37521662  1
  Ti  Ti70  1  0.35962701  0.87142953  0.37278760  1
  Ti  Ti71  1  0.86492177  0.88266829  0.13180448  1
  Ti  Ti72  1  0.62542253  0.61844451  0.37946178  1
  Ti  Ti73  1  0.10846294  0.63015128  0.37754435  1
  Bi  Bi74  1  -0.00410147  0.22973172  0.52228316  1
  Bi  Bi75  1  0.23751456  0.48149181  0.51322685  1
  Bi  Bi76  1  0.23718152  0.77134218  0.02888869  1
  Bi  Bi77  1  0.46829085  0.74721341  0.77173659  1
  Bi  Bi78  1  0.51265593  0.49583220  -0.00913166  1
  Bi  Bi79  1  0.25151558  0.76715470  0.76843758  1
  Bi  Bi80  1  0.03447836  -0.03383459  0.22120768  1
  Bi  Bi81  1  0.72651428  0.75575278  0.24984876  1
  Bi  Bi82  1  -0.02979882  0.22922751  0.76133017  1
  Bi  Bi83  1  0.50043660  0.49392367  0.22906238  1
  Bi  Bi84  1  0.00774984  0.75747412  0.73133917  1
  Bi  Bi85  1  0.49892316  -0.03420935  0.76761453  1
  Bi  Bi86  1  0.50327139  -0.03271735  0.49671146  1
  Bi  Bi87  1  0.73919920  0.25773814  0.75076380  1
  Bi  Bi88  1  0.47621343  0.76273100  0.01495277  1
  Bi  Bi89  1  0.25134700  0.21820105  0.52384481  1
  Bi  Bi90  1  0.72807890  0.74582370  0.74335267  1
  Bi  Bi91  1  0.73794479  0.49403307  0.51833876  1
  Bi  Bi92  1  0.48288206  0.73681507  0.24934076  1
  Bi  Bi93  1  0.75089262  0.25218026  0.26091479  1
  Bi  Bi94  1  -0.00977609  -0.01243936  0.73488017  1
  Bi  Bi95  1  0.47919193  0.22622487  0.47273101  1
  Bi  Bi96  1  0.25520966  0.24929954  0.01699522  1
  Bi  Bi97  1  0.21458471  0.76581617  0.24383232  1
  Bi  Bi98  1  0.49965269  0.26930880  0.25028062  1
  Bi  Bi99  1  0.23066537  0.72843868  0.50803729  1
  Bi  Bi100  1  0.48964085  0.72706510  0.49870568  1
  Bi  Bi101  1  0.45438260  0.04559847  0.27650275  1
  Bi  Bi102  1  0.73383969  -0.01743870  -0.00509517  1
  Bi  Bi103  1  0.27028521  0.00328744  0.75406293  1
  Bi  Bi104  1  -0.01752778  0.22185458  -0.01217719  1
  Bi  Bi105  1  0.75685228  -0.01445153  0.50205337  1
  Bi  Bi106  1  0.74923877  0.77275380  -0.01881478  1
  Bi  Bi107  1  0.02307402  0.78750544  0.01813064  1
  Bi  Bi108  1  0.48197983  0.48530986  0.50552019  1
  Bi  Bi109  1  0.76252794  0.51880970  0.76927014  1
  Bi  Bi110  1  -0.01452780  0.48473569  0.23416106  1
  Bi  Bi111  1  0.50392098  0.21900347  0.00952263  1
  Bi  Bi112  1  0.77437571  0.01236541  0.27350528  1
  Bi  Bi113  1  -0.02835163  0.73082774  0.23483541  1
  Bi  Bi114  1  0.51251166  0.26274090  0.78390862  1
  Bi  Bi115  1  0.74999746  0.50080961  0.23493332  1
  Bi  Bi116  1  0.01696974  0.48031403  0.77308726  1
  Bi  Bi117  1  0.21871763  0.50675676  0.26685323  1
  Bi  Bi118  1  0.28043372  0.26429223  0.76382026  1
  Bi  Bi119  1  0.19613581  0.01607343  0.00654583  1
  Bi  Bi120  1  -0.02852186  -0.00187104  -0.04323298  1
  Bi  Bi121  1  0.27165298  0.50569357  0.77907358  1
  Bi  Bi122  1  -0.01093476  0.48407845  0.51273757  1
  Bi  Bi123  1  0.77306017  0.20624002  -0.00530491  1
  Bi  Bi124  1  0.73220711  0.23611624  0.50755733  1
  O  O125  1  0.10130131  0.12135897  0.02200091  1
  O  O126  1  0.16691267  0.12903518  0.25668231  1
  O  O127  1  0.08227677  0.11268884  0.49297302  1
  O  O128  1  0.14397742  0.08862464  0.74318251  1
  O  O129  1  0.13098239  0.37571911  -0.00011048  1
  O  O130  1  0.12097109  0.40152818  0.24723336  1
  O  O131  1  0.14257894  0.37713030  0.49214855  1
  O  O132  1  0.11746117  0.37774300  0.74079281  1
  O  O133  1  0.11482812  0.64502501  -0.00208678  1
  O  O134  1  0.13758306  0.62484014  0.24597630  1
  O  O135  1  0.10484158  0.64806273  0.49570786  1
  O  O136  1  0.13592619  0.59821410  0.74819179  1
  O  O137  1  0.13810554  0.86146339  -0.00564217  1
  O  O138  1  0.10457915  0.85428795  0.26216646  1
  O  O139  1  0.15290150  0.85756742  0.50018749  1
  O  O140  1  0.09300895  0.87232816  0.73776385  1
  O  O141  1  0.41212880  0.11377192  0.00168324  1
  O  O142  1  0.34818825  0.12760590  0.24816284  1
  O  O143  1  0.40357825  0.11599820  0.51501059  1
  O  O144  1  0.34786351  0.14184661  0.75170577  1
  O  O145  1  0.34803574  0.42308238  0.00936820  1
  O  O146  1  0.39146357  0.36354962  0.24786637  1
  O  O147  1  0.36784506  0.40248354  0.48982467  1
  O  O148  1  0.39133189  0.35799973  0.75254863  1
  O  O149  1  0.40268091  0.62915066  0.01431941  1
  O  O150  1  0.36570227  0.65591774  0.25853322  1
  O  O151  1  0.40010532  0.61408329  0.49461498  1
  O  O152  1  0.35366207  0.63850880  0.73812802  1
  O  O153  1  0.37003387  0.85739672  0.00951457  1
  O  O154  1  0.39424352  0.86719737  0.25681673  1
  O  O155  1  0.35997376  0.91262340  0.50456227  1
  O  O156  1  0.38581857  0.86448291  0.73591091  1
  O  O157  1  0.59527637  0.10973342  0.00682028  1
  O  O158  1  0.65190614  0.13852172  0.24981443  1
  O  O159  1  0.60676343  0.15037529  0.49478806  1
  O  O160  1  0.67807502  0.12237628  0.74697780  1
  O  O161  1  0.64011864  0.42722859  0.00397985  1
  O  O162  1  0.60885744  0.35849271  0.24361012  1
  O  O163  1  0.65011434  0.36540629  0.49039577  1
  O  O164  1  0.59151332  0.38843444  0.73709796  1
  O  O165  1  0.60759100  0.60494021  -0.00109984  1
  O  O166  1  0.66195018  0.63243823  0.26353950  1
  O  O167  1  0.61076455  0.64078303  0.49483586  1
  O  O168  1  0.64500368  0.63464908  0.75114071  1
  O  O169  1  0.63705865  0.86997021  0.01098057  1
  O  O170  1  0.62637428  0.87278737  0.25856214  1
  O  O171  1  0.64127817  0.90023770  0.49861615  1
  O  O172  1  0.62618326  0.85690769  0.73986800  1
  O  O173  1  0.89014397  0.12288116  0.00668772  1
  O  O174  1  0.84408675  0.14347168  0.25663220  1
  O  O175  1  0.90556218  0.11519945  0.49085500  1
  O  O176  1  0.85366957  0.15841994  0.74261355  1
  O  O177  1  0.88753385  0.41209101  -0.01071872  1
  O  O178  1  0.91439459  0.36020032  0.24815656  1
  O  O179  1  0.86836745  0.40213961  0.48719270  1
  O  O180  1  0.88354460  0.35318670  0.73952707  1
  O  O181  1  0.88973271  0.60726055  -0.00961891  1
  O  O182  1  0.85935155  0.65597859  0.26348586  1
  O  O183  1  0.91188378  0.61167617  0.49580549  1
  O  O184  1  0.84533289  0.63744438  0.75304817  1
  O  O185  1  0.85428936  0.90196459  0.01360386  1
  O  O186  1  0.88729584  0.84708121  0.26201791  1
  O  O187  1  0.88641139  0.91332536  0.49894324  1
  O  O188  1  0.90552755  0.86114843  0.73090422  1
  O  O189  1  0.00236932  0.12912837  0.16816824  1
  O  O190  1  0.00470888  0.15273283  0.34669010  1
  O  O191  1  -0.00086787  0.15585356  0.64055046  1
  O  O192  1  0.00850173  0.13765308  0.86485267  1
  O  O193  1  0.01018572  0.41256960  0.11110122  1
  O  O194  1  0.00367371  0.36098528  0.39085445  1
  O  O195  1  0.00615931  0.36039470  0.60138045  1
  O  O196  1  -0.00029957  0.37217626  0.86812911  1
  O  O197  1  0.00417903  0.61339385  0.13757539  1
  O  O198  1  -0.00282183  0.64921616  0.35717537  1
  O  O199  1  0.00743603  0.64794033  0.63537197  1
  O  O200  1  -0.00250980  0.64944086  0.85504438  1
  O  O201  1  -0.00897191  0.88284138  0.11405000  1
  O  O202  1  0.00234972  0.84095899  0.40258649  1
  O  O203  1  0.00668272  0.82019295  0.59964166  1
  O  O204  1  -0.00773529  0.86664572  0.90222519  1
  O  O205  1  0.24773189  0.13376873  0.09893101  1
  O  O206  1  0.23391717  0.10598633  0.40897245  1
  O  O207  1  0.25126404  0.09804807  0.58693152  1
  O  O208  1  0.24376229  0.08780649  0.89158655  1
  O  O209  1  0.24812134  0.35777048  0.12666955  1
  O  O210  1  0.25073174  0.40120218  0.36010529  1
  O  O211  1  0.24846073  0.40018221  0.62588164  1
  O  O212  1  0.24512036  0.40596115  0.86979446  1
  O  O213  1  0.25649082  0.64534033  0.11791326  1
  O  O214  1  0.25479282  0.60721259  0.38502748  1
  O  O215  1  0.25267352  0.60753410  0.59595311  1
  O  O216  1  0.24078191  0.58322848  0.89361876  1
  O  O217  1  0.26121703  0.85399781  0.13690522  1
  O  O218  1  0.24980128  0.87735836  0.35411337  1
  O  O219  1  0.24318333  0.89617921  0.64529395  1
  O  O220  1  0.24635798  0.88981699  0.84188579  1
  O  O221  1  0.50737125  0.14818362  0.14543715  1
  O  O222  1  0.50695293  0.15706592  0.35281113  1
  O  O223  1  0.50992263  0.14352309  0.65431687  1
  O  O224  1  0.50028641  0.15562293  0.86985404  1
  O  O225  1  0.49749039  0.40075297  0.11282069  1
  O  O226  1  0.50981456  0.34790035  0.37691452  1
  O  O227  1  0.50367429  0.36118043  0.58806803  1
  O  O228  1  0.50101163  0.35898785  0.88707951  1
  O  O229  1  0.49998312  0.61849646  0.16478750  1
  O  O230  1  0.50962914  0.64571218  0.36258913  1
  O  O231  1  0.49282154  0.65702142  0.62770807  1
  O  O232  1  0.50183110  0.65819373  0.87253318  1
  O  O233  1  0.50091617  0.87692984  0.11514945  1
  O  O234  1  0.50974942  0.86418335  0.40284955  1
  O  O235  1  0.50948019  0.86446873  0.59878681  1
  O  O236  1  0.49684299  0.85036738  0.86271282  1
  O  O237  1  0.74537204  0.12536092  0.10355797  1
  O  O238  1  0.74717237  0.10166497  0.39338805  1
  O  O239  1  0.74368422  0.11691754  0.58938769  1
  O  O240  1  0.74432387  0.10156284  0.90743709  1
  O  O241  1  0.75113134  0.38578145  0.14375426  1
  O  O242  1  0.75371930  0.39025618  0.33893277  1
  O  O243  1  0.75578811  0.40119552  0.62832996  1
  O  O244  1  0.75613338  0.39585125  0.85349676  1
  O  O245  1  0.75410566  0.61239044  0.09640697  1
  O  O246  1  0.75575376  0.61520624  0.41393952  1
  O  O247  1  0.75221844  0.60354053  0.60045210  1
  O  O248  1  0.74072026  0.58365717  0.88936162  1
  O  O249  1  0.74946429  0.86605861  0.14019072  1
  O  O250  1  0.75957592  0.90460142  0.37700058  1
  O  O251  1  0.75919461  0.89628843  0.61985953  1
  O  O252  1  0.74795803  0.88875440  0.88998465  1
  O  O253  1  0.14174259  0.01100352  0.14850976  1
  O  O254  1  0.10029733  -0.01051136  0.36654335  1
  O  O255  1  0.07577638  -0.01897358  0.60360904  1
  O  O256  1  0.10153039  0.00159324  0.89442289  1
  O  O257  1  0.09684783  0.26200030  0.14331846  1
  O  O258  1  0.15522046  0.25437406  0.36954654  1
  O  O259  1  0.14608652  0.24927764  0.61367221  1
  O  O260  1  0.15350039  0.23408749  0.86125804  1
  O  O261  1  0.15929286  0.50626537  0.10448022  1
  O  O262  1  0.11803603  0.51149380  0.37135996  1
  O  O263  1  0.11264978  0.50282426  0.60168247  1
  O  O264  1  0.08358369  0.50892158  0.89271591  1
  O  O265  1  0.12764815  0.74426066  0.12431042  1
  O  O266  1  0.14961049  0.74574050  0.37222665  1
  O  O267  1  0.15595208  0.74164890  0.63193643  1
  O  O268  1  0.14521211  0.74051214  0.85444165  1
  O  O269  1  0.35717164  -0.00168258  0.14534179  1
  O  O270  1  0.38933112  -0.00460130  0.38074954  1
  O  O271  1  0.38951307  0.00631302  0.65097601  1
  O  O272  1  0.40400955  -0.00050027  0.86214960  1
  O  O273  1  0.37720880  0.26475865  0.08887679  1
  O  O274  1  0.35559746  0.26112325  0.38681657  1
  O  O275  1  0.35145163  0.24414729  0.61812052  1
  O  O276  1  0.33786849  0.25305023  0.89227349  1
  O  O277  1  0.36898347  0.50629633  0.15872557  1
  O  O278  1  0.39838536  0.50547382  0.35750170  1
  O  O279  1  0.40738211  0.50434463  0.62779944  1
  O  O280  1  0.39306740  0.50469833  0.84872603  1
  O  O281  1  0.40163460  0.74782096  0.13027616  1
  O  O282  1  0.37266073  0.75442410  0.39833792  1
  O  O283  1  0.35375441  0.75938071  0.59676793  1
  O  O284  1  0.35460819  0.74800463  0.86411315  1
  O  O285  1  0.62784775  -0.00026833  0.13822054  1
  O  O286  1  0.59933492  0.00967173  0.37303676  1
  O  O287  1  0.61319135  0.00350511  0.62859708  1
  O  O288  1  0.58752577  -0.00340413  0.87268598  1
  O  O289  1  0.63016914  0.26415202  0.09622892  1
  O  O290  1  0.65978120  0.25174876  0.36905402  1
  O  O291  1  0.65490662  0.25846891  0.63175671  1
  O  O292  1  0.64109381  0.25521714  0.85367977  1
  O  O293  1  0.62866109  0.50126286  0.15727307  1
  O  O294  1  0.61634747  0.49915716  0.37599136  1
  O  O295  1  0.61267836  0.49523505  0.59580884  1
  O  O296  1  0.58278541  0.50752917  0.86047214  1
  O  O297  1  0.62261927  0.75320318  0.14555127  1
  O  O298  1  0.65358249  0.75847947  0.37806047  1
  O  O299  1  0.66349831  0.75423151  0.61083081  1
  O  O300  1  0.65950447  0.74249593  0.87999758  1
  O  O301  1  0.86797434  -0.00566234  0.16175306  1
  O  O302  1  0.89331865  0.01063568  0.34664065  1
  O  O303  1  0.90212266  0.00218168  0.63285887  1
  O  O304  1  0.88909261  -0.00447539  0.84348717  1
  O  O305  1  0.89553395  0.25574450  0.10335558  1
  O  O306  1  0.85138705  0.25543758  0.37929506  1
  O  O307  1  0.86378081  0.25865324  0.58841684  1
  O  O308  1  0.87449144  0.26146560  0.89602280  1
  O  O309  1  0.87203937  0.50943691  0.15433197  1
  O  O310  1  0.88650922  0.50467385  0.35086947  1
  O  O311  1  0.90787638  0.49269633  0.62739429  1
  O  O312  1  0.88882193  0.50383783  0.83903122  1
  O  O313  1  0.88558649  0.74233097  0.11404767  1
  O  O314  1  0.85222779  0.75361824  0.41337580  1
  O  O315  1  0.85188991  0.75088976  0.59165807  1
  O  O316  1  0.84795003  0.74507517  0.88434813  1
