# generated using pymatgen
data_Mg32Ti42(Bi17O64)3
_symmetry_space_group_name_H-M   'P 1'
_cell_length_a   15.92329000
_cell_length_b   15.89214234
_cell_length_c   15.90194574
_cell_angle_alpha   89.95715697
_cell_angle_beta   89.94158909
_cell_angle_gamma   90.02272118
_symmetry_Int_Tables_number   1
_chemical_formula_structural   Mg32Ti42(Bi17O64)3
_chemical_formula_sum   'Mg32 Ti42 Bi51 O192'
_cell_volume   4024.06638515
_cell_formula_units_Z   1
loop_
 _symmetry_equiv_pos_site_id
 _symmetry_equiv_pos_as_xyz
  1  'x, y, z'
loop_
 _atom_site_type_symbol
 _atom_site_label
 _atom_site_symmetry_multiplicity
 _atom_site_fract_x
 _atom_site_fract_y
 _atom_site_fract_z
 _atom_site_occupancy
  Mg  Mg0  1  0.38027322  0.61884875  0.62380330  1
  Mg  Mg1  1  0.37986440  0.62293335  0.12683140  1
  Mg  Mg2  1  0.37540800  0.87630038  0.86935948  1
  Mg  Mg3  1  0.62521613  0.62584385  0.87803246  1
  Mg  Mg4  1  0.12200873  0.86740490  0.12500799  1
  Mg  Mg5  1  0.12465318  0.62013227  0.36477257  1
  Mg  Mg6  1  0.62515912  0.62372981  0.62460604  1
  Mg  Mg7  1  0.62512224  0.12948785  0.86122832  1
  Mg  Mg8  1  0.13076237  0.87251018  0.37564842  1
  Mg  Mg9  1  0.12332815  0.12971059  0.38286130  1
  Mg  Mg10  1  0.12291034  0.37375690  0.87661243  1
  Mg  Mg11  1  0.86809965  0.38460630  0.61547038  1
  Mg  Mg12  1  0.86573477  0.37925271  0.87662053  1
  Mg  Mg13  1  0.62516527  0.88297513  0.62937967  1
  Mg  Mg14  1  0.87515439  0.87114780  0.37771430  1
  Mg  Mg15  1  0.13763081  0.12884500  0.62737912  1
  Mg  Mg16  1  0.37985350  0.37303726  0.36908199  1
  Mg  Mg17  1  0.88400350  0.37870745  0.37113105  1
  Mg  Mg18  1  0.86926890  0.62867553  0.62294677  1
  Mg  Mg19  1  0.51803995  0.29359763  0.25604995  1
  Mg  Mg20  1  0.75942983  0.23847165  0.67175420  1
  Mg  Mg21  1  0.73557811  0.24857617  -0.01865283  1
  Mg  Mg22  1  0.21062971  0.68543950  0.51987277  1
  Mg  Mg23  1  0.19739327  0.25522276  0.27395454  1
  Mg  Mg24  1  0.47038159  0.03762661  0.74915805  1
  Mg  Mg25  1  0.78049476  0.24266603  0.26067634  1
  Mg  Mg26  1  0.78104147  0.48850618  0.26284265  1
  Mg  Mg27  1  0.25992940  0.02742247  0.50772671  1
  Mg  Mg28  1  0.77755505  0.48964293  0.48271777  1
  Mg  Mg29  1  0.22311043  0.43808671  0.25346026  1
  Mg  Mg30  1  0.45539916  0.52138794  0.25458325  1
  Mg  Mg31  1  -0.04454486  0.28995656  0.74820259  1
  Ti  Ti32  1  0.62802680  0.88064985  0.12117210  1
  Ti  Ti33  1  0.35976956  0.37478848  0.87386380  1
  Ti  Ti34  1  0.12030432  0.87252399  0.89090869  1
  Ti  Ti35  1  0.36288169  0.13150045  0.87087164  1
  Ti  Ti36  1  0.11819547  0.38197338  0.12011462  1
  Ti  Ti37  1  0.88758951  0.12672569  0.36774921  1
  Ti  Ti38  1  0.60984026  0.12015661  0.63047362  1
  Ti  Ti39  1  0.12589612  0.62280953  0.13246752  1
  Ti  Ti40  1  0.62571859  0.38699697  0.36152118  1
  Ti  Ti41  1  0.85243485  0.37413263  0.12659172  1
  Ti  Ti42  1  0.86221772  0.63186107  0.87913098  1
  Ti  Ti43  1  0.37375092  0.38186566  0.61806015  1
  Ti  Ti44  1  0.38086489  0.13557450  0.37294382  1
  Ti  Ti45  1  0.88307361  0.86583840  0.61971253  1
  Ti  Ti46  1  0.62439995  0.14434649  0.13467917  1
  Ti  Ti47  1  0.62171368  0.38374388  0.12331803  1
  Ti  Ti48  1  0.62454536  0.88124236  0.86324165  1
  Ti  Ti49  1  0.62560815  0.85420844  0.36834652  1
  Ti  Ti50  1  0.38738431  0.12601988  0.13216816  1
  Ti  Ti51  1  0.12187237  0.13874889  0.87385566  1
  Ti  Ti52  1  0.38139886  0.38265914  0.13798565  1
  Ti  Ti53  1  0.36862685  0.12529377  0.61386219  1
  Ti  Ti54  1  0.15018398  0.88614169  0.61116159  1
  Ti  Ti55  1  0.88091797  0.88662934  0.87800414  1
  Ti  Ti56  1  0.10726539  0.36182270  0.63829994  1
  Ti  Ti57  1  0.62265562  0.13065742  0.36693240  1
  Ti  Ti58  1  0.10902875  0.37850045  0.37802289  1
  Ti  Ti59  1  0.88218764  0.62030562  0.38539436  1
  Ti  Ti60  1  0.38232753  0.87430744  0.12197816  1
  Ti  Ti61  1  0.37663597  0.62732191  0.87023134  1
  Ti  Ti62  1  0.87820647  0.12404644  0.87572973  1
  Ti  Ti63  1  0.62641290  0.37117745  0.62090885  1
  Ti  Ti64  1  0.86417506  0.61619542  0.11827409  1
  Ti  Ti65  1  0.64571386  0.60695789  0.36254069  1
  Ti  Ti66  1  0.36548788  0.63452311  0.37741273  1
  Ti  Ti67  1  0.36378088  0.87575500  0.37997812  1
  Ti  Ti68  1  0.62458674  0.62202619  0.11655947  1
  Ti  Ti69  1  0.38079326  0.88842598  0.62454972  1
  Ti  Ti70  1  0.87142373  0.89357555  0.12186561  1
  Ti  Ti71  1  0.62681093  0.36394860  0.86340067  1
  Ti  Ti72  1  0.85436766  0.13424280  0.12189553  1
  Ti  Ti73  1  0.12619886  0.61893016  0.88218310  1
  Bi  Bi74  1  0.52090555  0.52060859  0.74153778  1
  Bi  Bi75  1  0.02744595  0.02972266  0.02757275  1
  Bi  Bi76  1  0.25145917  0.02986339  0.26677002  1
  Bi  Bi77  1  0.50682813  -0.00950386  0.24932017  1
  Bi  Bi78  1  -0.04186291  0.23046436  0.53735623  1
  Bi  Bi79  1  0.01837988  0.53085607  0.54134019  1
  Bi  Bi80  1  0.24030170  -0.02471626  0.77230010  1
  Bi  Bi81  1  0.03225902  0.00667321  0.25160129  1
  Bi  Bi82  1  -0.01482256  0.75990872  0.01405246  1
  Bi  Bi83  1  0.24047669  0.74556897  0.00490443  1
  Bi  Bi84  1  0.01986213  0.77009840  0.51328147  1
  Bi  Bi85  1  0.01902228  0.73153203  0.73558558  1
  Bi  Bi86  1  0.74056857  0.77006674  -0.02225560  1
  Bi  Bi87  1  0.74697005  -0.01065837  0.28620422  1
  Bi  Bi88  1  0.24401502  0.50034854  0.47382845  1
  Bi  Bi89  1  0.24976881  0.01482445  0.03400908  1
  Bi  Bi90  1  0.24386207  0.25041106  0.05050005  1
  Bi  Bi91  1  0.75468069  0.26357364  0.45833094  1
  Bi  Bi92  1  0.77091576  0.03267290  0.52093999  1
  Bi  Bi93  1  0.00927544  0.22829060  0.21244006  1
  Bi  Bi94  1  0.48835903  0.01642096  -0.02365863  1
  Bi  Bi95  1  -0.01228345  0.49899909  0.00120865  1
  Bi  Bi96  1  0.72076926  0.73664245  0.50039666  1
  Bi  Bi97  1  0.76078820  0.49242435  0.72790554  1
  Bi  Bi98  1  -0.01913842  0.51113625  0.77068710  1
  Bi  Bi99  1  0.72917454  0.48342202  -0.01739053  1
  Bi  Bi100  1  0.23876682  0.27250533  0.47874577  1
  Bi  Bi101  1  0.47881898  0.75084598  0.51033287  1
  Bi  Bi102  1  0.52491637  -0.01596472  0.48231762  1
  Bi  Bi103  1  0.01266242  0.76063367  0.27537458  1
  Bi  Bi104  1  0.49938434  0.51402889  0.47198179  1
  Bi  Bi105  1  0.48581889  0.48317177  -0.01640870  1
  Bi  Bi106  1  0.26169477  0.51798744  0.01320679  1
  Bi  Bi107  1  0.49073906  0.76410917  -0.01846825  1
  Bi  Bi108  1  0.50003141  0.73620896  0.22943501  1
  Bi  Bi109  1  0.25436168  0.73991180  0.71116596  1
  Bi  Bi110  1  0.50799928  0.75342516  0.73857176  1
  Bi  Bi111  1  -0.02455350  0.26405994  -0.02080651  1
  Bi  Bi112  1  0.77573904  0.75529309  0.23088561  1
  Bi  Bi113  1  0.22053119  0.52722103  0.72154430  1
  Bi  Bi114  1  0.25279495  0.76959520  0.24853769  1
  Bi  Bi115  1  0.72994107  0.02499509  -0.01249924  1
  Bi  Bi116  1  0.51762410  0.25826202  0.48400670  1
  Bi  Bi117  1  0.74910822  0.75523901  0.72441908  1
  Bi  Bi118  1  0.25869989  0.26780135  0.73005334  1
  Bi  Bi119  1  0.02657955  0.01798709  0.51325811  1
  Bi  Bi120  1  0.01542225  0.01626896  0.74220701  1
  Bi  Bi121  1  0.77871311  0.01607746  0.73736060  1
  Bi  Bi122  1  0.48936146  0.24922920  -0.00763040  1
  Bi  Bi123  1  0.49717850  0.25412930  0.72606696  1
  Bi  Bi124  1  -0.01068079  0.50525356  0.24576751  1
  O  O125  1  0.14331500  0.09432542  -0.00940283  1
  O  O126  1  0.09779777  0.13803537  0.25754304  1
  O  O127  1  0.14764511  0.08486931  0.49678015  1
  O  O128  1  0.09650973  0.12998475  0.75696475  1
  O  O129  1  0.15480033  0.38622491  0.01171692  1
  O  O130  1  0.11411607  0.36461937  0.25695950  1
  O  O131  1  0.15888490  0.38726054  0.49645396  1
  O  O132  1  0.07684498  0.33877992  0.74693755  1
  O  O133  1  0.11336274  0.59440899  -0.00288704  1
  O  O134  1  0.14040588  0.65224308  0.24194209  1
  O  O135  1  0.12360836  0.59699450  0.49250103  1
  O  O136  1  0.14798198  0.65019105  0.75809093  1
  O  O137  1  0.11414866  0.89817306  -0.00000869  1
  O  O138  1  0.13752490  0.84031008  0.24737032  1
  O  O139  1  0.10055399  0.88816769  0.49748433  1
  O  O140  1  0.15945961  0.86331857  0.73312718  1
  O  O141  1  0.36082088  0.09591320  -0.00620311  1
  O  O142  1  0.39044241  0.11461317  0.24696466  1
  O  O143  1  0.35211204  0.11958753  0.49442304  1
  O  O144  1  0.39486639  0.14200952  0.75567277  1
  O  O145  1  0.36089358  0.39573634  0.00118531  1
  O  O146  1  0.42082786  0.37405173  0.24733067  1
  O  O147  1  0.34515254  0.37585573  0.50437517  1
  O  O148  1  0.38761655  0.34406616  0.75702013  1
  O  O149  1  0.38597493  0.59640925  -0.00192052  1
  O  O150  1  0.37677653  0.63238010  0.26124147  1
  O  O151  1  0.40953727  0.62578419  0.49654160  1
  O  O152  1  0.34626614  0.63006756  0.75640659  1
  O  O153  1  0.39975393  0.87621338  0.00363065  1
  O  O154  1  0.36617797  0.86530688  0.25432276  1
  O  O155  1  0.40367782  0.88653104  0.49616707  1
  O  O156  1  0.34439487  0.87373063  0.73936599  1
  O  O157  1  0.65669824  0.14795924  0.01717099  1
  O  O158  1  0.60193612  0.09729705  0.24732057  1
  O  O159  1  0.62181887  0.15219745  0.48861582  1
  O  O160  1  0.58313581  0.09703508  0.74288482  1
  O  O161  1  0.65907401  0.34943741  0.01673028  1
  O  O162  1  0.59337594  0.40173846  0.25344924  1
  O  O163  1  0.63489572  0.34481564  0.50464622  1
  O  O164  1  0.59520865  0.37729988  0.75302258  1
  O  O165  1  0.59993401  0.64607338  0.00973142  1
  O  O166  1  0.68604555  0.58277527  0.26184261  1
  O  O167  1  0.60711058  0.65492260  0.50011146  1
  O  O168  1  0.64093660  0.58987838  0.75352746  1
  O  O169  1  0.61058999  0.84732467  0.00855873  1
  O  O170  1  0.63141737  0.90284776  0.25141067  1
  O  O171  1  0.60297557  0.85948602  0.48820146  1
  O  O172  1  0.63988811  0.90337275  0.75601662  1
  O  O173  1  0.83617921  0.15573453  0.00638459  1
  O  O174  1  0.89926797  0.11734228  0.25000126  1
  O  O175  1  0.84754109  0.14462870  0.49176096  1
  O  O176  1  0.88907926  0.09805940  0.76356461  1
  O  O177  1  0.84397954  0.33960072  0.00517595  1
  O  O178  1  0.88581687  0.40550755  0.24206320  1
  O  O179  1  0.83560596  0.36979492  0.49090620  1
  O  O180  1  0.88841119  0.40184781  0.74900330  1
  O  O181  1  0.90738475  0.63908970  -0.00137104  1
  O  O182  1  0.86726483  0.58173249  0.23207009  1
  O  O183  1  0.91566891  0.63469942  0.49487661  1
  O  O184  1  0.85814141  0.59703195  0.75928900  1
  O  O185  1  0.87407867  0.84802771  0.00588611  1
  O  O186  1  0.84345207  0.88207655  0.24099223  1
  O  O187  1  0.89195478  0.84727499  0.50387146  1
  O  O188  1  0.87023154  0.90170574  0.76287954  1
  O  O189  1  -0.01900396  0.14269677  0.10504454  1
  O  O190  1  -0.00444119  0.11400948  0.40231337  1
  O  O191  1  0.01034136  0.12734037  0.60302236  1
  O  O192  1  -0.00002131  0.12193197  0.91040422  1
  O  O193  1  0.00254828  0.37750013  0.10318231  1
  O  O194  1  0.00414842  0.40897341  0.39398602  1
  O  O195  1  0.00114292  0.36299148  0.59497507  1
  O  O196  1  -0.00297430  0.37919937  0.90957341  1
  O  O197  1  0.00820139  0.59920693  0.13483839  1
  O  O198  1  -0.00474423  0.60335343  0.34561937  1
  O  O199  1  -0.00322246  0.62054361  0.64938259  1
  O  O200  1  0.00225801  0.64197841  0.84832997  1
  O  O201  1  -0.01338196  0.87426428  0.12749604  1
  O  O202  1  -0.00309377  0.88170229  0.34116009  1
  O  O203  1  0.00261546  0.86242076  0.63533523  1
  O  O204  1  -0.00201904  0.85186746  0.87668011  1
  O  O205  1  0.26132049  0.12500501  0.12205836  1
  O  O206  1  0.25316023  0.14958552  0.33809065  1
  O  O207  1  0.26013282  0.09875256  0.63508635  1
  O  O208  1  0.24780972  0.12253476  0.85438522  1
  O  O209  1  0.26444738  0.35623663  0.15501711  1
  O  O210  1  0.25775782  0.34725643  0.34701924  1
  O  O211  1  0.25414890  0.38710664  0.65949610  1
  O  O212  1  0.24970278  0.37074868  0.84879914  1
  O  O213  1  0.25104914  0.63490244  0.09867382  1
  O  O214  1  0.25554625  0.64580412  0.40592812  1
  O  O215  1  0.25489588  0.61550849  0.61534986  1
  O  O216  1  0.24873816  0.61368699  0.90333309  1
  O  O217  1  0.26148240  0.84692118  0.11782598  1
  O  O218  1  0.25593165  0.83676859  0.37906380  1
  O  O219  1  0.25693775  0.92143022  0.58393502  1
  O  O220  1  0.24549037  0.89683572  0.88643530  1
  O  O221  1  0.50326609  0.11445852  0.10059501  1
  O  O222  1  0.49071647  0.09118410  0.38005522  1
  O  O223  1  0.49530647  0.15363868  0.60857639  1
  O  O224  1  0.50195867  0.13798110  0.90371600  1
  O  O225  1  0.50302366  0.38008412  0.09556244  1
  O  O226  1  0.50732445  0.38894628  0.40555549  1
  O  O227  1  0.49416249  0.34401590  0.61449402  1
  O  O228  1  0.50663486  0.35809164  0.90353499  1
  O  O229  1  0.51498696  0.60743402  0.16891307  1
  O  O230  1  0.52736638  0.57953325  0.35188232  1
  O  O231  1  0.49993677  0.63508698  0.65882098  1
  O  O232  1  0.49570381  0.62910796  0.85191594  1
  O  O233  1  0.50552327  0.87977403  0.14799630  1
  O  O234  1  0.50378373  0.90107234  0.35948603  1
  O  O235  1  0.49475489  0.86209131  0.64313733  1
  O  O236  1  0.50620986  0.85663209  0.86724905  1
  O  O237  1  0.74401109  0.14184730  0.16536739  1
  O  O238  1  0.73623104  0.15133160  0.34484718  1
  O  O239  1  0.73879621  0.11743639  0.64055252  1
  O  O240  1  0.75595952  0.10304644  0.86242212  1
  O  O241  1  0.74466659  0.39314487  0.16088887  1
  O  O242  1  0.73643191  0.34549149  0.33990222  1
  O  O243  1  0.73988896  0.36398489  0.65014204  1
  O  O244  1  0.74281552  0.40423904  0.86148063  1
  O  O245  1  0.75103509  0.63312385  0.10474725  1
  O  O246  1  0.75634211  0.63171759  0.41956205  1
  O  O247  1  0.74797937  0.66223131  0.61396258  1
  O  O248  1  0.75203289  0.60962674  0.90629393  1
  O  O249  1  0.74744294  0.84919106  0.11547170  1
  O  O250  1  0.74201281  0.87206155  0.37372947  1
  O  O251  1  0.75613952  0.85515186  0.62524978  1
  O  O252  1  0.74880929  0.88919842  0.90286708  1
  O  O253  1  0.11917383  -0.00479833  0.14062268  1
  O  O254  1  0.13777984  -0.00238266  0.34149204  1
  O  O255  1  0.10681407  -0.00224630  0.63630846  1
  O  O256  1  0.11095740  -0.01191730  0.84425996  1
  O  O257  1  0.13397221  0.25916518  0.13724764  1
  O  O258  1  0.12108368  0.25810010  0.39313807  1
  O  O259  1  0.15971971  0.25436768  0.61279861  1
  O  O260  1  0.11851784  0.24622181  0.90418383  1
  O  O261  1  0.15369437  0.49548538  0.15314266  1
  O  O262  1  0.16698954  0.49325750  0.35667852  1
  O  O263  1  0.11208891  0.48400349  0.64487198  1
  O  O264  1  0.11702722  0.50515898  0.84688041  1
  O  O265  1  0.12039937  0.74007807  0.08964217  1
  O  O266  1  0.09116330  0.74468161  0.39029925  1
  O  O267  1  0.15404428  0.76460136  0.59534473  1
  O  O268  1  0.13589402  0.75152588  0.90229382  1
  O  O269  1  0.37031820  -0.00679004  0.12907388  1
  O  O270  1  0.32763316  -0.00559297  0.38072881  1
  O  O271  1  0.40901538  0.00855699  0.63964772  1
  O  O272  1  0.40543546  0.00704453  0.85564428  1
  O  O273  1  0.38223476  0.24359627  0.10736547  1
  O  O274  1  0.40779869  0.24410888  0.37520001  1
  O  O275  1  0.35248101  0.24657695  0.62618631  1
  O  O276  1  0.37101507  0.24728938  0.90873762  1
  O  O277  1  0.37125317  0.49687192  0.14810971  1
  O  O278  1  0.37713626  0.50775945  0.38184549  1
  O  O279  1  0.39847608  0.49124432  0.62979249  1
  O  O280  1  0.39152810  0.48959424  0.86507395  1
  O  O281  1  0.41098290  0.74699258  0.11807444  1
  O  O282  1  0.40857979  0.75035969  0.38675508  1
  O  O283  1  0.36147053  0.76153528  0.60852611  1
  O  O284  1  0.37014354  0.74353592  0.89225783  1
  O  O285  1  0.63908778  -0.00614449  0.10266613  1
  O  O286  1  0.64176602  0.01121630  0.39294916  1
  O  O287  1  0.62059998  0.00605384  0.59308666  1
  O  O288  1  0.61633830  0.00122763  0.90650173  1
  O  O289  1  0.59945243  0.25407673  0.16044786  1
  O  O290  1  0.58750727  0.25195311  0.35423629  1
  O  O291  1  0.63195488  0.24202783  0.65090228  1
  O  O292  1  0.65477171  0.25326782  0.87333501  1
  O  O293  1  0.62761804  0.49897127  0.09609846  1
  O  O294  1  0.66077514  0.49059194  0.41191342  1
  O  O295  1  0.60749956  0.48763821  0.61936769  1
  O  O296  1  0.61261838  0.49025632  0.90742756  1
  O  O297  1  0.61908292  0.74072197  0.15791236  1
  O  O298  1  0.62785017  0.74042688  0.34775025  1
  O  O299  1  0.62070128  0.75474597  0.66219037  1
  O  O300  1  0.64650947  0.75697795  0.86478385  1
  O  O301  1  0.86131472  0.00823193  0.11088757  1
  O  O302  1  0.84805278  0.00855334  0.38735649  1
  O  O303  1  0.86385096  -0.01046007  0.61423982  1
  O  O304  1  0.88790035  -0.00156203  0.90903855  1
  O  O305  1  0.85989927  0.25658035  0.15843901  1
  O  O306  1  0.87345850  0.24819315  0.35859815  1
  O  O307  1  0.88103300  0.25628069  0.64844782  1
  O  O308  1  0.89585571  0.24562584  0.85734864  1
  O  O309  1  0.87175178  0.49333305  0.08607238  1
  O  O310  1  0.84525382  0.50489485  0.37836685  1
  O  O311  1  0.83359908  0.50694713  0.60031279  1
  O  O312  1  0.89808257  0.50818347  0.89182522  1
  O  O313  1  0.88568395  0.73385043  0.14340577  1
  O  O314  1  0.87597957  0.73639478  0.34057835  1
  O  O315  1  0.88539479  0.75148529  0.66811022  1
  O  O316  1  0.85046051  0.74908640  0.87127917  1
