# generated using pymatgen
data_Mg32Ti42(Bi17O64)3
_symmetry_space_group_name_H-M   'P 1'
_cell_length_a   15.91921270
_cell_length_b   15.95047420
_cell_length_c   16.00481303
_cell_angle_alpha   89.97442795
_cell_angle_beta   90.00138625
_cell_angle_gamma   89.92048952
_symmetry_Int_Tables_number   1
_chemical_formula_structural   Mg32Ti42(Bi17O64)3
_chemical_formula_sum   'Mg32 Ti42 Bi51 O192'
_cell_volume   4063.92166375
_cell_formula_units_Z   1
loop_
 _symmetry_equiv_pos_site_id
 _symmetry_equiv_pos_as_xyz
  1  'x, y, z'
loop_
 _atom_site_type_symbol
 _atom_site_label
 _atom_site_symmetry_multiplicity
 _atom_site_fract_x
 _atom_site_fract_y
 _atom_site_fract_z
 _atom_site_occupancy
  Mg  Mg0  1  0.62127559  0.87153154  0.63234507  1
  Mg  Mg1  1  0.61101062  0.13471170  0.60691311  1
  Mg  Mg2  1  0.61909664  0.86749928  0.36585476  1
  Mg  Mg3  1  0.11831400  0.63384794  0.62419983  1
  Mg  Mg4  1  0.87567478  0.88279480  0.88119875  1
  Mg  Mg5  1  0.61244026  0.64085394  0.13434699  1
  Mg  Mg6  1  0.12543732  0.37029102  0.62681119  1
  Mg  Mg7  1  0.87393169  0.38043392  0.36747524  1
  Mg  Mg8  1  0.38006235  0.85896239  0.38076193  1
  Mg  Mg9  1  0.12780756  0.87321687  0.11802327  1
  Mg  Mg10  1  0.38331656  0.87252332  0.87201836  1
  Mg  Mg11  1  0.62326315  0.13867277  0.12206061  1
  Mg  Mg12  1  0.38061107  0.37706035  0.85990327  1
  Mg  Mg13  1  0.37989042  0.63532617  0.12172510  1
  Mg  Mg14  1  0.12448787  0.63205488  0.87730305  1
  Mg  Mg15  1  0.37086847  0.37168770  0.13308151  1
  Mg  Mg16  1  0.87319365  0.61272166  0.87182644  1
  Mg  Mg17  1  0.12041630  0.61365115  0.36881673  1
  Mg  Mg18  1  0.86122098  0.87973646  0.36206338  1
  Mg  Mg19  1  0.48418713  0.25137981  0.68729870  1
  Mg  Mg20  1  0.71189093  0.00868280  0.69893115  1
  Mg  Mg21  1  0.74698768  0.47009539  -0.01677672  1
  Mg  Mg22  1  0.76204627  0.27899531  0.45944235  1
  Mg  Mg23  1  0.50092063  0.80556795  0.20635955  1
  Mg  Mg24  1  0.51823471  0.19391563  0.25025218  1
  Mg  Mg25  1  0.52602832  0.49835582  0.70123685  1
  Mg  Mg26  1  0.66765994  0.00352867  0.24436266  1
  Mg  Mg27  1  0.52660646  0.27374502  0.46895730  1
  Mg  Mg28  1  0.25128232  0.77029379  0.79791897  1
  Mg  Mg29  1  -0.03758826  0.74590855  0.80818899  1
  Mg  Mg30  1  0.49768498  0.01689393  0.06600604  1
  Mg  Mg31  1  0.73739686  0.73668686  0.43618465  1
  Ti  Ti32  1  0.86962602  0.63930292  0.62542311  1
  Ti  Ti33  1  0.12332114  0.37331035  0.86848623  1
  Ti  Ti34  1  0.37175791  0.11849523  0.61205631  1
  Ti  Ti35  1  0.12440158  0.87325466  0.88682713  1
  Ti  Ti36  1  0.38900253  0.37464130  0.37208953  1
  Ti  Ti37  1  0.11650027  0.38212494  0.37056186  1
  Ti  Ti38  1  0.88148887  0.12323543  0.86703676  1
  Ti  Ti39  1  0.62506664  0.38055906  0.35402842  1
  Ti  Ti40  1  0.37495514  0.12933742  0.12563781  1
  Ti  Ti41  1  0.62167555  0.13020124  0.38382379  1
  Ti  Ti42  1  0.61793299  0.37405131  0.11768171  1
  Ti  Ti43  1  0.12329067  0.37344040  0.12123664  1
  Ti  Ti44  1  0.63633320  0.89064840  0.87091011  1
  Ti  Ti45  1  0.62688385  0.61852352  0.36238900  1
  Ti  Ti46  1  0.37101376  0.62162481  0.85564807  1
  Ti  Ti47  1  0.63636464  0.64174261  0.61760451  1
  Ti  Ti48  1  0.13198921  0.12171748  0.13073850  1
  Ti  Ti49  1  0.62757118  0.35891505  0.61037744  1
  Ti  Ti50  1  0.86090176  0.37454428  0.62654654  1
  Ti  Ti51  1  0.13285250  0.11884411  0.61908177  1
  Ti  Ti52  1  0.85887080  0.13290910  0.37439989  1
  Ti  Ti53  1  0.36910768  0.87589684  0.11882175  1
  Ti  Ti54  1  0.61456218  0.12341384  0.87642759  1
  Ti  Ti55  1  0.38255634  0.12544332  0.86526411  1
  Ti  Ti56  1  0.63520507  0.87968931  0.11905776  1
  Ti  Ti57  1  0.87777716  0.36710650  0.86252381  1
  Ti  Ti58  1  0.13367448  0.63139170  0.10775554  1
  Ti  Ti59  1  0.11943282  0.13352166  0.37436037  1
  Ti  Ti60  1  0.37502220  0.85652418  0.62717136  1
  Ti  Ti61  1  0.86350289  0.88143427  0.64214977  1
  Ti  Ti62  1  0.87402875  0.61658341  0.37391272  1
  Ti  Ti63  1  0.37653116  0.62459962  0.62474281  1
  Ti  Ti64  1  0.13075702  0.12495929  0.86499095  1
  Ti  Ti65  1  0.87458051  0.12539745  0.12727566  1
  Ti  Ti66  1  0.38096007  0.37466434  0.61371916  1
  Ti  Ti67  1  0.86858589  0.12154677  0.62102378  1
  Ti  Ti68  1  0.87421914  0.88579771  0.11970599  1
  Ti  Ti69  1  0.87200266  0.36832854  0.13447375  1
  Ti  Ti70  1  0.36666177  0.62016608  0.37541570  1
  Ti  Ti71  1  0.61391537  0.37530419  0.86247164  1
  Ti  Ti72  1  0.37968654  0.13798039  0.38188588  1
  Ti  Ti73  1  0.12218783  0.86566583  0.63459512  1
  Bi  Bi74  1  0.00224986  0.25120806  0.71270991  1
  Bi  Bi75  1  -0.00859994  0.52582471  0.73405547  1
  Bi  Bi76  1  0.54049603  0.54231885  -0.02258866  1
  Bi  Bi77  1  -0.02958084  0.78242428  0.49436996  1
  Bi  Bi78  1  0.46324182  -0.01093282  0.26834395  1
  Bi  Bi79  1  0.75938420  0.69133170  0.00679089  1
  Bi  Bi80  1  0.00090084  0.24923905  0.23790690  1
  Bi  Bi81  1  0.72997244  0.03108705  0.00565002  1
  Bi  Bi82  1  0.21720768  0.52290151  0.75016020  1
  Bi  Bi83  1  0.73534166  -0.03757417  0.48522133  1
  Bi  Bi84  1  0.22739852  0.50279703  0.52530574  1
  Bi  Bi85  1  0.50142097  -0.02692403  0.50017742  1
  Bi  Bi86  1  0.47989404  0.51361763  0.22442390  1
  Bi  Bi87  1  0.00197492  0.00592468  -0.02227207  1
  Bi  Bi88  1  0.24764020  0.49758775  0.23352848  1
  Bi  Bi89  1  0.75173431  0.50576487  0.49366492  1
  Bi  Bi90  1  0.71899221  0.52338251  0.76228769  1
  Bi  Bi91  1  -0.01435393  0.53124122  0.20660999  1
  Bi  Bi92  1  0.26155585  0.24714417  0.25523523  1
  Bi  Bi93  1  0.25320719  0.26327777  -0.02382160  1
  Bi  Bi94  1  0.02611440  0.77611226  0.27996729  1
  Bi  Bi95  1  0.49450341  0.50763520  0.50089725  1
  Bi  Bi96  1  0.74249646  0.25427710  -0.02681738  1
  Bi  Bi97  1  0.00350131  -0.00163212  0.72896376  1
  Bi  Bi98  1  -0.00992120  0.26994367  0.49463450  1
  Bi  Bi99  1  0.24508960  0.27177406  0.48351110  1
  Bi  Bi100  1  0.00021631  0.51875028  0.50467603  1
  Bi  Bi101  1  0.23577752  -0.03636859  0.27076641  1
  Bi  Bi102  1  0.47476459  0.28343240  0.00301680  1
  Bi  Bi103  1  0.50482388  0.73501474  0.48079662  1
  Bi  Bi104  1  0.52152005  0.77120939  0.00684532  1
  Bi  Bi105  1  0.25800298  -0.03300114  0.73991273  1
  Bi  Bi106  1  0.00427841  0.23783662  -0.01227919  1
  Bi  Bi107  1  -0.02320128  0.00002543  0.46840647  1
  Bi  Bi108  1  0.73105001  0.22364802  0.73793274  1
  Bi  Bi109  1  0.27463310  0.26221779  0.73033006  1
  Bi  Bi110  1  0.23038464  -0.01566310  0.48713270  1
  Bi  Bi111  1  -0.00140128  -0.00519194  0.22999372  1
  Bi  Bi112  1  0.24109415  0.74231863  0.24624881  1
  Bi  Bi113  1  0.52910538  0.73230692  0.78597298  1
  Bi  Bi114  1  0.79570286  0.73885438  0.22436908  1
  Bi  Bi115  1  0.27928731  -0.00034843  -0.02508150  1
  Bi  Bi116  1  0.26301702  0.73616451  -0.00684829  1
  Bi  Bi117  1  0.28382453  0.49821500  -0.00231331  1
  Bi  Bi118  1  0.74126606  0.51275056  0.20669393  1
  Bi  Bi119  1  -0.03540000  0.48854777  -0.01154121  1
  Bi  Bi120  1  0.72660663  0.24250254  0.24572297  1
  Bi  Bi121  1  0.50559498  0.00106704  0.72276566  1
  Bi  Bi122  1  0.76057611  0.75713373  0.78476008  1
  Bi  Bi123  1  -0.00971095  0.74145629  0.01181669  1
  Bi  Bi124  1  0.20018830  0.77313810  0.47475820  1
  O  O125  1  0.10776665  0.11146163  0.01981978  1
  O  O126  1  0.13472027  0.15940953  0.26178531  1
  O  O127  1  0.12727795  0.09643753  0.50452205  1
  O  O128  1  0.13400584  0.14416427  0.75621859  1
  O  O129  1  0.15421020  0.37779306  0.01184029  1
  O  O130  1  0.09909441  0.35195438  0.25933983  1
  O  O131  1  0.15136238  0.38641688  0.49742482  1
  O  O132  1  0.10412875  0.35449630  0.75724229  1
  O  O133  1  0.17109865  0.61472063  -0.00158770  1
  O  O134  1  0.11944771  0.66362962  0.24332141  1
  O  O135  1  0.12473113  0.59144861  0.49653290  1
  O  O136  1  0.10771796  0.61312086  0.74979760  1
  O  O137  1  0.12149234  0.90279916  -0.00314832  1
  O  O138  1  0.13674592  0.84791655  0.24774588  1
  O  O139  1  0.12947216  0.89153310  0.50615857  1
  O  O140  1  0.15682090  0.85318229  0.74779990  1
  O  O141  1  0.39594221  0.08858593  0.01411514  1
  O  O142  1  0.37911596  0.16225826  0.25596601  1
  O  O143  1  0.37990436  0.09786569  0.49903921  1
  O  O144  1  0.36119874  0.14769107  0.75803182  1
  O  O145  1  0.36095872  0.37343572  0.00199994  1
  O  O146  1  0.38845827  0.35492625  0.26002260  1
  O  O147  1  0.35203352  0.38353619  0.50121571  1
  O  O148  1  0.39701523  0.33290890  0.74058497  1
  O  O149  1  0.35182451  0.62012203  -0.00819212  1
  O  O150  1  0.39761522  0.62209490  0.25960059  1
  O  O151  1  0.37289223  0.59416484  0.50396012  1
  O  O152  1  0.40996214  0.61913798  0.74129813  1
  O  O153  1  0.36476608  0.89034676  0.00171691  1
  O  O154  1  0.39761040  0.86207525  0.25100106  1
  O  O155  1  0.39580201  0.88309630  0.50966571  1
  O  O156  1  0.34346480  0.85364936  0.74622289  1
  O  O157  1  0.63591340  0.14542620  -0.00290435  1
  O  O158  1  0.63961362  0.12330242  0.25193573  1
  O  O159  1  0.58878596  0.15945720  0.48869807  1
  O  O160  1  0.65895106  0.10504530  0.76950246  1
  O  O161  1  0.63998713  0.34925755  0.00472830  1
  O  O162  1  0.61600558  0.41089466  0.24596711  1
  O  O163  1  0.65044182  0.32934337  0.50223967  1
  O  O164  1  0.59220035  0.40000503  0.75332896  1
  O  O165  1  0.61878367  0.64857868  0.00663075  1
  O  O166  1  0.60107632  0.59704152  0.25365792  1
  O  O167  1  0.67686629  0.63818140  0.50306568  1
  O  O168  1  0.60339987  0.59297669  0.72963591  1
  O  O169  1  0.63115853  0.86041519  0.00074852  1
  O  O170  1  0.60789657  0.89351655  0.24214296  1
  O  O171  1  0.61368185  0.88611395  0.50344555  1
  O  O172  1  0.62845943  0.91873928  0.75759082  1
  O  O173  1  0.90254384  0.11215459  0.01543489  1
  O  O174  1  0.85858699  0.14908083  0.26170362  1
  O  O175  1  0.88486795  0.10509253  0.50860570  1
  O  O176  1  0.87193257  0.14362833  0.75728754  1
  O  O177  1  0.85884830  0.40033642  0.01028628  1
  O  O178  1  0.90484387  0.36163507  0.24770672  1
  O  O179  1  0.84291975  0.37328387  0.50952467  1
  O  O180  1  0.89069729  0.34416779  0.75261954  1
  O  O181  1  0.82464263  0.57487817  -0.01490563  1
  O  O182  1  0.89598381  0.64492697  0.26010280  1
  O  O183  1  0.86275751  0.59741275  0.50855328  1
  O  O184  1  0.91123866  0.64091452  0.74674468  1
  O  O185  1  0.89118433  0.90074406  0.00670755  1
  O  O186  1  0.87965391  0.85323949  0.24365396  1
  O  O187  1  0.88374312  0.89559088  0.51589127  1
  O  O188  1  0.88524716  0.84493907  0.75051941  1
  O  O189  1  0.00208544  0.11515751  0.16116956  1
  O  O190  1  0.00296469  0.11380081  0.37234765  1
  O  O191  1  0.00141152  0.11168483  0.64325089  1
  O  O192  1  0.00580065  0.13730629  0.88434158  1
  O  O193  1  0.00484717  0.41253386  0.11225031  1
  O  O194  1  0.00126207  0.38308553  0.40881440  1
  O  O195  1  -0.00716699  0.36083324  0.61414783  1
  O  O196  1  0.00414896  0.36809876  0.91156261  1
  O  O197  1  0.01168110  0.61412992  0.09711586  1
  O  O198  1  -0.01105424  0.59038183  0.38578094  1
  O  O199  1  -0.00836332  0.61052660  0.61063149  1
  O  O200  1  0.00018501  0.65292826  0.90223650  1
  O  O201  1  -0.00041202  0.89268037  0.13680132  1
  O  O202  1  -0.01366131  0.87437753  0.38476117  1
  O  O203  1  0.00572279  0.88428662  0.63803279  1
  O  O204  1  0.01001232  0.84334937  0.87376721  1
  O  O205  1  0.24911110  0.13926708  0.12739351  1
  O  O206  1  0.25945870  0.16357214  0.38186527  1
  O  O207  1  0.24907571  0.11409032  0.62504392  1
  O  O208  1  0.25047725  0.12698773  0.89713360  1
  O  O209  1  0.23939416  0.37344952  0.16413639  1
  O  O210  1  0.25307691  0.34428184  0.36536023  1
  O  O211  1  0.26201834  0.37984838  0.64481664  1
  O  O212  1  0.24846478  0.34743860  0.86339649  1
  O  O213  1  0.25255014  0.64991021  0.14409473  1
  O  O214  1  0.25367323  0.63564024  0.36196378  1
  O  O215  1  0.26261835  0.60709324  0.63570934  1
  O  O216  1  0.25455718  0.63509074  0.82390651  1
  O  O217  1  0.25588850  0.85031606  0.13419954  1
  O  O218  1  0.25544928  0.87421380  0.38616607  1
  O  O219  1  0.25459541  0.88895923  0.61074593  1
  O  O220  1  0.24667161  0.90167983  0.87536536  1
  O  O221  1  0.49700057  0.11730727  0.14471247  1
  O  O222  1  0.50145870  0.11155850  0.35375608  1
  O  O223  1  0.48673060  0.13206278  0.64671870  1
  O  O224  1  0.50348424  0.12791642  0.85909239  1
  O  O225  1  0.50453606  0.39280064  0.10739302  1
  O  O226  1  0.50800738  0.38329021  0.39915614  1
  O  O227  1  0.50020147  0.33482481  0.58987256  1
  O  O228  1  0.50450545  0.37743517  0.89772527  1
  O  O229  1  0.49929065  0.59035278  0.11322881  1
  O  O230  1  0.51146569  0.61402112  0.40692289  1
  O  O231  1  0.51776923  0.62607734  0.58382763  1
  O  O232  1  0.49095842  0.64289761  0.88849059  1
  O  O233  1  0.49991550  0.89806424  0.10533480  1
  O  O234  1  0.49850643  0.90588591  0.37930698  1
  O  O235  1  0.49213127  0.87925178  0.64969982  1
  O  O236  1  0.50743319  0.84873442  0.86963766  1
  O  O237  1  0.75920147  0.14196529  0.11321809  1
  O  O238  1  0.74472477  0.16230004  0.39883553  1
  O  O239  1  0.74908945  0.11855057  0.63040518  1
  O  O240  1  0.76690969  0.12386611  0.90239162  1
  O  O241  1  0.75658620  0.35765317  0.15077234  1
  O  O242  1  0.74097272  0.34987687  0.35566765  1
  O  O243  1  0.74298087  0.36081777  0.65176397  1
  O  O244  1  0.76092669  0.37164107  0.87577110  1
  O  O245  1  0.73915244  0.63918534  0.14099151  1
  O  O246  1  0.74544316  0.64341961  0.34801913  1
  O  O247  1  0.75385492  0.61157537  0.65173519  1
  O  O248  1  0.75231944  0.62558695  0.83667373  1
  O  O249  1  0.74954013  0.88231717  0.13228269  1
  O  O250  1  0.74400773  0.85857996  0.39729935  1
  O  O251  1  0.74832840  0.90015988  0.63104546  1
  O  O252  1  0.75080680  0.88467859  0.86737500  1
  O  O253  1  0.13090385  0.00668305  0.16620379  1
  O  O254  1  0.15428092  0.01571611  0.36632380  1
  O  O255  1  0.12656620  -0.00193062  0.65529738  1
  O  O256  1  0.10629867  0.00497769  0.86404785  1
  O  O257  1  0.09663853  0.25608757  0.12340367  1
  O  O258  1  0.11356684  0.24893272  0.41216168  1
  O  O259  1  0.11665562  0.23953666  0.61459120  1
  O  O260  1  0.12523408  0.24550973  0.90566101  1
  O  O261  1  0.14028362  0.50871905  0.14818933  1
  O  O262  1  0.13948934  0.49006255  0.34822737  1
  O  O263  1  0.13129988  0.49636304  0.63114730  1
  O  O264  1  0.13125976  0.48894101  0.86719395  1
  O  O265  1  0.11159681  0.74691487  0.08556142  1
  O  O266  1  0.09340820  0.73742999  0.39822367  1
  O  O267  1  0.12314801  0.75457515  0.59770420  1
  O  O268  1  0.16224301  0.75786439  0.89280276  1
  O  O269  1  0.36536746  -0.00157808  0.15068016  1
  O  O270  1  0.35478980  0.01361200  0.35070982  1
  O  O271  1  0.37915030  0.00134542  0.65057253  1
  O  O272  1  0.37109263  0.00590885  0.86539081  1
  O  O273  1  0.38105999  0.24490533  0.10450058  1
  O  O274  1  0.40673670  0.24965259  0.41208421  1
  O  O275  1  0.35883133  0.24123524  0.61393145  1
  O  O276  1  0.38058293  0.24044583  0.90768753  1
  O  O277  1  0.35074573  0.50086706  0.13358669  1
  O  O278  1  0.37638413  0.49195692  0.36627577  1
  O  O279  1  0.41867378  0.48643440  0.63418785  1
  O  O280  1  0.35779428  0.50330390  0.87232180  1
  O  O281  1  0.41065489  0.75962434  0.11756725  1
  O  O282  1  0.39303423  0.73500841  0.39757990  1
  O  O283  1  0.38006560  0.74035667  0.61111321  1
  O  O284  1  0.35001981  0.74688700  0.88081626  1
  O  O285  1  0.63126011  0.00742491  0.11266139  1
  O  O286  1  0.65252915  0.01293695  0.37685574  1
  O  O287  1  0.60426337  0.01030156  0.62320581  1
  O  O288  1  0.62514942  0.00734614  0.91264340  1
  O  O289  1  0.61048895  0.26037672  0.15798115  1
  O  O290  1  0.59922128  0.25540306  0.34222728  1
  O  O291  1  0.61493016  0.24693158  0.66664512  1
  O  O292  1  0.64702734  0.25065313  0.86230207  1
  O  O293  1  0.66683204  0.48965763  0.09236964  1
  O  O294  1  0.64152775  0.49775972  0.39833797  1
  O  O295  1  0.60890682  0.47642189  0.59982028  1
  O  O296  1  0.64819782  0.48712446  0.89615468  1
  O  O297  1  0.59566548  0.76385833  0.13709927  1
  O  O298  1  0.61122031  0.74049966  0.38143550  1
  O  O299  1  0.63116773  0.74798995  0.64967147  1
  O  O300  1  0.64152336  0.76230331  0.85577958  1
  O  O301  1  0.87367631  0.00696991  0.15327326  1
  O  O302  1  0.86495821  0.00842016  0.38100137  1
  O  O303  1  0.87500600  -0.00074952  0.66160775  1
  O  O304  1  0.90475642  0.00713942  0.86919018  1
  O  O305  1  0.90509186  0.25201538  0.12061907  1
  O  O306  1  0.88354825  0.24881303  0.40301583  1
  O  O307  1  0.88354382  0.23927832  0.61837671  1
  O  O308  1  0.88232139  0.25048849  0.90392727  1
  O  O309  1  0.86599686  0.49578802  0.15101188  1
  O  O310  1  0.83556084  0.50318336  0.37601109  1
  O  O311  1  0.87369060  0.48686100  0.64709098  1
  O  O312  1  0.90131247  0.48759617  0.85460414  1
  O  O313  1  0.86383414  0.75895407  0.10279207  1
  O  O314  1  0.86936540  0.73731222  0.41039909  1
  O  O315  1  0.86638197  0.75074470  0.60630988  1
  O  O316  1  0.85555382  0.74625690  0.88629562  1
