# generated using pymatgen
data_Mg32Ti42(Bi17O64)3
_symmetry_space_group_name_H-M   'P 1'
_cell_length_a   15.92938171
_cell_length_b   15.95832479
_cell_length_c   15.97565032
_cell_angle_alpha   89.93539320
_cell_angle_beta   90.00960422
_cell_angle_gamma   89.96425252
_symmetry_Int_Tables_number   1
_chemical_formula_structural   Mg32Ti42(Bi17O64)3
_chemical_formula_sum   'Mg32 Ti42 Bi51 O192'
_cell_volume   4061.10668284
_cell_formula_units_Z   1
loop_
 _symmetry_equiv_pos_site_id
 _symmetry_equiv_pos_as_xyz
  1  'x, y, z'
loop_
 _atom_site_type_symbol
 _atom_site_label
 _atom_site_symmetry_multiplicity
 _atom_site_fract_x
 _atom_site_fract_y
 _atom_site_fract_z
 _atom_site_occupancy
  Mg  Mg0  1  0.37641068  0.87062238  0.38280800  1
  Mg  Mg1  1  0.61397966  0.37015725  0.37263653  1
  Mg  Mg2  1  0.62262646  0.61933910  0.61904978  1
  Mg  Mg3  1  0.62766314  0.12867350  0.63093064  1
  Mg  Mg4  1  0.37531813  0.12433281  0.88443148  1
  Mg  Mg5  1  0.88304078  0.89001185  0.38016223  1
  Mg  Mg6  1  0.12349418  0.37742086  0.12919044  1
  Mg  Mg7  1  0.37320986  0.62413032  0.86937788  1
  Mg  Mg8  1  0.63403673  0.12497786  0.12522435  1
  Mg  Mg9  1  0.13052380  0.13709714  0.63245291  1
  Mg  Mg10  1  0.38152561  0.37100578  0.89079014  1
  Mg  Mg11  1  0.63735756  0.11149980  0.37257295  1
  Mg  Mg12  1  0.36907420  0.88435091  0.12526919  1
  Mg  Mg13  1  0.86715307  0.62406328  0.11494143  1
  Mg  Mg14  1  0.62888698  0.88101966  0.61929409  1
  Mg  Mg15  1  0.86780792  0.87520873  0.63261740  1
  Mg  Mg16  1  0.87899117  0.87788895  0.11854190  1
  Mg  Mg17  1  0.12341606  0.86743369  0.62241702  1
  Mg  Mg18  1  0.86090236  0.62134135  0.38428574  1
  Mg  Mg19  1  0.75321688  0.01006728  0.59015891  1
  Mg  Mg20  1  0.48513677  0.49005677  0.49017890  1
  Mg  Mg21  1  0.53560913  0.21853660  0.46706193  1
  Mg  Mg22  1  0.52252262  0.23557777  0.01410218  1
  Mg  Mg23  1  0.01616512  0.03648405  0.02114185  1
  Mg  Mg24  1  0.01634670  0.05496823  0.26928977  1
  Mg  Mg25  1  0.71273060  -0.04280951  0.77187320  1
  Mg  Mg26  1  0.04557454  0.25054644  0.30244573  1
  Mg  Mg27  1  0.48386229  0.76279771  0.27294765  1
  Mg  Mg28  1  0.79896422  0.47938761  -0.05751651  1
  Mg  Mg29  1  0.54122309  0.02978304  0.73716678  1
  Mg  Mg30  1  0.23075169  0.29300449  0.47047915  1
  Mg  Mg31  1  0.76708105  0.79866867  0.50398910  1
  Ti  Ti32  1  0.38521714  0.36643688  0.12491767  1
  Ti  Ti33  1  0.61465712  0.63191810  0.37417170  1
  Ti  Ti34  1  0.11714826  0.39348711  0.36809158  1
  Ti  Ti35  1  0.12776165  0.62612329  0.62156173  1
  Ti  Ti36  1  0.63340599  0.11358658  0.87289250  1
  Ti  Ti37  1  0.86891877  0.62824309  0.87256104  1
  Ti  Ti38  1  0.60552534  0.36925940  0.63125827  1
  Ti  Ti39  1  0.62136127  0.62990016  0.87514508  1
  Ti  Ti40  1  0.88267664  0.12300073  0.11644662  1
  Ti  Ti41  1  0.37939947  0.87347944  0.61966100  1
  Ti  Ti42  1  0.11741992  0.88694506  0.38418944  1
  Ti  Ti43  1  0.62458588  0.87446892  0.13617744  1
  Ti  Ti44  1  0.60994596  0.86415344  0.88214199  1
  Ti  Ti45  1  0.86447461  0.62300652  0.62056355  1
  Ti  Ti46  1  0.12508745  0.14072464  0.86979750  1
  Ti  Ti47  1  0.86749682  0.36929088  0.13887067  1
  Ti  Ti48  1  0.62053690  0.37074865  0.12776986  1
  Ti  Ti49  1  0.87875189  0.11113107  0.87349545  1
  Ti  Ti50  1  0.86665654  0.37765526  0.61877388  1
  Ti  Ti51  1  0.37387420  0.13742003  0.38636203  1
  Ti  Ti52  1  0.13344534  0.13519069  0.13087135  1
  Ti  Ti53  1  0.62094298  0.37949401  0.88426272  1
  Ti  Ti54  1  0.85238871  0.87478875  0.86394685  1
  Ti  Ti55  1  0.12756974  0.61916721  0.88321877  1
  Ti  Ti56  1  0.38464463  0.12173220  0.64045230  1
  Ti  Ti57  1  0.10841274  0.62860654  0.10732213  1
  Ti  Ti58  1  0.13277396  0.12397040  0.39297939  1
  Ti  Ti59  1  0.37958298  0.61994981  0.62042562  1
  Ti  Ti60  1  0.12876411  0.38007390  0.89453910  1
  Ti  Ti61  1  0.12209331  0.64144122  0.37658412  1
  Ti  Ti62  1  0.38005507  0.88618519  0.88539486  1
  Ti  Ti63  1  0.13721022  0.36847785  0.61302659  1
  Ti  Ti64  1  0.87683579  0.13202939  0.63584594  1
  Ti  Ti65  1  0.86924034  0.37304445  0.37311294  1
  Ti  Ti66  1  0.37312116  0.62576298  0.37947349  1
  Ti  Ti67  1  0.11187283  0.89847011  0.13630791  1
  Ti  Ti68  1  0.63599441  0.62652704  0.12207166  1
  Ti  Ti69  1  0.36351603  0.12026810  0.13053697  1
  Ti  Ti70  1  0.38530258  0.37037564  0.38047545  1
  Ti  Ti71  1  0.62343368  0.87990668  0.38122125  1
  Ti  Ti72  1  0.88602939  0.12863494  0.38871586  1
  Ti  Ti73  1  0.37938124  0.35543059  0.60976135  1
  Bi  Bi74  1  0.69866652  0.48997373  0.49119091  1
  Bi  Bi75  1  0.00383271  0.25010127  0.52661442  1
  Bi  Bi76  1  0.01627896  0.80318541  -0.02207615  1
  Bi  Bi77  1  -0.02307170  0.26640009  0.78187452  1
  Bi  Bi78  1  0.25188441  0.28660647  0.24605583  1
  Bi  Bi79  1  0.74693190  0.27796421  0.00725136  1
  Bi  Bi80  1  -0.03497657  0.75269954  0.48928439  1
  Bi  Bi81  1  -0.01443194  0.53766975  0.24928180  1
  Bi  Bi82  1  -0.01907707  0.48000881  0.02364449  1
  Bi  Bi83  1  0.50209664  0.01929603  0.51046901  1
  Bi  Bi84  1  0.21216079  -0.01359356  -0.02296636  1
  Bi  Bi85  1  0.22750647  0.52589364  0.23318319  1
  Bi  Bi86  1  0.75336285  0.26182279  0.78605891  1
  Bi  Bi87  1  0.02859195  -0.04445902  0.77274433  1
  Bi  Bi88  1  0.50486557  0.23841145  0.25634131  1
  Bi  Bi89  1  0.49184172  -0.00428557  0.27398747  1
  Bi  Bi90  1  -0.01923311  0.48317270  0.76543044  1
  Bi  Bi91  1  0.23907966  0.50859540  0.50351657  1
  Bi  Bi92  1  0.01065450  0.71475215  0.75039533  1
  Bi  Bi93  1  0.24791456  0.75423688  0.51071789  1
  Bi  Bi94  1  -0.01062450  -0.00788929  0.54367490  1
  Bi  Bi95  1  0.49651567  0.23871208  0.78625727  1
  Bi  Bi96  1  0.28340792  0.52476679  0.01314855  1
  Bi  Bi97  1  0.23841328  0.00389854  0.53615677  1
  Bi  Bi98  1  0.26507334  0.26398104  0.76585607  1
  Bi  Bi99  1  0.49717222  0.52612078  0.02200831  1
  Bi  Bi100  1  -0.02064419  0.25792895  0.00785782  1
  Bi  Bi101  1  0.26247323  -0.00557589  0.28734418  1
  Bi  Bi102  1  0.76308123  0.77136453  0.01310106  1
  Bi  Bi103  1  -0.02232318  0.49589440  0.49810486  1
  Bi  Bi104  1  0.72659397  0.74748016  0.71759769  1
  Bi  Bi105  1  0.23663816  -0.00595846  0.74902977  1
  Bi  Bi106  1  0.48039841  0.50953607  0.76553103  1
  Bi  Bi107  1  0.73454428  0.24563493  0.27948977  1
  Bi  Bi108  1  0.49494184  0.75857907  0.03885031  1
  Bi  Bi109  1  0.72860841  0.25809519  0.51818614  1
  Bi  Bi110  1  0.50658526  0.02203273  0.02530001  1
  Bi  Bi111  1  0.25591354  0.76304540  0.01933978  1
  Bi  Bi112  1  0.79466245  0.01398491  0.25585759  1
  Bi  Bi113  1  0.27050798  0.76003365  0.24528341  1
  Bi  Bi114  1  0.73233328  0.50021966  0.76461132  1
  Bi  Bi115  1  0.25712171  0.77591330  0.77669735  1
  Bi  Bi116  1  0.26311586  0.24753080  0.00560547  1
  Bi  Bi117  1  0.47006115  0.53545184  0.23848022  1
  Bi  Bi118  1  0.23846720  0.48332970  0.75442935  1
  Bi  Bi119  1  -0.00407155  0.77475457  0.24563139  1
  Bi  Bi120  1  0.48239731  0.75556884  0.74943517  1
  Bi  Bi121  1  0.74973370  0.52780947  0.24916244  1
  Bi  Bi122  1  0.76059841  0.77181225  0.28430354  1
  Bi  Bi123  1  0.51642359  0.74529155  0.52083110  1
  Bi  Bi124  1  0.76512461  0.00897593  0.00894920  1
  O  O125  1  0.13123723  0.09693999  0.00766597  1
  O  O126  1  0.10098077  0.15096233  0.24264625  1
  O  O127  1  0.12612811  0.10045375  0.50091334  1
  O  O128  1  0.11485697  0.15747570  0.75807318  1
  O  O129  1  0.13651424  0.40492850  0.00160294  1
  O  O130  1  0.12093534  0.34525675  0.25564637  1
  O  O131  1  0.13508571  0.39980831  0.48607791  1
  O  O132  1  0.15534635  0.36594933  0.72885427  1
  O  O133  1  0.09625651  0.59918621  -0.00427488  1
  O  O134  1  0.14594314  0.64340528  0.25776978  1
  O  O135  1  0.12074604  0.59425922  0.49604593  1
  O  O136  1  0.13851381  0.63867951  0.74249407  1
  O  O137  1  0.08450154  0.92397306  0.00334943  1
  O  O138  1  0.12543196  0.85232312  0.24485915  1
  O  O139  1  0.10664598  0.90309961  0.49676411  1
  O  O140  1  0.14619352  0.88282594  0.74964017  1
  O  O141  1  0.35349662  0.14256879  0.00982171  1
  O  O142  1  0.37681048  0.12774123  0.25127109  1
  O  O143  1  0.40943241  0.12891226  0.49890591  1
  O  O144  1  0.40942382  0.11320789  0.75452051  1
  O  O145  1  0.35247378  0.36136601  0.01114419  1
  O  O146  1  0.39324670  0.36389575  0.25682993  1
  O  O147  1  0.41700579  0.37610398  0.49593299  1
  O  O148  1  0.34134380  0.38394077  0.72413446  1
  O  O149  1  0.38711353  0.61375821  -0.00408914  1
  O  O150  1  0.35224188  0.60382828  0.25631385  1
  O  O151  1  0.40235610  0.65894771  0.49153715  1
  O  O152  1  0.36785043  0.59525083  0.73604969  1
  O  O153  1  0.39573006  0.85308024  0.00119962  1
  O  O154  1  0.34165723  0.88391293  0.24785341  1
  O  O155  1  0.39198643  0.84834451  0.50619415  1
  O  O156  1  0.33777289  0.88945097  0.75545719  1
  O  O157  1  0.64157280  0.08546049  -0.00571790  1
  O  O158  1  0.62886493  0.15933487  0.24717363  1
  O  O159  1  0.60611206  0.10756474  0.49608269  1
  O  O160  1  0.60050366  0.14329341  0.75953776  1
  O  O161  1  0.65203535  0.39054881  -0.00532860  1
  O  O162  1  0.61782014  0.34033158  0.24316040  1
  O  O163  1  0.63587162  0.36807009  0.50192504  1
  O  O164  1  0.63287470  0.35337290  0.74549749  1
  O  O165  1  0.60740013  0.61085032  -0.00506259  1
  O  O166  1  0.64142533  0.61456588  0.24352150  1
  O  O167  1  0.59145830  0.62828242  0.48916713  1
  O  O168  1  0.64463621  0.63522807  0.74961864  1
  O  O169  1  0.58349019  0.86976545  0.00062211  1
  O  O170  1  0.65890389  0.86336479  0.24346879  1
  O  O171  1  0.59949387  0.89007973  0.49002318  1
  O  O172  1  0.64057857  0.84773401  0.75633749  1
  O  O173  1  0.84561377  0.12974914  -0.01359275  1
  O  O174  1  0.89986522  0.11070004  0.22942268  1
  O  O175  1  0.88053188  0.10946407  0.49651094  1
  O  O176  1  0.89040755  0.14269845  0.74987599  1
  O  O177  1  0.86752595  0.39831364  0.00754018  1
  O  O178  1  0.87847879  0.36131972  0.25223676  1
  O  O179  1  0.88382327  0.38706630  0.49745068  1
  O  O180  1  0.89383083  0.36476472  0.73538478  1
  O  O181  1  0.87803470  0.58523084  -0.01631759  1
  O  O182  1  0.85690080  0.61666758  0.25442256  1
  O  O183  1  0.90125492  0.60972846  0.50343101  1
  O  O184  1  0.87707689  0.65063988  0.73816068  1
  O  O185  1  0.87626340  0.86081845  -0.01145320  1
  O  O186  1  0.87051443  0.85724316  0.25078212  1
  O  O187  1  0.91006274  0.88584279  0.50315701  1
  O  O188  1  0.82076513  0.87733471  0.75219160  1
  O  O189  1  0.00165977  0.14702409  0.08980639  1
  O  O190  1  0.00452338  0.14771528  0.37173725  1
  O  O191  1  0.00065135  0.14216586  0.61346369  1
  O  O192  1  -0.00447531  0.11056222  0.89880586  1
  O  O193  1  -0.00224137  0.35593056  0.10397852  1
  O  O194  1  0.00745889  0.35315015  0.37439504  1
  O  O195  1  0.01922147  0.36817088  0.61001317  1
  O  O196  1  0.00763400  0.38165978  0.86212443  1
  O  O197  1  -0.00345300  0.64031036  0.14519368  1
  O  O198  1  0.00700614  0.65049732  0.36357364  1
  O  O199  1  0.01171746  0.62809044  0.63621583  1
  O  O200  1  -0.00682404  0.61658633  0.84832521  1
  O  O201  1  0.00233162  0.84986300  0.12693539  1
  O  O202  1  0.00494241  0.84594614  0.36633591  1
  O  O203  1  -0.00115548  0.88835445  0.65204026  1
  O  O204  1  -0.02391014  0.85329972  0.84815918  1
  O  O205  1  0.24536087  0.09814227  0.13983781  1
  O  O206  1  0.25256013  0.10282294  0.38322313  1
  O  O207  1  0.26492319  0.11418603  0.63194657  1
  O  O208  1  0.24227602  0.15199572  0.87179889  1
  O  O209  1  0.25478337  0.39176765  0.15712446  1
  O  O210  1  0.25821549  0.38358248  0.37236611  1
  O  O211  1  0.26581834  0.36490092  0.57211704  1
  O  O212  1  0.24591455  0.36597950  0.86489092  1
  O  O213  1  0.23304291  0.60284854  0.11313833  1
  O  O214  1  0.25821354  0.61822982  0.39895753  1
  O  O215  1  0.26050339  0.62960725  0.59034239  1
  O  O216  1  0.24384271  0.61420249  0.89980063  1
  O  O217  1  0.22814618  0.88630136  0.09105453  1
  O  O218  1  0.24152704  0.89753095  0.38544646  1
  O  O219  1  0.25014572  0.87203384  0.59739841  1
  O  O220  1  0.25864954  0.86006893  0.89956215  1
  O  O221  1  0.49907358  0.13949681  0.09931938  1
  O  O222  1  0.49731852  0.14114828  0.36180258  1
  O  O223  1  0.50378034  0.08384896  0.62921481  1
  O  O224  1  0.51347953  0.16101339  0.90418192  1
  O  O225  1  0.50009807  0.33761324  0.10262828  1
  O  O226  1  0.50025815  0.31279501  0.37566220  1
  O  O227  1  0.49458210  0.37034697  0.64902781  1
  O  O228  1  0.51049396  0.34349679  0.89411495  1
  O  O229  1  0.50789611  0.61964686  0.12854008  1
  O  O230  1  0.49926633  0.64516973  0.32933635  1
  O  O231  1  0.49802661  0.65897953  0.63272856  1
  O  O232  1  0.50457189  0.62465445  0.84346662  1
  O  O233  1  0.50370299  0.82825251  0.15731159  1
  O  O234  1  0.50291655  0.86776546  0.33904373  1
  O  O235  1  0.49577520  0.86345379  0.64374691  1
  O  O236  1  0.49553702  0.86851463  0.85028815  1
  O  O237  1  0.76054110  0.09123369  0.13206207  1
  O  O238  1  0.76511268  0.11369743  0.34422209  1
  O  O239  1  0.75674206  0.13626331  0.61628942  1
  O  O240  1  0.74753499  0.11300029  0.84433413  1
  O  O241  1  0.74838666  0.36821036  0.13269619  1
  O  O242  1  0.75396206  0.39318439  0.37188378  1
  O  O243  1  0.75337392  0.37550986  0.62196713  1
  O  O244  1  0.74668979  0.39295983  0.85712461  1
  O  O245  1  0.74460844  0.58646443  0.11779421  1
  O  O246  1  0.73334169  0.59629025  0.37835585  1
  O  O247  1  0.75459142  0.60225336  0.61495870  1
  O  O248  1  0.74310392  0.58828065  0.87774652  1
  O  O249  1  0.73897809  0.88973767  0.09497810  1
  O  O250  1  0.74717401  0.87119914  0.38636672  1
  O  O251  1  0.75278397  0.88873610  0.58488861  1
  O  O252  1  0.73128795  0.89389888  0.89441283  1
  O  O253  1  0.08370850  0.00630584  0.15796683  1
  O  O254  1  0.10764206  0.00326343  0.34777600  1
  O  O255  1  0.14055721  0.00444924  0.63970086  1
  O  O256  1  0.14201680  0.01508035  0.85632119  1
  O  O257  1  0.15921444  0.24704166  0.11193491  1
  O  O258  1  0.14506804  0.24120182  0.39203340  1
  O  O259  1  0.14066900  0.25503469  0.58108521  1
  O  O260  1  0.10694032  0.25732830  0.90602274  1
  O  O261  1  0.10070891  0.50668874  0.15209475  1
  O  O262  1  0.11403468  0.50518702  0.34799231  1
  O  O263  1  0.16301512  0.49896456  0.62907634  1
  O  O264  1  0.12452469  0.49631941  0.84663625  1
  O  O265  1  0.13173362  0.74358424  0.08791592  1
  O  O266  1  0.14567470  0.75348342  0.40281657  1
  O  O267  1  0.13458743  0.74224747  0.59586938  1
  O  O268  1  0.11175892  0.73453726  0.88248804  1
  O  O269  1  0.39795889  0.00591417  0.11895355  1
  O  O270  1  0.38534430  0.00222150  0.36951909  1
  O  O271  1  0.36876052  -0.00708139  0.60867059  1
  O  O272  1  0.37431186  -0.00229244  0.89834102  1
  O  O273  1  0.34313468  0.24880843  0.13295926  1
  O  O274  1  0.34193302  0.24966070  0.39656203  1
  O  O275  1  0.38387055  0.24135076  0.63313603  1
  O  O276  1  0.37243100  0.25272806  0.85180929  1
  O  O277  1  0.39326094  0.48560327  0.11917090  1
  O  O278  1  0.40340303  0.50196316  0.38908284  1
  O  O279  1  0.39784005  0.51258290  0.58775422  1
  O  O280  1  0.39644091  0.49138357  0.86937111  1
  O  O281  1  0.34310596  0.75714518  0.12915981  1
  O  O282  1  0.37070186  0.74735021  0.34137947  1
  O  O283  1  0.36134036  0.75480442  0.66301413  1
  O  O284  1  0.37400529  0.74832187  0.84716215  1
  O  O285  1  0.59030499  -0.01227731  0.13454399  1
  O  O286  1  0.61051014  -0.00627387  0.34709729  1
  O  O287  1  0.65118491  0.00097831  0.66741543  1
  O  O288  1  0.60746553  -0.00088866  0.84362246  1
  O  O289  1  0.63630144  0.24597517  0.07960973  1
  O  O290  1  0.65545280  0.23986741  0.39487803  1
  O  O291  1  0.61165888  0.24819530  0.59406730  1
  O  O292  1  0.66130754  0.25147657  0.88837093  1
  O  O293  1  0.59864818  0.48187377  0.13086722  1
  O  O294  1  0.59049984  0.49447586  0.40058481  1
  O  O295  1  0.60762402  0.49154008  0.60640946  1
  O  O296  1  0.60718126  0.49343427  0.84693781  1
  O  O297  1  0.64270826  0.74134570  0.10832037  1
  O  O298  1  0.63086682  0.74867868  0.37028877  1
  O  O299  1  0.65109174  0.75060549  0.60104935  1
  O  O300  1  0.62590473  0.74513477  0.89055775  1
  O  O301  1  0.90253981  0.00745519  0.08601289  1
  O  O302  1  0.90113447  0.01007711  0.35050680  1
  O  O303  1  0.87550478  0.01237702  0.63101098  1
  O  O304  1  0.87190437  -0.00689529  0.86858703  1
  O  O305  1  0.86711931  0.24818580  0.10584847  1
  O  O306  1  0.85708615  0.24949030  0.38336865  1
  O  O307  1  0.88301035  0.25641314  0.60447435  1
  O  O308  1  0.87280262  0.24581067  0.87112417  1
  O  O309  1  0.90177691  0.49175427  0.14027557  1
  O  O310  1  0.90326862  0.49349340  0.37334293  1
  O  O311  1  0.89782565  0.49719740  0.62829166  1
  O  O312  1  0.86537911  0.50788046  0.83092524  1
  O  O313  1  0.84484403  0.74717404  0.11434708  1
  O  O314  1  0.85101737  0.74809721  0.41059883  1
  O  O315  1  0.86289857  0.74507516  0.59193550  1
  O  O316  1  0.84498831  0.74125406  0.88009440  1
