# generated using pymatgen
data_Mg32Ti42(Bi17O64)3
_symmetry_space_group_name_H-M   'P 1'
_cell_length_a   15.97135918
_cell_length_b   15.98178301
_cell_length_c   15.96149359
_cell_angle_alpha   89.91350561
_cell_angle_beta   90.15989426
_cell_angle_gamma   90.06368084
_symmetry_Int_Tables_number   1
_chemical_formula_structural   Mg32Ti42(Bi17O64)3
_chemical_formula_sum   'Mg32 Ti42 Bi51 O192'
_cell_volume   4074.16095238
_cell_formula_units_Z   1
loop_
 _symmetry_equiv_pos_site_id
 _symmetry_equiv_pos_as_xyz
  1  'x, y, z'
loop_
 _atom_site_type_symbol
 _atom_site_label
 _atom_site_symmetry_multiplicity
 _atom_site_fract_x
 _atom_site_fract_y
 _atom_site_fract_z
 _atom_site_occupancy
  Mg  Mg0  1  0.63040197  0.86805645  0.37166533  1
  Mg  Mg1  1  0.63008807  0.86411717  0.61896938  1
  Mg  Mg2  1  0.12184586  0.86355894  0.63523790  1
  Mg  Mg3  1  0.12586937  0.12670382  0.37530185  1
  Mg  Mg4  1  0.37467664  0.86648935  0.62506576  1
  Mg  Mg5  1  0.37170846  0.86541617  0.11349220  1
  Mg  Mg6  1  0.38321295  0.12414674  0.11903533  1
  Mg  Mg7  1  0.62246104  0.12085306  0.86167533  1
  Mg  Mg8  1  0.14587236  0.37117040  0.88067463  1
  Mg  Mg9  1  0.86929767  0.12204692  0.36742204  1
  Mg  Mg10  1  0.87034143  0.37376755  0.88016837  1
  Mg  Mg11  1  0.12246238  0.62230988  0.37330227  1
  Mg  Mg12  1  0.37895260  0.11433843  0.37550556  1
  Mg  Mg13  1  0.37315917  0.11396240  0.61699566  1
  Mg  Mg14  1  0.12442678  0.37659192  0.37463590  1
  Mg  Mg15  1  0.13163224  0.89267470  0.88162351  1
  Mg  Mg16  1  0.89024838  0.85838058  0.38684224  1
  Mg  Mg17  1  0.12880714  0.87356686  0.37195409  1
  Mg  Mg18  1  0.87101378  0.63472580  0.12719473  1
  Mg  Mg19  1  0.53131403  0.20062751  0.48654837  1
  Mg  Mg20  1  0.74207899  0.44042169  0.51684527  1
  Mg  Mg21  1  0.45787721  0.49755651  0.72287120  1
  Mg  Mg22  1  0.21330445  0.51796921  0.81079587  1
  Mg  Mg23  1  0.29920185  0.50454383  -0.03052575  1
  Mg  Mg24  1  0.79391596  0.77763364  0.24123067  1
  Mg  Mg25  1  0.75099601  0.74882210  0.43914436  1
  Mg  Mg26  1  0.77430516  -0.04945596  0.29116832  1
  Mg  Mg27  1  0.74161050  0.44256881  0.00092671  1
  Mg  Mg28  1  -0.03682816  0.81353350  0.79044412  1
  Mg  Mg29  1  0.02410037  0.78103277  0.48950937  1
  Mg  Mg30  1  0.16010136  0.06210673  0.04290075  1
  Mg  Mg31  1  0.78124300  0.26409539  0.69619768  1
  Ti  Ti32  1  0.86821506  0.14485336  0.85454073  1
  Ti  Ti33  1  0.88197287  0.13197885  0.62311084  1
  Ti  Ti34  1  0.38087788  0.37981425  0.86143787  1
  Ti  Ti35  1  0.62368895  0.37003064  0.37841179  1
  Ti  Ti36  1  0.13047753  0.38298159  0.61837223  1
  Ti  Ti37  1  0.37575461  0.61695920  0.13418872  1
  Ti  Ti38  1  0.89021607  0.87220996  0.12319506  1
  Ti  Ti39  1  0.63194429  0.62397938  0.37300972  1
  Ti  Ti40  1  0.63970557  0.10674197  0.36614168  1
  Ti  Ti41  1  0.36904212  0.85980850  0.87617986  1
  Ti  Ti42  1  0.87541468  0.61416515  0.61453325  1
  Ti  Ti43  1  0.13221947  0.38441658  0.13512413  1
  Ti  Ti44  1  0.37662614  0.38034202  0.12033731  1
  Ti  Ti45  1  0.62433497  0.37287032  0.86042774  1
  Ti  Ti46  1  0.61747448  0.37124420  0.62356748  1
  Ti  Ti47  1  0.62372853  0.86958523  0.86212535  1
  Ti  Ti48  1  0.36886924  0.87743455  0.37475752  1
  Ti  Ti49  1  0.63309014  0.62430415  0.86515123  1
  Ti  Ti50  1  0.63713049  0.87392147  0.13813990  1
  Ti  Ti51  1  0.63484378  0.61091261  0.61964782  1
  Ti  Ti52  1  0.12267966  0.12738778  0.61730037  1
  Ti  Ti53  1  0.87547377  0.62040940  0.88298785  1
  Ti  Ti54  1  0.86953990  0.63264590  0.37303704  1
  Ti  Ti55  1  0.62482583  0.11241935  0.12689519  1
  Ti  Ti56  1  0.62942436  0.11890358  0.62377921  1
  Ti  Ti57  1  0.87553574  0.38157395  0.12008274  1
  Ti  Ti58  1  0.38316085  0.11996235  0.86684945  1
  Ti  Ti59  1  0.87404097  0.10638604  0.12459306  1
  Ti  Ti60  1  0.36062210  0.62289222  0.61451729  1
  Ti  Ti61  1  0.88513770  0.85158539  0.61842798  1
  Ti  Ti62  1  0.86407932  0.38197510  0.36985211  1
  Ti  Ti63  1  0.12484891  0.62326512  0.13515957  1
  Ti  Ti64  1  0.13420458  0.12679808  0.86922817  1
  Ti  Ti65  1  0.62924955  0.62481411  0.12782586  1
  Ti  Ti66  1  0.38358905  0.62653624  0.85681196  1
  Ti  Ti67  1  0.10953269  0.62412391  0.61926016  1
  Ti  Ti68  1  0.37058577  0.38439575  0.61921258  1
  Ti  Ti69  1  0.37447026  0.62118090  0.37412649  1
  Ti  Ti70  1  0.38055474  0.36076215  0.38164403  1
  Ti  Ti71  1  0.88767968  0.37893727  0.61873213  1
  Ti  Ti72  1  0.62034859  0.37304842  0.13063909  1
  Ti  Ti73  1  0.13041857  0.85949488  0.11105870  1
  Bi  Bi74  1  0.27047760  0.23620186  0.23677015  1
  Bi  Bi75  1  -0.02515718  0.00409340  -0.04864163  1
  Bi  Bi76  1  0.74161750  -0.01579031  0.52063643  1
  Bi  Bi77  1  0.73863468  -0.01794085  -0.02559574  1
  Bi  Bi78  1  0.52429532  0.73808986  -0.00841009  1
  Bi  Bi79  1  0.03051946  0.72828163  -0.03542739  1
  Bi  Bi80  1  0.51267161  0.73939700  0.24192384  1
  Bi  Bi81  1  -0.00852551  0.50331289  0.47472147  1
  Bi  Bi82  1  0.02876938  -0.00166255  0.24206020  1
  Bi  Bi83  1  0.01242030  0.76728306  0.25763013  1
  Bi  Bi84  1  0.77934258  -0.02550517  0.75798434  1
  Bi  Bi85  1  0.51559152  0.49628575  -0.02631284  1
  Bi  Bi86  1  0.50589477  0.48605629  0.25215964  1
  Bi  Bi87  1  0.50228547  0.72637237  0.71530109  1
  Bi  Bi88  1  0.25017697  0.48848612  0.25840909  1
  Bi  Bi89  1  0.51226062  0.73336919  0.48921816  1
  Bi  Bi90  1  0.48832284  -0.02474136  0.73445287  1
  Bi  Bi91  1  0.48719734  -0.02964773  -0.00560124  1
  Bi  Bi92  1  0.52333888  0.23366240  -0.01401720  1
  Bi  Bi93  1  0.19360405  0.72137482  0.77499419  1
  Bi  Bi94  1  0.50526357  0.21946756  0.26081772  1
  Bi  Bi95  1  0.02587934  0.24629209  0.02376364  1
  Bi  Bi96  1  0.02909516  0.47984782  -0.00566071  1
  Bi  Bi97  1  0.26047888  0.76315494  0.25882214  1
  Bi  Bi98  1  0.23707644  0.49285412  0.48847978  1
  Bi  Bi99  1  0.48188661  -0.03024427  0.23733971  1
  Bi  Bi100  1  0.02025142  0.22334102  0.23779853  1
  Bi  Bi101  1  0.75148386  0.50411544  0.22868764  1
  Bi  Bi102  1  0.76617047  0.23590938  0.22925839  1
  Bi  Bi103  1  0.49518522  0.22735317  0.71120534  1
  Bi  Bi104  1  0.77153981  0.73081104  0.73579110  1
  Bi  Bi105  1  0.01883921  0.50349803  0.78598578  1
  Bi  Bi106  1  0.49923671  -0.02934865  0.49603707  1
  Bi  Bi107  1  0.02727024  0.28320938  0.75884348  1
  Bi  Bi108  1  0.26136252  0.24601697  0.72131229  1
  Bi  Bi109  1  0.23354278  -0.03105173  0.51436190  1
  Bi  Bi110  1  0.22985534  0.73471060  0.48387356  1
  Bi  Bi111  1  0.50367199  0.49041147  0.49590829  1
  Bi  Bi112  1  0.78810547  0.76486408  -0.01917041  1
  Bi  Bi113  1  0.77608583  0.48861866  0.75852868  1
  Bi  Bi114  1  0.01929164  -0.00734219  0.73214359  1
  Bi  Bi115  1  0.75832543  0.21537637  -0.00838037  1
  Bi  Bi116  1  0.00647552  0.25602027  0.46637982  1
  Bi  Bi117  1  0.27606980  0.22766204  -0.00731152  1
  Bi  Bi118  1  0.25313548  -0.01424644  0.74475873  1
  Bi  Bi119  1  -0.01530122  0.01200912  0.46998746  1
  Bi  Bi120  1  0.76315514  0.22848120  0.49057915  1
  Bi  Bi121  1  -0.00614211  0.51593494  0.24653072  1
  Bi  Bi122  1  0.25085020  0.00467192  0.20708017  1
  Bi  Bi123  1  0.26673136  0.21821120  0.48657950  1
  Bi  Bi124  1  0.26445617  0.70151516  0.00806266  1
  O  O125  1  0.12918237  0.16760710  -0.01020633  1
  O  O126  1  0.10335696  0.11456621  0.25043416  1
  O  O127  1  0.13588789  0.14869913  0.50383649  1
  O  O128  1  0.12229057  0.09852477  0.75575057  1
  O  O129  1  0.11396928  0.36507376  0.00490068  1
  O  O130  1  0.12238994  0.40837617  0.24964735  1
  O  O131  1  0.13267241  0.35022362  0.50786256  1
  O  O132  1  0.11770970  0.39556630  0.74719299  1
  O  O133  1  0.12365510  0.64628264  0.01054325  1
  O  O134  1  0.13747340  0.59009879  0.24980795  1
  O  O135  1  0.09949012  0.67245183  0.50486150  1
  O  O136  1  0.14750837  0.59692722  0.73990951  1
  O  O137  1  0.13594866  0.83589582  -0.00193522  1
  O  O138  1  0.09961025  0.87608892  0.24337599  1
  O  O139  1  0.13558382  0.85506421  0.50448690  1
  O  O140  1  0.13155700  0.91919539  0.75332040  1
  O  O141  1  0.38016306  0.13561673  -0.00868629  1
  O  O142  1  0.37885431  0.15304285  0.25033125  1
  O  O143  1  0.33806160  0.10227010  0.49675166  1
  O  O144  1  0.38038663  0.14815140  0.74978052  1
  O  O145  1  0.37058439  0.40945043  0.01050445  1
  O  O146  1  0.36984314  0.33597203  0.26498121  1
  O  O147  1  0.37413301  0.39887168  0.50447916  1
  O  O148  1  0.39488618  0.37580269  0.74937366  1
  O  O149  1  0.37503462  0.59890344  0.01329122  1
  O  O150  1  0.34617723  0.64147885  0.25724654  1
  O  O151  1  0.39765963  0.61363752  0.50225173  1
  O  O152  1  0.36396911  0.64448538  0.74763053  1
  O  O153  1  0.36944141  0.89797855  -0.01068712  1
  O  O154  1  0.40084637  0.85688769  0.25176079  1
  O  O155  1  0.35764325  0.90101610  0.49695095  1
  O  O156  1  0.41265964  0.86321369  0.76120598  1
  O  O157  1  0.61913379  0.12736193  0.00630353  1
  O  O158  1  0.62633524  0.14671152  0.25084402  1
  O  O159  1  0.63980045  0.11462786  0.49297035  1
  O  O160  1  0.59790845  0.13143645  0.73633236  1
  O  O161  1  0.62064611  0.41180430  0.01456389  1
  O  O162  1  0.62123384  0.36684391  0.25775821  1
  O  O163  1  0.61779116  0.40847137  0.50031466  1
  O  O164  1  0.61965016  0.35733432  0.74730215  1
  O  O165  1  0.60482027  0.61619151  0.01175927  1
  O  O166  1  0.62856977  0.65641991  0.25937411  1
  O  O167  1  0.59670694  0.60756174  0.50444196  1
  O  O168  1  0.64002021  0.64538687  0.75158980  1
  O  O169  1  0.66374621  0.87716340  0.02026942  1
  O  O170  1  0.58909941  0.86056342  0.25170392  1
  O  O171  1  0.62917439  0.91084366  0.49344060  1
  O  O172  1  0.61590202  0.86171678  0.75025844  1
  O  O173  1  0.85495774  0.11093017  0.00718469  1
  O  O174  1  0.87540867  0.14949696  0.24327569  1
  O  O175  1  0.85116077  0.11886270  0.50683780  1
  O  O176  1  0.86602698  0.17152551  0.74271094  1
  O  O177  1  0.86137423  0.40938494  0.00868468  1
  O  O178  1  0.85503413  0.35809963  0.25711153  1
  O  O179  1  0.86579293  0.41113922  0.50669354  1
  O  O180  1  0.84865983  0.36294065  0.74061398  1
  O  O181  1  0.87063458  0.64136453  -0.00187842  1
  O  O182  1  0.85641386  0.66716053  0.26283841  1
  O  O183  1  0.88033571  0.59579733  0.50456672  1
  O  O184  1  0.84988819  0.62191544  0.75095908  1
  O  O185  1  0.84902315  0.89296825  0.01018160  1
  O  O186  1  0.89960453  0.85308122  0.24791461  1
  O  O187  1  0.92959223  0.87176188  0.51324392  1
  O  O188  1  0.85322721  0.86552708  0.73938456  1
  O  O189  1  -0.01280516  0.14285647  0.11467831  1
  O  O190  1  -0.00842802  0.13082434  0.39766235  1
  O  O191  1  -0.00424607  0.13315845  0.61830705  1
  O  O192  1  -0.00796722  0.12231496  0.87844861  1
  O  O193  1  -0.00852864  0.37903872  0.12555997  1
  O  O194  1  -0.01096047  0.38663907  0.39162010  1
  O  O195  1  0.00127271  0.37863104  0.62643242  1
  O  O196  1  -0.00290094  0.38001635  0.86202510  1
  O  O197  1  0.00230062  0.62265746  0.14906953  1
  O  O198  1  -0.00620107  0.60667472  0.36523677  1
  O  O199  1  -0.00241945  0.60782356  0.63427292  1
  O  O200  1  -0.00756607  0.61483333  0.88188880  1
  O  O201  1  -0.00102457  0.84804865  0.10442656  1
  O  O202  1  0.01184819  0.82710382  0.37742207  1
  O  O203  1  -0.00300955  0.86529279  0.67059498  1
  O  O204  1  0.00229711  0.91302912  0.85668971  1
  O  O205  1  0.25138648  0.10878652  0.11677222  1
  O  O206  1  0.25056501  0.16109125  0.36175004  1
  O  O207  1  0.24361499  0.13504207  0.63862892  1
  O  O208  1  0.25330683  0.12638539  0.87453654  1
  O  O209  1  0.24835682  0.38846505  0.14464479  1
  O  O210  1  0.25678877  0.39193290  0.37664227  1
  O  O211  1  0.25097259  0.36934326  0.63609189  1
  O  O212  1  0.26619833  0.42181275  0.87470882  1
  O  O213  1  0.24817538  0.61015463  0.11582767  1
  O  O214  1  0.25281964  0.61080672  0.40855186  1
  O  O215  1  0.24897160  0.63067658  0.59235196  1
  O  O216  1  0.26820913  0.60140497  0.89016787  1
  O  O217  1  0.24627054  0.88034114  0.13981095  1
  O  O218  1  0.25361185  0.88987021  0.35150306  1
  O  O219  1  0.24910095  0.89695283  0.63420796  1
  O  O220  1  0.25943726  0.88097622  0.84624625  1
  O  O221  1  0.50744686  0.14352099  0.13803194  1
  O  O222  1  0.51347036  0.12577201  0.37624592  1
  O  O223  1  0.50056881  0.12883635  0.59908576  1
  O  O224  1  0.49749472  0.15627806  0.87395919  1
  O  O225  1  0.49544489  0.37986754  0.14018455  1
  O  O226  1  0.49648928  0.39100159  0.37703251  1
  O  O227  1  0.49789232  0.41519843  0.62551627  1
  O  O228  1  0.50051498  0.37024830  0.89829237  1
  O  O229  1  0.49264196  0.62105238  0.15411657  1
  O  O230  1  0.49346849  0.64880165  0.36425708  1
  O  O231  1  0.50604682  0.59950310  0.65886397  1
  O  O232  1  0.50194853  0.65055428  0.87958999  1
  O  O233  1  0.50230413  0.88504365  0.10341586  1
  O  O234  1  0.49387794  0.86447099  0.40769394  1
  O  O235  1  0.50388555  0.89833713  0.61219265  1
  O  O236  1  0.50787921  0.86294895  0.90831945  1
  O  O237  1  0.74755540  0.12853794  0.13239159  1
  O  O238  1  0.74789901  0.15523470  0.36549865  1
  O  O239  1  0.73617571  0.16517652  0.63126408  1
  O  O240  1  0.74852482  0.13358828  0.87336919  1
  O  O241  1  0.74150470  0.40671613  0.12744775  1
  O  O242  1  0.74322144  0.38337477  0.39760954  1
  O  O243  1  0.73394146  0.35394731  0.61151106  1
  O  O244  1  0.73720413  0.39721392  0.88315449  1
  O  O245  1  0.74176296  0.60836857  0.13130376  1
  O  O246  1  0.74561512  0.62794459  0.39253302  1
  O  O247  1  0.74799456  0.64643863  0.61657093  1
  O  O248  1  0.74423033  0.61641184  0.88508552  1
  O  O249  1  0.74338871  0.88469518  0.18296617  1
  O  O250  1  0.76036532  0.84239524  0.35471283  1
  O  O251  1  0.76364892  0.86731783  0.59219469  1
  O  O252  1  0.74273491  0.88583879  0.87242528  1
  O  O253  1  0.11626720  -0.01714334  0.12454691  1
  O  O254  1  0.09068205  -0.00404449  0.37970619  1
  O  O255  1  0.11149672  0.00983187  0.60581168  1
  O  O256  1  0.12223298  0.01619216  0.92867114  1
  O  O257  1  0.11335073  0.26381386  0.13951972  1
  O  O258  1  0.09532974  0.25495652  0.35894228  1
  O  O259  1  0.12587870  0.25160412  0.65789094  1
  O  O260  1  0.12982973  0.24963684  0.84523287  1
  O  O261  1  0.11468765  0.50064715  0.10125261  1
  O  O262  1  0.12344012  0.50064455  0.41082869  1
  O  O263  1  0.13007424  0.50075912  0.59430269  1
  O  O264  1  0.11454682  0.49610824  0.88625606  1
  O  O265  1  0.13972114  0.74353246  0.15342551  1
  O  O266  1  0.16080008  0.74312343  0.35604690  1
  O  O267  1  0.13158236  0.73916410  0.65771686  1
  O  O268  1  0.08287376  0.76601108  0.84053918  1
  O  O269  1  0.37695720  -0.00176607  0.14776065  1
  O  O270  1  0.39323737  -0.00740488  0.34786852  1
  O  O271  1  0.37800224  -0.00277425  0.65977306  1
  O  O272  1  0.39993172  0.00741751  0.85674625  1
  O  O273  1  0.35621494  0.26074061  0.11003436  1
  O  O274  1  0.39562564  0.25199416  0.41857601  1
  O  O275  1  0.37373532  0.26059560  0.62419076  1
  O  O276  1  0.35424086  0.26815397  0.88205041  1
  O  O277  1  0.37407253  0.49527604  0.16735997  1
  O  O278  1  0.38195067  0.50728558  0.35697214  1
  O  O279  1  0.35930210  0.50569969  0.64253050  1
  O  O280  1  0.41327912  0.51012939  0.85082614  1
  O  O281  1  0.36623273  0.73729147  0.11022410  1
  O  O282  1  0.34863461  0.75285329  0.38423759  1
  O  O283  1  0.39892335  0.74144092  0.61746844  1
  O  O284  1  0.36396742  0.74625712  0.89616233  1
  O  O285  1  0.61998575  0.00047676  0.13499708  1
  O  O286  1  0.66849217  -0.00044520  0.34558844  1
  O  O287  1  0.65638582  0.00631372  0.63039933  1
  O  O288  1  0.61644398  -0.00919510  0.88291067  1
  O  O289  1  0.63469546  0.26359450  0.11192758  1
  O  O290  1  0.60907120  0.26145600  0.40188059  1
  O  O291  1  0.58488657  0.26337323  0.59582607  1
  O  O292  1  0.62934980  0.26269018  0.90068735  1
  O  O293  1  0.61464052  0.50897387  0.16291064  1
  O  O294  1  0.61091909  0.50980335  0.35816482  1
  O  O295  1  0.65786979  0.50007644  0.63050130  1
  O  O296  1  0.60448045  0.50608243  0.86755636  1
  O  O297  1  0.61097386  0.74992851  0.12258339  1
  O  O298  1  0.62848012  0.74544565  0.41432687  1
  O  O299  1  0.59539959  0.74182714  0.61081579  1
  O  O300  1  0.63216671  0.75033155  0.90200624  1
  O  O301  1  0.88868888  -0.00416091  0.14477084  1
  O  O302  1  0.87849012  -0.01001645  0.37309882  1
  O  O303  1  0.86080428  0.01619613  0.64404067  1
  O  O304  1  0.86558437  0.01988105  0.85434230  1
  O  O305  1  0.84844150  0.26534868  0.11299961  1
  O  O306  1  0.87618182  0.26256165  0.40448484  1
  O  O307  1  0.87248209  0.26002385  0.59972910  1
  O  O308  1  0.86737797  0.25056036  0.90560750  1
  O  O309  1  0.87459760  0.50513935  0.16267938  1
  O  O310  1  0.87332298  0.50176535  0.35217340  1
  O  O311  1  0.85738700  0.49756766  0.64443121  1
  O  O312  1  0.87740998  0.50095573  0.85414865  1
  O  O313  1  0.84184735  0.76238471  0.11663189  1
  O  O314  1  0.87366046  0.73529607  0.42168213  1
  O  O315  1  0.88090654  0.73893529  0.63124057  1
  O  O316  1  0.87518680  0.74487554  0.86237584  1
