# generated using pymatgen
data_Mg32Ti42(Bi17O64)3
_symmetry_space_group_name_H-M   'P 1'
_cell_length_a   15.97818873
_cell_length_b   15.96261427
_cell_length_c   15.95057537
_cell_angle_alpha   89.95500666
_cell_angle_beta   90.11509641
_cell_angle_gamma   90.00489234
_symmetry_Int_Tables_number   1
_chemical_formula_structural   Mg32Ti42(Bi17O64)3
_chemical_formula_sum   'Mg32 Ti42 Bi51 O192'
_cell_volume   4068.24320414
_cell_formula_units_Z   1
loop_
 _symmetry_equiv_pos_site_id
 _symmetry_equiv_pos_as_xyz
  1  'x, y, z'
loop_
 _atom_site_type_symbol
 _atom_site_label
 _atom_site_symmetry_multiplicity
 _atom_site_fract_x
 _atom_site_fract_y
 _atom_site_fract_z
 _atom_site_occupancy
  Mg  Mg0  1  0.86811138  0.87221940  0.87913007  1
  Mg  Mg1  1  0.37547135  0.61748841  0.63592603  1
  Mg  Mg2  1  0.63318211  0.62462757  0.63014634  1
  Mg  Mg3  1  0.62447986  0.37481409  0.64351336  1
  Mg  Mg4  1  0.88087409  0.12126322  0.61835179  1
  Mg  Mg5  1  0.37384221  0.62494811  0.38065647  1
  Mg  Mg6  1  0.62139272  0.87872427  0.12606242  1
  Mg  Mg7  1  0.87740884  0.87519032  0.62747799  1
  Mg  Mg8  1  0.37482487  0.13134686  0.87472032  1
  Mg  Mg9  1  0.37280374  0.36434524  0.38202613  1
  Mg  Mg10  1  0.12637144  0.12854618  0.39261112  1
  Mg  Mg11  1  0.88820572  0.87516688  0.36938255  1
  Mg  Mg12  1  0.86724686  0.13709593  0.87844609  1
  Mg  Mg13  1  0.87825584  0.62594116  0.62614175  1
  Mg  Mg14  1  0.37806255  0.63093376  0.12329855  1
  Mg  Mg15  1  0.62397194  0.37541622  0.37908945  1
  Mg  Mg16  1  0.88537794  0.62960802  0.37044467  1
  Mg  Mg17  1  0.12715089  0.87880059  0.87859718  1
  Mg  Mg18  1  0.89693151  0.12517348  0.38231204  1
  Mg  Mg19  1  -0.02850245  0.49567227  0.74889003  1
  Mg  Mg20  1  -0.05927555  0.32318927  0.47473301  1
  Mg  Mg21  1  -0.00881059  -0.00490821  0.54833998  1
  Mg  Mg22  1  0.79676247  0.23588668  0.72853578  1
  Mg  Mg23  1  0.54561312  0.51152111  0.75455052  1
  Mg  Mg24  1  0.84281772  0.40477904  0.64648827  1
  Mg  Mg25  1  0.49930418  0.03383365  0.76468407  1
  Mg  Mg26  1  0.79055950  0.74939201  0.71520482  1
  Mg  Mg27  1  0.24925224  0.03825802  -0.02830200  1
  Mg  Mg28  1  0.04724037  0.48116449  -0.03894263  1
  Mg  Mg29  1  0.17797479  0.30347749  0.75992906  1
  Mg  Mg30  1  0.25849774  0.02031278  0.29783334  1
  Mg  Mg31  1  -0.01481070  0.50315298  0.54067266  1
  Ti  Ti32  1  0.11492536  0.62909121  0.88728188  1
  Ti  Ti33  1  0.12777875  0.12664429  0.86094223  1
  Ti  Ti34  1  0.88473050  0.37202097  0.11325271  1
  Ti  Ti35  1  0.12107805  0.11168939  0.62887369  1
  Ti  Ti36  1  0.87747190  0.61821685  0.87374637  1
  Ti  Ti37  1  0.11313469  0.62064273  0.63441451  1
  Ti  Ti38  1  0.36528043  0.36385802  0.62976660  1
  Ti  Ti39  1  0.37887373  0.87680108  0.62994831  1
  Ti  Ti40  1  0.62346951  0.12064588  0.12773135  1
  Ti  Ti41  1  0.88023994  0.89719183  0.12153906  1
  Ti  Ti42  1  0.12394480  0.39209652  0.61169038  1
  Ti  Ti43  1  0.89206893  0.61835868  0.12200751  1
  Ti  Ti44  1  0.37344744  0.10423221  0.11915150  1
  Ti  Ti45  1  0.37958103  0.62594277  0.87519690  1
  Ti  Ti46  1  0.63661330  0.86672627  0.37656401  1
  Ti  Ti47  1  0.13094813  0.61585815  0.37592216  1
  Ti  Ti48  1  0.37180134  0.87892138  0.37611869  1
  Ti  Ti49  1  0.12575085  0.62465204  0.12989412  1
  Ti  Ti50  1  0.12993910  0.87778459  0.37828278  1
  Ti  Ti51  1  0.13424372  0.88829699  0.12468516  1
  Ti  Ti52  1  0.86762055  0.37592471  0.86797294  1
  Ti  Ti53  1  0.63179908  0.12832312  0.38783416  1
  Ti  Ti54  1  0.37758271  0.87565872  0.13645449  1
  Ti  Ti55  1  0.63952574  0.62570596  0.87680417  1
  Ti  Ti56  1  0.62740082  0.86920850  0.87222315  1
  Ti  Ti57  1  0.14023460  0.12464530  0.11527354  1
  Ti  Ti58  1  0.61536660  0.12298746  0.62999549  1
  Ti  Ti59  1  0.37663164  0.87579805  0.87688980  1
  Ti  Ti60  1  0.11835760  0.87348610  0.63679371  1
  Ti  Ti61  1  0.37830001  0.12426309  0.39399952  1
  Ti  Ti62  1  0.36982285  0.36808503  0.12443595  1
  Ti  Ti63  1  0.62663634  0.36814998  0.12853945  1
  Ti  Ti64  1  0.88675781  0.13380090  0.12861432  1
  Ti  Ti65  1  0.61938991  0.13662400  0.87465068  1
  Ti  Ti66  1  0.63126714  0.38749564  0.87846220  1
  Ti  Ti67  1  0.63292081  0.87020189  0.63567069  1
  Ti  Ti68  1  0.12528900  0.39145784  0.12253995  1
  Ti  Ti69  1  0.38181404  0.37658205  0.86833416  1
  Ti  Ti70  1  0.61712512  0.63136919  0.12576545  1
  Ti  Ti71  1  0.62888455  0.61924283  0.37937615  1
  Ti  Ti72  1  0.13743372  0.36490726  0.38247195  1
  Ti  Ti73  1  0.37961220  0.11753982  0.63066352  1
  Bi  Bi74  1  0.50682700  0.49791500  0.53427557  1
  Bi  Bi75  1  -0.00830147  0.28210719  0.70077249  1
  Bi  Bi76  1  -0.02538298  0.75966233  0.75801835  1
  Bi  Bi77  1  0.49485624  0.74454929  0.52556165  1
  Bi  Bi78  1  0.77253163  0.76907498  0.24896295  1
  Bi  Bi79  1  0.49205621  0.72758404  0.27666844  1
  Bi  Bi80  1  0.51888538  0.26690944  0.51332157  1
  Bi  Bi81  1  0.80027638  -0.00604113  0.48881041  1
  Bi  Bi82  1  0.23285908  0.23124385  0.54022445  1
  Bi  Bi83  1  0.24933320  0.72821450  0.53438687  1
  Bi  Bi84  1  0.01939604  0.01388948  -0.01771378  1
  Bi  Bi85  1  0.02926005  0.24803713  0.25015498  1
  Bi  Bi86  1  0.74570803  0.02286407  0.72745277  1
  Bi  Bi87  1  -0.03750389  0.01602457  0.76157077  1
  Bi  Bi88  1  0.51455935  0.49620309  0.25420785  1
  Bi  Bi89  1  0.04037978  0.01503242  0.26196248  1
  Bi  Bi90  1  0.27017120  0.51277069  0.01889481  1
  Bi  Bi91  1  0.23918631  0.75721281  0.77432811  1
  Bi  Bi92  1  0.50813698  0.25299294  0.28174451  1
  Bi  Bi93  1  0.50843423  0.48685343  0.01401307  1
  Bi  Bi94  1  0.75279292  0.00395146  -0.02482141  1
  Bi  Bi95  1  0.75551549  0.26890647  0.53739234  1
  Bi  Bi96  1  0.25629266  0.73607857  0.25787410  1
  Bi  Bi97  1  0.78099509  0.49105339  0.46119245  1
  Bi  Bi98  1  0.76419038  0.23815392  0.01737236  1
  Bi  Bi99  1  0.51386513  0.00007788  -0.02109453  1
  Bi  Bi100  1  0.75838954  0.76735384  0.02143487  1
  Bi  Bi101  1  0.52989002  -0.00029284  0.25973472  1
  Bi  Bi102  1  -0.00212997  0.78035841  -0.00546301  1
  Bi  Bi103  1  0.24389410  0.76710377  0.02015274  1
  Bi  Bi104  1  0.26339736  0.22110194  0.25849073  1
  Bi  Bi105  1  0.50448154  0.71811066  0.76597286  1
  Bi  Bi106  1  -0.01319902  0.74216272  0.51068722  1
  Bi  Bi107  1  0.01947130  0.27251013  -0.02788270  1
  Bi  Bi108  1  0.28073777  0.49596475  0.50138249  1
  Bi  Bi109  1  0.75662705  0.51793073  0.01216099  1
  Bi  Bi110  1  0.50146007  0.27056337  0.76039581  1
  Bi  Bi111  1  0.77399830  0.50448823  0.23740449  1
  Bi  Bi112  1  0.76965553  0.01976608  0.26899573  1
  Bi  Bi113  1  0.26682213  0.00205645  0.76280534  1
  Bi  Bi114  1  0.24532713  0.27431754  -0.04091659  1
  Bi  Bi115  1  0.24997839  -0.02552284  0.51486919  1
  Bi  Bi116  1  0.51812722  -0.02586827  0.49599967  1
  Bi  Bi117  1  0.74795103  0.73582328  0.51452809  1
  Bi  Bi118  1  0.27925716  0.48981633  0.26288812  1
  Bi  Bi119  1  0.49154185  0.23123115  0.01918997  1
  Bi  Bi120  1  0.79532806  0.28411714  0.29315290  1
  Bi  Bi121  1  0.01590079  0.74767169  0.26905895  1
  Bi  Bi122  1  -0.00446142  0.47259903  0.30051396  1
  Bi  Bi123  1  0.50209473  0.76333513  0.01469464  1
  Bi  Bi124  1  0.23475609  0.49634218  0.78890944  1
  O  O125  1  0.09949258  0.14172666  0.00084146  1
  O  O126  1  0.15616145  0.08660690  0.23471567  1
  O  O127  1  0.12193767  0.15063237  0.51535583  1
  O  O128  1  0.13728751  0.09574866  0.75108420  1
  O  O129  1  0.13146096  0.34628538  0.00461715  1
  O  O130  1  0.09646727  0.39169389  0.23764081  1
  O  O131  1  0.15859162  0.35442104  0.49493231  1
  O  O132  1  0.08956913  0.39264555  0.72529798  1
  O  O133  1  0.14325897  0.65051263  -0.00460596  1
  O  O134  1  0.10462969  0.60758669  0.24072919  1
  O  O135  1  0.15379584  0.63945997  0.48577770  1
  O  O136  1  0.07669108  0.58958481  0.73613771  1
  O  O137  1  0.12426405  0.84706806  0.00531815  1
  O  O138  1  0.13179995  0.89690552  0.23895367  1
  O  O139  1  0.13207537  0.86040484  0.49087238  1
  O  O140  1  0.13854720  0.88846263  0.74788854  1
  O  O141  1  0.38710498  0.13710614  0.00184564  1
  O  O142  1  0.33793684  0.10198611  0.23332166  1
  O  O143  1  0.38811830  0.14037958  0.50563808  1
  O  O144  1  0.37610770  0.09009893  0.75005021  1
  O  O145  1  0.33636663  0.37345106  -0.00373312  1
  O  O146  1  0.38771247  0.39947044  0.23973933  1
  O  O147  1  0.34384026  0.36183059  0.50883968  1
  O  O148  1  0.40024135  0.38145432  0.74939746  1
  O  O149  1  0.34738625  0.63496331  -0.01198261  1
  O  O150  1  0.40024043  0.62489518  0.25124971  1
  O  O151  1  0.33964210  0.62797144  0.50276674  1
  O  O152  1  0.42479763  0.60252125  0.75214896  1
  O  O153  1  0.38980177  0.85091171  -0.01062933  1
  O  O154  1  0.37590671  0.89546038  0.24696886  1
  O  O155  1  0.36008923  0.86951225  0.49390414  1
  O  O156  1  0.35867834  0.89235916  0.74448985  1
  O  O157  1  0.59224661  0.13059598  0.00175532  1
  O  O158  1  0.62654254  0.10424001  0.24828127  1
  O  O159  1  0.61570007  0.13591721  0.50705816  1
  O  O160  1  0.61760199  0.10308631  0.75874762  1
  O  O161  1  0.62706530  0.39065314  0.00223140  1
  O  O162  1  0.59293437  0.37708036  0.24614803  1
  O  O163  1  0.63583275  0.34584705  0.50960994  1
  O  O164  1  0.58337658  0.38320927  0.76346416  1
  O  O165  1  0.64326176  0.61149881  0.00030100  1
  O  O166  1  0.59535588  0.62532518  0.24753153  1
  O  O167  1  0.65464542  0.62658291  0.49252804  1
  O  O168  1  0.60658027  0.62485679  0.75685630  1
  O  O169  1  0.58995476  0.87305443  -0.00644504  1
  O  O170  1  0.62609325  0.89672884  0.25654139  1
  O  O171  1  0.61785580  0.87645862  0.50022123  1
  O  O172  1  0.63101864  0.87937489  0.75307097  1
  O  O173  1  0.87820898  0.15721011  0.00569010  1
  O  O174  1  0.85002739  0.12814883  0.24354394  1
  O  O175  1  0.90551599  0.08154802  0.50175122  1
  O  O176  1  0.86293641  0.11513094  0.75246713  1
  O  O177  1  0.84706527  0.35759383  -0.00200075  1
  O  O178  1  0.88577999  0.38229790  0.24220116  1
  O  O179  1  0.83801777  0.37982175  0.52175723  1
  O  O180  1  0.90923534  0.38097379  0.74942445  1
  O  O181  1  0.85130127  0.61940817  0.00069811  1
  O  O182  1  0.88498797  0.59210749  0.24103750  1
  O  O183  1  0.86518612  0.66767952  0.49049245  1
  O  O184  1  0.88223212  0.65383575  0.75572624  1
  O  O185  1  0.87529203  0.85156944  0.00816957  1
  O  O186  1  0.84875081  0.88510087  0.23527563  1
  O  O187  1  0.89729578  0.89745592  0.49899070  1
  O  O188  1  0.86535576  0.84720771  0.75591147  1
  O  O189  1  -0.00169566  0.13721229  0.14880578  1
  O  O190  1  0.01289394  0.13427995  0.33509743  1
  O  O191  1  0.00423766  0.09419259  0.64484309  1
  O  O192  1  0.00117192  0.10263731  0.86441370  1
  O  O193  1  -0.00379642  0.35202389  0.09986992  1
  O  O194  1  0.01417320  0.36294634  0.38235925  1
  O  O195  1  0.00993004  0.36063756  0.57945183  1
  O  O196  1  -0.01718878  0.38879818  0.90682206  1
  O  O197  1  -0.00049273  0.64076943  0.10928230  1
  O  O198  1  0.01351823  0.65600681  0.37654527  1
  O  O199  1  0.00827429  0.62412633  0.57420281  1
  O  O200  1  0.00412114  0.59628804  0.90476509  1
  O  O201  1  -0.00620484  0.86232079  0.12351934  1
  O  O202  1  0.01151856  0.85823192  0.35301270  1
  O  O203  1  0.00509379  0.90213415  0.63478027  1
  O  O204  1  0.00063572  0.88949373  0.89791547  1
  O  O205  1  0.24737101  0.10231458  0.08099350  1
  O  O206  1  0.25566975  0.12303859  0.38080826  1
  O  O207  1  0.25418094  0.11396518  0.62125539  1
  O  O208  1  0.24454280  0.13250060  0.88397894  1
  O  O209  1  0.24142820  0.40472249  0.13621986  1
  O  O210  1  0.24727967  0.37705501  0.34000901  1
  O  O211  1  0.24488596  0.37683561  0.65107334  1
  O  O212  1  0.25061260  0.35869196  0.84526018  1
  O  O213  1  0.24335043  0.59834873  0.13363223  1
  O  O214  1  0.24721022  0.62080433  0.33961914  1
  O  O215  1  0.23622644  0.63433366  0.64141786  1
  O  O216  1  0.24650519  0.63241025  0.83701007  1
  O  O217  1  0.25030652  0.88783270  0.10527602  1
  O  O218  1  0.25080224  0.90517467  0.36265322  1
  O  O219  1  0.24621786  0.87658004  0.61565587  1
  O  O220  1  0.25188709  0.84500455  0.87996367  1
  O  O221  1  0.48601061  0.14789801  0.13616274  1
  O  O222  1  0.49978582  0.13426052  0.36252240  1
  O  O223  1  0.49845366  0.08888646  0.64161364  1
  O  O224  1  0.49976192  0.10281961  0.86929398  1
  O  O225  1  0.48544025  0.36743693  0.09544078  1
  O  O226  1  0.49898300  0.34421400  0.39119274  1
  O  O227  1  0.49001464  0.37038141  0.60024771  1
  O  O228  1  0.48920838  0.39082016  0.90518935  1
  O  O229  1  0.50340689  0.64182018  0.10076139  1
  O  O230  1  0.50230998  0.65187670  0.39340472  1
  O  O231  1  0.49764534  0.62492585  0.58842054  1
  O  O232  1  0.49389248  0.63557303  0.89367082  1
  O  O233  1  0.49304898  0.84195336  0.13040253  1
  O  O234  1  0.49440445  0.87967719  0.38594004  1
  O  O235  1  0.49544077  0.88820769  0.61596937  1
  O  O236  1  0.49010637  0.91554415  0.85457238  1
  O  O237  1  0.73611212  0.11856703  0.10397732  1
  O  O238  1  0.74458848  0.10629767  0.38311540  1
  O  O239  1  0.73734626  0.14046258  0.64721460  1
  O  O240  1  0.73657934  0.13280351  0.90482679  1
  O  O241  1  0.73822166  0.38443326  0.14097729  1
  O  O242  1  0.74813848  0.39937296  0.36339162  1
  O  O243  1  0.74114043  0.33275387  0.66120571  1
  O  O244  1  0.74266876  0.38877191  0.86596407  1
  O  O245  1  0.73811375  0.59085984  0.13316347  1
  O  O246  1  0.74715699  0.59961972  0.35010084  1
  O  O247  1  0.75435249  0.66279409  0.63072075  1
  O  O248  1  0.75174354  0.63240937  0.86888486  1
  O  O249  1  0.74888381  0.87994886  0.10031955  1
  O  O250  1  0.75067060  0.87316381  0.38289295  1
  O  O251  1  0.74578317  0.84040927  0.62761955  1
  O  O252  1  0.73954473  0.86716093  0.90434703  1
  O  O253  1  0.10418318  -0.00028958  0.09965254  1
  O  O254  1  0.11258732  -0.00069705  0.38006007  1
  O  O255  1  0.12854389  -0.00227396  0.59315194  1
  O  O256  1  0.13950898  0.00485296  0.91187339  1
  O  O257  1  0.13656139  0.23863849  0.15276959  1
  O  O258  1  0.13506061  0.25164349  0.34624168  1
  O  O259  1  0.14248280  0.24285887  0.65068818  1
  O  O260  1  0.11170226  0.24352572  0.85532070  1
  O  O261  1  0.10088990  0.49716450  0.08117403  1
  O  O262  1  0.11963463  0.49821589  0.38073419  1
  O  O263  1  0.11473651  0.50232523  0.58721263  1
  O  O264  1  0.14607493  0.50904745  0.88916567  1
  O  O265  1  0.14929194  0.74285241  0.13920017  1
  O  O266  1  0.14392998  0.75542421  0.34113442  1
  O  O267  1  0.10951685  0.75058418  0.63075857  1
  O  O268  1  0.11535841  0.74127198  0.84533038  1
  O  O269  1  0.39503446  -0.00643511  0.10313905  1
  O  O270  1  0.37960844  0.00767564  0.38193291  1
  O  O271  1  0.36238359  -0.00329756  0.60174754  1
  O  O272  1  0.33477818  -0.00993739  0.88970307  1
  O  O273  1  0.35055215  0.25656845  0.13704511  1
  O  O274  1  0.37314463  0.24074580  0.34444897  1
  O  O275  1  0.37882049  0.24220857  0.64257793  1
  O  O276  1  0.38711908  0.25826926  0.87298396  1
  O  O277  1  0.38431780  0.50191107  0.09614224  1
  O  O278  1  0.36410490  0.49543356  0.38860689  1
  O  O279  1  0.37779796  0.49248461  0.60342789  1
  O  O280  1  0.34542095  0.50196680  0.87667326  1
  O  O281  1  0.34863205  0.75608186  0.13087187  1
  O  O282  1  0.36433633  0.76020080  0.35469532  1
  O  O283  1  0.38308936  0.75418298  0.62272198  1
  O  O284  1  0.37720759  0.74776348  0.84203404  1
  O  O285  1  0.59114434  0.00553493  0.12008454  1
  O  O286  1  0.60706983  0.00287984  0.38461183  1
  O  O287  1  0.64676840  -0.00453839  0.62269958  1
  O  O288  1  0.63419987  -0.00101685  0.89785916  1
  O  O289  1  0.61906554  0.25083485  0.12118394  1
  O  O290  1  0.63488575  0.24223767  0.35539761  1
  O  O291  1  0.58796886  0.23755141  0.64466157  1
  O  O292  1  0.60590493  0.25328844  0.86853351  1
  O  O293  1  0.59243007  0.49744395  0.13289638  1
  O  O294  1  0.59713311  0.50493220  0.37407889  1
  O  O295  1  0.59928401  0.49981361  0.63498402  1
  O  O296  1  0.61407811  0.50641264  0.86857342  1
  O  O297  1  0.64360873  0.74509752  0.11813933  1
  O  O298  1  0.63134640  0.75141914  0.36228736  1
  O  O299  1  0.59687300  0.75465000  0.62323435  1
  O  O300  1  0.60966438  0.75126893  0.87485559  1
  O  O301  1  0.88330492  0.01062312  0.10817150  1
  O  O302  1  0.86917141  0.00014035  0.36051819  1
  O  O303  1  0.84660156  -0.00343788  0.63499413  1
  O  O304  1  0.85482297  0.00158324  0.88206641  1
  O  O305  1  0.85042668  0.25369860  0.13383990  1
  O  O306  1  0.86833574  0.24799701  0.40170570  1
  O  O307  1  0.87905077  0.24490544  0.62631073  1
  O  O308  1  0.85678091  0.26147591  0.84424932  1
  O  O309  1  0.87110592  0.49256216  0.10777656  1
  O  O310  1  0.91223771  0.50970906  0.42665967  1
  O  O311  1  0.90727087  0.50783648  0.63749480  1
  O  O312  1  0.87689699  0.50567450  0.84757286  1
  O  O313  1  0.84723354  0.73204803  0.13571260  1
  O  O314  1  0.87848613  0.74994784  0.32981902  1
  O  O315  1  0.90856141  0.75333780  0.62662865  1
  O  O316  1  0.90969411  0.74169444  0.88510843  1
