# generated using pymatgen
data_Mg32Ti42(Bi17O64)3
_symmetry_space_group_name_H-M   'P 1'
_cell_length_a   15.94227437
_cell_length_b   15.96923603
_cell_length_c   15.94633902
_cell_angle_alpha   89.93903483
_cell_angle_beta   89.95275934
_cell_angle_gamma   90.01914575
_symmetry_Int_Tables_number   1
_chemical_formula_structural   Mg32Ti42(Bi17O64)3
_chemical_formula_sum   'Mg32 Ti42 Bi51 O192'
_cell_volume   4059.70984014
_cell_formula_units_Z   1
loop_
 _symmetry_equiv_pos_site_id
 _symmetry_equiv_pos_as_xyz
  1  'x, y, z'
loop_
 _atom_site_type_symbol
 _atom_site_label
 _atom_site_symmetry_multiplicity
 _atom_site_fract_x
 _atom_site_fract_y
 _atom_site_fract_z
 _atom_site_occupancy
  Mg  Mg0  1  0.87543290  0.61947361  0.37531188  1
  Mg  Mg1  1  0.37158609  0.62901443  0.11759537  1
  Mg  Mg2  1  0.12110988  0.11909170  0.12670932  1
  Mg  Mg3  1  0.88206913  0.14872342  0.61513309  1
  Mg  Mg4  1  0.63053724  0.86435354  0.61802895  1
  Mg  Mg5  1  0.38633654  0.36416338  0.62440714  1
  Mg  Mg6  1  0.62492424  0.62104531  0.87369339  1
  Mg  Mg7  1  0.88498807  0.37819546  0.38321032  1
  Mg  Mg8  1  0.37880299  0.36878418  0.13218884  1
  Mg  Mg9  1  0.61573964  0.12996403  0.61263506  1
  Mg  Mg10  1  0.62527207  0.14554193  0.13403788  1
  Mg  Mg11  1  0.87529200  0.62878243  0.62565366  1
  Mg  Mg12  1  0.11705682  0.87973328  0.61750750  1
  Mg  Mg13  1  0.12072033  0.37423099  0.11955370  1
  Mg  Mg14  1  0.87718313  0.13195943  0.87318787  1
  Mg  Mg15  1  0.87377687  0.87182841  0.37419080  1
  Mg  Mg16  1  0.11397410  0.87604558  0.87889479  1
  Mg  Mg17  1  0.87938834  0.61962348  0.12427670  1
  Mg  Mg18  1  0.62697188  0.61910198  0.12240256  1
  Mg  Mg19  1  0.25958452  -0.03329425  0.52045433  1
  Mg  Mg20  1  0.79735994  0.31898812  0.81193504  1
  Mg  Mg21  1  0.75236749  0.03675086  0.55964439  1
  Mg  Mg22  1  0.26251735  0.45193440  0.72180612  1
  Mg  Mg23  1  0.69692324  0.23144392  -0.05701957  1
  Mg  Mg24  1  0.56800044  0.29913516  0.28651698  1
  Mg  Mg25  1  -0.06270174  0.29163868  -0.02004255  1
  Mg  Mg26  1  0.00686992  0.49137389  0.51465275  1
  Mg  Mg27  1  0.74140615  0.04560864  0.22517291  1
  Mg  Mg28  1  0.25317411  0.45122510  0.03835278  1
  Mg  Mg29  1  0.02602299  0.21925971  0.50581842  1
  Mg  Mg30  1  0.27626756  -0.01463749  0.20676017  1
  Mg  Mg31  1  0.74657217  0.11865689  0.74792813  1
  Ti  Ti32  1  0.36957661  0.37505816  0.87026581  1
  Ti  Ti33  1  0.63296242  0.87423630  0.11936464  1
  Ti  Ti34  1  0.36457490  0.10665999  0.87247782  1
  Ti  Ti35  1  0.87067790  0.13594217  0.11735375  1
  Ti  Ti36  1  0.13172724  0.61095490  0.62779088  1
  Ti  Ti37  1  0.12438622  0.88973766  0.37483074  1
  Ti  Ti38  1  0.63956112  0.87020277  0.37251812  1
  Ti  Ti39  1  0.12494000  0.13290470  0.87255122  1
  Ti  Ti40  1  0.88702819  0.36561842  0.60054117  1
  Ti  Ti41  1  0.37633935  0.11281316  0.62030592  1
  Ti  Ti42  1  0.11756992  0.12041255  0.37578193  1
  Ti  Ti43  1  0.62144417  0.62714339  0.37053824  1
  Ti  Ti44  1  0.12815981  0.61634897  0.37426722  1
  Ti  Ti45  1  0.12801479  0.61291364  0.11574139  1
  Ti  Ti46  1  0.36249859  0.89677192  0.37179534  1
  Ti  Ti47  1  0.61683286  0.62838918  0.62735394  1
  Ti  Ti48  1  0.37027209  0.62316378  0.87721243  1
  Ti  Ti49  1  0.86643124  0.87812234  0.11795488  1
  Ti  Ti50  1  0.61603236  0.38073591  0.86392973  1
  Ti  Ti51  1  0.36729645  0.37228758  0.37253167  1
  Ti  Ti52  1  0.12621681  0.61831717  0.86721461  1
  Ti  Ti53  1  0.37615245  0.86616290  0.86430867  1
  Ti  Ti54  1  0.11749805  0.88596164  0.12764818  1
  Ti  Ti55  1  0.37991441  0.86792098  0.12185792  1
  Ti  Ti56  1  0.12152902  0.37356716  0.37575157  1
  Ti  Ti57  1  0.13558260  0.37712727  0.88002138  1
  Ti  Ti58  1  0.35742114  0.12070271  0.36486312  1
  Ti  Ti59  1  0.86664152  0.87604297  0.61293471  1
  Ti  Ti60  1  0.62904798  0.86550315  0.87615708  1
  Ti  Ti61  1  0.87527194  0.63288009  0.86852574  1
  Ti  Ti62  1  0.87503221  0.88131555  0.88096419  1
  Ti  Ti63  1  0.12673429  0.11166561  0.62447008  1
  Ti  Ti64  1  0.37007944  0.62624326  0.37535799  1
  Ti  Ti65  1  0.86993565  0.38532935  0.13132071  1
  Ti  Ti66  1  0.62242414  0.37631510  0.62691119  1
  Ti  Ti67  1  0.11724331  0.36676306  0.63155732  1
  Ti  Ti68  1  0.36722527  0.62825359  0.62314720  1
  Ti  Ti69  1  0.61827921  0.11572528  0.37253599  1
  Ti  Ti70  1  0.86591034  0.12128845  0.37725069  1
  Ti  Ti71  1  0.38304525  0.11786763  0.12358502  1
  Ti  Ti72  1  0.37777151  0.86927338  0.62755738  1
  Ti  Ti73  1  0.62378043  0.36582609  0.11968853  1
  Bi  Bi74  1  0.50181881  0.73869410  0.75010708  1
  Bi  Bi75  1  0.53056829  -0.00047892  0.23472307  1
  Bi  Bi76  1  0.51570213  0.74638240  0.23884928  1
  Bi  Bi77  1  0.75816285  0.71760863  0.00634052  1
  Bi  Bi78  1  0.55926052  -0.00548842  0.74086714  1
  Bi  Bi79  1  0.27517365  0.24172516  0.73191900  1
  Bi  Bi80  1  -0.01565790  0.49610117  0.25302996  1
  Bi  Bi81  1  0.23572217  0.48691065  0.49574022  1
  Bi  Bi82  1  0.23490060  0.74199107  -0.02056114  1
  Bi  Bi83  1  -0.03092969  -0.00091385  0.48285245  1
  Bi  Bi84  1  0.51298424  0.20947815  0.76680205  1
  Bi  Bi85  1  0.75978596  0.25964382  0.28746181  1
  Bi  Bi86  1  0.76666995  0.73898564  0.24615286  1
  Bi  Bi87  1  0.48870485  -0.02628381  -0.00612380  1
  Bi  Bi88  1  0.72957372  0.24172143  0.51613408  1
  Bi  Bi89  1  -0.02833564  0.00756629  0.23556961  1
  Bi  Bi90  1  0.22635131  0.00462290  -0.00513062  1
  Bi  Bi91  1  0.73403467  0.03259053  -0.05190406  1
  Bi  Bi92  1  0.22139386  0.75663907  0.23367139  1
  Bi  Bi93  1  -0.04603167  0.01716842  0.73267957  1
  Bi  Bi94  1  0.74736907  0.46959125  -0.00787672  1
  Bi  Bi95  1  0.49968423  0.47797401  0.25801602  1
  Bi  Bi96  1  0.28252459  0.24422168  0.01632115  1
  Bi  Bi97  1  0.50330012  0.49395372  0.01621551  1
  Bi  Bi98  1  0.23948078  0.76692752  0.48725539  1
  Bi  Bi99  1  0.74143207  0.47901289  0.27400602  1
  Bi  Bi100  1  0.47546244  0.23978954  0.47450617  1
  Bi  Bi101  1  -0.01958570  0.75304913  0.24455056  1
  Bi  Bi102  1  0.48507014  0.49776997  0.49644293  1
  Bi  Bi103  1  0.51199967  0.22000962  -0.01758329  1
  Bi  Bi104  1  0.72974141  0.48340714  0.49715714  1
  Bi  Bi105  1  0.74753371  0.51377552  0.73922294  1
  Bi  Bi106  1  0.74721220  0.76738770  0.74679496  1
  Bi  Bi107  1  0.21717742  0.76045991  0.73270786  1
  Bi  Bi108  1  -0.01123422  0.77136075  0.72640048  1
  Bi  Bi109  1  -0.01348999  0.27333717  0.78294653  1
  Bi  Bi110  1  0.46597881  0.49743166  0.74561204  1
  Bi  Bi111  1  0.22358633  0.24849947  0.22393307  1
  Bi  Bi112  1  0.50931762  0.71800043  -0.00638146  1
  Bi  Bi113  1  -0.01651813  0.49017422  -0.03839579  1
  Bi  Bi114  1  0.23467889  0.23476314  0.49720407  1
  Bi  Bi115  1  0.00162517  0.72883115  -0.00439929  1
  Bi  Bi116  1  0.48975589  0.76979818  0.47946863  1
  Bi  Bi117  1  0.53530565  -0.01445181  0.50137504  1
  Bi  Bi118  1  -0.00115272  0.25725812  0.22534057  1
  Bi  Bi119  1  -0.00602744  0.02335163  -0.00667353  1
  Bi  Bi120  1  -0.01767071  0.50648534  0.72888444  1
  Bi  Bi121  1  0.75261416  0.71802139  0.50304916  1
  Bi  Bi122  1  0.22415528  -0.01089357  0.75254492  1
  Bi  Bi123  1  -0.00055947  0.71906430  0.48492290  1
  Bi  Bi124  1  0.26778876  0.51554183  0.22944900  1
  O  O125  1  0.11922989  0.09848690  -0.00224209  1
  O  O126  1  0.10893576  0.14718320  0.26453820  1
  O  O127  1  0.13401066  0.12896097  0.50597893  1
  O  O128  1  0.13687512  0.11057771  0.75121579  1
  O  O129  1  0.15430562  0.38602282  -0.00798443  1
  O  O130  1  0.14329271  0.35856630  0.26222078  1
  O  O131  1  0.11581424  0.41413562  0.50867541  1
  O  O132  1  0.09855016  0.36653347  0.74904336  1
  O  O133  1  0.14728375  0.62450242  0.00304529  1
  O  O134  1  0.11127771  0.62744331  0.26135488  1
  O  O135  1  0.15413936  0.60633846  0.51238670  1
  O  O136  1  0.10948433  0.63517989  0.75565649  1
  O  O137  1  0.13654104  0.89326865  0.01026808  1
  O  O138  1  0.12000380  0.86315304  0.25730176  1
  O  O139  1  0.16191149  0.88472915  0.49507342  1
  O  O140  1  0.13572778  0.87924781  0.75020670  1
  O  O141  1  0.38047118  0.12629976  -0.00077951  1
  O  O142  1  0.35381031  0.09952460  0.25221178  1
  O  O143  1  0.36828241  0.15142091  0.50356747  1
  O  O144  1  0.35904050  0.11515572  0.75197317  1
  O  O145  1  0.35329585  0.38468148  -0.01241017  1
  O  O146  1  0.36222820  0.39861021  0.25738883  1
  O  O147  1  0.40131822  0.35590665  0.49972284  1
  O  O148  1  0.37417908  0.38944911  0.74729199  1
  O  O149  1  0.35374234  0.65340176  -0.00852142  1
  O  O150  1  0.38405103  0.60151915  0.26006522  1
  O  O151  1  0.37054924  0.62581843  0.50664669  1
  O  O152  1  0.40358255  0.63411324  0.74957078  1
  O  O153  1  0.38983796  0.86910353  0.00371228  1
  O  O154  1  0.37288597  0.90947759  0.25768015  1
  O  O155  1  0.34801690  0.86410347  0.50235230  1
  O  O156  1  0.37766324  0.88267202  0.74755778  1
  O  O157  1  0.62825053  0.15193050  0.00914828  1
  O  O158  1  0.62124865  0.10909829  0.25461237  1
  O  O159  1  0.65272962  0.10643655  0.49102170  1
  O  O160  1  0.61889734  0.12528819  0.73828637  1
  O  O161  1  0.59371247  0.34288964  0.00571723  1
  O  O162  1  0.62325160  0.40592132  0.24109063  1
  O  O163  1  0.61464853  0.41069232  0.51251455  1
  O  O164  1  0.67249827  0.37684517  0.75458494  1
  O  O165  1  0.63929727  0.64927989  -0.00268780  1
  O  O166  1  0.60414705  0.62757288  0.25273080  1
  O  O167  1  0.65343411  0.61694937  0.50334093  1
  O  O168  1  0.60148401  0.62463113  0.74751576  1
  O  O169  1  0.61581657  0.89251132  0.00191324  1
  O  O170  1  0.60377837  0.85858986  0.25333326  1
  O  O171  1  0.61806114  0.87191002  0.49256795  1
  O  O172  1  0.62484741  0.86047628  0.74956326  1
  O  O173  1  0.87117372  0.10273652  0.00372796  1
  O  O174  1  0.90607595  0.13597165  0.25040705  1
  O  O175  1  0.85434297  0.09194362  0.49566332  1
  O  O176  1  0.87655595  0.13427175  0.74300824  1
  O  O177  1  0.88467864  0.39753324  0.01396701  1
  O  O178  1  0.86769011  0.33904249  0.24325490  1
  O  O179  1  0.89824583  0.42463207  0.49993256  1
  O  O180  1  0.88256156  0.34892095  0.72899999  1
  O  O181  1  0.86004914  0.61570403  -0.00245615  1
  O  O182  1  0.88242099  0.65545523  0.24855685  1
  O  O183  1  0.85560349  0.62909890  0.50083442  1
  O  O184  1  0.90737061  0.64487176  0.75406013  1
  O  O185  1  0.86844296  0.90025732  0.00465295  1
  O  O186  1  0.88518159  0.85167731  0.24737173  1
  O  O187  1  0.86961335  0.89337587  0.50069964  1
  O  O188  1  0.86533909  0.84707777  0.75917069  1
  O  O189  1  -0.00566082  0.09032299  0.11925484  1
  O  O190  1  0.00098970  0.12791927  0.41015614  1
  O  O191  1  0.00539734  0.09999350  0.62415864  1
  O  O192  1  0.00501874  0.10755414  0.87573614  1
  O  O193  1  -0.00270255  0.38918935  0.15320533  1
  O  O194  1  0.00811018  0.39534522  0.35267002  1
  O  O195  1  0.00176586  0.41339244  0.62414009  1
  O  O196  1  0.00930683  0.36409226  0.89646822  1
  O  O197  1  0.01040180  0.61299333  0.11005332  1
  O  O198  1  0.01296890  0.59398816  0.41549536  1
  O  O199  1  0.01176409  0.58581437  0.61071514  1
  O  O200  1  0.00444130  0.62419507  0.90242014  1
  O  O201  1  0.00271520  0.90533602  0.12449628  1
  O  O202  1  0.01359834  0.88818063  0.39825791  1
  O  O203  1  -0.00952291  0.89608515  0.64083745  1
  O  O204  1  -0.01224139  0.89976141  0.87260202  1
  O  O205  1  0.25072202  0.14867332  0.11765832  1
  O  O206  1  0.24360337  0.15281273  0.37970591  1
  O  O207  1  0.24430417  0.15488436  0.62741522  1
  O  O208  1  0.25016226  0.13355791  0.89222401  1
  O  O209  1  0.25145886  0.34291862  0.12249321  1
  O  O210  1  0.25243920  0.36168334  0.40598901  1
  O  O211  1  0.24261227  0.35384260  0.63837814  1
  O  O212  1  0.24662335  0.38358713  0.83987738  1
  O  O213  1  0.24619095  0.64140819  0.15181828  1
  O  O214  1  0.25444624  0.64107165  0.37170387  1
  O  O215  1  0.25521402  0.65326638  0.64172313  1
  O  O216  1  0.24685430  0.64925503  0.86627083  1
  O  O217  1  0.26080839  0.86003510  0.14416327  1
  O  O218  1  0.25176845  0.84388812  0.36626525  1
  O  O219  1  0.25441778  0.84597844  0.63200831  1
  O  O220  1  0.26171209  0.84513821  0.87934693  1
  O  O221  1  0.49811690  0.09882091  0.13175234  1
  O  O222  1  0.49823158  0.11287012  0.38624481  1
  O  O223  1  0.49093220  0.10210979  0.62017366  1
  O  O224  1  0.48841819  0.12203701  0.87051646  1
  O  O225  1  0.49812386  0.40758744  0.13589340  1
  O  O226  1  0.49432624  0.37582021  0.35387226  1
  O  O227  1  0.51355613  0.39336320  0.64895832  1
  O  O228  1  0.49814503  0.39768146  0.85999092  1
  O  O229  1  0.49727113  0.60645132  0.09436252  1
  O  O230  1  0.50657163  0.59800938  0.39848771  1
  O  O231  1  0.50537192  0.58893034  0.60800273  1
  O  O232  1  0.49463767  0.60971684  0.90719398  1
  O  O233  1  0.50058851  0.90552603  0.12471242  1
  O  O234  1  0.48018760  0.88895317  0.40134773  1
  O  O235  1  0.49261221  0.89846883  0.60856826  1
  O  O236  1  0.50053164  0.90230543  0.87597445  1
  O  O237  1  0.75949641  0.14268597  0.14471257  1
  O  O238  1  0.75771046  0.10719643  0.33968011  1
  O  O239  1  0.75227776  0.15019121  0.62296862  1
  O  O240  1  0.74884506  0.14451585  0.87166245  1
  O  O241  1  0.74703785  0.37294166  0.11003851  1
  O  O242  1  0.75506334  0.37639143  0.36593252  1
  O  O243  1  0.76306508  0.35753881  0.59047793  1
  O  O244  1  0.73087759  0.34944373  0.91186116  1
  O  O245  1  0.75127938  0.65130239  0.13337472  1
  O  O246  1  0.74508082  0.66006427  0.36440358  1
  O  O247  1  0.74662307  0.65099788  0.64451299  1
  O  O248  1  0.75904128  0.64629492  0.86108660  1
  O  O249  1  0.74882982  0.84819162  0.12332279  1
  O  O250  1  0.74835758  0.84870796  0.36815280  1
  O  O251  1  0.75447938  0.83730417  0.62430782  1
  O  O252  1  0.74347379  0.84401032  0.88331583  1
  O  O253  1  0.16200934  -0.00372410  0.14728610  1
  O  O254  1  0.13500459  0.00623467  0.36731738  1
  O  O255  1  0.16040588  0.00144198  0.61959616  1
  O  O256  1  0.15541100  -0.00245604  0.87337648  1
  O  O257  1  0.11014342  0.24759438  0.13600399  1
  O  O258  1  0.10880052  0.26264168  0.41445386  1
  O  O259  1  0.09988022  0.25671177  0.60583980  1
  O  O260  1  0.12363194  0.24704000  0.87378424  1
  O  O261  1  0.15714159  0.49865380  0.12552859  1
  O  O262  1  0.16026947  0.49911782  0.37605213  1
  O  O263  1  0.16505791  0.50309266  0.65562546  1
  O  O264  1  0.11036351  0.50032368  0.86993128  1
  O  O265  1  0.12318398  0.75755749  0.12770536  1
  O  O266  1  0.11473190  0.73959976  0.40230100  1
  O  O267  1  0.10942093  0.74588874  0.63285941  1
  O  O268  1  0.11254496  0.74941229  0.89779634  1
  O  O269  1  0.35486954  0.00144321  0.11184793  1
  O  O270  1  0.33419404  0.00499013  0.40533035  1
  O  O271  1  0.34272220  0.00057916  0.60946578  1
  O  O272  1  0.35639526  -0.00599152  0.88720905  1
  O  O273  1  0.38974885  0.24242661  0.11085372  1
  O  O274  1  0.38756940  0.24428172  0.36701093  1
  O  O275  1  0.38419295  0.24095490  0.64900000  1
  O  O276  1  0.38185031  0.25859839  0.86722632  1
  O  O277  1  0.33986381  0.50044881  0.11581009  1
  O  O278  1  0.36688919  0.49312997  0.40108379  1
  O  O279  1  0.35754472  0.50732475  0.63963977  1
  O  O280  1  0.36515317  0.51061449  0.86062384  1
  O  O281  1  0.40199484  0.75689867  0.14330016  1
  O  O282  1  0.39944960  0.74049409  0.37455667  1
  O  O283  1  0.40354027  0.75210987  0.62963024  1
  O  O284  1  0.40795684  0.75313681  0.86356229  1
  O  O285  1  0.64808756  -0.01275680  0.15406246  1
  O  O286  1  0.62155238  -0.01265415  0.36909093  1
  O  O287  1  0.64184278  -0.00469967  0.62185807  1
  O  O288  1  0.64597863  -0.01136843  0.85288207  1
  O  O289  1  0.60286155  0.26375895  0.16887249  1
  O  O290  1  0.63109839  0.23577974  0.37344763  1
  O  O291  1  0.61567641  0.25967074  0.59623658  1
  O  O292  1  0.59542127  0.25713568  0.86575877  1
  O  O293  1  0.63286872  0.49344204  0.07837981  1
  O  O294  1  0.65818382  0.51459087  0.37558126  1
  O  O295  1  0.66481013  0.50001820  0.63370116  1
  O  O296  1  0.64428957  0.49290558  0.89023011  1
  O  O297  1  0.59532954  0.75615900  0.12600301  1
  O  O298  1  0.59296117  0.74830614  0.38317170  1
  O  O299  1  0.59553644  0.74001682  0.61668318  1
  O  O300  1  0.59262605  0.75236975  0.87365624  1
  O  O301  1  0.85200055  -0.00427634  0.16501338  1
  O  O302  1  0.89513438  0.00042278  0.36332152  1
  O  O303  1  0.84578573  -0.00864329  0.64293726  1
  O  O304  1  0.84151662  -0.00363591  0.86182609  1
  O  O305  1  0.91046710  0.24719650  0.09945765  1
  O  O306  1  0.85667513  0.24116617  0.38606841  1
  O  O307  1  0.91809377  0.25962321  0.56784594  1
  O  O308  1  0.88281434  0.25468458  0.87878941  1
  O  O309  1  0.86972929  0.49681960  0.15719694  1
  O  O310  1  0.87163924  0.50024967  0.33691663  1
  O  O311  1  0.85897725  0.50405312  0.66004469  1
  O  O312  1  0.88618892  0.50981560  0.86309184  1
  O  O313  1  0.90240080  0.76141864  0.11222364  1
  O  O314  1  0.91796996  0.74686345  0.38028038  1
  O  O315  1  0.90716063  0.75418749  0.61795876  1
  O  O316  1  0.89575105  0.75325718  0.90382589  1
