# generated using pymatgen
data_Mg32Ti42(Bi17O64)3
_symmetry_space_group_name_H-M   'P 1'
_cell_length_a   15.94062985
_cell_length_b   15.90649481
_cell_length_c   15.96193699
_cell_angle_alpha   89.98266226
_cell_angle_beta   89.94012635
_cell_angle_gamma   90.04364415
_symmetry_Int_Tables_number   1
_chemical_formula_structural   Mg32Ti42(Bi17O64)3
_chemical_formula_sum   'Mg32 Ti42 Bi51 O192'
_cell_volume   4047.29792708
_cell_formula_units_Z   1
loop_
 _symmetry_equiv_pos_site_id
 _symmetry_equiv_pos_as_xyz
  1  'x, y, z'
loop_
 _atom_site_type_symbol
 _atom_site_label
 _atom_site_symmetry_multiplicity
 _atom_site_fract_x
 _atom_site_fract_y
 _atom_site_fract_z
 _atom_site_occupancy
  Mg  Mg0  1  0.37478564  0.61459009  0.12085800  1
  Mg  Mg1  1  0.62645367  0.37264012  0.87380194  1
  Mg  Mg2  1  0.61521453  0.37746821  0.13706292  1
  Mg  Mg3  1  0.88747010  0.36591376  0.12142544  1
  Mg  Mg4  1  0.12258810  0.62759914  0.36088179  1
  Mg  Mg5  1  0.37526524  0.37814530  0.87897164  1
  Mg  Mg6  1  0.37160036  0.87431712  0.37359985  1
  Mg  Mg7  1  0.62523772  0.62875857  0.87962415  1
  Mg  Mg8  1  0.37215485  0.62589575  0.62035624  1
  Mg  Mg9  1  0.61850258  0.37057226  0.37631589  1
  Mg  Mg10  1  0.88364900  0.62855645  0.37420099  1
  Mg  Mg11  1  0.36692597  0.88069087  0.12216696  1
  Mg  Mg12  1  0.37645424  0.12164301  0.87663110  1
  Mg  Mg13  1  0.88811222  0.62835727  0.87323201  1
  Mg  Mg14  1  0.87059554  0.87310517  0.62357308  1
  Mg  Mg15  1  0.62508124  0.61822490  0.62632243  1
  Mg  Mg16  1  0.38591567  0.13324243  0.61485356  1
  Mg  Mg17  1  0.12736467  0.11765976  0.36724269  1
  Mg  Mg18  1  0.62201017  0.87637520  0.12167181  1
  Mg  Mg19  1  -0.01639312  0.56421872  0.02753279  1
  Mg  Mg20  1  0.23434790  0.01435631  0.21993938  1
  Mg  Mg21  1  0.53165618  0.23525530  0.22953409  1
  Mg  Mg22  1  0.01124012  0.54198302  0.19549153  1
  Mg  Mg23  1  0.31131633  0.75467853  0.23279961  1
  Mg  Mg24  1  0.23061554  0.75572257  -0.05390977  1
  Mg  Mg25  1  -0.04709784  0.72223344  0.18448564  1
  Mg  Mg26  1  0.03364283  0.05182254  0.50184883  1
  Mg  Mg27  1  0.54007400  0.50151265  0.75952786  1
  Mg  Mg28  1  0.48354176  0.24014561  0.43845180  1
  Mg  Mg29  1  0.78675226  -0.05097063  0.05391533  1
  Mg  Mg30  1  0.04222633  0.25716303  -0.02171281  1
  Mg  Mg31  1  0.23513671  0.20818620  0.23386524  1
  Ti  Ti32  1  0.88307305  0.37443328  0.88565128  1
  Ti  Ti33  1  0.86423367  0.63167654  0.62698755  1
  Ti  Ti34  1  0.36853844  0.62446480  0.37280052  1
  Ti  Ti35  1  0.37622335  0.12055973  0.36277735  1
  Ti  Ti36  1  0.12041853  0.11473805  0.12062594  1
  Ti  Ti37  1  0.38845218  0.62321110  0.87622477  1
  Ti  Ti38  1  0.87163189  0.88384876  0.87012129  1
  Ti  Ti39  1  0.13339535  0.62625961  0.63221624  1
  Ti  Ti40  1  0.11734312  0.37942660  0.10647745  1
  Ti  Ti41  1  0.88885473  0.12138444  0.37213402  1
  Ti  Ti42  1  0.37635728  0.37218107  0.13633986  1
  Ti  Ti43  1  0.13366605  0.39248783  0.87739199  1
  Ti  Ti44  1  0.63175001  0.62655321  0.12572117  1
  Ti  Ti45  1  0.63751388  0.11107650  0.11576910  1
  Ti  Ti46  1  0.14148216  0.86336678  0.13701968  1
  Ti  Ti47  1  0.61448921  0.37336179  0.63028645  1
  Ti  Ti48  1  0.11617845  0.62165776  0.86236572  1
  Ti  Ti49  1  0.13023830  0.13694526  0.62445849  1
  Ti  Ti50  1  0.61571275  0.13249522  0.61998522  1
  Ti  Ti51  1  0.61125949  0.86392799  0.37668586  1
  Ti  Ti52  1  0.87490800  0.36101397  0.36403015  1
  Ti  Ti53  1  0.12689575  0.88412206  0.36603007  1
  Ti  Ti54  1  0.38352383  0.87545941  0.87245295  1
  Ti  Ti55  1  0.38098377  0.87665240  0.61767755  1
  Ti  Ti56  1  0.87343867  0.12243529  0.11328518  1
  Ti  Ti57  1  0.38064044  0.13085764  0.13247604  1
  Ti  Ti58  1  0.12053765  0.36910739  0.36217477  1
  Ti  Ti59  1  0.38035630  0.36931254  0.61168802  1
  Ti  Ti60  1  0.88876078  0.88161441  0.38289899  1
  Ti  Ti61  1  0.61731254  0.12902782  0.36480063  1
  Ti  Ti62  1  0.12800960  0.87662908  0.62284712  1
  Ti  Ti63  1  0.63157212  0.61428197  0.37456524  1
  Ti  Ti64  1  0.37397024  0.37301093  0.37256903  1
  Ti  Ti65  1  0.86803629  0.11977948  0.61410364  1
  Ti  Ti66  1  0.63513049  0.12543048  0.88231244  1
  Ti  Ti67  1  0.62278180  0.86981281  0.63250742  1
  Ti  Ti68  1  0.13352932  0.38081400  0.61740410  1
  Ti  Ti69  1  0.12074450  0.88396942  0.86213064  1
  Ti  Ti70  1  0.14870646  0.65696392  0.13871020  1
  Ti  Ti71  1  0.12819425  0.12315355  0.86754092  1
  Ti  Ti72  1  0.86868200  0.12949057  0.86464825  1
  Ti  Ti73  1  0.63463263  0.87959278  0.88999782  1
  Bi  Bi74  1  0.28157445  0.25474911  0.74722578  1
  Bi  Bi75  1  0.48988433  -0.01398837  0.01630018  1
  Bi  Bi76  1  0.73386771  0.26681551  0.23906474  1
  Bi  Bi77  1  0.75765309  0.78608460  0.23422149  1
  Bi  Bi78  1  0.74831415  -0.02819777  0.49693205  1
  Bi  Bi79  1  0.75046512  0.74761591  0.77954825  1
  Bi  Bi80  1  0.77289845  0.50625124  0.78014154  1
  Bi  Bi81  1  0.22907782  0.48954441  0.23937387  1
  Bi  Bi82  1  0.02645949  0.26394589  0.76511544  1
  Bi  Bi83  1  0.46519832  0.75082404  0.01670732  1
  Bi  Bi84  1  0.27003852  0.75734786  0.73158040  1
  Bi  Bi85  1  0.49022193  -0.02825541  0.24921818  1
  Bi  Bi86  1  -0.01607784  0.48258854  0.70630975  1
  Bi  Bi87  1  0.50379529  0.50921097  0.24643805  1
  Bi  Bi88  1  0.75990794  0.00077706  0.26171210  1
  Bi  Bi89  1  0.50056787  0.00707607  0.48771610  1
  Bi  Bi90  1  0.02312161  0.76316105  -0.01404444  1
  Bi  Bi91  1  0.49971283  0.72394804  0.49877665  1
  Bi  Bi92  1  0.27618544  0.23900293  -0.00154497  1
  Bi  Bi93  1  0.78191434  0.28947094  0.73638270  1
  Bi  Bi94  1  -0.00906249  0.02386721  -0.02134174  1
  Bi  Bi95  1  -0.01598896  -0.03931537  0.20521837  1
  Bi  Bi96  1  0.78767408  0.51726908  0.01957465  1
  Bi  Bi97  1  0.24449686  0.49113394  0.47213731  1
  Bi  Bi98  1  0.27964755  0.01855036  0.73598328  1
  Bi  Bi99  1  0.77798867  0.46774981  0.53132170  1
  Bi  Bi100  1  0.24039081  0.23694713  0.47365774  1
  Bi  Bi101  1  0.24186130  0.74723191  0.46635336  1
  Bi  Bi102  1  0.01738218  0.25072030  0.22205778  1
  Bi  Bi103  1  0.81731804  0.51676088  0.23478181  1
  Bi  Bi104  1  0.51220956  0.72924459  0.73459251  1
  Bi  Bi105  1  0.52120842  0.48142435  0.50442463  1
  Bi  Bi106  1  0.53209129  0.50364949  -0.00919995  1
  Bi  Bi107  1  -0.00049811  0.49557739  0.47062492  1
  Bi  Bi108  1  0.73537927  0.24291647  0.47804344  1
  Bi  Bi109  1  0.01298645  0.72860155  0.49920285  1
  Bi  Bi110  1  0.52299351  0.01500381  0.75698585  1
  Bi  Bi111  1  0.29544033  0.49057339  0.74135404  1
  Bi  Bi112  1  0.23872053  -0.01307566  0.48813120  1
  Bi  Bi113  1  -0.03552474  0.26984805  0.53396260  1
  Bi  Bi114  1  -0.00913663  0.00680760  0.71323719  1
  Bi  Bi115  1  0.77776784  0.74474451  0.01652297  1
  Bi  Bi116  1  0.23649373  0.53978292  -0.00433202  1
  Bi  Bi117  1  0.50376426  0.26959425  0.00736802  1
  Bi  Bi118  1  0.73580942  0.00898800  0.73164819  1
  Bi  Bi119  1  0.49979992  0.73141261  0.24706169  1
  Bi  Bi120  1  0.74416657  0.28065784  0.02368101  1
  Bi  Bi121  1  0.51126977  0.25110938  0.78081160  1
  Bi  Bi122  1  -0.00781883  0.76385586  0.72468455  1
  Bi  Bi123  1  0.76264741  0.74047594  0.47231736  1
  Bi  Bi124  1  0.24441074  -0.00983622  0.00015689  1
  O  O125  1  0.10250894  0.14694648  0.00684868  1
  O  O126  1  0.14900021  0.10421490  0.24422103  1
  O  O127  1  0.12455487  0.14980171  0.50638379  1
  O  O128  1  0.12058264  0.10992955  0.75117659  1
  O  O129  1  0.13288393  0.34865753  -0.00453627  1
  O  O130  1  0.10800687  0.39157634  0.24849595  1
  O  O131  1  0.14843693  0.36269250  0.50456138  1
  O  O132  1  0.09974028  0.38575278  0.76081708  1
  O  O133  1  0.16629793  0.66183614  0.01825871  1
  O  O134  1  0.11988659  0.59074500  0.23979459  1
  O  O135  1  0.13716159  0.65177750  0.51575602  1
  O  O136  1  0.09395044  0.61081939  0.75457507  1
  O  O137  1  0.14418386  0.83985534  0.02183228  1
  O  O138  1  0.13240830  0.91525909  0.25582426  1
  O  O139  1  0.15102006  0.85895245  0.51154003  1
  O  O140  1  0.09870936  0.89191967  0.75350038  1
  O  O141  1  0.37493124  0.13785479  0.00998728  1
  O  O142  1  0.32931499  0.11306178  0.25048992  1
  O  O143  1  0.42253875  0.13012214  0.48643633  1
  O  O144  1  0.35665219  0.13762765  0.74790374  1
  O  O145  1  0.37447052  0.34458137  0.01272040  1
  O  O146  1  0.37147385  0.37894177  0.25657726  1
  O  O147  1  0.34333934  0.38561175  0.50048840  1
  O  O148  1  0.37539259  0.36212476  0.74484439  1
  O  O149  1  0.35911444  0.59773377  -0.00587102  1
  O  O150  1  0.38445896  0.63695621  0.24751147  1
  O  O151  1  0.38161839  0.64238142  0.49229451  1
  O  O152  1  0.38671089  0.65854189  0.76053800  1
  O  O153  1  0.36312474  0.91331559  -0.00431745  1
  O  O154  1  0.39150748  0.86579070  0.24554476  1
  O  O155  1  0.35708873  0.89043242  0.50653512  1
  O  O156  1  0.38223998  0.85039426  0.75775244  1
  O  O157  1  0.61584233  0.12250551  0.00158728  1
  O  O158  1  0.63571641  0.14021117  0.24803670  1
  O  O159  1  0.60551036  0.10650994  0.50488169  1
  O  O160  1  0.63523153  0.11224649  0.75242961  1
  O  O161  1  0.60831058  0.37295730  0.00744437  1
  O  O162  1  0.61279905  0.33230089  0.25601114  1
  O  O163  1  0.63685074  0.40310916  0.50353849  1
  O  O164  1  0.58994334  0.37537113  0.74476355  1
  O  O165  1  0.63768200  0.59829301  0.00891329  1
  O  O166  1  0.60085380  0.62625313  0.25095694  1
  O  O167  1  0.60387197  0.61813913  0.49275726  1
  O  O168  1  0.59367459  0.62086011  0.75454273  1
  O  O169  1  0.66900424  0.89409062  -0.00117004  1
  O  O170  1  0.59347986  0.87001967  0.25543908  1
  O  O171  1  0.63402190  0.88578207  0.50266120  1
  O  O172  1  0.60523538  0.88381446  0.75088299  1
  O  O173  1  0.88705887  0.13233418  0.00101288  1
  O  O174  1  0.86913806  0.09447802  0.25541147  1
  O  O175  1  0.86622643  0.15042996  0.49926284  1
  O  O176  1  0.87348971  0.10110209  0.74974936  1
  O  O177  1  0.85496786  0.36633366  -0.00124927  1
  O  O178  1  0.89073382  0.38421938  0.24998584  1
  O  O179  1  0.85780693  0.34984788  0.49571894  1
  O  O180  1  0.88240125  0.38996402  0.75602297  1
  O  O181  1  0.86487202  0.62984402  0.00239188  1
  O  O182  1  0.91660525  0.61168220  0.25092651  1
  O  O183  1  0.87313475  0.66305132  0.50587566  1
  O  O184  1  0.88718743  0.59477792  0.74451987  1
  O  O185  1  0.85093996  0.85950320  -0.01053860  1
  O  O186  1  0.86391443  0.89751595  0.26591143  1
  O  O187  1  0.84115599  0.86185544  0.49799223  1
  O  O188  1  0.90724533  0.88998596  0.75292637  1
  O  O189  1  -0.00696330  0.13839903  0.14575939  1
  O  O190  1  -0.00057477  0.11599171  0.38961426  1
  O  O191  1  0.00056967  0.12406858  0.61184365  1
  O  O192  1  -0.00220383  0.13504957  0.87680544  1
  O  O193  1  0.00517798  0.32041214  0.10386067  1
  O  O194  1  0.00559845  0.36100780  0.39714487  1
  O  O195  1  0.00893116  0.37034146  0.61946708  1
  O  O196  1  -0.00311010  0.34453990  0.89207628  1
  O  O197  1  0.02718706  0.64859935  0.11650432  1
  O  O198  1  0.00524898  0.62357120  0.40768157  1
  O  O199  1  0.00151667  0.65541425  0.61805173  1
  O  O200  1  0.00918980  0.63096186  0.92062791  1
  O  O201  1  0.01987627  0.83384056  0.15498504  1
  O  O202  1  0.00031703  0.87189019  0.38354708  1
  O  O203  1  0.00338251  0.84886542  0.61743379  1
  O  O204  1  0.00187830  0.87460704  0.90583740  1
  O  O205  1  0.23755952  0.09037229  0.10608281  1
  O  O206  1  0.26104207  0.11125471  0.40667966  1
  O  O207  1  0.24301376  0.10712020  0.62195700  1
  O  O208  1  0.24024314  0.10954667  0.89481482  1
  O  O209  1  0.23622146  0.40275899  0.13000316  1
  O  O210  1  0.24449935  0.39918775  0.36844455  1
  O  O211  1  0.24445673  0.39208053  0.64952929  1
  O  O212  1  0.24655890  0.40297504  0.86959048  1
  O  O213  1  0.24769173  0.58812811  0.13506536  1
  O  O214  1  0.24759205  0.61015370  0.38244024  1
  O  O215  1  0.24658689  0.61746247  0.65535454  1
  O  O216  1  0.23843673  0.61976077  0.87305867  1
  O  O217  1  0.24634072  0.92033277  0.13368605  1
  O  O218  1  0.24619284  0.90271631  0.37883485  1
  O  O219  1  0.24454348  0.88955557  0.65699894  1
  O  O220  1  0.23787354  0.87126929  0.87546204  1
  O  O221  1  0.49041550  0.15603040  0.14192385  1
  O  O222  1  0.49055491  0.16537317  0.33301168  1
  O  O223  1  0.50667684  0.13870582  0.65099401  1
  O  O224  1  0.50345508  0.13267293  0.86150069  1
  O  O225  1  0.48874833  0.33208396  0.13736440  1
  O  O226  1  0.48686686  0.36443929  0.40121388  1
  O  O227  1  0.49410956  0.35761437  0.58957525  1
  O  O228  1  0.49536310  0.34135879  0.88619787  1
  O  O229  1  0.50564337  0.65317010  0.11934940  1
  O  O230  1  0.49426939  0.65543062  0.37036809  1
  O  O231  1  0.49508467  0.65618199  0.62033305  1
  O  O232  1  0.49716436  0.63922601  0.90720134  1
  O  O233  1  0.50025909  0.86777442  0.08990076  1
  O  O234  1  0.49731320  0.86282290  0.39651664  1
  O  O235  1  0.49610663  0.86157862  0.61106473  1
  O  O236  1  0.50025818  0.87021038  0.90284474  1
  O  O237  1  0.75004445  0.07763750  0.11372068  1
  O  O238  1  0.73556472  0.13315544  0.38462795  1
  O  O239  1  0.75074703  0.10583754  0.62343195  1
  O  O240  1  0.75249403  0.11512524  0.88080653  1
  O  O241  1  0.74622681  0.37380041  0.13199568  1
  O  O242  1  0.75308978  0.35049999  0.36840640  1
  O  O243  1  0.73555727  0.39835417  0.64428072  1
  O  O244  1  0.75213200  0.37913690  0.85444203  1
  O  O245  1  0.74426604  0.58963738  0.13950966  1
  O  O246  1  0.74630995  0.61636447  0.37798994  1
  O  O247  1  0.75238833  0.59822430  0.62255091  1
  O  O248  1  0.75260382  0.62399113  0.85555416  1
  O  O249  1  0.73907356  0.90236528  0.15964328  1
  O  O250  1  0.72922520  0.90671381  0.36985808  1
  O  O251  1  0.74358874  0.90004859  0.63481044  1
  O  O252  1  0.75328057  0.88486932  0.84164823  1
  O  O253  1  0.09064561  -0.00478562  0.10744066  1
  O  O254  1  0.11589960  -0.00338759  0.41771480  1
  O  O255  1  0.10024971  -0.00516574  0.60645287  1
  O  O256  1  0.11458830  -0.00087547  0.89557320  1
  O  O257  1  0.13833286  0.24144981  0.15559056  1
  O  O258  1  0.16079739  0.25094354  0.35377527  1
  O  O259  1  0.12798959  0.25282769  0.65137722  1
  O  O260  1  0.12880536  0.24637251  0.86031227  1
  O  O261  1  0.07340254  0.48431531  0.09572923  1
  O  O262  1  0.11804113  0.49290726  0.39377402  1
  O  O263  1  0.11253439  0.50367143  0.61412990  1
  O  O264  1  0.11075290  0.50363018  0.89835424  1
  O  O265  1  0.18739498  0.75782120  0.18055646  1
  O  O266  1  0.13756732  0.76045870  0.37475335  1
  O  O267  1  0.13684150  0.75137325  0.65927250  1
  O  O268  1  0.11620937  0.75128716  0.87639022  1
  O  O269  1  0.40359475  0.00941124  0.12933563  1
  O  O270  1  0.40480562  0.00752432  0.37101905  1
  O  O271  1  0.38225222  -0.00229238  0.64575047  1
  O  O272  1  0.37539479  -0.00641556  0.84951935  1
  O  O273  1  0.32604886  0.24234523  0.14244746  1
  O  O274  1  0.35736192  0.25339625  0.38519760  1
  O  O275  1  0.34782145  0.25507746  0.61732969  1
  O  O276  1  0.34392023  0.24964867  0.87640226  1
  O  O277  1  0.40221027  0.48507396  0.12965031  1
  O  O278  1  0.37838164  0.50519576  0.38114329  1
  O  O279  1  0.38322110  0.49650502  0.63550488  1
  O  O280  1  0.40508850  0.50781064  0.84222453  1
  O  O281  1  0.36136835  0.75039493  0.11283295  1
  O  O282  1  0.33774054  0.74939955  0.35869884  1
  O  O283  1  0.34497124  0.75836910  0.61880688  1
  O  O284  1  0.35538660  0.75418315  0.91024830  1
  O  O285  1  0.58709740  0.00599192  0.12990214  1
  O  O286  1  0.58564293  0.01265299  0.37075728  1
  O  O287  1  0.61259023  0.00270245  0.63975657  1
  O  O288  1  0.61110389  0.00023149  0.87120669  1
  O  O289  1  0.65061149  0.23621013  0.12060289  1
  O  O290  1  0.61054766  0.24319194  0.41293645  1
  O  O291  1  0.64423642  0.25131367  0.61651979  1
  O  O292  1  0.62967643  0.24298754  0.86329451  1
  O  O293  1  0.58833246  0.50000379  0.14083280  1
  O  O294  1  0.59942239  0.50062696  0.36087083  1
  O  O295  1  0.58365171  0.49467278  0.63313886  1
  O  O296  1  0.60070963  0.49699631  0.87273722  1
  O  O297  1  0.65857516  0.74379599  0.12710948  1
  O  O298  1  0.63985956  0.75097214  0.37602457  1
  O  O299  1  0.63517223  0.75425566  0.63640862  1
  O  O300  1  0.64698883  0.75967879  0.88103729  1
  O  O301  1  0.89776479  -0.00356629  0.10192566  1
  O  O302  1  0.86598475  0.00097644  0.40149477  1
  O  O303  1  0.89294394  0.00089202  0.61069988  1
  O  O304  1  0.88439668  0.00067940  0.88869853  1
  O  O305  1  0.83873008  0.23609600  0.12595026  1
  O  O306  1  0.88276882  0.24187335  0.35080333  1
  O  O307  1  0.88131240  0.23899439  0.64462062  1
  O  O308  1  0.86278812  0.24850224  0.85045250  1
  O  O309  1  0.89714752  0.49732133  0.11540541  1
  O  O310  1  0.88393351  0.48872103  0.39186576  1
  O  O311  1  0.89824150  0.51305978  0.59630318  1
  O  O312  1  0.87164248  0.49603148  0.88862408  1
  O  O313  1  0.84436187  0.75242695  0.13760160  1
  O  O314  1  0.85034243  0.76050217  0.36577896  1
  O  O315  1  0.86187708  0.74736903  0.66006005  1
  O  O316  1  0.86968322  0.75520192  0.85265737  1
