# generated using pymatgen
data_Mg32Ti42(Bi17O64)3
_symmetry_space_group_name_H-M   'P 1'
_cell_length_a   15.93050373
_cell_length_b   15.95904234
_cell_length_c   15.93703256
_cell_angle_alpha   89.82416972
_cell_angle_beta   90.14386294
_cell_angle_gamma   90.03876314
_symmetry_Int_Tables_number   1
_chemical_formula_structural   Mg32Ti42(Bi17O64)3
_chemical_formula_sum   'Mg32 Ti42 Bi51 O192'
_cell_volume   4051.72801626
_cell_formula_units_Z   1
loop_
 _symmetry_equiv_pos_site_id
 _symmetry_equiv_pos_as_xyz
  1  'x, y, z'
loop_
 _atom_site_type_symbol
 _atom_site_label
 _atom_site_symmetry_multiplicity
 _atom_site_fract_x
 _atom_site_fract_y
 _atom_site_fract_z
 _atom_site_occupancy
  Mg  Mg0  1  0.37512014  0.37003970  0.12913911  1
  Mg  Mg1  1  0.38016522  0.88057544  0.37845694  1
  Mg  Mg2  1  0.62862780  0.63803812  0.62361980  1
  Mg  Mg3  1  0.12787325  0.36434098  0.62046050  1
  Mg  Mg4  1  0.63913856  0.87479010  0.37195206  1
  Mg  Mg5  1  0.11408802  0.62502633  0.63530507  1
  Mg  Mg6  1  0.63816631  0.11850639  0.87241813  1
  Mg  Mg7  1  0.37526114  0.62802710  0.12863477  1
  Mg  Mg8  1  0.63389896  0.63338783  0.37357402  1
  Mg  Mg9  1  0.11835884  0.86776799  0.36836901  1
  Mg  Mg10  1  0.86488167  0.38363325  0.61808642  1
  Mg  Mg11  1  0.13314192  0.62383548  0.35873161  1
  Mg  Mg12  1  0.86337751  0.88170226  0.87799417  1
  Mg  Mg13  1  0.87841075  0.88291345  0.62747066  1
  Mg  Mg14  1  0.86726024  0.62519935  0.86898156  1
  Mg  Mg15  1  0.62053146  0.89101019  0.61867017  1
  Mg  Mg16  1  0.37397243  0.36161144  0.62079213  1
  Mg  Mg17  1  0.61155151  0.38034529  0.38675854  1
  Mg  Mg18  1  0.37542459  0.37632160  0.87164562  1
  Mg  Mg19  1  0.82805837  0.73595941  0.20169956  1
  Mg  Mg20  1  0.57737915  0.02927377  0.46993651  1
  Mg  Mg21  1  0.46486182  0.29669445  -0.00061700  1
  Mg  Mg22  1  0.49808295  0.50074125  0.06317007  1
  Mg  Mg23  1  0.01748824  0.74390362  0.26651624  1
  Mg  Mg24  1  0.72692750  0.75860015  0.49977022  1
  Mg  Mg25  1  0.71917522  -0.03344048  0.75913352  1
  Mg  Mg26  1  -0.02730083  0.25971322  0.71718618  1
  Mg  Mg27  1  0.50832430  0.56738159  0.51488154  1
  Mg  Mg28  1  -0.04759970  0.69793925  0.00826851  1
  Mg  Mg29  1  0.22073247  0.28617341  0.48088117  1
  Mg  Mg30  1  0.28026770  0.76796289  0.30754826  1
  Mg  Mg31  1  0.77591680  0.03880367  0.00177222  1
  Ti  Ti32  1  0.12554763  0.12422884  0.12482269  1
  Ti  Ti33  1  0.62503988  0.11738996  0.63720338  1
  Ti  Ti34  1  0.62594354  0.86374999  0.87917351  1
  Ti  Ti35  1  0.13000725  0.86111583  0.87401644  1
  Ti  Ti36  1  0.62994497  0.62491486  0.87043290  1
  Ti  Ti37  1  0.87047881  0.62943567  0.62355076  1
  Ti  Ti38  1  0.36640350  0.11364536  0.63469617  1
  Ti  Ti39  1  0.12658385  0.62448741  0.86606981  1
  Ti  Ti40  1  0.36896939  0.37354969  0.37896822  1
  Ti  Ti41  1  0.62215625  0.37760141  0.12289862  1
  Ti  Ti42  1  0.38070613  0.88442763  0.61817124  1
  Ti  Ti43  1  0.86593701  0.36692218  0.12772533  1
  Ti  Ti44  1  0.87655648  0.89270420  0.09974903  1
  Ti  Ti45  1  0.38229577  0.61799758  0.88436883  1
  Ti  Ti46  1  0.39184054  0.12117170  0.12370523  1
  Ti  Ti47  1  0.12332475  0.36909024  0.11273670  1
  Ti  Ti48  1  0.36743632  0.11518062  0.39669177  1
  Ti  Ti49  1  0.12620809  0.36578416  0.86873969  1
  Ti  Ti50  1  0.87765396  0.85221699  0.38064994  1
  Ti  Ti51  1  0.11877319  0.87328870  0.12222614  1
  Ti  Ti52  1  0.13012668  0.13386775  0.85948489  1
  Ti  Ti53  1  0.37527504  0.63198230  0.36829515  1
  Ti  Ti54  1  0.86696213  0.13090232  0.62628464  1
  Ti  Ti55  1  0.38395666  0.12139232  0.87298391  1
  Ti  Ti56  1  0.63726586  0.13592762  0.11487495  1
  Ti  Ti57  1  0.87591794  0.11684492  0.85978120  1
  Ti  Ti58  1  0.61250523  0.37661646  0.62310997  1
  Ti  Ti59  1  0.88194638  0.12030829  0.12420513  1
  Ti  Ti60  1  0.62367820  0.63020659  0.13541760  1
  Ti  Ti61  1  0.37576755  0.87664829  0.13245645  1
  Ti  Ti62  1  0.88206075  0.38123853  0.37494050  1
  Ti  Ti63  1  0.12878992  0.13766024  0.61235532  1
  Ti  Ti64  1  0.88374417  0.13665980  0.37001615  1
  Ti  Ti65  1  0.13083213  0.64433262  0.11513036  1
  Ti  Ti66  1  0.61980004  0.38966148  0.87801725  1
  Ti  Ti67  1  0.64538333  0.87030981  0.12896400  1
  Ti  Ti68  1  0.11980731  0.86367982  0.62735612  1
  Ti  Ti69  1  0.12718139  0.13327542  0.37859311  1
  Ti  Ti70  1  0.37539203  0.87395725  0.86724448  1
  Ti  Ti71  1  0.87168555  0.62471789  0.37539911  1
  Ti  Ti72  1  0.87809180  0.37367646  0.87666051  1
  Ti  Ti73  1  0.12307946  0.38442283  0.36847342  1
  Bi  Bi74  1  0.25970346  -0.00429839  -0.02393415  1
  Bi  Bi75  1  0.50851936  0.27138256  0.75696737  1
  Bi  Bi76  1  0.48242485  0.22247671  0.52654475  1
  Bi  Bi77  1  0.27908617  0.75781259  0.00107362  1
  Bi  Bi78  1  -0.00035827  -0.00989092  0.74069603  1
  Bi  Bi79  1  0.76355382  0.73344662  0.01807084  1
  Bi  Bi80  1  0.03195784  0.50280964  0.50101438  1
  Bi  Bi81  1  0.24797129  0.00292554  0.23186540  1
  Bi  Bi82  1  -0.02736572  0.25738823  0.51440420  1
  Bi  Bi83  1  0.48354750  0.53021949  0.70750147  1
  Bi  Bi84  1  0.02407623  0.71907056  0.48617003  1
  Bi  Bi85  1  0.51992810  0.73054152  0.00453722  1
  Bi  Bi86  1  0.23987035  -0.03567908  0.48366404  1
  Bi  Bi87  1  0.23061206  -0.00961817  0.73212206  1
  Bi  Bi88  1  0.73537462  0.51540355  0.50964021  1
  Bi  Bi89  1  0.25107844  0.49688262  0.72371865  1
  Bi  Bi90  1  0.74432585  0.26644141  0.75021657  1
  Bi  Bi91  1  0.71609115  0.23646621  0.48399097  1
  Bi  Bi92  1  0.27859114  0.23564299  -0.00393110  1
  Bi  Bi93  1  -0.00063576  -0.00678727  0.48929862  1
  Bi  Bi94  1  0.01625725  -0.01114335  0.26083571  1
  Bi  Bi95  1  0.75964130  0.50144203  0.74693106  1
  Bi  Bi96  1  0.74011835  0.25737148  -0.01962648  1
  Bi  Bi97  1  0.75714993  0.77483821  0.72224463  1
  Bi  Bi98  1  0.74662134  0.02786847  0.26759347  1
  Bi  Bi99  1  0.01995060  -0.00581335  -0.02360684  1
  Bi  Bi100  1  0.49040659  0.01705885  0.27720858  1
  Bi  Bi101  1  0.27981009  0.49329419  0.00101873  1
  Bi  Bi102  1  0.00583060  0.46551541  0.73016672  1
  Bi  Bi103  1  0.23953947  0.50285943  0.22803389  1
  Bi  Bi104  1  0.02963889  0.51164389  -0.01260611  1
  Bi  Bi105  1  0.26895111  0.26002729  0.73657351  1
  Bi  Bi106  1  0.76773589  -0.01898773  0.48751420  1
  Bi  Bi107  1  0.27315115  0.72880693  0.74129302  1
  Bi  Bi108  1  -0.00819849  0.23802674  -0.02189529  1
  Bi  Bi109  1  0.53939849  0.00618437  0.00753924  1
  Bi  Bi110  1  0.78233459  0.50269478  0.01080251  1
  Bi  Bi111  1  0.52884519  0.77891433  0.49946012  1
  Bi  Bi112  1  -0.02277232  0.75510562  0.78882322  1
  Bi  Bi113  1  0.26561761  0.70806496  0.52713776  1
  Bi  Bi114  1  0.23527129  0.25821532  0.24198147  1
  Bi  Bi115  1  0.27909115  0.49498068  0.50722153  1
  Bi  Bi116  1  0.71728633  0.25184376  0.27046815  1
  Bi  Bi117  1  0.50915761  0.51557529  0.28217722  1
  Bi  Bi118  1  -0.00698608  0.26033559  0.23111922  1
  Bi  Bi119  1  0.48166028  0.25091871  0.28246501  1
  Bi  Bi120  1  0.51933642  -0.00400628  0.77506206  1
  Bi  Bi121  1  0.50373653  0.74119259  0.73313979  1
  Bi  Bi122  1  0.50764785  0.79004038  0.24973860  1
  Bi  Bi123  1  -0.01343126  0.54503738  0.21017015  1
  Bi  Bi124  1  0.74666179  0.49495194  0.27211858  1
  O  O125  1  0.11746029  0.09966833  0.01234417  1
  O  O126  1  0.12766257  0.15483626  0.26123490  1
  O  O127  1  0.12131311  0.09507517  0.50345079  1
  O  O128  1  0.13405461  0.15597389  0.75072690  1
  O  O129  1  0.14139301  0.39128923  0.00206880  1
  O  O130  1  0.11300433  0.33779996  0.25504490  1
  O  O131  1  0.14800844  0.39755454  0.49013488  1
  O  O132  1  0.08308045  0.34551350  0.75841966  1
  O  O133  1  0.14344627  0.59766098  0.00167609  1
  O  O134  1  0.08898047  0.64087004  0.23353007  1
  O  O135  1  0.13257659  0.61035842  0.49881259  1
  O  O136  1  0.09410639  0.63544398  0.75870589  1
  O  O137  1  0.12827399  0.90417863  -0.00463766  1
  O  O138  1  0.07671863  0.85509108  0.23334549  1
  O  O139  1  0.11086052  0.89955238  0.50734408  1
  O  O140  1  0.14759216  0.86522279  0.75088837  1
  O  O141  1  0.36037464  0.10216722  0.00562262  1
  O  O142  1  0.39599672  0.14523403  0.24580659  1
  O  O143  1  0.37878231  0.10336300  0.51105501  1
  O  O144  1  0.36961876  0.14010606  0.75848884  1
  O  O145  1  0.34851293  0.36799311  -0.00310732  1
  O  O146  1  0.38412255  0.34451190  0.25504925  1
  O  O147  1  0.33426192  0.36394995  0.49736699  1
  O  O148  1  0.38656550  0.34140083  0.75245651  1
  O  O149  1  0.33960026  0.62590251  -0.00301313  1
  O  O150  1  0.40308633  0.60865135  0.25421643  1
  O  O151  1  0.36307882  0.61047440  0.49275519  1
  O  O152  1  0.39239138  0.65371245  0.76391383  1
  O  O153  1  0.35232326  0.89220696  0.01076614  1
  O  O154  1  0.36219438  0.84182773  0.24666634  1
  O  O155  1  0.37009027  0.89996256  0.50382593  1
  O  O156  1  0.36723382  0.85446107  0.75472585  1
  O  O157  1  0.62036414  0.11702588  -0.00290005  1
  O  O158  1  0.64326464  0.12472074  0.23598718  1
  O  O159  1  0.61398562  0.15323963  0.51441642  1
  O  O160  1  0.64516205  0.07593018  0.74961733  1
  O  O161  1  0.65626642  0.37180091  -0.00826543  1
  O  O162  1  0.60770773  0.36480363  0.23733792  1
  O  O163  1  0.63907842  0.36033497  0.51103556  1
  O  O164  1  0.58821320  0.38873851  0.75298250  1
  O  O165  1  0.63920782  0.64924469  -0.00694559  1
  O  O166  1  0.59757968  0.62252937  0.24785983  1
  O  O167  1  0.63745824  0.60723181  0.50005932  1
  O  O168  1  0.59297958  0.62499754  0.74927116  1
  O  O169  1  0.62208649  0.85150363  -0.00327183  1
  O  O170  1  0.63166656  0.86949276  0.24467080  1
  O  O171  1  0.59275505  0.89573478  0.49094601  1
  O  O172  1  0.60906848  0.89233409  0.74915048  1
  O  O173  1  0.89416340  0.09907537  0.00909946  1
  O  O174  1  0.86207349  0.13174506  0.25351590  1
  O  O175  1  0.89341413  0.13513046  0.50263020  1
  O  O176  1  0.88646493  0.15722483  0.74817019  1
  O  O177  1  0.83785666  0.36800570  -0.00049804  1
  O  O178  1  0.90135173  0.36942417  0.24242869  1
  O  O179  1  0.86436998  0.38310973  0.48889352  1
  O  O180  1  0.90238617  0.35831098  0.76062654  1
  O  O181  1  0.84456240  0.62462037  -0.00504359  1
  O  O182  1  0.91424027  0.66047145  0.26110089  1
  O  O183  1  0.84286528  0.59872975  0.49643230  1
  O  O184  1  0.88018848  0.65748952  0.74098558  1
  O  O185  1  0.84104998  0.92644384  -0.00305911  1
  O  O186  1  0.87288358  0.83506114  0.26928874  1
  O  O187  1  0.88986809  0.90445685  0.50594219  1
  O  O188  1  0.87519840  0.84043284  0.74997457  1
  O  O189  1  0.00190315  0.12996884  0.14267408  1
  O  O190  1  0.00072218  0.10041093  0.37093123  1
  O  O191  1  0.01583680  0.17424523  0.62767611  1
  O  O192  1  0.00070772  0.13190564  0.88066536  1
  O  O193  1  0.00681874  0.34951897  0.11319918  1
  O  O194  1  0.00722112  0.39887709  0.39022711  1
  O  O195  1  0.00005884  0.38244218  0.61437137  1
  O  O196  1  -0.00841060  0.36704687  0.91028097  1
  O  O197  1  0.00725303  0.61549837  0.09272026  1
  O  O198  1  -0.00399379  0.60344334  0.40644286  1
  O  O199  1  -0.01479633  0.62029159  0.59870175  1
  O  O200  1  0.00021405  0.62216147  0.90822381  1
  O  O201  1  -0.00590654  0.90616326  0.09004227  1
  O  O202  1  -0.00926033  0.90415593  0.37771380  1
  O  O203  1  0.00586118  0.87504430  0.65287122  1
  O  O204  1  0.01022708  0.88724832  0.86424471  1
  O  O205  1  0.24919543  0.11478454  0.14158876  1
  O  O206  1  0.24997120  0.12858270  0.38565936  1
  O  O207  1  0.25063583  0.09851295  0.63616200  1
  O  O208  1  0.24717105  0.13838027  0.88680182  1
  O  O209  1  0.24593804  0.37529086  0.15409486  1
  O  O210  1  0.24444311  0.33871727  0.36029639  1
  O  O211  1  0.24779623  0.37544223  0.65955417  1
  O  O212  1  0.23857055  0.36194741  0.84525192  1
  O  O213  1  0.24216119  0.62135544  0.14728075  1
  O  O214  1  0.25726038  0.65217278  0.34809271  1
  O  O215  1  0.24413653  0.62841644  0.64426791  1
  O  O216  1  0.24394189  0.62987318  0.84938482  1
  O  O217  1  0.23435907  0.88690307  0.14136632  1
  O  O218  1  0.24505879  0.86024841  0.38582654  1
  O  O219  1  0.24186814  0.90490945  0.61588801  1
  O  O220  1  0.24895249  0.87443468  0.88656247  1
  O  O221  1  0.50757371  0.10586381  0.11691280  1
  O  O222  1  0.49693900  0.09119933  0.39058286  1
  O  O223  1  0.50356328  0.14046156  0.64228548  1
  O  O224  1  0.49847440  0.10627823  0.87220448  1
  O  O225  1  0.50698531  0.37747419  0.08802673  1
  O  O226  1  0.48585150  0.38176843  0.38311515  1
  O  O227  1  0.49945135  0.33059688  0.61941909  1
  O  O228  1  0.50790424  0.35777501  0.89619362  1
  O  O229  1  0.50353035  0.62060431  0.09384467  1
  O  O230  1  0.49652600  0.59310355  0.39285205  1
  O  O231  1  0.49794662  0.63898797  0.61980108  1
  O  O232  1  0.49317371  0.61695599  0.90551569  1
  O  O233  1  0.49289216  0.88063705  0.14074642  1
  O  O234  1  0.50184902  0.89333558  0.34468928  1
  O  O235  1  0.49178159  0.85388340  0.62578335  1
  O  O236  1  0.49048552  0.88959710  0.87526564  1
  O  O237  1  0.75518343  0.11859419  0.10080523  1
  O  O238  1  0.76305495  0.16012230  0.37624997  1
  O  O239  1  0.75463412  0.12453390  0.62010607  1
  O  O240  1  0.76408637  0.11131792  0.89745305  1
  O  O241  1  0.75205544  0.37914760  0.14622545  1
  O  O242  1  0.76207056  0.37198458  0.34692542  1
  O  O243  1  0.73592204  0.39240535  0.65710958  1
  O  O244  1  0.74849528  0.37387195  0.84218188  1
  O  O245  1  0.74133846  0.65959159  0.13831158  1
  O  O246  1  0.76053114  0.62661157  0.34100648  1
  O  O247  1  0.74264796  0.58704843  0.63418464  1
  O  O248  1  0.73911415  0.63573598  0.84519227  1
  O  O249  1  0.75622197  0.84685900  0.12919946  1
  O  O250  1  0.76114048  0.85688561  0.42197718  1
  O  O251  1  0.75062913  0.89870814  0.65421646  1
  O  O252  1  0.73858330  0.87052806  0.84849975  1
  O  O253  1  0.12021749  0.00396012  0.15867474  1
  O  O254  1  0.13005776  -0.00296868  0.34323247  1
  O  O255  1  0.11238758  0.01133957  0.65750185  1
  O  O256  1  0.12959495  0.01212992  0.85659805  1
  O  O257  1  0.14239968  0.24525907  0.11472528  1
  O  O258  1  0.11549598  0.24325049  0.41047400  1
  O  O259  1  0.16847049  0.24499828  0.58972749  1
  O  O260  1  0.11622091  0.25054704  0.90754235  1
  O  O261  1  0.12060069  0.48829587  0.15198523  1
  O  O262  1  0.14555137  0.49440640  0.33930714  1
  O  O263  1  0.12765728  0.49535602  0.65042471  1
  O  O264  1  0.11222367  0.49315077  0.86517108  1
  O  O265  1  0.12273148  0.75704235  0.09635408  1
  O  O266  1  0.09149629  0.74549416  0.37080494  1
  O  O267  1  0.13220556  0.75335011  0.60633164  1
  O  O268  1  0.12188844  0.74891148  0.88902443  1
  O  O269  1  0.37165572  -0.00132531  0.15418230  1
  O  O270  1  0.36435616  0.00440207  0.34511587  1
  O  O271  1  0.38576683  -0.00341238  0.65787416  1
  O  O272  1  0.35484979  -0.00073820  0.86885689  1
  O  O273  1  0.38738319  0.23971771  0.09512992  1
  O  O274  1  0.39496373  0.23499997  0.39046379  1
  O  O275  1  0.36010583  0.23252506  0.61623388  1
  O  O276  1  0.38633304  0.23800714  0.90843973  1
  O  O277  1  0.37640810  0.49748744  0.10591310  1
  O  O278  1  0.34228204  0.48739226  0.37708505  1
  O  O279  1  0.36523957  0.48993511  0.63082336  1
  O  O280  1  0.36072073  0.50233748  0.87682235  1
  O  O281  1  0.37400511  0.75586710  0.10100882  1
  O  O282  1  0.39218050  0.74534481  0.37873183  1
  O  O283  1  0.34517391  0.76379121  0.62139412  1
  O  O284  1  0.37410566  0.75576666  0.90071555  1
  O  O285  1  0.64240943  -0.01370857  0.10130041  1
  O  O286  1  0.66837421  0.00056445  0.38342698  1
  O  O287  1  0.61664336  0.01395445  0.59370226  1
  O  O288  1  0.61784186  -0.01196337  0.88611107  1
  O  O289  1  0.63680980  0.25020790  0.10992427  1
  O  O290  1  0.63099343  0.25861006  0.37489958  1
  O  O291  1  0.63709929  0.25006504  0.66310791  1
  O  O292  1  0.65007755  0.24713797  0.85668895  1
  O  O293  1  0.62076048  0.50240421  0.11600473  1
  O  O294  1  0.64172949  0.49860882  0.36139633  1
  O  O295  1  0.56875133  0.48723015  0.60546122  1
  O  O296  1  0.62960573  0.50483839  0.87960144  1
  O  O297  1  0.59816880  0.75034336  0.12714543  1
  O  O298  1  0.62804609  0.75225532  0.40669018  1
  O  O299  1  0.63909107  0.76131791  0.59375265  1
  O  O300  1  0.59347396  0.74923536  0.85868120  1
  O  O301  1  0.86462262  -0.00255847  0.15632881  1
  O  O302  1  0.84565144  0.01091501  0.37573207  1
  O  O303  1  0.90528842  0.01887603  0.63853046  1
  O  O304  1  0.87737118  0.00457429  0.83758663  1
  O  O305  1  0.87664783  0.24313184  0.12049772  1
  O  O306  1  0.90817726  0.25636551  0.37274585  1
  O  O307  1  0.87546780  0.25817344  0.61722511  1
  O  O308  1  0.86905027  0.24704001  0.89752497  1
  O  O309  1  0.88573275  0.48435100  0.10511922  1
  O  O310  1  0.86880062  0.50193664  0.34627699  1
  O  O311  1  0.87460435  0.50311190  0.66410549  1
  O  O312  1  0.86056086  0.49391852  0.88395900  1
  O  O313  1  0.88806990  0.76777274  0.09230237  1
  O  O314  1  0.89677386  0.74201556  0.41266604  1
  O  O315  1  0.82470115  0.74058610  0.59870800  1
  O  O316  1  0.89534184  0.75533042  0.90047113  1
