# generated using pymatgen
data_Mg32Ti42(Bi17O64)3
_symmetry_space_group_name_H-M   'P 1'
_cell_length_a   15.95844627
_cell_length_b   15.96201781
_cell_length_c   15.97392795
_cell_angle_alpha   89.85637276
_cell_angle_beta   90.11570941
_cell_angle_gamma   89.99440734
_symmetry_Int_Tables_number   1
_chemical_formula_structural   Mg32Ti42(Bi17O64)3
_chemical_formula_sum   'Mg32 Ti42 Bi51 O192'
_cell_volume   4069.00164625
_cell_formula_units_Z   1
loop_
 _symmetry_equiv_pos_site_id
 _symmetry_equiv_pos_as_xyz
  1  'x, y, z'
loop_
 _atom_site_type_symbol
 _atom_site_label
 _atom_site_symmetry_multiplicity
 _atom_site_fract_x
 _atom_site_fract_y
 _atom_site_fract_z
 _atom_site_occupancy
  Mg  Mg0  1  0.61309200  0.12282238  0.61730269  1
  Mg  Mg1  1  0.86576428  0.61491241  0.37608772  1
  Mg  Mg2  1  0.12112957  0.63287015  0.38108373  1
  Mg  Mg3  1  0.63211803  0.12080068  0.13120508  1
  Mg  Mg4  1  0.37028188  0.38336562  0.63030409  1
  Mg  Mg5  1  0.86398561  0.12216898  0.37397370  1
  Mg  Mg6  1  0.62434607  0.87368589  0.13578597  1
  Mg  Mg7  1  0.62814609  0.36926056  0.38586281  1
  Mg  Mg8  1  0.62435181  0.36790554  0.87474306  1
  Mg  Mg9  1  0.11448301  0.62392433  0.63922384  1
  Mg  Mg10  1  0.62185765  0.36596669  0.12293088  1
  Mg  Mg11  1  0.11354971  0.36753362  0.12395084  1
  Mg  Mg12  1  0.86669817  0.11922152  0.62725596  1
  Mg  Mg13  1  0.11216444  0.88468211  0.62081343  1
  Mg  Mg14  1  0.38659526  0.61991903  0.13001082  1
  Mg  Mg15  1  0.36211550  0.37776375  0.37263988  1
  Mg  Mg16  1  0.88777518  0.62879307  0.87566433  1
  Mg  Mg17  1  0.11581149  0.37519990  0.87378526  1
  Mg  Mg18  1  0.12770886  0.88107258  0.12047441  1
  Mg  Mg19  1  0.23171805  -0.02571538  0.74523435  1
  Mg  Mg20  1  -0.06033211  0.55864969  0.71372126  1
  Mg  Mg21  1  0.80977006  -0.05830069  0.25887576  1
  Mg  Mg22  1  0.25352764  -0.05743781  0.45672201  1
  Mg  Mg23  1  0.46001207  0.30128617  0.49686916  1
  Mg  Mg24  1  0.44641182  0.26336058  0.00971062  1
  Mg  Mg25  1  0.19753296  0.75039589  0.55420159  1
  Mg  Mg26  1  0.21364250  0.27996135  0.74521244  1
  Mg  Mg27  1  0.76684678  0.55055725  0.56405241  1
  Mg  Mg28  1  0.00195623  0.21296514  -0.04403624  1
  Mg  Mg29  1  0.74530570  -0.02765351  0.44567953  1
  Mg  Mg30  1  -0.00583238  0.76147017  0.72088670  1
  Mg  Mg31  1  -0.03745490  0.76774696  0.32103771  1
  Ti  Ti32  1  0.87266679  0.36858139  0.38546607  1
  Ti  Ti33  1  0.63830649  0.60943045  0.38703089  1
  Ti  Ti34  1  0.37607411  0.13447718  0.88204772  1
  Ti  Ti35  1  0.37265673  0.13665378  0.38310431  1
  Ti  Ti36  1  0.12151237  0.87439607  0.87172535  1
  Ti  Ti37  1  0.37586872  0.13733120  0.61684687  1
  Ti  Ti38  1  0.37714978  0.63266124  0.63668139  1
  Ti  Ti39  1  0.35146654  0.87576225  0.63352643  1
  Ti  Ti40  1  0.61641382  0.61745878  0.63256602  1
  Ti  Ti41  1  0.86516523  0.89231097  0.61691252  1
  Ti  Ti42  1  0.37382253  0.88398614  0.88064624  1
  Ti  Ti43  1  0.87161606  0.86717596  0.87639611  1
  Ti  Ti44  1  0.86622811  0.61655139  0.13184116  1
  Ti  Ti45  1  0.88362913  0.36879745  0.86479988  1
  Ti  Ti46  1  0.88873647  0.85959455  0.12406344  1
  Ti  Ti47  1  0.11069689  0.38730570  0.63406368  1
  Ti  Ti48  1  0.61869146  0.11966049  0.87692167  1
  Ti  Ti49  1  0.87711269  0.36132637  0.12840216  1
  Ti  Ti50  1  0.62790152  0.88681242  0.61777943  1
  Ti  Ti51  1  0.37274348  0.87780899  0.12247192  1
  Ti  Ti52  1  0.12548711  0.12779363  0.12490536  1
  Ti  Ti53  1  0.37119520  0.13069867  0.13482837  1
  Ti  Ti54  1  0.86557480  0.36885241  0.63139026  1
  Ti  Ti55  1  0.62632625  0.11370889  0.37972487  1
  Ti  Ti56  1  0.36001644  0.62926841  0.37305590  1
  Ti  Ti57  1  0.87459325  0.11529737  0.87360847  1
  Ti  Ti58  1  0.37510157  0.37056129  0.13633455  1
  Ti  Ti59  1  0.62375598  0.63072991  0.87573585  1
  Ti  Ti60  1  0.11609930  0.86584488  0.37829313  1
  Ti  Ti61  1  0.62367924  0.62346068  0.12895735  1
  Ti  Ti62  1  0.12251184  0.38638661  0.38093084  1
  Ti  Ti63  1  0.13616119  0.11840786  0.39519340  1
  Ti  Ti64  1  0.14101942  0.11984726  0.63439722  1
  Ti  Ti65  1  0.13398696  0.12315279  0.86275189  1
  Ti  Ti66  1  0.11565561  0.62535628  0.86572670  1
  Ti  Ti67  1  0.37286741  0.36923531  0.87949551  1
  Ti  Ti68  1  0.61912051  0.87672428  0.36780069  1
  Ti  Ti69  1  0.37928499  0.62767196  0.88157968  1
  Ti  Ti70  1  0.62042613  0.37772075  0.61568714  1
  Ti  Ti71  1  0.87950189  0.13094896  0.11772431  1
  Ti  Ti72  1  0.63450874  0.87631171  0.88431150  1
  Ti  Ti73  1  0.38108783  0.86923873  0.34952426  1
  Bi  Bi74  1  0.22011721  0.52791061  0.23385754  1
  Bi  Bi75  1  0.50485099  0.75448090  0.02744804  1
  Bi  Bi76  1  0.76622490  0.72257994  0.00533550  1
  Bi  Bi77  1  -0.01542559  0.02710819  0.24768834  1
  Bi  Bi78  1  -0.00317353  0.21389061  0.51640187  1
  Bi  Bi79  1  0.75570837  0.48202989  0.25932110  1
  Bi  Bi80  1  0.52048657  0.25404969  0.25510176  1
  Bi  Bi81  1  0.51052287  0.77747462  0.76871012  1
  Bi  Bi82  1  0.25058288  0.49583536  0.77570996  1
  Bi  Bi83  1  0.47201505  -0.01283202  0.49074476  1
  Bi  Bi84  1  -0.02185719  0.71688503  0.52676614  1
  Bi  Bi85  1  0.50423593  0.71984646  0.27564756  1
  Bi  Bi86  1  0.50327338  0.48244942  0.77947673  1
  Bi  Bi87  1  0.76536913  0.75135347  0.28712201  1
  Bi  Bi88  1  0.22387423  0.26205840  0.26351577  1
  Bi  Bi89  1  0.25547529  0.75045526  0.77660538  1
  Bi  Bi90  1  -0.03448447  -0.01221924  0.46955716  1
  Bi  Bi91  1  0.50060453  0.01231536  0.02887419  1
  Bi  Bi92  1  0.22012675  0.50408005  0.01275819  1
  Bi  Bi93  1  -0.01383850  -0.01740884  0.00419685  1
  Bi  Bi94  1  0.49215297  0.75412304  0.51868718  1
  Bi  Bi95  1  0.73061773  0.23391759  -0.01739660  1
  Bi  Bi96  1  0.48783166  0.25406393  0.74148727  1
  Bi  Bi97  1  -0.00226863  0.25555464  0.28699854  1
  Bi  Bi98  1  0.75055067  0.49909189  0.77275404  1
  Bi  Bi99  1  0.24001520  0.53968936  0.53019274  1
  Bi  Bi100  1  0.72921020  -0.00259471  0.74695800  1
  Bi  Bi101  1  0.25112476  0.72631282  0.03133522  1
  Bi  Bi102  1  0.73180131  0.47780547  -0.00681411  1
  Bi  Bi103  1  0.50893924  0.02089856  0.25724475  1
  Bi  Bi104  1  0.49745665  0.48903336  0.02280232  1
  Bi  Bi105  1  0.73220708  0.22659427  0.49640330  1
  Bi  Bi106  1  0.22486971  -0.00980685  0.25249086  1
  Bi  Bi107  1  -0.01391280  0.22861257  0.74138484  1
  Bi  Bi108  1  0.46147117  0.01438631  0.74622121  1
  Bi  Bi109  1  0.45879204  0.49384641  0.49694587  1
  Bi  Bi110  1  0.74348955  0.25365638  0.24739636  1
  Bi  Bi111  1  0.72654129  0.23631907  0.73281049  1
  Bi  Bi112  1  -0.02276754  0.48128965  0.00264893  1
  Bi  Bi113  1  0.20578391  0.73931336  0.23891878  1
  Bi  Bi114  1  0.00108248  0.54650041  0.25858675  1
  Bi  Bi115  1  0.50188515  0.47944485  0.28411354  1
  Bi  Bi116  1  0.78416917  0.73010849  0.74271326  1
  Bi  Bi117  1  -0.01010970  -0.02352949  0.74483251  1
  Bi  Bi118  1  0.23255478  0.27659885  0.52472620  1
  Bi  Bi119  1  -0.04235191  0.50333849  0.51620719  1
  Bi  Bi120  1  0.74458246  -0.01492437  0.03429380  1
  Bi  Bi121  1  0.23410547  0.01162444  0.00482908  1
  Bi  Bi122  1  0.02903898  0.71070392  0.03222395  1
  Bi  Bi123  1  0.73139454  0.75325547  0.51403321  1
  Bi  Bi124  1  0.22136701  0.26192758  0.00091059  1
  O  O125  1  0.12399728  0.09842877  -0.01331209  1
  O  O126  1  0.14667369  0.12102720  0.24206036  1
  O  O127  1  0.11840139  0.11746651  0.50869584  1
  O  O128  1  0.15178012  0.16776063  0.74791154  1
  O  O129  1  0.15310324  0.38507838  -0.00201161  1
  O  O130  1  0.10963609  0.34043417  0.24843834  1
  O  O131  1  0.14478605  0.39340383  0.49526280  1
  O  O132  1  0.11282749  0.35906617  0.74578716  1
  O  O133  1  0.15179558  0.63272850  -0.00449773  1
  O  O134  1  0.12182836  0.62195696  0.24445660  1
  O  O135  1  0.14754953  0.64224473  0.50297778  1
  O  O136  1  0.08344097  0.63495976  0.75821714  1
  O  O137  1  0.15137438  0.89825873  -0.01494711  1
  O  O138  1  0.12072498  0.90147693  0.25552235  1
  O  O139  1  0.16027807  0.85899453  0.49185175  1
  O  O140  1  0.08787626  0.87016920  0.75023923  1
  O  O141  1  0.40366606  0.13949450  -0.00416140  1
  O  O142  1  0.36313239  0.12283244  0.24954752  1
  O  O143  1  0.38053880  0.10795389  0.50116987  1
  O  O144  1  0.38704182  0.14091861  0.74776005  1
  O  O145  1  0.35473351  0.35901491  -0.00667016  1
  O  O146  1  0.40649565  0.37294480  0.24930540  1
  O  O147  1  0.36226828  0.38969914  0.50247455  1
  O  O148  1  0.41097644  0.37387845  0.74936812  1
  O  O149  1  0.35152318  0.62510583  -0.00710562  1
  O  O150  1  0.41021835  0.62609246  0.25459176  1
  O  O151  1  0.35970866  0.62409267  0.49165791  1
  O  O152  1  0.39372467  0.63367241  0.74759391  1
  O  O153  1  0.35273092  0.87628567  -0.00937588  1
  O  O154  1  0.40506275  0.87668569  0.23942382  1
  O  O155  1  0.35441752  0.90789509  0.52146364  1
  O  O156  1  0.40558502  0.86735564  0.74704093  1
  O  O157  1  0.62496065  0.14463959  -0.00343596  1
  O  O158  1  0.62945168  0.09060390  0.25907777  1
  O  O159  1  0.61398816  0.15497697  0.49350827  1
  O  O160  1  0.64967636  0.11664886  0.75370815  1
  O  O161  1  0.65949167  0.35913205  -0.00034798  1
  O  O162  1  0.58916077  0.37738471  0.25014176  1
  O  O163  1  0.64854832  0.34295316  0.50788060  1
  O  O164  1  0.59618092  0.38685249  0.74681147  1
  O  O165  1  0.64943941  0.63234356  -0.01161668  1
  O  O166  1  0.60219910  0.61644220  0.24126102  1
  O  O167  1  0.67151969  0.61728754  0.49715627  1
  O  O168  1  0.59804990  0.62017189  0.74347925  1
  O  O169  1  0.65720703  0.86781034  -0.00578184  1
  O  O170  1  0.59119937  0.88184243  0.25804944  1
  O  O171  1  0.66432060  0.87885453  0.49965838  1
  O  O172  1  0.60704886  0.87341667  0.73966934  1
  O  O173  1  0.91388009  0.11998619  -0.00751306  1
  O  O174  1  0.88913020  0.13731438  0.23868159  1
  O  O175  1  0.89888716  0.10935059  0.50393216  1
  O  O176  1  0.87110503  0.15161428  0.75578038  1
  O  O177  1  0.85753457  0.40651739  0.00219557  1
  O  O178  1  0.89658946  0.34319974  0.24296992  1
  O  O179  1  0.85958242  0.38676939  0.49794263  1
  O  O180  1  0.89105431  0.35056932  0.74834136  1
  O  O181  1  0.84460083  0.61060183  -0.00084740  1
  O  O182  1  0.89344822  0.65077401  0.24091432  1
  O  O183  1  0.86025254  0.60047937  0.49803681  1
  O  O184  1  0.90661272  0.67058093  0.75422245  1
  O  O185  1  0.86864596  0.90167628  -0.00326208  1
  O  O186  1  0.89536604  0.84620839  0.23916047  1
  O  O187  1  0.84615266  0.92627976  0.50738898  1
  O  O188  1  0.90995546  0.86099370  0.75898146  1
  O  O189  1  0.01174264  0.11822280  0.13034369  1
  O  O190  1  0.01795402  0.10826134  0.36420768  1
  O  O191  1  0.01481132  0.13074549  0.64002109  1
  O  O192  1  0.01317577  0.12963782  0.85171485  1
  O  O193  1  -0.00945016  0.39163935  0.10462272  1
  O  O194  1  -0.00035137  0.36424866  0.38269994  1
  O  O195  1  -0.00073744  0.40123083  0.61560958  1
  O  O196  1  -0.00574091  0.39105985  0.89902886  1
  O  O197  1  -0.01412833  0.60698414  0.10599414  1
  O  O198  1  -0.00556139  0.62431199  0.37133549  1
  O  O199  1  -0.00393854  0.60138240  0.60589327  1
  O  O200  1  0.00983645  0.62753335  0.91310038  1
  O  O201  1  0.00292402  0.87638964  0.09850123  1
  O  O202  1  0.00431746  0.86645614  0.39693714  1
  O  O203  1  -0.01136281  0.92361076  0.60842319  1
  O  O204  1  0.00741439  0.88548885  0.89761843  1
  O  O205  1  0.25815102  0.13534107  0.09918409  1
  O  O206  1  0.25565422  0.13419061  0.38115658  1
  O  O207  1  0.25609215  0.15787132  0.61325255  1
  O  O208  1  0.26140830  0.14084897  0.88677032  1
  O  O209  1  0.26088395  0.34874030  0.14606341  1
  O  O210  1  0.23987944  0.36892019  0.35027871  1
  O  O211  1  0.25058820  0.34412128  0.64205878  1
  O  O212  1  0.25908187  0.35966253  0.83770609  1
  O  O213  1  0.26317275  0.63879312  0.14520966  1
  O  O214  1  0.24995293  0.63313252  0.34786722  1
  O  O215  1  0.25278452  0.64951864  0.62845076  1
  O  O216  1  0.25131220  0.62453392  0.84211011  1
  O  O217  1  0.25990729  0.87030679  0.14497505  1
  O  O218  1  0.26525246  0.86923656  0.35283379  1
  O  O219  1  0.24169202  0.84616313  0.64429828  1
  O  O220  1  0.25796410  0.88173751  0.83328559  1
  O  O221  1  0.49993947  0.10281279  0.13799258  1
  O  O222  1  0.49693566  0.12291032  0.35590734  1
  O  O223  1  0.48878015  0.08877833  0.62748357  1
  O  O224  1  0.50843351  0.11814985  0.85838135  1
  O  O225  1  0.49781595  0.36340905  0.08205176  1
  O  O226  1  0.50022769  0.38700236  0.40170438  1
  O  O227  1  0.50682630  0.38913462  0.58975797  1
  O  O228  1  0.49736021  0.39872823  0.89197430  1
  O  O229  1  0.50690340  0.62258230  0.09081367  1
  O  O230  1  0.52079948  0.63981778  0.39009815  1
  O  O231  1  0.49968717  0.62249462  0.59797932  1
  O  O232  1  0.49834336  0.61938791  0.88932133  1
  O  O233  1  0.49849751  0.88409956  0.08882103  1
  O  O234  1  0.49732666  0.86588884  0.40826391  1
  O  O235  1  0.51092347  0.88150259  0.59220471  1
  O  O236  1  0.50324539  0.86549892  0.88154868  1
  O  O237  1  0.76439869  0.11970826  0.10531588  1
  O  O238  1  0.74321056  0.09642289  0.40500442  1
  O  O239  1  0.74509984  0.15760919  0.61562064  1
  O  O240  1  0.76185970  0.11872647  0.89263586  1
  O  O241  1  0.75269769  0.36612758  0.15925427  1
  O  O242  1  0.75421469  0.36327063  0.34426192  1
  O  O243  1  0.75262946  0.35824810  0.64520106  1
  O  O244  1  0.76074702  0.39189713  0.86334992  1
  O  O245  1  0.74515592  0.64391319  0.13232206  1
  O  O246  1  0.74610206  0.61791149  0.33396702  1
  O  O247  1  0.74062164  0.64441328  0.64483110  1
  O  O248  1  0.74642520  0.62699741  0.83837879  1
  O  O249  1  0.76296166  0.89562043  0.14300946  1
  O  O250  1  0.73583902  0.89616716  0.34489443  1
  O  O251  1  0.75261839  0.85539049  0.64179240  1
  O  O252  1  0.75482085  0.87688544  0.85096480  1
  O  O253  1  0.15463298  0.00490977  0.12126252  1
  O  O254  1  0.15908532  -0.00332860  0.38653145  1
  O  O255  1  0.15218581  0.00953687  0.65245093  1
  O  O256  1  0.14768446  0.00784020  0.84003212  1
  O  O257  1  0.12113375  0.24252295  0.09461287  1
  O  O258  1  0.12578540  0.24155341  0.38134977  1
  O  O259  1  0.11353643  0.26300030  0.59683568  1
  O  O260  1  0.11586798  0.24730852  0.90505070  1
  O  O261  1  0.14488747  0.49147314  0.12660685  1
  O  O262  1  0.11814066  0.49663077  0.34855255  1
  O  O263  1  0.15244388  0.49999426  0.63718273  1
  O  O264  1  0.14690410  0.50477375  0.87224758  1
  O  O265  1  0.13497441  0.75591085  0.11766770  1
  O  O266  1  0.10601984  0.75562358  0.34359961  1
  O  O267  1  0.07941281  0.75377512  0.61837627  1
  O  O268  1  0.14482660  0.75646856  0.87208859  1
  O  O269  1  0.37482105  0.00101481  0.10657921  1
  O  O270  1  0.38088426  -0.00992862  0.37654601  1
  O  O271  1  0.34052369  -0.00675098  0.67382207  1
  O  O272  1  0.37927761  0.00478232  0.87048979  1
  O  O273  1  0.39904935  0.24534419  0.12726416  1
  O  O274  1  0.38774301  0.24896176  0.40015316  1
  O  O275  1  0.41354465  0.24773673  0.60974761  1
  O  O276  1  0.40827194  0.25420665  0.87845743  1
  O  O277  1  0.38591855  0.48868656  0.11600969  1
  O  O278  1  0.38116914  0.50835557  0.37174573  1
  O  O279  1  0.35899955  0.51350133  0.62476002  1
  O  O280  1  0.36119874  0.49889059  0.86538273  1
  O  O281  1  0.39311798  0.75599131  0.10983347  1
  O  O282  1  0.39016978  0.74873520  0.36649772  1
  O  O283  1  0.39103030  0.75683794  0.61641069  1
  O  O284  1  0.36673131  0.74921742  0.86875654  1
  O  O285  1  0.62506067  -0.00237934  0.10120131  1
  O  O286  1  0.60314434  -0.00451557  0.39831523  1
  O  O287  1  0.65102142  -0.00135776  0.62737520  1
  O  O288  1  0.63308079  -0.00359424  0.87840667  1
  O  O289  1  0.62788495  0.24246217  0.16288517  1
  O  O290  1  0.63418625  0.23912357  0.34478196  1
  O  O291  1  0.61018696  0.25547837  0.65386106  1
  O  O292  1  0.64589668  0.24314201  0.86579609  1
  O  O293  1  0.62355777  0.49969789  0.10078703  1
  O  O294  1  0.62735327  0.49713690  0.37209620  1
  O  O295  1  0.65075082  0.50116028  0.61693561  1
  O  O296  1  0.63650725  0.50503275  0.87214370  1
  O  O297  1  0.60604772  0.74737166  0.12273140  1
  O  O298  1  0.65290037  0.75353363  0.38207818  1
  O  O299  1  0.61424017  0.74530321  0.59655648  1
  O  O300  1  0.62364545  0.75102160  0.86290529  1
  O  O301  1  0.89201180  0.00219572  0.13374837  1
  O  O302  1  0.88423041  0.00073969  0.34324778  1
  O  O303  1  0.85333254  0.00024871  0.66978867  1
  O  O304  1  0.88809053  0.00190868  0.85983470  1
  O  O305  1  0.87731536  0.25056571  0.09705601  1
  O  O306  1  0.88042451  0.24730434  0.38600456  1
  O  O307  1  0.90229586  0.25358848  0.61263277  1
  O  O308  1  0.89479812  0.25590883  0.89223955  1
  O  O309  1  0.85595959  0.50224062  0.15398502  1
  O  O310  1  0.87120703  0.48612344  0.34265227  1
  O  O311  1  0.86359678  0.49250310  0.63039964  1
  O  O312  1  0.88159383  0.50835854  0.82143054  1
  O  O313  1  0.87851630  0.74870432  0.09284136  1
  O  O314  1  0.85594869  0.74491578  0.38603154  1
  O  O315  1  0.89691579  0.77420778  0.61580288  1
  O  O316  1  0.86624462  0.75585539  0.89970618  1
