# generated using pymatgen
data_Mg32Ti42(Bi17O64)3
_symmetry_space_group_name_H-M   'P 1'
_cell_length_a   15.89541681
_cell_length_b   15.91073691
_cell_length_c   15.93206142
_cell_angle_alpha   90.02395357
_cell_angle_beta   90.08895894
_cell_angle_gamma   89.99183569
_symmetry_Int_Tables_number   1
_chemical_formula_structural   Mg32Ti42(Bi17O64)3
_chemical_formula_sum   'Mg32 Ti42 Bi51 O192'
_cell_volume   4029.33727079
_cell_formula_units_Z   1
loop_
 _symmetry_equiv_pos_site_id
 _symmetry_equiv_pos_as_xyz
  1  'x, y, z'
loop_
 _atom_site_type_symbol
 _atom_site_label
 _atom_site_symmetry_multiplicity
 _atom_site_fract_x
 _atom_site_fract_y
 _atom_site_fract_z
 _atom_site_occupancy
  Mg  Mg0  1  0.12979388  0.61814777  0.13558230  1
  Mg  Mg1  1  0.13016153  0.12661397  0.37789629  1
  Mg  Mg2  1  0.11993422  0.37497796  0.37466864  1
  Mg  Mg3  1  0.37717696  0.38967410  0.37732170  1
  Mg  Mg4  1  0.12857660  0.36571887  0.62814345  1
  Mg  Mg5  1  0.12719319  0.63490159  0.63056122  1
  Mg  Mg6  1  0.87269620  0.62644026  0.38286045  1
  Mg  Mg7  1  0.63039899  0.37733658  0.63270842  1
  Mg  Mg8  1  0.63162321  0.61661914  0.87036157  1
  Mg  Mg9  1  0.36251305  0.12599682  0.86841096  1
  Mg  Mg10  1  0.62708812  0.87358752  0.36890842  1
  Mg  Mg11  1  0.88114265  0.87483368  0.63060392  1
  Mg  Mg12  1  0.36884004  0.87422565  0.62071509  1
  Mg  Mg13  1  0.61979447  0.62545661  0.12174415  1
  Mg  Mg14  1  0.13119929  0.61900156  0.38097255  1
  Mg  Mg15  1  0.37294583  0.12902409  0.12647267  1
  Mg  Mg16  1  0.13084524  0.86850367  0.12210903  1
  Mg  Mg17  1  0.12359905  0.87829556  0.38447096  1
  Mg  Mg18  1  0.12683860  0.36737076  0.87166534  1
  Mg  Mg19  1  0.24610579  0.71094093  0.00084311  1
  Mg  Mg20  1  0.79583587  0.75136475  0.77982413  1
  Mg  Mg21  1  0.24153107  0.44506628  0.48780985  1
  Mg  Mg22  1  0.24929710  0.28499352  0.28694697  1
  Mg  Mg23  1  0.46066633  0.20730840  -0.00665582  1
  Mg  Mg24  1  0.30644590  0.21674693  0.68701244  1
  Mg  Mg25  1  0.74972459  0.45413979  0.80924317  1
  Mg  Mg26  1  0.21195171  -0.03256852  0.77370423  1
  Mg  Mg27  1  0.40085476  0.01817339  0.72734285  1
  Mg  Mg28  1  0.29406233  0.72571754  0.80367260  1
  Mg  Mg29  1  0.27680704  0.51162353  -0.05705961  1
  Mg  Mg30  1  0.48990821  0.76315516  0.27835850  1
  Mg  Mg31  1  0.02443677  0.25441549  0.73412995  1
  Ti  Ti32  1  0.37972796  0.38540664  0.61002812  1
  Ti  Ti33  1  0.62012290  0.88329306  0.87996110  1
  Ti  Ti34  1  0.37516071  0.87559145  0.38268398  1
  Ti  Ti35  1  0.61808304  0.36396093  0.12104159  1
  Ti  Ti36  1  0.12174038  0.13717574  0.86408982  1
  Ti  Ti37  1  0.88874796  0.36302376  0.87854783  1
  Ti  Ti38  1  0.86478295  0.37966301  0.13406931  1
  Ti  Ti39  1  0.13160099  0.87351884  0.62479445  1
  Ti  Ti40  1  0.62603062  0.63914115  0.37533499  1
  Ti  Ti41  1  0.88705255  0.86140431  0.11762344  1
  Ti  Ti42  1  0.37021316  0.62881269  0.11668284  1
  Ti  Ti43  1  0.86445457  0.11690318  0.38653187  1
  Ti  Ti44  1  0.61480854  0.11793459  0.12822078  1
  Ti  Ti45  1  0.37491609  0.63496529  0.37660064  1
  Ti  Ti46  1  0.62721181  0.38311731  0.36145550  1
  Ti  Ti47  1  0.60209012  0.37202399  0.87761763  1
  Ti  Ti48  1  0.87337113  0.13038276  0.63213117  1
  Ti  Ti49  1  0.88574437  0.62883307  0.63930043  1
  Ti  Ti50  1  0.37350803  0.37440767  0.10714174  1
  Ti  Ti51  1  0.13557385  0.85992225  0.89355871  1
  Ti  Ti52  1  0.36382345  0.88945964  0.86952446  1
  Ti  Ti53  1  0.87380658  0.61217447  0.87507167  1
  Ti  Ti54  1  0.13072984  0.12549014  0.13522916  1
  Ti  Ti55  1  0.37208279  0.87564231  0.11465789  1
  Ti  Ti56  1  0.62237662  0.11828527  0.36774677  1
  Ti  Ti57  1  0.13019240  0.62242550  0.87516115  1
  Ti  Ti58  1  0.37369572  0.12264494  0.35886310  1
  Ti  Ti59  1  0.12716151  0.13563655  0.63413581  1
  Ti  Ti60  1  0.36349733  0.36081346  0.85167323  1
  Ti  Ti61  1  0.61195959  0.86912028  0.11245687  1
  Ti  Ti62  1  0.62312123  0.87947056  0.63915438  1
  Ti  Ti63  1  0.13373075  0.36992675  0.13425047  1
  Ti  Ti64  1  0.88291634  0.13543464  0.86582754  1
  Ti  Ti65  1  0.62303946  0.11927607  0.87606667  1
  Ti  Ti66  1  0.63708433  0.12419158  0.62376905  1
  Ti  Ti67  1  0.87129620  0.36829769  0.63576515  1
  Ti  Ti68  1  0.87484663  0.38639490  0.38445599  1
  Ti  Ti69  1  0.89792287  0.87161984  0.88787244  1
  Ti  Ti70  1  0.87250276  0.86475035  0.37726302  1
  Ti  Ti71  1  0.37342988  0.62566853  0.61548895  1
  Ti  Ti72  1  0.87271989  0.61943068  0.12057078  1
  Ti  Ti73  1  0.62232381  0.61846521  0.64062312  1
  Bi  Bi74  1  0.01883833  0.48401354  0.73416227  1
  Bi  Bi75  1  0.75535485  0.74254601  0.54440854  1
  Bi  Bi76  1  0.76203017  0.51077641  0.53086027  1
  Bi  Bi77  1  0.00562452  0.00746997  0.73694528  1
  Bi  Bi78  1  0.73125360  0.26318554  0.76581331  1
  Bi  Bi79  1  0.47603376  0.27464767  0.25908914  1
  Bi  Bi80  1  0.02907427  0.48195120  -0.00835280  1
  Bi  Bi81  1  0.00575021  0.72927852  0.48219849  1
  Bi  Bi82  1  0.49618167  0.53000324  0.26087445  1
  Bi  Bi83  1  0.50654946  0.21553062  0.72439009  1
  Bi  Bi84  1  0.00486677  0.25613101  0.48978716  1
  Bi  Bi85  1  0.49766902  0.50958902  0.00507420  1
  Bi  Bi86  1  0.23659709  0.02633412  -0.00096997  1
  Bi  Bi87  1  0.77604591  0.01702021  0.01257728  1
  Bi  Bi88  1  0.00107576  -0.01130494  0.26430461  1
  Bi  Bi89  1  0.02334926  0.76856522  0.73482108  1
  Bi  Bi90  1  0.49804029  0.00247028  0.52201568  1
  Bi  Bi91  1  0.26270712  0.75754543  0.23683882  1
  Bi  Bi92  1  0.76948160  -0.02477493  0.77267809  1
  Bi  Bi93  1  0.49498154  -0.02709925  0.25237160  1
  Bi  Bi94  1  0.52358299  0.48196487  0.50786859  1
  Bi  Bi95  1  0.26719766  0.01473065  0.53736488  1
  Bi  Bi96  1  0.46051725  0.53605636  0.78198220  1
  Bi  Bi97  1  0.22789191  -0.01200431  0.26948234  1
  Bi  Bi98  1  0.48000292  0.76700612  0.74447093  1
  Bi  Bi99  1  0.27386129  0.23754562  0.47970003  1
  Bi  Bi100  1  0.02102926  0.73043414  0.25022893  1
  Bi  Bi101  1  0.75091713  0.52511632  0.26937528  1
  Bi  Bi102  1  0.51675478  0.74648266  0.52088767  1
  Bi  Bi103  1  0.76430826  0.21776328  0.22316969  1
  Bi  Bi104  1  0.74131650  -0.03036837  0.50775945  1
  Bi  Bi105  1  0.50890070  0.23520599  0.48902590  1
  Bi  Bi106  1  0.26568815  0.49401110  0.23618492  1
  Bi  Bi107  1  -0.00144062  0.25513208  0.04053534  1
  Bi  Bi108  1  0.49195546  0.74717801  -0.03083103  1
  Bi  Bi109  1  0.25714995  0.25557904  -0.01096044  1
  Bi  Bi110  1  0.74729795  0.23922344  -0.00236976  1
  Bi  Bi111  1  0.24398392  0.73714744  0.50021597  1
  Bi  Bi112  1  0.73278959  0.50560413  0.01651143  1
  Bi  Bi113  1  0.00838367  0.02822939  0.01510342  1
  Bi  Bi114  1  0.72448345  0.25993383  0.48119238  1
  Bi  Bi115  1  -0.00645590  0.49850730  0.23954112  1
  Bi  Bi116  1  0.23729303  0.49956679  0.71309851  1
  Bi  Bi117  1  -0.00915729  0.21740291  0.27184995  1
  Bi  Bi118  1  0.77799833  -0.01357108  0.23496665  1
  Bi  Bi119  1  0.73429082  0.73726398  -0.02010270  1
  Bi  Bi120  1  0.01558759  0.72213883  -0.00074533  1
  Bi  Bi121  1  0.00157032  0.01690443  0.50880187  1
  Bi  Bi122  1  0.02858226  0.49111224  0.49538949  1
  Bi  Bi123  1  0.73512437  0.76009164  0.22994067  1
  Bi  Bi124  1  0.48118047  0.01138977  0.00907724  1
  O  O125  1  0.11317149  0.12004636  -0.01182666  1
  O  O126  1  0.12065098  0.10805555  0.24742473  1
  O  O127  1  0.10159769  0.13766439  0.51450712  1
  O  O128  1  0.13800571  0.08319213  0.75687720  1
  O  O129  1  0.09851593  0.35679725  0.00291138  1
  O  O130  1  0.14876802  0.36040683  0.25014483  1
  O  O131  1  0.09955405  0.35963140  0.50483345  1
  O  O132  1  0.13383346  0.40958452  0.75291718  1
  O  O133  1  0.13398017  0.65254470  0.01317707  1
  O  O134  1  0.08801742  0.60509312  0.26071187  1
  O  O135  1  0.13192681  0.66404121  0.50566797  1
  O  O136  1  0.12084182  0.59761816  0.76242543  1
  O  O137  1  0.16676970  0.82706113  -0.00188489  1
  O  O138  1  0.11204236  0.90756591  0.25142209  1
  O  O139  1  0.15257809  0.85207499  0.50971263  1
  O  O140  1  0.10090950  0.89269912  0.75638832  1
  O  O141  1  0.37311326  0.09968261  -0.00603423  1
  O  O142  1  0.39883481  0.15530589  0.24712034  1
  O  O143  1  0.35023356  0.11572613  0.47874025  1
  O  O144  1  0.38924341  0.14170830  0.74751937  1
  O  O145  1  0.37195026  0.41642247  0.00121223  1
  O  O146  1  0.35718889  0.34406902  0.24803974  1
  O  O147  1  0.37611377  0.42504603  0.49929039  1
  O  O148  1  0.35463494  0.33019173  0.74197147  1
  O  O149  1  0.32853353  0.59785923  0.01659150  1
  O  O150  1  0.41845897  0.65449839  0.24748768  1
  O  O151  1  0.37018992  0.62523267  0.49268868  1
  O  O152  1  0.38566260  0.65258583  0.74250713  1
  O  O153  1  0.35774109  0.90401516  -0.01269711  1
  O  O154  1  0.41133747  0.85621967  0.23165874  1
  O  O155  1  0.34779540  0.88551572  0.49118582  1
  O  O156  1  0.40447716  0.88222452  0.74447306  1
  O  O157  1  0.65499157  0.12744228  -0.00151550  1
  O  O158  1  0.60491391  0.12466098  0.25007575  1
  O  O159  1  0.63219003  0.14227705  0.50046175  1
  O  O160  1  0.60716588  0.11826853  0.74707947  1
  O  O161  1  0.60993198  0.34890734  -0.00650359  1
  O  O162  1  0.63443643  0.38220849  0.24227739  1
  O  O163  1  0.61138600  0.36659963  0.49350403  1
  O  O164  1  0.65436967  0.38556214  0.75906778  1
  O  O165  1  0.65552800  0.62480450  -0.00290636  1
  O  O166  1  0.61533681  0.60620993  0.24770334  1
  O  O167  1  0.64140081  0.64968174  0.49166166  1
  O  O168  1  0.59853007  0.61360077  0.74947608  1
  O  O169  1  0.65038721  0.88565310  -0.00400252  1
  O  O170  1  0.58705694  0.86653694  0.23501080  1
  O  O171  1  0.65313933  0.86685517  0.49412842  1
  O  O172  1  0.59998895  0.88152019  0.74865186  1
  O  O173  1  0.85720188  0.13595585  -0.01305413  1
  O  O174  1  0.86844407  0.12881459  0.26290989  1
  O  O175  1  0.89555028  0.13036242  0.50622447  1
  O  O176  1  0.86490924  0.10207405  0.75236959  1
  O  O177  1  0.89851480  0.35778041  -0.00656309  1
  O  O178  1  0.86075014  0.39408546  0.24797603  1
  O  O179  1  0.89796191  0.36875813  0.49988799  1
  O  O180  1  0.84788548  0.39169820  0.74844782  1
  O  O181  1  0.85513460  0.64225055  0.00245055  1
  O  O182  1  0.88762734  0.59594374  0.24966165  1
  O  O183  1  0.85931458  0.65262523  0.51435270  1
  O  O184  1  0.89113763  0.61567082  0.75824336  1
  O  O185  1  0.85462473  0.86348577  0.00181476  1
  O  O186  1  0.89253679  0.89327814  0.24698992  1
  O  O187  1  0.84674421  0.86822384  0.49542671  1
  O  O188  1  0.89199538  0.89989532  0.76304579  1
  O  O189  1  0.00556776  0.12099287  0.11838468  1
  O  O190  1  -0.00701985  0.10620449  0.36435165  1
  O  O191  1  0.00048583  0.14719522  0.66439368  1
  O  O192  1  -0.00380199  0.09714348  0.87176374  1
  O  O193  1  -0.00661810  0.34877045  0.14202538  1
  O  O194  1  -0.00604745  0.41716654  0.36216328  1
  O  O195  1  -0.00523413  0.35858836  0.66213661  1
  O  O196  1  -0.00064734  0.41117355  0.86429440  1
  O  O197  1  -0.00627234  0.64370551  0.11499796  1
  O  O198  1  -0.00187154  0.61155743  0.41364402  1
  O  O199  1  -0.00260538  0.65601168  0.62590059  1
  O  O200  1  -0.00177889  0.60960425  0.90699378  1
  O  O201  1  -0.00149040  0.84892968  0.10881484  1
  O  O202  1  -0.00895049  0.91256717  0.38397311  1
  O  O203  1  0.00694378  0.85215333  0.61874082  1
  O  O204  1  0.00911616  0.88434493  0.91071505  1
  O  O205  1  0.24720371  0.11524284  0.11507382  1
  O  O206  1  0.25688361  0.17260268  0.34965858  1
  O  O207  1  0.24524491  0.12382342  0.62300346  1
  O  O208  1  0.23859299  0.14642670  0.89337745  1
  O  O209  1  0.24893158  0.37798511  0.11363133  1
  O  O210  1  0.25118095  0.35657375  0.39502349  1
  O  O211  1  0.25032002  0.40419888  0.60806385  1
  O  O212  1  0.25105527  0.35505894  0.89101650  1
  O  O213  1  0.25669653  0.61611818  0.17370085  1
  O  O214  1  0.25736383  0.66365822  0.36962631  1
  O  O215  1  0.25753762  0.62911127  0.62041850  1
  O  O216  1  0.24277276  0.65022445  0.88315231  1
  O  O217  1  0.26100621  0.88103752  0.15033200  1
  O  O218  1  0.25946133  0.86600285  0.33824743  1
  O  O219  1  0.24243741  0.91961552  0.65392167  1
  O  O220  1  0.25333469  0.84544712  0.84047676  1
  O  O221  1  0.50498393  0.13806315  0.08906134  1
  O  O222  1  0.50054812  0.12064673  0.39437977  1
  O  O223  1  0.50953733  0.13691093  0.60887669  1
  O  O224  1  0.50973036  0.12211342  0.90192602  1
  O  O225  1  0.49749384  0.36240855  0.13648115  1
  O  O226  1  0.50445549  0.39715749  0.35481339  1
  O  O227  1  0.49684464  0.38597101  0.61863097  1
  O  O228  1  0.49049855  0.39634727  0.86048670  1
  O  O229  1  0.48945430  0.62222668  0.08950726  1
  O  O230  1  0.50444155  0.59915007  0.38438349  1
  O  O231  1  0.50492700  0.62204636  0.59724735  1
  O  O232  1  0.50175356  0.60537581  0.90093616  1
  O  O233  1  0.49817750  0.85270928  0.08090547  1
  O  O234  1  0.49380033  0.90415487  0.38118873  1
  O  O235  1  0.50735669  0.87708335  0.58911998  1
  O  O236  1  0.50218812  0.88880936  0.89596058  1
  O  O237  1  0.73827022  0.10401828  0.14389443  1
  O  O238  1  0.74891212  0.15517469  0.38166921  1
  O  O239  1  0.75584045  0.10779779  0.62200824  1
  O  O240  1  0.75015625  0.15974800  0.86706781  1
  O  O241  1  0.74726813  0.38869422  0.10633804  1
  O  O242  1  0.75190298  0.35211164  0.38068469  1
  O  O243  1  0.75796174  0.38742897  0.59809582  1
  O  O244  1  0.76548774  0.34321691  0.88407269  1
  O  O245  1  0.75333953  0.59869726  0.13885519  1
  O  O246  1  0.74585305  0.64131337  0.34820108  1
  O  O247  1  0.74315297  0.62112012  0.63152469  1
  O  O248  1  0.75819709  0.65685108  0.85825439  1
  O  O249  1  0.73982110  0.88106604  0.15226030  1
  O  O250  1  0.75581956  0.86125248  0.33540231  1
  O  O251  1  0.74503575  0.89557040  0.63719946  1
  O  O252  1  0.74291541  0.85485599  0.84074836  1
  O  O253  1  0.12253454  -0.00414154  0.09285463  1
  O  O254  1  0.16140186  0.00429796  0.38945463  1
  O  O255  1  0.09402044  0.00036133  0.61532264  1
  O  O256  1  0.15431375  -0.02273249  0.89158649  1
  O  O257  1  0.12553883  0.24268130  0.12116453  1
  O  O258  1  0.08537160  0.24896823  0.37254046  1
  O  O259  1  0.14000078  0.24532868  0.66309695  1
  O  O260  1  0.09545322  0.24383373  0.84024821  1
  O  O261  1  0.10871991  0.48722005  0.12545628  1
  O  O262  1  0.14768808  0.49968476  0.42288299  1
  O  O263  1  0.10832076  0.50639432  0.61907685  1
  O  O264  1  0.14827945  0.50712319  0.91754980  1
  O  O265  1  0.13822505  0.74869905  0.17466912  1
  O  O266  1  0.09237063  0.75439411  0.36599364  1
  O  O267  1  0.14275089  0.76035827  0.66365614  1
  O  O268  1  0.09985693  0.74434286  0.86148569  1
  O  O269  1  0.40169034  -0.00774938  0.13063850  1
  O  O270  1  0.36463855  0.00579247  0.34173652  1
  O  O271  1  0.38757154  0.00063572  0.60752448  1
  O  O272  1  0.33322678  -0.00027564  0.83136732  1
  O  O273  1  0.37454032  0.25703966  0.08191307  1
  O  O274  1  0.39680934  0.25701270  0.39764193  1
  O  O275  1  0.36615957  0.26892821  0.58700917  1
  O  O276  1  0.38102102  0.25433784  0.90758071  1
  O  O277  1  0.37790302  0.49738062  0.15551191  1
  O  O278  1  0.35886920  0.51768063  0.33857161  1
  O  O279  1  0.37965902  0.50932259  0.65342831  1
  O  O280  1  0.34262431  0.48486903  0.83835657  1
  O  O281  1  0.34364584  0.74518962  0.09097010  1
  O  O282  1  0.40287289  0.75871103  0.37882339  1
  O  O283  1  0.39910568  0.75095154  0.61269926  1
  O  O284  1  0.39690707  0.76606830  0.86570763  1
  O  O285  1  0.59742786  -0.00104800  0.12190323  1
  O  O286  1  0.64482216  0.00718181  0.37710301  1
  O  O287  1  0.61643370  0.00152558  0.60494139  1
  O  O288  1  0.64928124  0.00369237  0.87142340  1
  O  O289  1  0.64624790  0.24648991  0.12832474  1
  O  O290  1  0.61135857  0.25333245  0.38061521  1
  O  O291  1  0.63733646  0.24664950  0.63942785  1
  O  O292  1  0.61271463  0.25193218  0.84756807  1
  O  O293  1  0.61307360  0.49024433  0.09250217  1
  O  O294  1  0.64754980  0.49722081  0.38420407  1
  O  O295  1  0.62732152  0.50446744  0.60378841  1
  O  O296  1  0.65356360  0.48612280  0.89014318  1
  O  O297  1  0.64231682  0.75241194  0.11228062  1
  O  O298  1  0.59416577  0.74758472  0.35321207  1
  O  O299  1  0.61668873  0.75288545  0.62746929  1
  O  O300  1  0.60892062  0.75570649  0.89151545  1
  O  O301  1  0.86930793  -0.01404536  0.11608133  1
  O  O302  1  0.84454061  0.00491348  0.38689158  1
  O  O303  1  0.90807793  0.00550676  0.61591634  1
  O  O304  1  0.85092537  -0.00259382  0.89158136  1
  O  O305  1  0.85077786  0.25785311  0.12528292  1
  O  O306  1  0.90468708  0.25731916  0.37242044  1
  O  O307  1  0.85959369  0.24975515  0.63485778  1
  O  O308  1  0.91226937  0.25019602  0.84379016  1
  O  O309  1  0.89354782  0.49817285  0.10707815  1
  O  O310  1  0.84159771  0.49912762  0.39304650  1
  O  O311  1  0.88270946  0.50866052  0.61179696  1
  O  O312  1  0.84572699  0.50076929  0.88282709  1
  O  O313  1  0.85275079  0.74681423  0.14893535  1
  O  O314  1  0.90081313  0.75493112  0.36961594  1
  O  O315  1  0.84586852  0.75054434  0.66112450  1
  O  O316  1  0.89352624  0.75800568  0.86409693  1
