# generated using pymatgen
data_Mg32Ti42(Bi17O64)3
_symmetry_space_group_name_H-M   'P 1'
_cell_length_a   15.90113163
_cell_length_b   15.91922367
_cell_length_c   15.92309017
_cell_angle_alpha   89.99734995
_cell_angle_beta   90.08683351
_cell_angle_gamma   89.97841161
_symmetry_Int_Tables_number   1
_chemical_formula_structural   Mg32Ti42(Bi17O64)3
_chemical_formula_sum   'Mg32 Ti42 Bi51 O192'
_cell_volume   4030.66534684
_cell_formula_units_Z   1
loop_
 _symmetry_equiv_pos_site_id
 _symmetry_equiv_pos_as_xyz
  1  'x, y, z'
loop_
 _atom_site_type_symbol
 _atom_site_label
 _atom_site_symmetry_multiplicity
 _atom_site_fract_x
 _atom_site_fract_y
 _atom_site_fract_z
 _atom_site_occupancy
  Mg  Mg0  1  0.62235986  0.86816189  0.12919842  1
  Mg  Mg1  1  0.14293837  0.12252722  0.36219395  1
  Mg  Mg2  1  0.87697781  0.88632635  0.88502824  1
  Mg  Mg3  1  0.62320767  0.37555269  0.12198101  1
  Mg  Mg4  1  0.62553970  0.36426179  0.62836806  1
  Mg  Mg5  1  0.12884945  0.38268852  0.11524493  1
  Mg  Mg6  1  0.87430460  0.12365823  0.37478400  1
  Mg  Mg7  1  0.62023505  0.36706521  0.37576859  1
  Mg  Mg8  1  0.37844670  0.61359841  0.37172406  1
  Mg  Mg9  1  0.12731658  0.87139650  0.38566034  1
  Mg  Mg10  1  0.37047922  0.13787412  0.12353278  1
  Mg  Mg11  1  0.87759040  0.61930121  0.62752798  1
  Mg  Mg12  1  0.62280185  0.12715408  0.38364034  1
  Mg  Mg13  1  0.62475361  0.61580103  0.87159096  1
  Mg  Mg14  1  0.13177717  0.13331280  0.62401251  1
  Mg  Mg15  1  0.12565045  0.62752725  0.37401767  1
  Mg  Mg16  1  0.61833738  0.87381605  0.38271381  1
  Mg  Mg17  1  0.36902975  0.36995022  0.61931480  1
  Mg  Mg18  1  0.87008613  0.37648573  0.37349832  1
  Mg  Mg19  1  0.04449522  0.26281171  0.42103905  1
  Mg  Mg20  1  0.28535113  0.48232775  0.73518957  1
  Mg  Mg21  1  0.25827631  0.75920142  0.49780461  1
  Mg  Mg22  1  0.22722650  0.67708605  0.73066779  1
  Mg  Mg23  1  0.21149076  -0.02677782  0.25470694  1
  Mg  Mg24  1  0.22383364  0.31297986  0.45372246  1
  Mg  Mg25  1  0.01334109  -0.00908584  0.68779321  1
  Mg  Mg26  1  0.08866274  0.52801176  0.69282302  1
  Mg  Mg27  1  0.22500491  0.24067352  0.00561072  1
  Mg  Mg28  1  0.21270722  0.49217327  0.30662154  1
  Mg  Mg29  1  -0.00133394  -0.02356606  0.03241058  1
  Mg  Mg30  1  0.49446896  0.22127518  -0.00309798  1
  Mg  Mg31  1  0.45029826  0.49994451  0.22108927  1
  Ti  Ti32  1  0.37420998  0.11416871  0.88083580  1
  Ti  Ti33  1  0.88185865  0.12497034  0.87270185  1
  Ti  Ti34  1  0.87983745  0.62436170  0.13995696  1
  Ti  Ti35  1  0.36879990  0.88408683  0.13182598  1
  Ti  Ti36  1  0.36242953  0.87235972  0.87953160  1
  Ti  Ti37  1  0.37761922  0.62513219  0.62668662  1
  Ti  Ti38  1  0.89302688  0.37968538  0.87505844  1
  Ti  Ti39  1  0.35951336  0.88072552  0.37492145  1
  Ti  Ti40  1  0.37213728  0.87711373  0.63845323  1
  Ti  Ti41  1  0.62943818  0.87075503  0.62114554  1
  Ti  Ti42  1  0.88020275  0.37780530  0.62367648  1
  Ti  Ti43  1  0.38186177  0.37883549  0.36640459  1
  Ti  Ti44  1  0.13659748  0.86656199  0.61556928  1
  Ti  Ti45  1  0.62729114  0.12642200  0.88052226  1
  Ti  Ti46  1  0.11596506  0.12679816  0.88188427  1
  Ti  Ti47  1  0.89021776  0.87411405  0.62441325  1
  Ti  Ti48  1  0.62152833  0.86956277  0.88470345  1
  Ti  Ti49  1  0.87921249  0.86377779  0.13235623  1
  Ti  Ti50  1  0.12123841  0.61626056  0.13081830  1
  Ti  Ti51  1  0.62686163  0.13404167  0.12528362  1
  Ti  Ti52  1  0.14643573  0.36906379  0.62026112  1
  Ti  Ti53  1  0.36422393  0.37457286  0.10291556  1
  Ti  Ti54  1  0.87114819  0.11831687  0.12709883  1
  Ti  Ti55  1  0.13219504  0.36332531  0.89032930  1
  Ti  Ti56  1  0.88283394  0.61478265  0.37519632  1
  Ti  Ti57  1  0.37607407  0.13584598  0.62961606  1
  Ti  Ti58  1  0.62203808  0.38490416  0.87619484  1
  Ti  Ti59  1  0.37774494  0.36629879  0.87152303  1
  Ti  Ti60  1  0.35854566  0.62093880  0.12241130  1
  Ti  Ti61  1  0.62252908  0.62510277  0.13624777  1
  Ti  Ti62  1  0.13255374  0.12348909  0.12888415  1
  Ti  Ti63  1  0.10348866  0.90027885  0.87896228  1
  Ti  Ti64  1  0.61533579  0.62806445  0.37826192  1
  Ti  Ti65  1  0.62726069  0.13246702  0.62913998  1
  Ti  Ti66  1  0.86758451  0.38605583  0.12961819  1
  Ti  Ti67  1  0.38120922  0.63587919  0.86079094  1
  Ti  Ti68  1  0.87897824  0.12362072  0.63314006  1
  Ti  Ti69  1  0.86324668  0.61256439  0.86689797  1
  Ti  Ti70  1  0.11953020  0.86140802  0.12879188  1
  Ti  Ti71  1  0.36859058  0.14986445  0.37670516  1
  Ti  Ti72  1  0.62631178  0.63551756  0.62402701  1
  Ti  Ti73  1  0.88247452  0.87430636  0.38791740  1
  Bi  Bi74  1  0.01444347  0.04767200  0.48344028  1
  Bi  Bi75  1  0.74255482  0.01033032  0.50832377  1
  Bi  Bi76  1  0.76246898  0.26273354  -0.00154655  1
  Bi  Bi77  1  -0.00015586  -0.00149416  0.26706189  1
  Bi  Bi78  1  0.22493046  0.00134323  0.73389461  1
  Bi  Bi79  1  0.46392949  0.76247557  0.50244144  1
  Bi  Bi80  1  0.24544018  0.23552501  0.77330151  1
  Bi  Bi81  1  0.01239405  0.75671221  0.27574453  1
  Bi  Bi82  1  0.50367299  0.00869784  0.53056222  1
  Bi  Bi83  1  0.48663396  0.75992209  0.01967962  1
  Bi  Bi84  1  0.73281765  0.50777589  0.02117028  1
  Bi  Bi85  1  0.72805447  0.49917616  0.49898123  1
  Bi  Bi86  1  0.26391239  0.52305859  -0.03620063  1
  Bi  Bi87  1  0.77148321  0.73077328  0.49918272  1
  Bi  Bi88  1  0.49536364  0.49963950  0.48200834  1
  Bi  Bi89  1  0.03497704  0.71347275  0.75065349  1
  Bi  Bi90  1  0.48580447  0.27322434  0.22319459  1
  Bi  Bi91  1  0.52036073  0.73857178  0.76269676  1
  Bi  Bi92  1  0.75243318  0.49324907  0.72212082  1
  Bi  Bi93  1  0.76354619  0.26692534  0.76084568  1
  Bi  Bi94  1  0.51117925  -0.01631404  0.76788736  1
  Bi  Bi95  1  0.02549920  0.46913597  0.26980615  1
  Bi  Bi96  1  -0.01105053  0.24291269  0.01780112  1
  Bi  Bi97  1  0.22546980  0.28606505  0.25185506  1
  Bi  Bi98  1  0.01862675  0.45231610  0.48708578  1
  Bi  Bi99  1  0.72732721  0.00449617  0.27125393  1
  Bi  Bi100  1  0.77599439  0.25024444  0.49375249  1
  Bi  Bi101  1  0.50163990  0.01069460  0.03557758  1
  Bi  Bi102  1  0.00620710  0.25468744  0.72956288  1
  Bi  Bi103  1  0.25363122  0.03164202  0.49749189  1
  Bi  Bi104  1  0.72788410  0.48445075  0.26892227  1
  Bi  Bi105  1  0.23753108  -0.01264647  0.01834634  1
  Bi  Bi106  1  0.50075631  0.27891044  0.51020551  1
  Bi  Bi107  1  0.23161492  0.54171144  0.51569656  1
  Bi  Bi108  1  -0.01253881  0.24938561  0.23045154  1
  Bi  Bi109  1  0.49655114  0.76335273  0.26172990  1
  Bi  Bi110  1  0.78245418  0.77086118  0.75249186  1
  Bi  Bi111  1  0.51145899  0.24235108  0.77684045  1
  Bi  Bi112  1  0.48683123  0.03466953  0.27522240  1
  Bi  Bi113  1  0.74913204  -0.02181866  0.03275123  1
  Bi  Bi114  1  0.76299423  -0.00713909  0.76826796  1
  Bi  Bi115  1  0.02196696  0.70901550  0.52208668  1
  Bi  Bi116  1  -0.01191594  0.74062074  -0.02654843  1
  Bi  Bi117  1  0.50195127  0.50717972  0.01678121  1
  Bi  Bi118  1  0.25696360  0.71565022  0.27286305  1
  Bi  Bi119  1  0.21481935  0.74830346  -0.03902259  1
  Bi  Bi120  1  0.74072740  0.25154072  0.26753914  1
  Bi  Bi121  1  0.73831419  0.76431247  0.27255084  1
  Bi  Bi122  1  0.03324120  0.52906166  -0.03012177  1
  Bi  Bi123  1  0.76515688  0.73400089  -0.00578855  1
  Bi  Bi124  1  0.50126313  0.47421808  0.72793674  1
  O  O125  1  0.11518288  0.16510621  -0.00605632  1
  O  O126  1  0.14701103  0.08284200  0.23716033  1
  O  O127  1  0.13869723  0.12035863  0.49663995  1
  O  O128  1  0.15264558  0.11760822  0.76093299  1
  O  O129  1  0.11798977  0.33661892  -0.00142843  1
  O  O130  1  0.15161508  0.40658345  0.23773503  1
  O  O131  1  0.09824386  0.33910256  0.50212034  1
  O  O132  1  0.16899444  0.42634977  0.72169653  1
  O  O133  1  0.09562599  0.65137613  0.00552184  1
  O  O134  1  0.13472912  0.58924200  0.24226483  1
  O  O135  1  0.15974226  0.65888276  0.49592364  1
  O  O136  1  0.12361219  0.61909882  0.76397554  1
  O  O137  1  0.15068857  0.87536426  0.00767052  1
  O  O138  1  0.10198691  0.89963389  0.24294300  1
  O  O139  1  0.15510315  0.83807452  0.50721008  1
  O  O140  1  0.09343782  0.92885512  0.76925470  1
  O  O141  1  0.40821712  0.11925876  -0.00566140  1
  O  O142  1  0.38145461  0.15865687  0.25461808  1
  O  O143  1  0.36984236  0.10800820  0.50092654  1
  O  O144  1  0.36065267  0.14118993  0.75208328  1
  O  O145  1  0.37403464  0.40594119  -0.00945392  1
  O  O146  1  0.37335901  0.35588501  0.24586103  1
  O  O147  1  0.40903117  0.38861221  0.49250530  1
  O  O148  1  0.35471345  0.37095171  0.75505880  1
  O  O149  1  0.39132184  0.61009775  -0.00294833  1
  O  O150  1  0.37746897  0.62697829  0.23896153  1
  O  O151  1  0.37527696  0.59981385  0.50495812  1
  O  O152  1  0.35614550  0.65754702  0.74748259  1
  O  O153  1  0.35273268  0.87999636  0.00269852  1
  O  O154  1  0.38503471  0.85698401  0.24813888  1
  O  O155  1  0.35847092  0.86607730  0.49397142  1
  O  O156  1  0.39069733  0.86658090  0.75232242  1
  O  O157  1  0.60277498  0.10984975  -0.00640885  1
  O  O158  1  0.64333062  0.14086926  0.24336125  1
  O  O159  1  0.62668453  0.08895711  0.50577078  1
  O  O160  1  0.62368918  0.15173610  0.74713784  1
  O  O161  1  0.61753804  0.40923356  -0.00623351  1
  O  O162  1  0.65503526  0.36438811  0.25088349  1
  O  O163  1  0.59336148  0.38872621  0.49967896  1
  O  O164  1  0.62702665  0.33798119  0.75952457  1
  O  O165  1  0.61194066  0.59322930  0.00154834  1
  O  O166  1  0.64296614  0.64309483  0.25313867  1
  O  O167  1  0.61309285  0.60482672  0.49817278  1
  O  O168  1  0.63462086  0.65811512  0.74140354  1
  O  O169  1  0.64758376  0.87826272  -0.00257989  1
  O  O170  1  0.61502093  0.84062943  0.25408847  1
  O  O171  1  0.63517777  0.90589330  0.50476101  1
  O  O172  1  0.59677048  0.86007304  0.74510119  1
  O  O173  1  0.88418467  0.15094706  -0.00713820  1
  O  O174  1  0.87102979  0.11022351  0.24272029  1
  O  O175  1  0.86743278  0.13457629  0.51186075  1
  O  O176  1  0.85682253  0.11255090  0.75384988  1
  O  O177  1  0.88316145  0.35033253  -0.00584003  1
  O  O178  1  0.84005736  0.38446424  0.24287337  1
  O  O179  1  0.88135231  0.35347913  0.50847368  1
  O  O180  1  0.85087048  0.38581467  0.75956631  1
  O  O181  1  0.88165715  0.65237081  0.01149489  1
  O  O182  1  0.85461325  0.61866975  0.25639528  1
  O  O183  1  0.89393416  0.64667035  0.49943290  1
  O  O184  1  0.85027467  0.61324411  0.75430039  1
  O  O185  1  0.85156629  0.86253281  0.01040865  1
  O  O186  1  0.90806108  0.88988194  0.25037260  1
  O  O187  1  0.85890038  0.86918158  0.50337881  1
  O  O188  1  0.87420819  0.88347722  0.74940302  1
  O  O189  1  0.00161090  0.14238620  0.12581076  1
  O  O190  1  0.00364770  0.14816854  0.38610803  1
  O  O191  1  0.00121097  0.12483639  0.65081161  1
  O  O192  1  0.00062374  0.11576858  0.86562717  1
  O  O193  1  -0.00656477  0.36900507  0.14933922  1
  O  O194  1  -0.00535498  0.35590236  0.34841563  1
  O  O195  1  -0.00281448  0.37556083  0.65089165  1
  O  O196  1  0.00566047  0.38221362  0.86442925  1
  O  O197  1  -0.00434737  0.62227127  0.14682293  1
  O  O198  1  -0.00027440  0.65407838  0.37290254  1
  O  O199  1  0.00708010  0.62732862  0.63436763  1
  O  O200  1  -0.01539585  0.63412314  0.87950010  1
  O  O201  1  0.00279265  0.87171646  0.10310820  1
  O  O202  1  -0.00294853  0.83706569  0.38976525  1
  O  O203  1  0.00663894  0.86801620  0.62038584  1
  O  O204  1  -0.00159830  0.91620497  0.92077022  1
  O  O205  1  0.24445029  0.14485716  0.09651557  1
  O  O206  1  0.26521062  0.09203118  0.37031172  1
  O  O207  1  0.25712860  0.09751416  0.62655318  1
  O  O208  1  0.25815069  0.16162406  0.89550920  1
  O  O209  1  0.25459678  0.33772107  0.10128435  1
  O  O210  1  0.26676997  0.40439587  0.37792437  1
  O  O211  1  0.24905512  0.36760673  0.57094274  1
  O  O212  1  0.24895764  0.34189085  0.88880629  1
  O  O213  1  0.24416263  0.63365506  0.10779796  1
  O  O214  1  0.25286541  0.60011502  0.35536960  1
  O  O215  1  0.25366743  0.58657562  0.64391473  1
  O  O216  1  0.25507672  0.64226497  0.88385277  1
  O  O217  1  0.24302076  0.90334102  0.14708832  1
  O  O218  1  0.24832387  0.90575575  0.35309522  1
  O  O219  1  0.25273845  0.89134596  0.64025000  1
  O  O220  1  0.24848701  0.85580305  0.86632376  1
  O  O221  1  0.50742641  0.11429257  0.13267741  1
  O  O222  1  0.49436457  0.13449628  0.37349114  1
  O  O223  1  0.49935742  0.12577680  0.61581603  1
  O  O224  1  0.49483338  0.10965359  0.84744503  1
  O  O225  1  0.49818959  0.40252166  0.14783863  1
  O  O226  1  0.49713538  0.32784623  0.36288554  1
  O  O227  1  0.49855064  0.36286489  0.64278714  1
  O  O228  1  0.49567224  0.39592067  0.86032310  1
  O  O229  1  0.50642331  0.58702588  0.13696430  1
  O  O230  1  0.50416588  0.65567803  0.36985438  1
  O  O231  1  0.49614573  0.64115775  0.63506154  1
  O  O232  1  0.49565553  0.61416405  0.84719513  1
  O  O233  1  0.49212987  0.87280299  0.10667912  1
  O  O234  1  0.49207603  0.83541761  0.38187890  1
  O  O235  1  0.49120195  0.85596032  0.60007016  1
  O  O236  1  0.50183928  0.90076294  0.88861907  1
  O  O237  1  0.75306487  0.11849373  0.10595915  1
  O  O238  1  0.75140635  0.08225955  0.38373936  1
  O  O239  1  0.74602887  0.10339183  0.62478975  1
  O  O240  1  0.73952487  0.15220446  0.88197803  1
  O  O241  1  0.75348996  0.36930934  0.09269327  1
  O  O242  1  0.74764991  0.40848516  0.39385294  1
  O  O243  1  0.75042685  0.37275450  0.63466646  1
  O  O244  1  0.74098108  0.34540793  0.88730242  1
  O  O245  1  0.74726147  0.63693239  0.10228791  1
  O  O246  1  0.76034112  0.60416471  0.41070544  1
  O  O247  1  0.74456750  0.62230105  0.60533951  1
  O  O248  1  0.74897870  0.62943615  0.90028532  1
  O  O249  1  0.75939743  0.89073730  0.14461886  1
  O  O250  1  0.75847615  0.89231606  0.35026049  1
  O  O251  1  0.74354616  0.88145707  0.64520422  1
  O  O252  1  0.73974099  0.87321952  0.84926516  1
  O  O253  1  0.11031030  0.01321137  0.08639982  1
  O  O254  1  0.09157966  -0.00365894  0.38199390  1
  O  O255  1  0.12364878  -0.00729107  0.62441467  1
  O  O256  1  0.15064343  0.01368662  0.90434303  1
  O  O257  1  0.11710343  0.24669116  0.16963097  1
  O  O258  1  0.15446178  0.24830094  0.36332359  1
  O  O259  1  0.13050744  0.25653319  0.65752718  1
  O  O260  1  0.11473342  0.25257694  0.84041800  1
  O  O261  1  0.12002203  0.50728172  0.08313044  1
  O  O262  1  0.10275316  0.50036906  0.38628636  1
  O  O263  1  0.11414475  0.48858288  0.57858693  1
  O  O264  1  0.14063912  0.48491840  0.89818129  1
  O  O265  1  0.12441338  0.75051550  0.14793912  1
  O  O266  1  0.13756901  0.75062450  0.33794210  1
  O  O267  1  0.14417464  0.76617025  0.67662976  1
  O  O268  1  0.10012764  0.77651528  0.87812536  1
  O  O269  1  0.38203329  -0.00068163  0.12940713  1
  O  O270  1  0.40522012  -0.01289403  0.37455964  1
  O  O271  1  0.39559579  -0.00916605  0.63159617  1
  O  O272  1  0.35150606  0.00092310  0.87063545  1
  O  O273  1  0.41345515  0.26268452  0.09545277  1
  O  O274  1  0.33753944  0.25687195  0.40278510  1
  O  O275  1  0.37394448  0.24444535  0.61088049  1
  O  O276  1  0.40664275  0.25528487  0.88906732  1
  O  O277  1  0.35631081  0.49664876  0.13208117  1
  O  O278  1  0.42337911  0.49103289  0.34985097  1
  O  O279  1  0.38750945  0.50035085  0.65048720  1
  O  O280  1  0.34179756  0.50956737  0.85054736  1
  O  O281  1  0.38551187  0.74343596  0.11230440  1
  O  O282  1  0.33122320  0.74706707  0.38603584  1
  O  O283  1  0.34469563  0.74112739  0.59668876  1
  O  O284  1  0.39317045  0.75461843  0.88930352  1
  O  O285  1  0.62864383  -0.00042103  0.11963182  1
  O  O286  1  0.60660932  -0.00249742  0.34130429  1
  O  O287  1  0.59592708  -0.00650263  0.64281979  1
  O  O288  1  0.63326663  0.00516358  0.84652786  1
  O  O289  1  0.61308688  0.24659905  0.09824634  1
  O  O290  1  0.66905127  0.24622793  0.38730863  1
  O  O291  1  0.62905115  0.24046183  0.59259773  1
  O  O292  1  0.58326454  0.24459620  0.89779802  1
  O  O293  1  0.65824745  0.50275141  0.13949025  1
  O  O294  1  0.61320584  0.50892791  0.36126486  1
  O  O295  1  0.62235366  0.50499633  0.64502751  1
  O  O296  1  0.64443347  0.49100997  0.83980926  1
  O  O297  1  0.60019093  0.73800321  0.10753014  1
  O  O298  1  0.66387576  0.74430450  0.39074179  1
  O  O299  1  0.63021573  0.75270087  0.59564812  1
  O  O300  1  0.60204678  0.75415629  0.88297383  1
  O  O301  1  0.89229251  0.00498607  0.09725803  1
  O  O302  1  0.91345993  -0.00579037  0.38530391  1
  O  O303  1  0.89795373  -0.00172927  0.62458056  1
  O  O304  1  0.84324147  0.01142431  0.88446281  1
  O  O305  1  0.87868083  0.25018133  0.13235177  1
  O  O306  1  0.84318333  0.24889719  0.37195092  1
  O  O307  1  0.87310746  0.24610799  0.64989931  1
  O  O308  1  0.88285757  0.25123085  0.85164323  1
  O  O309  1  0.86494867  0.50310238  0.11372067  1
  O  O310  1  0.90631020  0.50357777  0.37739723  1
  O  O311  1  0.86014185  0.49341126  0.61672918  1
  O  O312  1  0.86841979  0.49713482  0.89390772  1
  O  O313  1  0.87555665  0.75174433  0.15052845  1
  O  O314  1  0.84763987  0.75346321  0.37136698  1
  O  O315  1  0.86903262  0.75534721  0.63632970  1
  O  O316  1  0.86572472  0.75139368  0.87247930  1
