# generated using pymatgen
data_Mg32Ti42(Bi17O64)3
_symmetry_space_group_name_H-M   'P 1'
_cell_length_a   15.95481073
_cell_length_b   15.95189556
_cell_length_c   15.94002522
_cell_angle_alpha   89.93416985
_cell_angle_beta   90.00388770
_cell_angle_gamma   89.95359621
_symmetry_Int_Tables_number   1
_chemical_formula_structural   Mg32Ti42(Bi17O64)3
_chemical_formula_sum   'Mg32 Ti42 Bi51 O192'
_cell_volume   4056.88342607
_cell_formula_units_Z   1
loop_
 _symmetry_equiv_pos_site_id
 _symmetry_equiv_pos_as_xyz
  1  'x, y, z'
loop_
 _atom_site_type_symbol
 _atom_site_label
 _atom_site_symmetry_multiplicity
 _atom_site_fract_x
 _atom_site_fract_y
 _atom_site_fract_z
 _atom_site_occupancy
  Mg  Mg0  1  0.87855444  0.87721815  0.12402908  1
  Mg  Mg1  1  0.37173647  0.12402539  0.11771407  1
  Mg  Mg2  1  0.11279310  0.12350007  0.62213589  1
  Mg  Mg3  1  0.86940061  0.60379263  0.62927945  1
  Mg  Mg4  1  0.87095157  0.62942378  0.12647739  1
  Mg  Mg5  1  0.11544659  0.89152203  0.62865112  1
  Mg  Mg6  1  0.13145803  0.38044394  0.87575136  1
  Mg  Mg7  1  0.12717131  0.62635615  0.37211142  1
  Mg  Mg8  1  0.36784242  0.12121076  0.37464225  1
  Mg  Mg9  1  0.12051771  0.62595056  0.11984962  1
  Mg  Mg10  1  0.86897056  0.63013337  0.37237816  1
  Mg  Mg11  1  0.87209205  0.37946602  0.37521188  1
  Mg  Mg12  1  0.87187468  0.87526093  0.38114543  1
  Mg  Mg13  1  0.87972210  0.89202804  0.86797221  1
  Mg  Mg14  1  0.12171631  0.38241142  0.11725550  1
  Mg  Mg15  1  0.61880349  0.63726431  0.88031303  1
  Mg  Mg16  1  0.12519597  0.61563817  0.62502306  1
  Mg  Mg17  1  0.11699562  0.37318365  0.38023319  1
  Mg  Mg18  1  0.61569656  0.87834794  0.12780241  1
  Mg  Mg19  1  -0.00191051  0.67259135  0.75639649  1
  Mg  Mg20  1  -0.06057665  0.00450368  0.51767049  1
  Mg  Mg21  1  0.18020371  0.00031560  0.48825587  1
  Mg  Mg22  1  0.47585588  0.73968947  0.21616187  1
  Mg  Mg23  1  0.23026063  0.53746148  0.00319528  1
  Mg  Mg24  1  0.46021363  -0.02181133  -0.00806656  1
  Mg  Mg25  1  0.69857226  0.24963797  -0.05117650  1
  Mg  Mg26  1  0.78095542  0.55475902  0.82057236  1
  Mg  Mg27  1  0.74069728  0.33204099  0.75946430  1
  Mg  Mg28  1  0.00012492  0.00349704  0.73346780  1
  Mg  Mg29  1  0.51692116  0.50198172  0.01462955  1
  Mg  Mg30  1  -0.00336187  0.55599008  0.24781839  1
  Mg  Mg31  1  -0.05865000  0.25872319  0.48567646  1
  Ti  Ti32  1  0.38057563  0.12082290  0.87501622  1
  Ti  Ti33  1  0.11519567  0.88461802  0.86369626  1
  Ti  Ti34  1  0.37115086  0.62203509  0.10891871  1
  Ti  Ti35  1  0.86652276  0.12105276  0.38251943  1
  Ti  Ti36  1  0.38674700  0.62876061  0.86570116  1
  Ti  Ti37  1  0.37213080  0.86647564  0.61150913  1
  Ti  Ti38  1  0.62601554  0.11422043  0.37627591  1
  Ti  Ti39  1  0.38731877  0.13343496  0.61973383  1
  Ti  Ti40  1  0.87987241  0.36559912  0.13154859  1
  Ti  Ti41  1  0.88101940  0.12496361  0.11451565  1
  Ti  Ti42  1  0.86200009  0.36892658  0.61830560  1
  Ti  Ti43  1  0.12092044  0.37385506  0.62783287  1
  Ti  Ti44  1  0.12416789  0.86902402  0.36970981  1
  Ti  Ti45  1  0.62004718  0.63600362  0.11563769  1
  Ti  Ti46  1  0.89165776  0.88554218  0.63693843  1
  Ti  Ti47  1  0.62057858  0.62843575  0.36318217  1
  Ti  Ti48  1  0.36998431  0.63010104  0.37541364  1
  Ti  Ti49  1  0.13551160  0.61158993  0.87829960  1
  Ti  Ti50  1  0.37027493  0.39395760  0.87458101  1
  Ti  Ti51  1  0.37269925  0.86402027  0.36729599  1
  Ti  Ti52  1  0.62071970  0.37577022  0.36260201  1
  Ti  Ti53  1  0.62020843  0.86406797  0.36355201  1
  Ti  Ti54  1  0.37931311  0.62348564  0.62242963  1
  Ti  Ti55  1  0.62314688  0.37982778  0.61701375  1
  Ti  Ti56  1  0.11928959  0.12365558  0.12738531  1
  Ti  Ti57  1  0.37588250  0.37748941  0.12105221  1
  Ti  Ti58  1  0.86355070  0.13029950  0.62582906  1
  Ti  Ti59  1  0.37431528  0.87639637  0.86462509  1
  Ti  Ti60  1  0.85625550  0.13129691  0.87262322  1
  Ti  Ti61  1  0.63066635  0.11874540  0.11178918  1
  Ti  Ti62  1  0.62877895  0.12937335  0.62582478  1
  Ti  Ti63  1  0.37644398  0.87077040  0.12286303  1
  Ti  Ti64  1  0.62574689  0.87877257  0.88041923  1
  Ti  Ti65  1  0.61079287  0.11172993  0.87374916  1
  Ti  Ti66  1  0.87515959  0.35428898  0.89053454  1
  Ti  Ti67  1  0.62808701  0.61342846  0.63762873  1
  Ti  Ti68  1  0.13061646  0.12034399  0.86246873  1
  Ti  Ti69  1  0.37606555  0.37055055  0.36728651  1
  Ti  Ti70  1  0.38766092  0.38060975  0.62010870  1
  Ti  Ti71  1  0.62307415  0.36577628  0.13145461  1
  Ti  Ti72  1  0.11614708  0.87166190  0.11752289  1
  Ti  Ti73  1  0.13113428  0.12427381  0.37549069  1
  Bi  Bi74  1  0.25715543  0.27173175  0.75028258  1
  Bi  Bi75  1  0.47394301  0.00627884  0.23882537  1
  Bi  Bi76  1  0.72864791  0.24595756  0.48989592  1
  Bi  Bi77  1  0.73396978  0.45723362  0.00275800  1
  Bi  Bi78  1  0.23129021  -0.00012550  0.24749627  1
  Bi  Bi79  1  0.77360920  0.49788406  0.23800497  1
  Bi  Bi80  1  0.48946740  -0.01467924  0.72029880  1
  Bi  Bi81  1  0.25910653  0.26943071  -0.00073753  1
  Bi  Bi82  1  0.23052933  0.24454086  0.52631993  1
  Bi  Bi83  1  0.72644267  -0.03761125  0.73102429  1
  Bi  Bi84  1  0.48318323  0.22891524  0.23091845  1
  Bi  Bi85  1  0.73587845  -0.03700276  0.50468819  1
  Bi  Bi86  1  0.52919909  0.25369511  0.74848697  1
  Bi  Bi87  1  0.75907567  0.75100800  0.23712224  1
  Bi  Bi88  1  0.76092421  -0.01994425  0.00195368  1
  Bi  Bi89  1  0.74213064  0.50230735  0.46563692  1
  Bi  Bi90  1  -0.00498194  0.25502107  0.28645980  1
  Bi  Bi91  1  0.73547224  0.74893396  0.53753840  1
  Bi  Bi92  1  0.22212332  0.27295602  0.24295529  1
  Bi  Bi93  1  0.23397261  0.48334420  0.48030932  1
  Bi  Bi94  1  0.51977494  0.73559227  0.51260834  1
  Bi  Bi95  1  -0.03219349  0.50551504  0.01911258  1
  Bi  Bi96  1  0.54969001  0.48353668  0.80078827  1
  Bi  Bi97  1  0.75334118  -0.02451142  0.23981952  1
  Bi  Bi98  1  0.48846643  0.50666664  0.48176898  1
  Bi  Bi99  1  0.50740080  0.27984447  -0.01866909  1
  Bi  Bi100  1  0.48419982  -0.02056633  0.48434109  1
  Bi  Bi101  1  0.25324829  0.76815035  -0.01028298  1
  Bi  Bi102  1  -0.03953862  0.46735259  0.76236147  1
  Bi  Bi103  1  0.21636552  0.74345938  0.75550173  1
  Bi  Bi104  1  -0.01833233  0.76490679  0.25741692  1
  Bi  Bi105  1  -0.01179674  0.00127359  0.27955235  1
  Bi  Bi106  1  0.77782786  0.74436596  -0.02637148  1
  Bi  Bi107  1  0.75170235  0.21953629  0.23813514  1
  Bi  Bi108  1  0.23131381  0.75121423  0.23628505  1
  Bi  Bi109  1  0.48731521  0.23754902  0.47989646  1
  Bi  Bi110  1  0.21777579  0.75584569  0.52866979  1
  Bi  Bi111  1  0.24496301  0.51108415  0.73076526  1
  Bi  Bi112  1  0.52667040  0.76322646  0.73618838  1
  Bi  Bi113  1  0.48449893  0.51497444  0.23538073  1
  Bi  Bi114  1  -0.00867328  0.52944926  0.47574673  1
  Bi  Bi115  1  0.00015308  0.01802288  -0.02748600  1
  Bi  Bi116  1  0.51580249  0.77187214  -0.00304850  1
  Bi  Bi117  1  -0.00647388  0.73061462  0.54324611  1
  Bi  Bi118  1  0.24950043  0.01419827  0.71176137  1
  Bi  Bi119  1  -0.00916270  0.73414923  -0.04479334  1
  Bi  Bi120  1  0.02396535  0.25449214  -0.01784534  1
  Bi  Bi121  1  0.22239418  0.50653683  0.22990836  1
  Bi  Bi122  1  0.25340930  0.01929374  -0.00000914  1
  Bi  Bi123  1  0.79729426  0.73563104  0.75872379  1
  Bi  Bi124  1  -0.02044065  0.22926221  0.73806330  1
  O  O125  1  0.09404663  0.13427082  0.00373556  1
  O  O126  1  0.12959113  0.09794885  0.24482504  1
  O  O127  1  0.13489390  0.12908279  0.49298007  1
  O  O128  1  0.15019803  0.11498929  0.75116935  1
  O  O129  1  0.13674985  0.33915812  -0.00113493  1
  O  O130  1  0.13754137  0.38297819  0.24750608  1
  O  O131  1  0.15359088  0.36518771  0.50664693  1
  O  O132  1  0.15831095  0.38056420  0.74675597  1
  O  O133  1  0.15071853  0.64580204  -0.00728691  1
  O  O134  1  0.11660408  0.59118220  0.24727868  1
  O  O135  1  0.12081626  0.65375025  0.50221269  1
  O  O136  1  0.12755530  0.61854786  0.75329037  1
  O  O137  1  0.13872140  0.84543890  0.00045247  1
  O  O138  1  0.13739899  0.89192049  0.24596872  1
  O  O139  1  0.14751079  0.87271580  0.48960587  1
  O  O140  1  0.10612296  0.92364878  0.75554330  1
  O  O141  1  0.38752236  0.08025950  0.00012763  1
  O  O142  1  0.38744274  0.12573036  0.24762695  1
  O  O143  1  0.39716399  0.12120079  0.50229326  1
  O  O144  1  0.37772863  0.13056598  0.75797485  1
  O  O145  1  0.35738704  0.37833882  0.00195404  1
  O  O146  1  0.38877630  0.35876654  0.25084062  1
  O  O147  1  0.37745091  0.39466270  0.50560435  1
  O  O148  1  0.37806993  0.35593633  0.76000802  1
  O  O149  1  0.33894897  0.60352134  0.00211641  1
  O  O150  1  0.41270870  0.63619011  0.25889778  1
  O  O151  1  0.36874573  0.60280494  0.50449090  1
  O  O152  1  0.40275869  0.63684617  0.75236517  1
  O  O153  1  0.35305939  0.88311876  0.00259474  1
  O  O154  1  0.40797576  0.84658455  0.24874310  1
  O  O155  1  0.36777246  0.88724959  0.49708145  1
  O  O156  1  0.39964587  0.86443046  0.75143381  1
  O  O157  1  0.61944236  0.14770997  -0.00019010  1
  O  O158  1  0.65365914  0.11643512  0.26121429  1
  O  O159  1  0.62036517  0.15269044  0.50258221  1
  O  O160  1  0.62126847  0.13206827  0.75366740  1
  O  O161  1  0.64311907  0.34453322  0.01172282  1
  O  O162  1  0.60967522  0.39944848  0.24887156  1
  O  O163  1  0.64245823  0.36533386  0.50127770  1
  O  O164  1  0.61930033  0.36622152  0.74898708  1
  O  O165  1  0.62323788  0.66372740  0.00452958  1
  O  O166  1  0.59697271  0.60539097  0.25087073  1
  O  O167  1  0.64390567  0.64982821  0.49765414  1
  O  O168  1  0.59686191  0.62436873  0.74830396  1
  O  O169  1  0.63658087  0.85621675  -0.00293712  1
  O  O170  1  0.60605286  0.90161066  0.25582906  1
  O  O171  1  0.65201771  0.85282586  0.49224721  1
  O  O172  1  0.60241439  0.89135519  0.75570325  1
  O  O173  1  0.89706319  0.13985240  0.00255543  1
  O  O174  1  0.85104298  0.11045705  0.25992253  1
  O  O175  1  0.90191587  0.13544279  0.50261916  1
  O  O176  1  0.86283205  0.14239444  0.75243787  1
  O  O177  1  0.87015816  0.35580235  0.00519946  1
  O  O178  1  0.88050491  0.40387997  0.24505526  1
  O  O179  1  0.85912473  0.35569496  0.50383959  1
  O  O180  1  0.87993931  0.35092725  0.75074721  1
  O  O181  1  0.88266919  0.65944583  0.00320282  1
  O  O182  1  0.87651701  0.58994981  0.24777694  1
  O  O183  1  0.88687434  0.64395663  0.50765332  1
  O  O184  1  0.87527457  0.62165896  0.75646786  1
  O  O185  1  0.84750334  0.86973890  -0.00002570  1
  O  O186  1  0.88127685  0.91101517  0.25088258  1
  O  O187  1  0.86386879  0.88170007  0.50871137  1
  O  O188  1  0.89435032  0.92770863  0.74678657  1
  O  O189  1  -0.00630464  0.10361973  0.14114718  1
  O  O190  1  0.00093429  0.13720677  0.35664816  1
  O  O191  1  -0.00729130  0.10677134  0.65731951  1
  O  O192  1  0.00921076  0.08228339  0.85013091  1
  O  O193  1  -0.00650161  0.39784240  0.10763127  1
  O  O194  1  -0.00380635  0.33896584  0.39609930  1
  O  O195  1  0.01095610  0.38806028  0.63691704  1
  O  O196  1  0.00204177  0.38784252  0.87561974  1
  O  O197  1  -0.00204919  0.59125710  0.11990343  1
  O  O198  1  -0.00198167  0.61351999  0.36821275  1
  O  O199  1  0.00022955  0.62664868  0.63361518  1
  O  O200  1  0.01484191  0.62016125  0.87862021  1
  O  O201  1  0.00494772  0.87714549  0.12382414  1
  O  O202  1  0.00660616  0.86972407  0.35658839  1
  O  O203  1  -0.00360576  0.93229700  0.60749988  1
  O  O204  1  0.00440899  0.89487933  0.89933008  1
  O  O205  1  0.24166255  0.12671867  0.10273872  1
  O  O206  1  0.24560530  0.10123829  0.36698797  1
  O  O207  1  0.26957154  0.14288918  0.62781104  1
  O  O208  1  0.25090996  0.12942548  0.90004864  1
  O  O209  1  0.25893365  0.34726237  0.12741118  1
  O  O210  1  0.26064780  0.39150155  0.37130400  1
  O  O211  1  0.27041998  0.34117194  0.62864075  1
  O  O212  1  0.25784827  0.34137205  0.87629838  1
  O  O213  1  0.26112701  0.63691373  0.15494309  1
  O  O214  1  0.25939259  0.60477474  0.36536515  1
  O  O215  1  0.26065326  0.63968731  0.64232349  1
  O  O216  1  0.25511416  0.65038663  0.85530737  1
  O  O217  1  0.25869767  0.84252717  0.13037107  1
  O  O218  1  0.26147621  0.88961762  0.35333342  1
  O  O219  1  0.25813683  0.86019606  0.63820405  1
  O  O220  1  0.24982674  0.84392256  0.86542712  1
  O  O221  1  0.51417284  0.11664517  0.14586491  1
  O  O222  1  0.51253183  0.14692773  0.36896095  1
  O  O223  1  0.50923743  0.10146659  0.63064665  1
  O  O224  1  0.49937448  0.08658289  0.87618991  1
  O  O225  1  0.50328738  0.39659063  0.10148855  1
  O  O226  1  0.50576507  0.36142413  0.39010618  1
  O  O227  1  0.50528664  0.39632948  0.62355786  1
  O  O228  1  0.49194161  0.40439584  0.90835989  1
  O  O229  1  0.49290743  0.59074726  0.10715413  1
  O  O230  1  0.50375831  0.63299707  0.40874675  1
  O  O231  1  0.50493248  0.61651752  0.59828763  1
  O  O232  1  0.49487788  0.58425288  0.90333611  1
  O  O233  1  0.49161479  0.89886705  0.09223073  1
  O  O234  1  0.50503378  0.86422021  0.40434223  1
  O  O235  1  0.49410035  0.89463881  0.61567956  1
  O  O236  1  0.49183073  0.89470889  0.90286878  1
  O  O237  1  0.75105491  0.15030283  0.11920103  1
  O  O238  1  0.75218881  0.11609292  0.40809264  1
  O  O239  1  0.75007066  0.16000033  0.61513977  1
  O  O240  1  0.74740932  0.14843311  0.89018850  1
  O  O241  1  0.74650524  0.37873898  0.13611020  1
  O  O242  1  0.74425239  0.40925473  0.36265261  1
  O  O243  1  0.74825822  0.35194382  0.63856262  1
  O  O244  1  0.76205093  0.32964152  0.87747379  1
  O  O245  1  0.73554362  0.64594317  0.14139994  1
  O  O246  1  0.74006232  0.60262096  0.36402814  1
  O  O247  1  0.74623208  0.64108109  0.64245173  1
  O  O248  1  0.74223478  0.66367371  0.86154024  1
  O  O249  1  0.74400849  0.86324977  0.15387856  1
  O  O250  1  0.74347374  0.89599811  0.35939738  1
  O  O251  1  0.76328539  0.86857316  0.64095950  1
  O  O252  1  0.74097737  0.86290260  0.85207430  1
  O  O253  1  0.14680618  -0.00932207  0.11083652  1
  O  O254  1  0.11406520  -0.00112918  0.38191557  1
  O  O255  1  0.16285128  0.00676348  0.60873428  1
  O  O256  1  0.13950090  -0.00124540  0.90842131  1
  O  O257  1  0.11810663  0.23943963  0.15236627  1
  O  O258  1  0.13104110  0.24428961  0.34902750  1
  O  O259  1  0.12995523  0.25068733  0.62512718  1
  O  O260  1  0.10229450  0.23539634  0.86654364  1
  O  O261  1  0.16584204  0.50097318  0.10294999  1
  O  O262  1  0.11712691  0.49778207  0.40811144  1
  O  O263  1  0.16210431  0.49291737  0.61658922  1
  O  O264  1  0.16252580  0.50358753  0.89825566  1
  O  O265  1  0.12153852  0.74987984  0.15493357  1
  O  O266  1  0.13751349  0.75448421  0.35393993  1
  O  O267  1  0.12087681  0.76250927  0.62881812  1
  O  O268  1  0.09967563  0.76434131  0.83701178  1
  O  O269  1  0.36166384  -0.01407228  0.15395324  1
  O  O270  1  0.40360719  -0.00849704  0.36382661  1
  O  O271  1  0.36991438  0.00062649  0.63614106  1
  O  O272  1  0.35018192  -0.01150586  0.86350174  1
  O  O273  1  0.40323600  0.25211763  0.11663639  1
  O  O274  1  0.37148456  0.25466108  0.39579498  1
  O  O275  1  0.41067050  0.24993212  0.61570344  1
  O  O276  1  0.39735561  0.23451186  0.90042442  1
  O  O277  1  0.36325580  0.49605294  0.14594302  1
  O  O278  1  0.40526633  0.49948544  0.36677156  1
  O  O279  1  0.36010322  0.49834894  0.64605283  1
  O  O280  1  0.34733026  0.50074550  0.85705853  1
  O  O281  1  0.39937270  0.74029322  0.11144861  1
  O  O282  1  0.36201470  0.74696604  0.38868117  1
  O  O283  1  0.39578825  0.74750727  0.60738774  1
  O  O284  1  0.39728805  0.74276193  0.89553193  1
  O  O285  1  0.64764204  0.00702749  0.11024507  1
  O  O286  1  0.61141177  0.00283786  0.40367599  1
  O  O287  1  0.65543555  0.01304096  0.61908336  1
  O  O288  1  0.64557220  0.00038042  0.88605637  1
  O  O289  1  0.61532484  0.25366759  0.15536008  1
  O  O290  1  0.65235813  0.26022794  0.36636515  1
  O  O291  1  0.60312295  0.25331467  0.63082845  1
  O  O292  1  0.59231695  0.24045911  0.87443030  1
  O  O293  1  0.63227767  0.50626253  0.08055297  1
  O  O294  1  0.61005347  0.50225762  0.39953002  1
  O  O295  1  0.64246534  0.49833161  0.61949141  1
  O  O296  1  0.66311871  0.51229170  0.86762925  1
  O  O297  1  0.57983470  0.74530252  0.14527409  1
  O  O298  1  0.62739351  0.74766173  0.34957923  1
  O  O299  1  0.61588259  0.74309602  0.62553039  1
  O  O300  1  0.58666258  0.76124734  0.86296158  1
  O  O301  1  0.84870038  0.00844088  0.10783023  1
  O  O302  1  0.90348869  0.00571667  0.39489007  1
  O  O303  1  0.84647456  0.01717438  0.60720213  1
  O  O304  1  0.86129903  0.01420318  0.90307999  1
  O  O305  1  0.88375746  0.25151611  0.15237828  1
  O  O306  1  0.86690202  0.24413985  0.36780355  1
  O  O307  1  0.90885061  0.25087784  0.61730331  1
  O  O308  1  0.91605465  0.23880579  0.87513304  1
  O  O309  1  0.84923487  0.50025460  0.09223790  1
  O  O310  1  0.87579737  0.50113716  0.40903417  1
  O  O311  1  0.87044063  0.48226694  0.63798789  1
  O  O312  1  0.86021086  0.47528768  0.86777053  1
  O  O313  1  0.87730396  0.75275667  0.16305239  1
  O  O314  1  0.87175709  0.75342557  0.34137827  1
  O  O315  1  0.91924568  0.77376045  0.65950677  1
  O  O316  1  0.88626036  0.76513725  0.86821497  1
