# generated using pymatgen
data_Mg32Ti42(Bi17O64)3
_symmetry_space_group_name_H-M   'P 1'
_cell_length_a   15.94230452
_cell_length_b   15.93929960
_cell_length_c   15.93142901
_cell_angle_alpha   89.88779376
_cell_angle_beta   89.95936455
_cell_angle_gamma   89.95223939
_symmetry_Int_Tables_number   1
_chemical_formula_structural   Mg32Ti42(Bi17O64)3
_chemical_formula_sum   'Mg32 Ti42 Bi51 O192'
_cell_volume   4048.31198741
_cell_formula_units_Z   1
loop_
 _symmetry_equiv_pos_site_id
 _symmetry_equiv_pos_as_xyz
  1  'x, y, z'
loop_
 _atom_site_type_symbol
 _atom_site_label
 _atom_site_symmetry_multiplicity
 _atom_site_fract_x
 _atom_site_fract_y
 _atom_site_fract_z
 _atom_site_occupancy
  Mg  Mg0  1  0.89231065  0.11587542  0.12580610  1
  Mg  Mg1  1  0.38498279  0.12440655  0.13080244  1
  Mg  Mg2  1  0.62476249  0.87676896  0.62712618  1
  Mg  Mg3  1  0.87021442  0.62368486  0.87698381  1
  Mg  Mg4  1  0.87221678  0.37278672  0.14019231  1
  Mg  Mg5  1  0.88311190  0.12894648  0.87849825  1
  Mg  Mg6  1  0.37094450  0.62977016  0.62610821  1
  Mg  Mg7  1  0.38183500  0.88019870  0.37526676  1
  Mg  Mg8  1  0.37217414  0.62723701  0.12524366  1
  Mg  Mg9  1  0.62652369  0.13505468  0.87209411  1
  Mg  Mg10  1  0.13451113  0.36984878  0.37698374  1
  Mg  Mg11  1  0.39039672  0.61979789  0.37725474  1
  Mg  Mg12  1  0.12744278  0.11709239  0.37385913  1
  Mg  Mg13  1  0.63576906  0.87712824  0.88350086  1
  Mg  Mg14  1  0.87991556  0.63683812  0.61398233  1
  Mg  Mg15  1  0.12579368  0.63205043  0.86925357  1
  Mg  Mg16  1  0.87469524  0.12001995  0.61863847  1
  Mg  Mg17  1  0.37343537  0.36303148  0.62688638  1
  Mg  Mg18  1  0.87838860  0.87850752  0.88149822  1
  Mg  Mg19  1  0.24833300  0.67328531  0.48332328  1
  Mg  Mg20  1  0.53280574  0.19772089  0.48227069  1
  Mg  Mg21  1  0.28662089  0.03842317  0.25459261  1
  Mg  Mg22  1  0.30388702  0.74947609  0.28790393  1
  Mg  Mg23  1  0.03942516  -0.02082726  0.47602696  1
  Mg  Mg24  1  0.28199212  0.25228790  0.50538188  1
  Mg  Mg25  1  0.80172737  0.78451641  0.24443448  1
  Mg  Mg26  1  0.78587260  0.75510586  0.05908392  1
  Mg  Mg27  1  0.52198219  0.26413576  0.79158409  1
  Mg  Mg28  1  0.74028950  0.26601459  0.27814322  1
  Mg  Mg29  1  0.03412390  0.01518500  -0.01147982  1
  Mg  Mg30  1  0.22136060  -0.00287462  0.72638089  1
  Mg  Mg31  1  0.22372698  0.43910004  0.52287358  1
  Ti  Ti32  1  0.37180787  0.12209761  0.63361657  1
  Ti  Ti33  1  0.88379037  0.88625803  0.62346356  1
  Ti  Ti34  1  0.12302219  0.87629680  0.87220319  1
  Ti  Ti35  1  0.37249939  0.63204980  0.87416138  1
  Ti  Ti36  1  0.62448136  0.62223704  0.88376328  1
  Ti  Ti37  1  0.61569834  0.37089572  0.62910757  1
  Ti  Ti38  1  0.61807373  0.37935536  0.39039389  1
  Ti  Ti39  1  0.36796879  0.89183288  0.86824232  1
  Ti  Ti40  1  0.13201510  0.38976453  0.13159406  1
  Ti  Ti41  1  0.13087328  0.36213929  0.88051384  1
  Ti  Ti42  1  0.62769315  0.13545211  0.12559302  1
  Ti  Ti43  1  0.12168207  0.11103458  0.61050794  1
  Ti  Ti44  1  0.62236496  0.38009725  0.88723634  1
  Ti  Ti45  1  0.62463774  0.63359876  0.37748941  1
  Ti  Ti46  1  0.88290147  0.13126064  0.38115681  1
  Ti  Ti47  1  0.13240709  0.88029452  0.12751820  1
  Ti  Ti48  1  0.11866363  0.87767922  0.63394916  1
  Ti  Ti49  1  0.62479273  0.37863912  0.12928324  1
  Ti  Ti50  1  0.61703603  0.63111796  0.62234541  1
  Ti  Ti51  1  0.11460740  0.11664150  0.13355529  1
  Ti  Ti52  1  0.88764581  0.37803088  0.86845240  1
  Ti  Ti53  1  0.38531225  0.88011650  0.62442349  1
  Ti  Ti54  1  0.37916113  0.37354489  0.13355531  1
  Ti  Ti55  1  0.13422387  0.12743710  0.86907670  1
  Ti  Ti56  1  0.89708293  0.88538224  0.12196653  1
  Ti  Ti57  1  0.37238190  0.87865110  0.13593534  1
  Ti  Ti58  1  0.13782926  0.63620230  0.12632987  1
  Ti  Ti59  1  0.62842123  0.63130487  0.11944673  1
  Ti  Ti60  1  0.14867653  0.86990535  0.36622752  1
  Ti  Ti61  1  0.86522529  0.63348465  0.37415033  1
  Ti  Ti62  1  0.36794427  0.13282447  0.37854238  1
  Ti  Ti63  1  0.37164337  0.36447728  0.87857235  1
  Ti  Ti64  1  0.36880881  0.12828782  0.86614444  1
  Ti  Ti65  1  0.61797795  0.14098394  0.63694458  1
  Ti  Ti66  1  0.63521376  0.88376825  0.13089226  1
  Ti  Ti67  1  0.86486268  0.87889677  0.37864218  1
  Ti  Ti68  1  0.87089956  0.37448772  0.37314266  1
  Ti  Ti69  1  0.37388829  0.37829698  0.38073072  1
  Ti  Ti70  1  0.86985435  0.36632355  0.61431678  1
  Ti  Ti71  1  0.62756436  0.87410677  0.36400495  1
  Ti  Ti72  1  0.87665597  0.62073546  0.12057944  1
  Ti  Ti73  1  0.13333574  0.63507198  0.62811326  1
  Bi  Bi74  1  0.03956569  0.27383402  0.51510800  1
  Bi  Bi75  1  0.26670484  -0.00299036  0.49198524  1
  Bi  Bi76  1  0.04891670  0.53066967  0.48113811  1
  Bi  Bi77  1  -0.00977815  0.73396154  0.74553206  1
  Bi  Bi78  1  0.75285193  0.50872100  0.26129893  1
  Bi  Bi79  1  0.00277943  0.52420368  0.24941320  1
  Bi  Bi80  1  0.01958344  0.51275637  -0.01463870  1
  Bi  Bi81  1  0.24444599  0.51557169  -0.02824582  1
  Bi  Bi82  1  0.22687188  0.24431599  0.70804380  1
  Bi  Bi83  1  0.50894218  0.76125554  0.78409638  1
  Bi  Bi84  1  -0.02348449  0.50142943  0.71172062  1
  Bi  Bi85  1  0.75900428  0.25029320  0.76047355  1
  Bi  Bi86  1  0.73617287  0.77425410  0.51586281  1
  Bi  Bi87  1  0.53006333  -0.00787322  0.75971062  1
  Bi  Bi88  1  0.77162129  0.46875273  -0.00063284  1
  Bi  Bi89  1  0.49723562  0.23786666  0.00183547  1
  Bi  Bi90  1  -0.01984390  0.74264110  -0.02114695  1
  Bi  Bi91  1  0.78148323  0.01249841  0.76179042  1
  Bi  Bi92  1  0.74178577  0.01555410  0.49599686  1
  Bi  Bi93  1  0.49817823  0.78334574  0.01736849  1
  Bi  Bi94  1  0.24771407  0.78215006  -0.00533657  1
  Bi  Bi95  1  0.47028189  0.50661308  0.01179038  1
  Bi  Bi96  1  0.24950605  0.26239752  0.25963599  1
  Bi  Bi97  1  0.23248722  0.46758705  0.71984374  1
  Bi  Bi98  1  0.77472775  0.24312031  0.03280677  1
  Bi  Bi99  1  0.51530327  0.26129178  0.27642143  1
  Bi  Bi100  1  0.46665557  0.49555379  0.52778007  1
  Bi  Bi101  1  0.00491924  0.27683182  0.03015584  1
  Bi  Bi102  1  0.01233264  0.26592132  0.27231766  1
  Bi  Bi103  1  0.51025539  0.52599632  0.24933688  1
  Bi  Bi104  1  0.46231495  0.48986349  0.75789627  1
  Bi  Bi105  1  0.74367183  0.25338891  0.50383306  1
  Bi  Bi106  1  0.23588641  0.54122031  0.29513177  1
  Bi  Bi107  1  0.02152250  0.74892551  0.25126046  1
  Bi  Bi108  1  0.02804546  0.76589712  0.49387664  1
  Bi  Bi109  1  0.73634644  0.76516635  0.76259474  1
  Bi  Bi110  1  0.27964105  0.75148921  0.73604369  1
  Bi  Bi111  1  0.72942933  0.52673734  0.75101394  1
  Bi  Bi112  1  0.49354415  0.74770434  0.24237069  1
  Bi  Bi113  1  0.53271168  0.01550663  -0.00709030  1
  Bi  Bi114  1  0.25478214  0.23997529  0.03122003  1
  Bi  Bi115  1  0.46719568  0.75488083  0.49395441  1
  Bi  Bi116  1  -0.01354216  0.23866606  0.73118729  1
  Bi  Bi117  1  0.00548115  -0.00141511  0.27766914  1
  Bi  Bi118  1  0.76025602  0.04049732  0.26249530  1
  Bi  Bi119  1  0.51784990  0.00733702  0.51546666  1
  Bi  Bi120  1  0.52227802  0.02765487  0.28657093  1
  Bi  Bi121  1  0.75013973  0.52004449  0.52508302  1
  Bi  Bi122  1  0.76687985  0.00894938  -0.00214160  1
  Bi  Bi123  1  0.25867136  0.01881301  0.02549641  1
  Bi  Bi124  1  0.00810934  0.00256860  0.77436839  1
  O  O125  1  0.14609133  0.09065349  -0.01186575  1
  O  O126  1  0.08764751  0.12501598  0.24526839  1
  O  O127  1  0.12849099  0.07449374  0.50159918  1
  O  O128  1  0.11281290  0.15586169  0.74842717  1
  O  O129  1  0.11205089  0.38190887  0.01057986  1
  O  O130  1  0.13501010  0.35268460  0.25058274  1
  O  O131  1  0.11224449  0.38289075  0.49802720  1
  O  O132  1  0.14092486  0.36315331  0.76440231  1
  O  O133  1  0.13386283  0.60207409  0.01093973  1
  O  O134  1  0.09888020  0.62815609  0.24640440  1
  O  O135  1  0.12153275  0.65150791  0.49723720  1
  O  O136  1  0.11677805  0.63040562  0.74352588  1
  O  O137  1  0.15048364  0.88831384  -0.00202061  1
  O  O138  1  0.10954506  0.86173547  0.24385242  1
  O  O139  1  0.12581694  0.87625935  0.49264372  1
  O  O140  1  0.09082982  0.86577954  0.75114730  1
  O  O141  1  0.34586874  0.13086530  -0.00728452  1
  O  O142  1  0.39966807  0.11575213  0.25798196  1
  O  O143  1  0.31769905  0.12784877  0.48961620  1
  O  O144  1  0.39458487  0.11207697  0.74516821  1
  O  O145  1  0.39739562  0.36806749  -0.00641793  1
  O  O146  1  0.35961451  0.35744704  0.25111223  1
  O  O147  1  0.35800264  0.37923461  0.49746359  1
  O  O148  1  0.35918362  0.39213891  0.75336515  1
  O  O149  1  0.38120349  0.61840179  -0.00421060  1
  O  O150  1  0.40384764  0.63070304  0.24924981  1
  O  O151  1  0.37412323  0.64761950  0.50014139  1
  O  O152  1  0.35592492  0.62276166  0.75372118  1
  O  O153  1  0.35744337  0.86711602  -0.00326030  1
  O  O154  1  0.38004309  0.85117402  0.24698455  1
  O  O155  1  0.36531469  0.85441272  0.50678825  1
  O  O156  1  0.37379863  0.89200170  0.74849526  1
  O  O157  1  0.64695174  0.10228660  0.00261549  1
  O  O158  1  0.59098950  0.13955852  0.24146601  1
  O  O159  1  0.62765402  0.10701709  0.51049926  1
  O  O160  1  0.57659278  0.15516553  0.74636057  1
  O  O161  1  0.60898152  0.39926463  -0.00017228  1
  O  O162  1  0.63504001  0.33302670  0.24239844  1
  O  O163  1  0.61353188  0.40599931  0.49794400  1
  O  O164  1  0.61743240  0.34239274  0.73923039  1
  O  O165  1  0.62947304  0.61160100  -0.00277769  1
  O  O166  1  0.60289533  0.63271012  0.24746614  1
  O  O167  1  0.64781570  0.61057504  0.49523247  1
  O  O168  1  0.62663188  0.62877660  0.73941688  1
  O  O169  1  0.62902282  0.88196887  0.00959935  1
  O  O170  1  0.59963122  0.86468165  0.24886726  1
  O  O171  1  0.65651126  0.88674167  0.49700502  1
  O  O172  1  0.60540710  0.86738103  0.75154193  1
  O  O173  1  0.84421105  0.12360757  0.00126126  1
  O  O174  1  0.89744061  0.09457413  0.25483990  1
  O  O175  1  0.84080695  0.13190967  0.49415252  1
  O  O176  1  0.89446358  0.09774540  0.74670130  1
  O  O177  1  0.86607105  0.35977928  -0.00626384  1
  O  O178  1  0.83664010  0.35433801  0.26109539  1
  O  O179  1  0.87102451  0.34273389  0.49880625  1
  O  O180  1  0.87022169  0.40503375  0.75232308  1
  O  O181  1  0.86221303  0.66033854  0.00599767  1
  O  O182  1  0.88212224  0.59778461  0.24526933  1
  O  O183  1  0.84953239  0.63012764  0.48910811  1
  O  O184  1  0.90337336  0.61260872  0.74686609  1
  O  O185  1  0.86442369  0.84620606  0.01096986  1
  O  O186  1  0.88776757  0.88444466  0.24542938  1
  O  O187  1  0.84858528  0.85752661  0.49395962  1
  O  O188  1  0.89428666  0.90746534  0.74030307  1
  O  O189  1  0.01140857  0.09275191  0.08838125  1
  O  O190  1  -0.00911147  0.07572578  0.39539625  1
  O  O191  1  0.00720705  0.14704550  0.61634404  1
  O  O192  1  0.01311801  0.09898583  0.88563967  1
  O  O193  1  0.00321464  0.37439376  0.13445737  1
  O  O194  1  -0.01256587  0.38903139  0.34851087  1
  O  O195  1  -0.00957148  0.34824830  0.63541148  1
  O  O196  1  0.00290624  0.37983104  0.87645365  1
  O  O197  1  -0.00717107  0.59893685  0.11266408  1
  O  O198  1  -0.01746091  0.59315084  0.37322289  1
  O  O199  1  0.00714472  0.60093130  0.60830984  1
  O  O200  1  0.00135654  0.62173280  0.90362431  1
  O  O201  1  0.00867512  0.90448537  0.10207865  1
  O  O202  1  -0.01935892  0.90109451  0.38982076  1
  O  O203  1  -0.00626346  0.90756740  0.58566042  1
  O  O204  1  0.01240797  0.92043027  0.89933276  1
  O  O205  1  0.24577364  0.13210389  0.12871456  1
  O  O206  1  0.25073967  0.13603368  0.33182399  1
  O  O207  1  0.24547700  0.10133763  0.65513089  1
  O  O208  1  0.25530022  0.14826597  0.84943823  1
  O  O209  1  0.24784370  0.35766450  0.11732291  1
  O  O210  1  0.25619968  0.32168889  0.38524212  1
  O  O211  1  0.24560927  0.37164176  0.62769319  1
  O  O212  1  0.25361874  0.36578136  0.89781224  1
  O  O213  1  0.24729765  0.64785738  0.14458939  1
  O  O214  1  0.26409083  0.65450969  0.36022475  1
  O  O215  1  0.24441009  0.67463521  0.61473634  1
  O  O216  1  0.25113768  0.62909747  0.89032696  1
  O  O217  1  0.24930807  0.84432656  0.12471107  1
  O  O218  1  0.25433932  0.84037082  0.35958861  1
  O  O219  1  0.23428576  0.88388339  0.65041415  1
  O  O220  1  0.24695457  0.85815053  0.86550612  1
  O  O221  1  0.50373169  0.11555901  0.08955764  1
  O  O222  1  0.48599348  0.09500590  0.40416868  1
  O  O223  1  0.48103802  0.12991182  0.58304661  1
  O  O224  1  0.49414444  0.12190008  0.90787459  1
  O  O225  1  0.49740164  0.38068545  0.14093067  1
  O  O226  1  0.49327670  0.38911002  0.36090636  1
  O  O227  1  0.49714801  0.39954928  0.62858001  1
  O  O228  1  0.49786079  0.38579779  0.84691876  1
  O  O229  1  0.50680743  0.59230774  0.11764900  1
  O  O230  1  0.51429320  0.59191942  0.38325985  1
  O  O231  1  0.50399498  0.60250475  0.61419694  1
  O  O232  1  0.50014836  0.62915937  0.86355744  1
  O  O233  1  0.48995454  0.89223739  0.10523786  1
  O  O234  1  0.51142861  0.90059197  0.39478016  1
  O  O235  1  0.49762871  0.88620350  0.61365409  1
  O  O236  1  0.49029602  0.87436718  0.87691837  1
  O  O237  1  0.74140213  0.15788925  0.15145145  1
  O  O238  1  0.76628684  0.15483740  0.33774482  1
  O  O239  1  0.73086543  0.14536104  0.65402877  1
  O  O240  1  0.74903373  0.13665312  0.83799144  1
  O  O241  1  0.74298844  0.36485664  0.10796585  1
  O  O242  1  0.73777140  0.33611130  0.39071955  1
  O  O243  1  0.74539755  0.35486851  0.60806017  1
  O  O244  1  0.73924504  0.37386016  0.87801650  1
  O  O245  1  0.74336006  0.64713358  0.12815824  1
  O  O246  1  0.74633093  0.62574752  0.34340763  1
  O  O247  1  0.75346331  0.61673441  0.63037504  1
  O  O248  1  0.74455533  0.62970168  0.85420358  1
  O  O249  1  0.74167229  0.84195221  0.14352469  1
  O  O250  1  0.74778034  0.84204971  0.34814719  1
  O  O251  1  0.75308436  0.84433636  0.63788845  1
  O  O252  1  0.75572288  0.86651136  0.84660741  1
  O  O253  1  0.15764993  -0.00529740  0.13908694  1
  O  O254  1  0.13526661  -0.01279864  0.35655303  1
  O  O255  1  0.11482965  -0.00005115  0.65337696  1
  O  O256  1  0.15265495  0.00480695  0.83311870  1
  O  O257  1  0.11436396  0.23594521  0.10978050  1
  O  O258  1  0.09497010  0.24194488  0.38010668  1
  O  O259  1  0.16147736  0.22703307  0.57879458  1
  O  O260  1  0.11986955  0.24572474  0.90175264  1
  O  O261  1  0.13760185  0.50036070  0.14650427  1
  O  O262  1  0.16915570  0.49368120  0.40221534  1
  O  O263  1  0.16547693  0.52242590  0.60269574  1
  O  O264  1  0.13471629  0.49359005  0.88637665  1
  O  O265  1  0.09985901  0.74897169  0.11864311  1
  O  O266  1  0.09002209  0.76387613  0.37060834  1
  O  O267  1  0.09377629  0.76095658  0.62155273  1
  O  O268  1  0.10383515  0.76135721  0.88846913  1
  O  O269  1  0.34594637  -0.00585615  0.14767362  1
  O  O270  1  0.33989832  -0.00055747  0.37192551  1
  O  O271  1  0.37050291  0.00036470  0.59306342  1
  O  O272  1  0.36215550  0.00478197  0.88084151  1
  O  O273  1  0.37427235  0.25091269  0.11146722  1
  O  O274  1  0.40492341  0.24187779  0.39324789  1
  O  O275  1  0.34729328  0.23799862  0.61844433  1
  O  O276  1  0.40244828  0.25010053  0.85582366  1
  O  O277  1  0.36682353  0.48991985  0.10935123  1
  O  O278  1  0.34919802  0.49252029  0.36601668  1
  O  O279  1  0.36377673  0.50338543  0.61909851  1
  O  O280  1  0.37506482  0.49993952  0.87982716  1
  O  O281  1  0.40759122  0.75170239  0.11961137  1
  O  O282  1  0.41314475  0.75115016  0.36850311  1
  O  O283  1  0.38716431  0.75925924  0.64955741  1
  O  O284  1  0.37635022  0.75172252  0.85990512  1
  O  O285  1  0.63961549  0.00007621  0.14000311  1
  O  O286  1  0.65050571  -0.00659587  0.35582675  1
  O  O287  1  0.60986749  0.01284244  0.64712745  1
  O  O288  1  0.61912579  0.00469555  0.86293421  1
  O  O289  1  0.60843520  0.24847302  0.09343929  1
  O  O290  1  0.59112314  0.25751304  0.39001354  1
  O  O291  1  0.60489558  0.25376280  0.58415946  1
  O  O292  1  0.59986162  0.26009502  0.89293646  1
  O  O293  1  0.63754484  0.49284343  0.15162252  1
  O  O294  1  0.64354673  0.48742846  0.34347482  1
  O  O295  1  0.64815286  0.49159778  0.63574944  1
  O  O296  1  0.62586590  0.50280578  0.85103297  1
  O  O297  1  0.59532059  0.74536068  0.11419552  1
  O  O298  1  0.60720319  0.74629575  0.39105780  1
  O  O299  1  0.61607854  0.74461771  0.60548947  1
  O  O300  1  0.62003317  0.74669687  0.86803241  1
  O  O301  1  0.85182567  -0.00799859  0.11119866  1
  O  O302  1  0.83054241  -0.00561760  0.38058110  1
  O  O303  1  0.83714866  -0.00325448  0.60722476  1
  O  O304  1  0.84987790  0.00209080  0.88464419  1
  O  O305  1  0.89005665  0.24458518  0.11524570  1
  O  O306  1  0.91261239  0.24044472  0.37260578  1
  O  O307  1  0.86512497  0.24629616  0.65850999  1
  O  O308  1  0.87895607  0.25645432  0.84549780  1
  O  O309  1  0.85362453  0.50162667  0.10764879  1
  O  O310  1  0.83953165  0.48493279  0.37855164  1
  O  O311  1  0.87948824  0.48575605  0.60899066  1
  O  O312  1  0.87280673  0.49715748  0.90410730  1
  O  O313  1  0.88155997  0.74582430  0.14953674  1
  O  O314  1  0.88347372  0.74445524  0.34850523  1
  O  O315  1  0.90366544  0.76081126  0.63842704  1
  O  O316  1  0.90686110  0.75613147  0.86120002  1
