# generated using pymatgen
data_Mg32Ti42(Bi17O64)3
_symmetry_space_group_name_H-M   'P 1'
_cell_length_a   15.97457473
_cell_length_b   15.97556041
_cell_length_c   15.98020752
_cell_angle_alpha   89.91990745
_cell_angle_beta   89.93678150
_cell_angle_gamma   90.04648869
_symmetry_Int_Tables_number   1
_chemical_formula_structural   Mg32Ti42(Bi17O64)3
_chemical_formula_sum   'Mg32 Ti42 Bi51 O192'
_cell_volume   4078.18562977
_cell_formula_units_Z   1
loop_
 _symmetry_equiv_pos_site_id
 _symmetry_equiv_pos_as_xyz
  1  'x, y, z'
loop_
 _atom_site_type_symbol
 _atom_site_label
 _atom_site_symmetry_multiplicity
 _atom_site_fract_x
 _atom_site_fract_y
 _atom_site_fract_z
 _atom_site_occupancy
  Mg  Mg0  1  0.35734428  0.89258300  0.87956353  1
  Mg  Mg1  1  0.63258846  0.37590411  0.36756543  1
  Mg  Mg2  1  0.37452026  0.38309052  0.13065650  1
  Mg  Mg3  1  0.36716502  0.38094572  0.38327255  1
  Mg  Mg4  1  0.61104202  0.87375587  0.37756212  1
  Mg  Mg5  1  0.12568521  0.62580134  0.36299604  1
  Mg  Mg6  1  0.12852788  0.36921788  0.63812514  1
  Mg  Mg7  1  0.37045989  0.35839706  0.62522573  1
  Mg  Mg8  1  0.37184309  0.62328125  0.86747904  1
  Mg  Mg9  1  0.61768907  0.62259606  0.11857254  1
  Mg  Mg10  1  0.12997753  0.13710971  0.11877049  1
  Mg  Mg11  1  0.12615217  0.62556320  0.63352390  1
  Mg  Mg12  1  0.12771865  0.11684241  0.60204194  1
  Mg  Mg13  1  0.87263819  0.12566467  0.88444309  1
  Mg  Mg14  1  0.36336677  0.12879151  0.37247524  1
  Mg  Mg15  1  0.13474306  0.12793014  0.87531012  1
  Mg  Mg16  1  0.62017915  0.12023562  0.37018515  1
  Mg  Mg17  1  0.60984071  0.87512709  0.12720993  1
  Mg  Mg18  1  0.88004768  0.87093979  0.87861356  1
  Mg  Mg19  1  0.43600875  0.76379854  0.74972606  1
  Mg  Mg20  1  0.33684848  0.28338757  -0.03038403  1
  Mg  Mg21  1  0.19670185  0.80902609  0.28563052  1
  Mg  Mg22  1  0.01870058  0.78213811  0.43173188  1
  Mg  Mg23  1  0.29013219  0.74353129  -0.04524078  1
  Mg  Mg24  1  0.02064371  0.73991887  0.21535960  1
  Mg  Mg25  1  0.26718285  0.04701553  0.01320580  1
  Mg  Mg26  1  0.28661355  0.27590574  0.78477562  1
  Mg  Mg27  1  0.03291951  0.25250560  0.22519082  1
  Mg  Mg28  1  -0.04197176  0.53604875  0.00925748  1
  Mg  Mg29  1  0.24761622  0.45012936  0.78685398  1
  Mg  Mg30  1  0.81440679  0.26247598  0.22283975  1
  Mg  Mg31  1  0.21925888  0.05288068  0.23630149  1
  Ti  Ti32  1  0.87764444  0.12274579  0.35728664  1
  Ti  Ti33  1  0.36010527  0.87556865  0.62085434  1
  Ti  Ti34  1  0.61736660  0.62490421  0.38536239  1
  Ti  Ti35  1  0.12239426  0.35224337  0.87564290  1
  Ti  Ti36  1  0.86933936  0.62679433  0.60887888  1
  Ti  Ti37  1  0.13758658  0.87273982  0.12376979  1
  Ti  Ti38  1  0.36704662  0.62859177  0.37806417  1
  Ti  Ti39  1  0.61686141  0.61937324  0.62426376  1
  Ti  Ti40  1  0.13267310  0.88035545  0.88016008  1
  Ti  Ti41  1  0.36714514  0.12047892  0.61964528  1
  Ti  Ti42  1  0.62162277  0.87844621  0.62244973  1
  Ti  Ti43  1  0.88167466  0.39212253  0.12498838  1
  Ti  Ti44  1  0.63197223  0.12686569  0.86796298  1
  Ti  Ti45  1  0.87429685  0.85944706  0.62051801  1
  Ti  Ti46  1  0.87819686  0.63202485  0.36911964  1
  Ti  Ti47  1  0.37604302  0.87267953  0.36600938  1
  Ti  Ti48  1  0.61990371  0.36185881  0.63467828  1
  Ti  Ti49  1  0.88915986  0.63246112  0.87733636  1
  Ti  Ti50  1  0.88138484  0.10794629  0.12623147  1
  Ti  Ti51  1  0.12087756  0.37966662  0.11079669  1
  Ti  Ti52  1  0.87517788  0.38947311  0.36557849  1
  Ti  Ti53  1  0.65423731  0.13861464  0.13131910  1
  Ti  Ti54  1  0.86726727  0.11878599  0.62252894  1
  Ti  Ti55  1  0.36653162  0.15235929  0.11537781  1
  Ti  Ti56  1  0.12688805  0.61203122  0.88076665  1
  Ti  Ti57  1  0.88286298  0.37143299  0.61702018  1
  Ti  Ti58  1  0.10842648  0.87173889  0.62828271  1
  Ti  Ti59  1  0.87296780  0.64130358  0.12881183  1
  Ti  Ti60  1  0.62494102  0.12069210  0.62366063  1
  Ti  Ti61  1  0.13093427  0.63083744  0.11168399  1
  Ti  Ti62  1  0.87669363  0.86917209  0.36635196  1
  Ti  Ti63  1  0.63189985  0.37461608  0.87051972  1
  Ti  Ti64  1  0.63812725  0.37889279  0.13404282  1
  Ti  Ti65  1  0.10617745  0.38029142  0.36997062  1
  Ti  Ti66  1  0.12816322  0.13464113  0.36201583  1
  Ti  Ti67  1  0.35748608  0.87713086  0.12125555  1
  Ti  Ti68  1  0.36918623  0.62912164  0.11272451  1
  Ti  Ti69  1  0.36928249  0.62824490  0.63365263  1
  Ti  Ti70  1  0.89198435  0.38167343  0.87489863  1
  Ti  Ti71  1  0.36055288  0.12651511  0.87052332  1
  Ti  Ti72  1  0.60343754  0.61431979  0.87193128  1
  Ti  Ti73  1  0.87421763  0.87611827  0.12662419  1
  Bi  Bi74  1  0.48464840  -0.02387063  0.73856646  1
  Bi  Bi75  1  0.47911404  0.27264065  0.26582688  1
  Bi  Bi76  1  0.50402159  0.27037908  0.47234481  1
  Bi  Bi77  1  0.21159282  0.75174501  0.47884704  1
  Bi  Bi78  1  0.50239638  0.46669889  0.00217265  1
  Bi  Bi79  1  0.02895455  -0.03187506  0.26052282  1
  Bi  Bi80  1  0.72813404  0.52107368  0.25165705  1
  Bi  Bi81  1  0.71583933  0.75767312  0.23995616  1
  Bi  Bi82  1  0.46855551  0.00627486  0.47495518  1
  Bi  Bi83  1  0.21282578  0.27413803  0.50043199  1
  Bi  Bi84  1  0.01418480  0.22651434  0.71661538  1
  Bi  Bi85  1  0.04083693  0.01330622  -0.00222223  1
  Bi  Bi86  1  0.48625141  0.03557511  0.23405623  1
  Bi  Bi87  1  0.24052679  0.50688180  0.54105071  1
  Bi  Bi88  1  0.47056788  0.74506631  0.50648939  1
  Bi  Bi89  1  -0.01814373  0.00910146  0.78061893  1
  Bi  Bi90  1  0.49461325  0.00633624  -0.01864577  1
  Bi  Bi91  1  0.72030219  0.75219138  -0.03165672  1
  Bi  Bi92  1  -0.00079007  0.78624004  0.00502289  1
  Bi  Bi93  1  -0.02154549  -0.01499876  0.49410005  1
  Bi  Bi94  1  0.48796421  0.51779251  0.23416227  1
  Bi  Bi95  1  0.26313089  0.47263452  -0.02822292  1
  Bi  Bi96  1  0.24516291  0.50942866  0.22963952  1
  Bi  Bi97  1  -0.01276546  0.23472424  0.49037095  1
  Bi  Bi98  1  0.74892942  0.52222578  -0.02171070  1
  Bi  Bi99  1  0.24395254  0.28176532  0.25361116  1
  Bi  Bi100  1  0.44853411  0.46549032  0.77211531  1
  Bi  Bi101  1  0.22464746  0.75717194  0.76294523  1
  Bi  Bi102  1  0.74015159  0.00704656  0.47593681  1
  Bi  Bi103  1  -0.00196019  0.50897498  0.72385418  1
  Bi  Bi104  1  0.00585746  0.73555893  0.75097806  1
  Bi  Bi105  1  -0.01441345  0.23917370  0.02430584  1
  Bi  Bi106  1  0.21805660  -0.02072239  0.45819203  1
  Bi  Bi107  1  0.75404706  0.48870880  0.72399919  1
  Bi  Bi108  1  0.71443659  0.73647030  0.74799538  1
  Bi  Bi109  1  0.53494135  0.23570097  0.00431333  1
  Bi  Bi110  1  0.77381418  0.24480874  0.75436767  1
  Bi  Bi111  1  0.76718628  0.26725028  -0.00809205  1
  Bi  Bi112  1  0.47580642  0.49349776  0.50299415  1
  Bi  Bi113  1  0.02364250  0.53222624  0.49411738  1
  Bi  Bi114  1  0.21108069  0.01709210  0.73501355  1
  Bi  Bi115  1  0.01160828  0.52380523  0.23084783  1
  Bi  Bi116  1  0.74705186  0.24027962  0.45614048  1
  Bi  Bi117  1  0.75134710  -0.03406424  0.77450682  1
  Bi  Bi118  1  0.48288263  0.76751094  0.23223500  1
  Bi  Bi119  1  0.72392402  0.48173237  0.50084051  1
  Bi  Bi120  1  0.48709869  0.22135829  0.74180615  1
  Bi  Bi121  1  0.71780972  -0.01178656  0.24536694  1
  Bi  Bi122  1  0.49194904  0.78557787  -0.03519658  1
  Bi  Bi123  1  0.72688724  -0.03433090  -0.01032079  1
  Bi  Bi124  1  0.72625366  0.76504648  0.49647582  1
  O  O125  1  0.15087665  0.09662350  0.00224384  1
  O  O126  1  0.09740852  0.14215516  0.24520095  1
  O  O127  1  0.14618758  0.10091005  0.47692264  1
  O  O128  1  0.10239830  0.10276272  0.74582722  1
  O  O129  1  0.12432571  0.39203296  -0.00080433  1
  O  O130  1  0.11442189  0.34837419  0.24992736  1
  O  O131  1  0.11290524  0.37208849  0.48919673  1
  O  O132  1  0.16525504  0.35465349  0.76272295  1
  O  O133  1  0.14985828  0.61546648  0.00084023  1
  O  O134  1  0.09040992  0.63692274  0.24210908  1
  O  O135  1  0.13830089  0.61476122  0.50121523  1
  O  O136  1  0.08681318  0.61561684  0.75927135  1
  O  O137  1  0.13271982  0.86925153  0.00289680  1
  O  O138  1  0.08882561  0.84603915  0.23709154  1
  O  O139  1  0.10672085  0.83977766  0.51282697  1
  O  O140  1  0.14284255  0.88388805  0.75235672  1
  O  O141  1  0.33610244  0.15389373  -0.00544003  1
  O  O142  1  0.39990685  0.14399796  0.23947597  1
  O  O143  1  0.37781060  0.12583139  0.50665813  1
  O  O144  1  0.40762180  0.09896993  0.76177793  1
  O  O145  1  0.38184136  0.39750575  0.00537208  1
  O  O146  1  0.37082265  0.35750440  0.25529358  1
  O  O147  1  0.40939458  0.36749615  0.50594599  1
  O  O148  1  0.34451664  0.38392299  0.74403660  1
  O  O149  1  0.34853279  0.63705266  0.00265850  1
  O  O150  1  0.40800266  0.62917410  0.26595721  1
  O  O151  1  0.36567231  0.65492749  0.50368478  1
  O  O152  1  0.39761203  0.63789954  0.74290401  1
  O  O153  1  0.36088642  0.83889734  0.00739997  1
  O  O154  1  0.37384810  0.87242609  0.25290990  1
  O  O155  1  0.39207609  0.87017864  0.50660449  1
  O  O156  1  0.37808576  0.88323896  0.75045974  1
  O  O157  1  0.64368876  0.14935589  0.01185943  1
  O  O158  1  0.61335412  0.09968199  0.24165136  1
  O  O159  1  0.64622761  0.12161611  0.50931148  1
  O  O160  1  0.60563300  0.11489867  0.75845401  1
  O  O161  1  0.60739833  0.36529481  0.00422246  1
  O  O162  1  0.64838214  0.39136077  0.24614144  1
  O  O163  1  0.61703963  0.38186937  0.51360610  1
  O  O164  1  0.65405052  0.37655547  0.75673209  1
  O  O165  1  0.64188609  0.63107335  -0.00607945  1
  O  O166  1  0.61222782  0.59782203  0.25551077  1
  O  O167  1  0.65301573  0.62066991  0.50293802  1
  O  O168  1  0.61822190  0.62902408  0.75022231  1
  O  O169  1  0.63815366  0.86055702  0.00807945  1
  O  O170  1  0.63102239  0.88347527  0.25180273  1
  O  O171  1  0.61797575  0.85370806  0.50257626  1
  O  O172  1  0.65977910  0.86623536  0.73525446  1
  O  O173  1  0.86349654  0.15328120  0.01411158  1
  O  O174  1  0.89500435  0.09858688  0.24888406  1
  O  O175  1  0.86570915  0.15945813  0.50727960  1
  O  O176  1  0.90836616  0.12282359  0.74447062  1
  O  O177  1  0.88518763  0.34635590  0.00779405  1
  O  O178  1  0.85631862  0.38606308  0.24667312  1
  O  O179  1  0.89010476  0.35482606  0.50450419  1
  O  O180  1  0.85688093  0.39229395  0.76478642  1
  O  O181  1  0.86677905  0.63822376  0.01207469  1
  O  O182  1  0.90467814  0.61730185  0.25170709  1
  O  O183  1  0.85116258  0.62898282  0.49913855  1
  O  O184  1  0.90720569  0.61054693  0.76268788  1
  O  O185  1  0.86929507  0.85261401  0.00967514  1
  O  O186  1  0.88759543  0.89545416  0.25313047  1
  O  O187  1  0.91218336  0.86230433  0.50195423  1
  O  O188  1  0.85487806  0.88518658  0.73805856  1
  O  O189  1  -0.00092268  0.10911580  0.09582035  1
  O  O190  1  -0.00779982  0.12364512  0.39633486  1
  O  O191  1  -0.00258836  0.14446819  0.60386452  1
  O  O192  1  0.00179600  0.09418853  0.89188277  1
  O  O193  1  -0.00175991  0.40683706  0.12323715  1
  O  O194  1  -0.01124279  0.35919011  0.36209061  1
  O  O195  1  -0.00249669  0.36708342  0.64883362  1
  O  O196  1  0.00528704  0.38745388  0.86080015  1
  O  O197  1  0.00080609  0.59653759  0.10992662  1
  O  O198  1  -0.00266058  0.63351123  0.40941958  1
  O  O199  1  -0.00473963  0.60461950  0.61337449  1
  O  O200  1  0.00732131  0.60749508  0.91302609  1
  O  O201  1  0.00018476  0.88791366  0.10423625  1
  O  O202  1  0.00047813  0.90125155  0.37910309  1
  O  O203  1  -0.00362713  0.87933677  0.64911255  1
  O  O204  1  0.00885090  0.88782389  0.88945540  1
  O  O205  1  0.25386156  0.13269654  0.14579005  1
  O  O206  1  0.24338583  0.14028284  0.33428196  1
  O  O207  1  0.25503051  0.10656419  0.63094183  1
  O  O208  1  0.25464018  0.14911459  0.83016911  1
  O  O209  1  0.24066004  0.37881809  0.14358376  1
  O  O210  1  0.23919459  0.36099700  0.37030226  1
  O  O211  1  0.25044344  0.37273785  0.58830887  1
  O  O212  1  0.24911138  0.34968135  0.90226131  1
  O  O213  1  0.24656727  0.62717637  0.15179271  1
  O  O214  1  0.25670750  0.63729299  0.36115730  1
  O  O215  1  0.25469848  0.61817290  0.63777454  1
  O  O216  1  0.24163878  0.66065000  0.86501698  1
  O  O217  1  0.24130536  0.83878152  0.16134425  1
  O  O218  1  0.25539026  0.85455446  0.38491170  1
  O  O219  1  0.24959297  0.86982633  0.61183532  1
  O  O220  1  0.24613325  0.83721443  0.87874513  1
  O  O221  1  0.47816536  0.10288505  0.10267742  1
  O  O222  1  0.49457272  0.09235858  0.36910819  1
  O  O223  1  0.50863170  0.13682311  0.62423317  1
  O  O224  1  0.50265084  0.12047962  0.90795752  1
  O  O225  1  0.51094605  0.40404494  0.13489534  1
  O  O226  1  0.50696299  0.37100111  0.36930003  1
  O  O227  1  0.50627049  0.36700569  0.66302519  1
  O  O228  1  0.51053417  0.39610651  0.87208561  1
  O  O229  1  0.49139115  0.59249821  0.11767853  1
  O  O230  1  0.50734543  0.61861064  0.40912611  1
  O  O231  1  0.50606041  0.62503424  0.60137704  1
  O  O232  1  0.49663146  0.59301982  0.88842895  1
  O  O233  1  0.48245725  0.88249774  0.13106117  1
  O  O234  1  0.49018428  0.90869801  0.37295425  1
  O  O235  1  0.51123329  0.86214765  0.65098801  1
  O  O236  1  0.48655753  0.89818746  0.88826745  1
  O  O237  1  0.76422009  0.15778038  0.15964473  1
  O  O238  1  0.75522021  0.11627268  0.38096077  1
  O  O239  1  0.75497019  0.12749473  0.65682672  1
  O  O240  1  0.74702345  0.13919907  0.85609945  1
  O  O241  1  0.75945413  0.33843337  0.11875143  1
  O  O242  1  0.75832693  0.37618046  0.40132107  1
  O  O243  1  0.75495972  0.38628779  0.62349886  1
  O  O244  1  0.74848345  0.37943945  0.90750315  1
  O  O245  1  0.75818013  0.64328542  0.15487217  1
  O  O246  1  0.76232195  0.63307500  0.35004393  1
  O  O247  1  0.75925423  0.61888417  0.65140023  1
  O  O248  1  0.76796545  0.62648520  0.87460829  1
  O  O249  1  0.75965200  0.85680009  0.14544207  1
  O  O250  1  0.76189793  0.86532921  0.39347397  1
  O  O251  1  0.76015121  0.86786288  0.58977777  1
  O  O252  1  0.75303009  0.87390711  0.87972244  1
  O  O253  1  0.14378376  -0.01392435  0.15260020  1
  O  O254  1  0.15109891  0.00264758  0.33617073  1
  O  O255  1  0.12829387  -0.01107699  0.61721999  1
  O  O256  1  0.15093467  -0.00684675  0.87507623  1
  O  O257  1  0.09832159  0.26048509  0.11247378  1
  O  O258  1  0.11362775  0.24624884  0.38730312  1
  O  O259  1  0.12532282  0.24435698  0.60702505  1
  O  O260  1  0.09694031  0.24606035  0.88411295  1
  O  O261  1  0.13425396  0.50276326  0.14727005  1
  O  O262  1  0.11028961  0.49613742  0.36067337  1
  O  O263  1  0.13074335  0.49544748  0.62571192  1
  O  O264  1  0.16089819  0.50208782  0.86420687  1
  O  O265  1  0.09759563  0.74288578  0.11070603  1
  O  O266  1  0.12636621  0.74902917  0.37452036  1
  O  O267  1  0.11716094  0.74888971  0.65751431  1
  O  O268  1  0.10625793  0.75040973  0.84841381  1
  O  O269  1  0.33416836  -0.01472649  0.10350837  1
  O  O270  1  0.34657435  -0.00200826  0.39661244  1
  O  O271  1  0.39654871  -0.00438176  0.62823478  1
  O  O272  1  0.35575544  0.01250291  0.91885419  1
  O  O273  1  0.38595371  0.26192551  0.10323290  1
  O  O274  1  0.40348677  0.24770914  0.37890552  1
  O  O275  1  0.36912313  0.23411259  0.66526961  1
  O  O276  1  0.38881992  0.24304577  0.85960912  1
  O  O277  1  0.35921613  0.50734147  0.15339423  1
  O  O278  1  0.37590928  0.50874038  0.40363817  1
  O  O279  1  0.38000398  0.50833297  0.60570028  1
  O  O280  1  0.33890673  0.50408521  0.85931143  1
  O  O281  1  0.39222799  0.73955417  0.13639445  1
  O  O282  1  0.40251220  0.75582760  0.37825425  1
  O  O283  1  0.38540403  0.75583395  0.63313473  1
  O  O284  1  0.40064867  0.74948026  0.87023659  1
  O  O285  1  0.65435034  0.00803185  0.11618923  1
  O  O286  1  0.65014378  -0.00559450  0.37616018  1
  O  O287  1  0.62467607  -0.00326701  0.62448611  1
  O  O288  1  0.63052452  0.01249824  0.90535754  1
  O  O289  1  0.60551742  0.24693912  0.13671243  1
  O  O290  1  0.62429918  0.24651171  0.38074648  1
  O  O291  1  0.63480479  0.24871995  0.63663310  1
  O  O292  1  0.61237887  0.25289808  0.87826528  1
  O  O293  1  0.66241747  0.49414637  0.11572604  1
  O  O294  1  0.64936862  0.50370157  0.38278071  1
  O  O295  1  0.63697972  0.50110969  0.62901306  1
  O  O296  1  0.64499706  0.50123260  0.88035768  1
  O  O297  1  0.60781694  0.74566901  0.15366114  1
  O  O298  1  0.62571842  0.74261207  0.36810792  1
  O  O299  1  0.64549318  0.74185085  0.62499333  1
  O  O300  1  0.62164684  0.73911107  0.87246268  1
  O  O301  1  0.85798801  -0.00144990  0.11135799  1
  O  O302  1  0.86948350  0.00218170  0.40585986  1
  O  O303  1  0.87733725  0.00616762  0.60016855  1
  O  O304  1  0.86464712  -0.00073302  0.86459968  1
  O  O305  1  0.92340099  0.25037906  0.15424131  1
  O  O306  1  0.84904140  0.24088557  0.34637969  1
  O  O307  1  0.87555689  0.25457385  0.65619048  1
  O  O308  1  0.86728227  0.25728811  0.86695102  1
  O  O309  1  0.86040973  0.50114637  0.10506160  1
  O  O310  1  0.88366296  0.50165619  0.38090254  1
  O  O311  1  0.87514170  0.49661260  0.63147560  1
  O  O312  1  0.87994760  0.49559065  0.91480058  1
  O  O313  1  0.91179310  0.75114052  0.14543345  1
  O  O314  1  0.90243109  0.75519897  0.36493699  1
  O  O315  1  0.87981577  0.74379707  0.63390466  1
  O  O316  1  0.90268806  0.74542513  0.86849055  1
