# generated using pymatgen
data_Mg32Ti42(Bi17O64)3
_symmetry_space_group_name_H-M   'P 1'
_cell_length_a   15.92670642
_cell_length_b   15.95040019
_cell_length_c   15.98565249
_cell_angle_alpha   90.28622659
_cell_angle_beta   89.68287142
_cell_angle_gamma   89.98937514
_symmetry_Int_Tables_number   1
_chemical_formula_structural   Mg32Ti42(Bi17O64)3
_chemical_formula_sum   'Mg32 Ti42 Bi51 O192'
_cell_volume   4060.83968796
_cell_formula_units_Z   1
loop_
 _symmetry_equiv_pos_site_id
 _symmetry_equiv_pos_as_xyz
  1  'x, y, z'
loop_
 _atom_site_type_symbol
 _atom_site_label
 _atom_site_symmetry_multiplicity
 _atom_site_fract_x
 _atom_site_fract_y
 _atom_site_fract_z
 _atom_site_occupancy
  Mg  Mg0  1  0.37738741  0.61710847  0.87884074  1
  Mg  Mg1  1  0.87492542  0.11673272  0.86526010  1
  Mg  Mg2  1  0.37921797  0.36790089  0.38095611  1
  Mg  Mg3  1  0.38087642  0.86969288  0.12215587  1
  Mg  Mg4  1  0.61838300  0.12344255  0.11900151  1
  Mg  Mg5  1  0.37307686  0.62966219  0.62685563  1
  Mg  Mg6  1  0.11994697  0.12297586  0.36399139  1
  Mg  Mg7  1  0.87493751  0.36729498  0.12813990  1
  Mg  Mg8  1  0.35911223  0.88144051  0.37778433  1
  Mg  Mg9  1  0.13264859  0.61395115  0.12649515  1
  Mg  Mg10  1  0.87451128  0.36787110  0.62173317  1
  Mg  Mg11  1  0.37833350  0.12480439  0.88358612  1
  Mg  Mg12  1  0.63082448  0.88370087  0.12826847  1
  Mg  Mg13  1  0.87488190  0.88370778  0.36734899  1
  Mg  Mg14  1  0.13012303  0.87805999  0.88225519  1
  Mg  Mg15  1  0.62712801  0.88470636  0.62399937  1
  Mg  Mg16  1  0.62542073  0.13082339  0.63431851  1
  Mg  Mg17  1  0.12714261  0.37458323  0.86728936  1
  Mg  Mg18  1  0.11380763  0.62746303  0.62977895  1
  Mg  Mg19  1  0.45045515  -0.03010550  0.50024653  1
  Mg  Mg20  1  0.27489470  -0.04038303  0.00457344  1
  Mg  Mg21  1  0.49741863  0.31339677  0.19128932  1
  Mg  Mg22  1  -0.00721875  0.81116845  0.77180257  1
  Mg  Mg23  1  0.78179805  0.54617136  0.05617357  1
  Mg  Mg24  1  0.70300637  0.02874175  0.49469118  1
  Mg  Mg25  1  0.75848012  0.23676315  0.73135173  1
  Mg  Mg26  1  -0.01152951  0.23608056  0.44283365  1
  Mg  Mg27  1  0.50496679  0.21709653  0.53930115  1
  Mg  Mg28  1  0.46988349  0.28952155  -0.02011025  1
  Mg  Mg29  1  0.04536231  -0.00230167  0.77969009  1
  Mg  Mg30  1  -0.01978739  0.01570422  0.27490317  1
  Mg  Mg31  1  0.49129962  0.02585924  0.71220935  1
  Ti  Ti32  1  0.85957778  0.36691329  0.86350204  1
  Ti  Ti33  1  0.63048790  0.62893045  0.38585455  1
  Ti  Ti34  1  0.11579298  0.88233095  0.35674405  1
  Ti  Ti35  1  0.86398362  0.12567815  0.37248337  1
  Ti  Ti36  1  0.11100803  0.88438711  0.63046793  1
  Ti  Ti37  1  0.63495097  0.60672504  0.86847874  1
  Ti  Ti38  1  0.14684008  0.12466365  0.12771895  1
  Ti  Ti39  1  0.12256597  0.88153960  0.11224671  1
  Ti  Ti40  1  0.62197346  0.87299768  0.86587964  1
  Ti  Ti41  1  0.11333080  0.12599574  0.62541820  1
  Ti  Ti42  1  0.11530732  0.35986550  0.62469105  1
  Ti  Ti43  1  0.36973834  0.12540248  0.61496554  1
  Ti  Ti44  1  0.38255145  0.87357249  0.87916818  1
  Ti  Ti45  1  0.62505331  0.36318609  0.37413394  1
  Ti  Ti46  1  0.86929564  0.63515766  0.86764085  1
  Ti  Ti47  1  0.37645008  0.63488176  0.38538459  1
  Ti  Ti48  1  0.37374300  0.63074459  0.12201664  1
  Ti  Ti49  1  0.87011055  0.62059324  0.39127062  1
  Ti  Ti50  1  0.11032790  0.61446401  0.87573265  1
  Ti  Ti51  1  0.11938006  0.37972675  0.13224776  1
  Ti  Ti52  1  0.62420947  0.36941975  0.63745121  1
  Ti  Ti53  1  0.86131765  0.87118100  0.87770858  1
  Ti  Ti54  1  0.60777377  0.12671012  0.37786610  1
  Ti  Ti55  1  0.87926947  0.12040983  0.12299340  1
  Ti  Ti56  1  0.35737904  0.36972710  0.62651415  1
  Ti  Ti57  1  0.87585182  0.88682763  0.13297399  1
  Ti  Ti58  1  0.39094371  0.12484360  0.11125287  1
  Ti  Ti59  1  0.12375407  0.37029038  0.36804412  1
  Ti  Ti60  1  0.86966965  0.36903906  0.36791007  1
  Ti  Ti61  1  0.37521041  0.12095723  0.37234639  1
  Ti  Ti62  1  0.61917677  0.37221109  0.87254152  1
  Ti  Ti63  1  0.88411023  0.62460239  0.62336755  1
  Ti  Ti64  1  0.62082980  0.12864261  0.86846403  1
  Ti  Ti65  1  0.63802065  0.35412756  0.09034507  1
  Ti  Ti66  1  0.12737238  0.12085444  0.88348946  1
  Ti  Ti67  1  0.62362072  0.62830030  0.61841261  1
  Ti  Ti68  1  0.63227712  0.88025504  0.38658671  1
  Ti  Ti69  1  0.36465474  0.37851307  0.86502867  1
  Ti  Ti70  1  0.12191718  0.61234121  0.37270807  1
  Ti  Ti71  1  0.87806021  0.89388234  0.63069123  1
  Ti  Ti72  1  0.36209659  0.87998695  0.63396520  1
  Ti  Ti73  1  0.87636424  0.13084001  0.62253884  1
  Bi  Bi74  1  0.00765279  0.22970553  0.23145644  1
  Bi  Bi75  1  0.75540538  0.76356117  0.72616604  1
  Bi  Bi76  1  0.29954917  0.27330296  0.23175135  1
  Bi  Bi77  1  0.73894933  0.23142974  0.51305298  1
  Bi  Bi78  1  0.73011057  0.00704002  -0.00817142  1
  Bi  Bi79  1  0.49651481  -0.01535527  0.24334276  1
  Bi  Bi80  1  0.02309354  0.25753791  -0.00368148  1
  Bi  Bi81  1  0.22141940  0.74874262  0.50032114  1
  Bi  Bi82  1  0.49121830  0.23520311  0.76369340  1
  Bi  Bi83  1  0.50074445  0.49433658  0.28710984  1
  Bi  Bi84  1  0.25145393  0.26347954  0.00042888  1
  Bi  Bi85  1  0.00406778  0.46077819  0.50050714  1
  Bi  Bi86  1  0.48471869  0.77403929  0.48656362  1
  Bi  Bi87  1  0.71003761  0.73511232  0.01798339  1
  Bi  Bi88  1  0.72887636  -0.00106966  0.25172022  1
  Bi  Bi89  1  0.26935018  0.74557101  0.23442983  1
  Bi  Bi90  1  0.27309242  0.46746038  0.03260922  1
  Bi  Bi91  1  0.23362945  0.00842825  0.49067477  1
  Bi  Bi92  1  0.76293883  0.51068735  0.73353823  1
  Bi  Bi93  1  0.73027305  0.01333683  0.73656119  1
  Bi  Bi94  1  0.76292526  0.78707292  0.49752104  1
  Bi  Bi95  1  0.27900463  0.50647796  0.27052631  1
  Bi  Bi96  1  -0.01339668  0.47592637  0.76103439  1
  Bi  Bi97  1  0.77350923  0.72284871  0.22946357  1
  Bi  Bi98  1  0.24472096  0.24944744  0.46819648  1
  Bi  Bi99  1  0.27102136  -0.00698586  0.77622645  1
  Bi  Bi100  1  0.72812434  0.23176522  0.23230821  1
  Bi  Bi101  1  0.22630926  0.50716137  0.53266512  1
  Bi  Bi102  1  -0.03026034  -0.01572588  -0.01664737  1
  Bi  Bi103  1  0.01593886  0.73233716  0.23154561  1
  Bi  Bi104  1  0.72194415  0.47143487  0.23083352  1
  Bi  Bi105  1  0.54011136  0.52035545  0.03708952  1
  Bi  Bi106  1  0.24793475  0.53348429  0.76481994  1
  Bi  Bi107  1  0.25173274  0.22608005  0.75566632  1
  Bi  Bi108  1  0.26628879  -0.01364017  0.22569350  1
  Bi  Bi109  1  0.49457050  0.46039622  0.51710231  1
  Bi  Bi110  1  0.21377565  0.75178883  0.75827640  1
  Bi  Bi111  1  0.53485297  0.71972284  0.21987931  1
  Bi  Bi112  1  0.48447771  0.51056801  0.73816426  1
  Bi  Bi113  1  0.22213269  0.72979656  -0.01551405  1
  Bi  Bi114  1  -0.02743787  0.48382322  -0.01035202  1
  Bi  Bi115  1  0.49301557  0.76433768  0.72367467  1
  Bi  Bi116  1  0.50829323  -0.01195842  0.00569523  1
  Bi  Bi117  1  -0.02465518  0.71132263  0.03084554  1
  Bi  Bi118  1  0.75036983  0.48694778  0.50764893  1
  Bi  Bi119  1  -0.00464989  0.23199473  0.76876088  1
  Bi  Bi120  1  0.78739880  0.23394646  -0.00628031  1
  Bi  Bi121  1  -0.00654648  0.00786574  0.48463624  1
  Bi  Bi122  1  0.49817124  0.72889224  -0.03152631  1
  Bi  Bi123  1  -0.04891473  0.51077211  0.23564352  1
  Bi  Bi124  1  -0.00428120  0.75685906  0.47804555  1
  O  O125  1  0.10434859  0.12960861  -0.00157220  1
  O  O126  1  0.13864525  0.14378794  0.24060298  1
  O  O127  1  0.10808521  0.09216801  0.50663357  1
  O  O128  1  0.14305158  0.13844201  0.74324278  1
  O  O129  1  0.13556837  0.35311642  -0.00158427  1
  O  O130  1  0.10806811  0.36060804  0.24802452  1
  O  O131  1  0.13550558  0.39252518  0.49241846  1
  O  O132  1  0.09649793  0.36008639  0.73800586  1
  O  O133  1  0.12757154  0.62803812  -0.00286866  1
  O  O134  1  0.12768978  0.64613819  0.25698591  1
  O  O135  1  0.14564775  0.62492357  0.49857067  1
  O  O136  1  0.13153169  0.62944815  0.75554369  1
  O  O137  1  0.16875764  0.88466823  0.00275126  1
  O  O138  1  0.10613016  0.86313908  0.24547178  1
  O  O139  1  0.12664228  0.89360490  0.51434884  1
  O  O140  1  0.11339214  0.85203360  0.75171822  1
  O  O141  1  0.41137741  0.15592337  0.00411225  1
  O  O142  1  0.36158731  0.09628954  0.26066804  1
  O  O143  1  0.39926861  0.15547496  0.50724288  1
  O  O144  1  0.35360209  0.12376391  0.74694519  1
  O  O145  1  0.35877097  0.35657938  -0.00855945  1
  O  O146  1  0.39350764  0.37137732  0.25116733  1
  O  O147  1  0.36592526  0.37888810  0.50868329  1
  O  O148  1  0.39965697  0.38680910  0.74816441  1
  O  O149  1  0.38434802  0.63751663  0.00638133  1
  O  O150  1  0.35681908  0.62068726  0.25172430  1
  O  O151  1  0.36946561  0.63399988  0.49953410  1
  O  O152  1  0.37677758  0.59890790  0.75323110  1
  O  O153  1  0.36310557  0.86446869  -0.00580359  1
  O  O154  1  0.38147143  0.90630338  0.25411193  1
  O  O155  1  0.36596175  0.86672270  0.51333598  1
  O  O156  1  0.40036335  0.91828332  0.74863881  1
  O  O157  1  0.60917492  0.09197589  -0.01124569  1
  O  O158  1  0.64726783  0.11523663  0.25795558  1
  O  O159  1  0.60896222  0.14724961  0.50129095  1
  O  O160  1  0.67192448  0.14226532  0.75737264  1
  O  O161  1  0.66558372  0.33782382  -0.01811755  1
  O  O162  1  0.59946805  0.38870184  0.24482366  1
  O  O163  1  0.64879427  0.37810967  0.48820778  1
  O  O164  1  0.60108239  0.36797649  0.75013532  1
  O  O165  1  0.62707485  0.62460232  -0.00333835  1
  O  O166  1  0.64811776  0.65299799  0.26380880  1
  O  O167  1  0.60984410  0.61582800  0.50353286  1
  O  O168  1  0.63689047  0.61580728  0.75273990  1
  O  O169  1  0.62639908  0.90727073  -0.00344047  1
  O  O170  1  0.61336742  0.89688122  0.26283745  1
  O  O171  1  0.66438566  0.90554342  0.50370116  1
  O  O172  1  0.62042647  0.85465938  0.75292831  1
  O  O173  1  0.89450835  0.13462092  0.00532743  1
  O  O174  1  0.83341660  0.11970706  0.25580083  1
  O  O175  1  0.91775232  0.13229037  0.49991703  1
  O  O176  1  0.85511676  0.14681302  0.74132379  1
  O  O177  1  0.86124379  0.40010372  -0.01158296  1
  O  O178  1  0.90393186  0.37233192  0.25660608  1
  O  O179  1  0.85755654  0.39832314  0.49365639  1
  O  O180  1  0.90711418  0.35910796  0.74846823  1
  O  O181  1  0.87666778  0.60283261  -0.01136032  1
  O  O182  1  0.88206759  0.63886657  0.26830572  1
  O  O183  1  0.87471016  0.59164036  0.50757489  1
  O  O184  1  0.84789440  0.63306213  0.74703134  1
  O  O185  1  0.88856426  0.86889736  -0.00474099  1
  O  O186  1  0.90007906  0.91545196  0.24129024  1
  O  O187  1  0.86778508  0.87950552  0.51225280  1
  O  O188  1  0.87575615  0.85734300  0.75386778  1
  O  O189  1  -0.01550040  0.09884522  0.17408109  1
  O  O190  1  -0.00955661  0.14521817  0.34984089  1
  O  O191  1  0.00055178  0.14776691  0.64107261  1
  O  O192  1  0.00537688  0.10197294  0.84133826  1
  O  O193  1  0.00350022  0.39609327  0.10349563  1
  O  O194  1  -0.00426620  0.35919974  0.40087908  1
  O  O195  1  0.00135520  0.35478482  0.58936863  1
  O  O196  1  -0.00066819  0.39687676  0.88501426  1
  O  O197  1  0.00502941  0.62410492  0.13342366  1
  O  O198  1  0.00289441  0.64111530  0.39190711  1
  O  O199  1  -0.00850382  0.64658794  0.62568949  1
  O  O200  1  -0.00429440  0.60013987  0.87018356  1
  O  O201  1  0.01142919  0.90941360  0.09823770  1
  O  O202  1  -0.00242187  0.86013343  0.39093274  1
  O  O203  1  -0.00493186  0.85412832  0.63752476  1
  O  O204  1  0.00294411  0.90376366  0.86382039  1
  O  O205  1  0.25656533  0.15735769  0.10937385  1
  O  O206  1  0.24468661  0.12050704  0.40462613  1
  O  O207  1  0.25424136  0.10328711  0.59966880  1
  O  O208  1  0.24324004  0.15450493  0.88003622  1
  O  O209  1  0.24385695  0.34960520  0.11855884  1
  O  O210  1  0.24162842  0.36695172  0.36149783  1
  O  O211  1  0.24595258  0.39559133  0.63699029  1
  O  O212  1  0.25327413  0.34648905  0.85430904  1
  O  O213  1  0.25229701  0.65954498  0.12319504  1
  O  O214  1  0.24699114  0.60579896  0.37057893  1
  O  O215  1  0.24848146  0.59967881  0.63607490  1
  O  O216  1  0.25301897  0.64225567  0.86755501  1
  O  O217  1  0.25016468  0.86040755  0.15130367  1
  O  O218  1  0.23213187  0.90084394  0.36907983  1
  O  O219  1  0.25068269  0.90306371  0.64566673  1
  O  O220  1  0.26376860  0.86492202  0.84447529  1
  O  O221  1  0.49836455  0.08257690  0.13342527  1
  O  O222  1  0.49674928  0.12270726  0.36432630  1
  O  O223  1  0.49881085  0.14522648  0.64551304  1
  O  O224  1  0.51054352  0.10219196  0.82196626  1
  O  O225  1  0.52105788  0.36873211  0.07920490  1
  O  O226  1  0.50713433  0.38411659  0.38386335  1
  O  O227  1  0.51406659  0.33811573  0.58823634  1
  O  O228  1  0.50981669  0.38697786  0.90010267  1
  O  O229  1  0.49871629  0.60649677  0.14347475  1
  O  O230  1  0.49718386  0.62927850  0.36078946  1
  O  O231  1  0.50404147  0.64624631  0.64584458  1
  O  O232  1  0.50999344  0.61444847  0.88459370  1
  O  O233  1  0.50235776  0.91007333  0.12574100  1
  O  O234  1  0.50411637  0.89038094  0.41705890  1
  O  O235  1  0.50482255  0.85007904  0.60816294  1
  O  O236  1  0.50374817  0.89744537  0.88599568  1
  O  O237  1  0.75377780  0.15642259  0.10943583  1
  O  O238  1  0.75550038  0.11683433  0.41418085  1
  O  O239  1  0.75473810  0.10384121  0.58867273  1
  O  O240  1  0.74720291  0.13748805  0.90751894  1
  O  O241  1  0.74736134  0.35453297  0.15116773  1
  O  O242  1  0.74881356  0.38178092  0.34079326  1
  O  O243  1  0.74183323  0.40795316  0.62830952  1
  O  O244  1  0.75429951  0.33326424  0.82876894  1
  O  O245  1  0.75803112  0.65374378  0.11632081  1
  O  O246  1  0.74961551  0.62697070  0.39432893  1
  O  O247  1  0.73973564  0.58633470  0.61743505  1
  O  O248  1  0.75089308  0.64316918  0.88563653  1
  O  O249  1  0.76316545  0.85600078  0.14075975  1
  O  O250  1  0.74935341  0.86399003  0.36321045  1
  O  O251  1  0.75652901  0.88360237  0.64804483  1
  O  O252  1  0.74858730  0.85201041  0.87999835  1
  O  O253  1  0.15590471  0.00746403  0.12470530  1
  O  O254  1  0.07966599  -0.00088115  0.35918752  1
  O  O255  1  0.09666300  -0.00012057  0.66022229  1
  O  O256  1  0.14536880  0.00576515  0.86022993  1
  O  O257  1  0.09564557  0.24404517  0.11787533  1
  O  O258  1  0.12010908  0.24984002  0.40054608  1
  O  O259  1  0.14553907  0.24471465  0.60761678  1
  O  O260  1  0.09468153  0.24411802  0.87322494  1
  O  O261  1  0.15632441  0.48997766  0.13040082  1
  O  O262  1  0.10583147  0.49818434  0.36414592  1
  O  O263  1  0.10839797  0.49364683  0.61279747  1
  O  O264  1  0.14117715  0.50237656  0.86910601  1
  O  O265  1  0.09750732  0.76158795  0.11045119  1
  O  O266  1  0.12784577  0.75854600  0.39997174  1
  O  O267  1  0.14920131  0.75749046  0.61581603  1
  O  O268  1  0.12620595  0.74826585  0.88220082  1
  O  O269  1  0.34062068  0.00566715  0.10565779  1
  O  O270  1  0.36813336  0.00927324  0.41672680  1
  O  O271  1  0.40773019  0.00789764  0.61105231  1
  O  O272  1  0.34330347  0.00139007  0.89876440  1
  O  O273  1  0.40925869  0.23113343  0.15872263  1
  O  O274  1  0.35324950  0.24167225  0.36994089  1
  O  O275  1  0.35555834  0.25370415  0.63965320  1
  O  O276  1  0.40166631  0.25369278  0.86888069  1
  O  O277  1  0.35533536  0.50982333  0.12789464  1
  O  O278  1  0.37872740  0.50049005  0.36797482  1
  O  O279  1  0.40733796  0.49147386  0.62338174  1
  O  O280  1  0.35016360  0.49042189  0.88770827  1
  O  O281  1  0.39191458  0.74826272  0.15496815  1
  O  O282  1  0.36662521  0.75239410  0.37400035  1
  O  O283  1  0.36459965  0.76397490  0.66122679  1
  O  O284  1  0.40743173  0.75782909  0.86291570  1
  O  O285  1  0.66874888  0.00551967  0.12913346  1
  O  O286  1  0.63432932  0.01102858  0.38553464  1
  O  O287  1  0.61297319  0.00728463  0.66163949  1
  O  O288  1  0.65675552  -0.00238053  0.85423922  1
  O  O289  1  0.61153382  0.24820633  0.14533238  1
  O  O290  1  0.63334496  0.24928998  0.36223140  1
  O  O291  1  0.66278367  0.25527805  0.63292961  1
  O  O292  1  0.58671443  0.24044067  0.87583357  1
  O  O293  1  0.66057831  0.48037268  0.09183200  1
  O  O294  1  0.62082607  0.51108495  0.36365669  1
  O  O295  1  0.58753655  0.48998607  0.62542456  1
  O  O296  1  0.64724502  0.48929328  0.87593972  1
  O  O297  1  0.60670263  0.76189443  0.11105734  1
  O  O298  1  0.61194206  0.76133444  0.40406097  1
  O  O299  1  0.65408036  0.74059782  0.62210784  1
  O  O300  1  0.61018324  0.75478323  0.88978031  1
  O  O301  1  0.85923021  0.00298957  0.09520082  1
  O  O302  1  0.89630952  0.01057427  0.37768803  1
  O  O303  1  0.89078955  0.00593832  0.63509593  1
  O  O304  1  0.85621993  -0.00833663  0.88545518  1
  O  O305  1  0.90107142  0.24187266  0.13076393  1
  O  O306  1  0.86535141  0.25273981  0.38915748  1
  O  O307  1  0.83835734  0.24647975  0.61612937  1
  O  O308  1  0.89820953  0.25338625  0.88279335  1
  O  O309  1  0.84747236  0.49360024  0.14890680  1
  O  O310  1  0.88439841  0.50199504  0.36005453  1
  O  O311  1  0.88568032  0.49959277  0.65586040  1
  O  O312  1  0.86710859  0.49332487  0.84183797  1
  O  O313  1  0.90726608  0.76749044  0.13882654  1
  O  O314  1  0.87228423  0.74380109  0.40920820  1
  O  O315  1  0.84093355  0.73958522  0.61502900  1
  O  O316  1  0.90572108  0.74588556  0.86884737  1
