# generated using pymatgen
data_Mg32Ti42(Bi17O64)3
_symmetry_space_group_name_H-M   'P 1'
_cell_length_a   15.97217301
_cell_length_b   15.95699670
_cell_length_c   15.98005780
_cell_angle_alpha   90.10260024
_cell_angle_beta   90.07790236
_cell_angle_gamma   89.94550788
_symmetry_Int_Tables_number   1
_chemical_formula_structural   Mg32Ti42(Bi17O64)3
_chemical_formula_sum   'Mg32 Ti42 Bi51 O192'
_cell_volume   4072.79183764
_cell_formula_units_Z   1
loop_
 _symmetry_equiv_pos_site_id
 _symmetry_equiv_pos_as_xyz
  1  'x, y, z'
loop_
 _atom_site_type_symbol
 _atom_site_label
 _atom_site_symmetry_multiplicity
 _atom_site_fract_x
 _atom_site_fract_y
 _atom_site_fract_z
 _atom_site_occupancy
  Mg  Mg0  1  0.86649261  0.12687580  0.11616537  1
  Mg  Mg1  1  0.13116259  0.12203175  0.63016315  1
  Mg  Mg2  1  0.88182617  0.36479180  0.11380923  1
  Mg  Mg3  1  0.62292225  0.38666559  0.12371663  1
  Mg  Mg4  1  0.63890079  0.61666464  0.63874923  1
  Mg  Mg5  1  0.12715400  0.62939006  0.12233085  1
  Mg  Mg6  1  0.37742460  0.87932000  0.87936041  1
  Mg  Mg7  1  0.36260594  0.87317965  0.61931354  1
  Mg  Mg8  1  0.37782278  0.37403145  0.88042430  1
  Mg  Mg9  1  0.38021829  0.36683824  0.61931786  1
  Mg  Mg10  1  0.12048454  0.87023776  0.88530969  1
  Mg  Mg11  1  0.87276435  0.38901715  0.62866408  1
  Mg  Mg12  1  0.12537880  0.36563372  0.87264723  1
  Mg  Mg13  1  0.87593499  0.61903223  0.88438410  1
  Mg  Mg14  1  0.36717167  0.63203135  0.62713620  1
  Mg  Mg15  1  0.11687080  0.62572502  0.37738239  1
  Mg  Mg16  1  0.12535646  0.37394388  0.12391968  1
  Mg  Mg17  1  0.12975609  0.12243329  0.88276064  1
  Mg  Mg18  1  0.85444890  0.10288881  0.86783462  1
  Mg  Mg19  1  0.73648964  0.74184029  -0.00349632  1
  Mg  Mg20  1  -0.04773842  0.21802609  -0.05383561  1
  Mg  Mg21  1  0.55887295  0.46325418  -0.06109030  1
  Mg  Mg22  1  0.75698811  0.71544964  0.78873390  1
  Mg  Mg23  1  0.01106448  0.73215659  0.54209118  1
  Mg  Mg24  1  -0.05892375  0.04345046  0.58477116  1
  Mg  Mg25  1  0.20599992  -0.00808470  0.00579663  1
  Mg  Mg26  1  0.72315855  0.44156637  0.80266601  1
  Mg  Mg27  1  0.44312659  0.25470309  0.25212999  1
  Mg  Mg28  1  -0.04463453  0.19054785  0.74131899  1
  Mg  Mg29  1  0.24576385  0.46851077  -0.04548649  1
  Mg  Mg30  1  0.77469855  0.05355938  0.70584619  1
  Mg  Mg31  1  0.21475955  0.04278147  0.49812018  1
  Ti  Ti32  1  0.36511176  0.62304031  0.12305730  1
  Ti  Ti33  1  0.61971236  0.12781629  0.37698143  1
  Ti  Ti34  1  0.62423985  0.87479919  0.36940653  1
  Ti  Ti35  1  0.37326298  0.37978289  0.37387433  1
  Ti  Ti36  1  0.62684137  0.61873641  0.37244458  1
  Ti  Ti37  1  0.62344077  0.86748033  0.13108151  1
  Ti  Ti38  1  0.13086983  0.62948609  0.63911263  1
  Ti  Ti39  1  0.88399463  0.36599886  0.87855262  1
  Ti  Ti40  1  0.62771225  0.37866662  0.61498715  1
  Ti  Ti41  1  0.61505144  0.13441328  0.62855369  1
  Ti  Ti42  1  0.87718168  0.86995913  0.64032969  1
  Ti  Ti43  1  0.86793895  0.63394469  0.11713342  1
  Ti  Ti44  1  0.37617094  0.12449155  0.12973838  1
  Ti  Ti45  1  0.62236701  0.62665675  0.12263078  1
  Ti  Ti46  1  0.36864911  0.38860264  0.11486156  1
  Ti  Ti47  1  0.37666762  0.86637987  0.37782541  1
  Ti  Ti48  1  0.36878510  0.12582598  0.61790590  1
  Ti  Ti49  1  0.11762572  0.12377266  0.37466814  1
  Ti  Ti50  1  0.87881990  0.38502863  0.37575778  1
  Ti  Ti51  1  0.37476647  0.86791475  0.13226377  1
  Ti  Ti52  1  0.37230304  0.61981601  0.89513631  1
  Ti  Ti53  1  0.37043302  0.62351084  0.37571007  1
  Ti  Ti54  1  0.62402803  0.87863010  0.64803077  1
  Ti  Ti55  1  0.85632502  0.86477754  0.87705772  1
  Ti  Ti56  1  0.62340194  0.12689974  0.13351718  1
  Ti  Ti57  1  0.63322990  0.11561443  0.86419510  1
  Ti  Ti58  1  0.63463836  0.62626298  0.87249327  1
  Ti  Ti59  1  0.62358421  0.87162955  0.87982248  1
  Ti  Ti60  1  0.10470761  0.87767952  0.38435273  1
  Ti  Ti61  1  0.86642007  0.86840778  0.38066484  1
  Ti  Ti62  1  0.85950655  0.87365212  0.12883166  1
  Ti  Ti63  1  0.11548018  0.89018901  0.61860514  1
  Ti  Ti64  1  0.11612601  0.87698163  0.13100522  1
  Ti  Ti65  1  0.37147403  0.11805884  0.37103770  1
  Ti  Ti66  1  0.86968165  0.63402912  0.63139420  1
  Ti  Ti67  1  0.88112510  0.63236294  0.38372129  1
  Ti  Ti68  1  0.13238666  0.62573751  0.88351985  1
  Ti  Ti69  1  0.38085901  0.12185651  0.88882293  1
  Ti  Ti70  1  0.12128176  0.11719589  0.12877427  1
  Ti  Ti71  1  0.11299513  0.38118481  0.37385165  1
  Ti  Ti72  1  0.12022644  0.37576631  0.62629208  1
  Ti  Ti73  1  0.61768870  0.37191109  0.36824365  1
  Bi  Bi74  1  0.74704157  0.73316803  0.26427877  1
  Bi  Bi75  1  0.75853029  0.02305400  0.28232820  1
  Bi  Bi76  1  0.22600984  0.23749112  0.02054083  1
  Bi  Bi77  1  0.48423665  0.23194243  0.49240617  1
  Bi  Bi78  1  -0.02936269  0.00201950  0.27659388  1
  Bi  Bi79  1  0.47768984  0.02482757  0.75077570  1
  Bi  Bi80  1  0.48007727  0.50614869  0.52632214  1
  Bi  Bi81  1  0.26014641  0.46627450  0.74690053  1
  Bi  Bi82  1  0.49127338  -0.00587468  0.01840124  1
  Bi  Bi83  1  0.23700578  0.00447015  0.77767705  1
  Bi  Bi84  1  0.00293384  0.49070681  0.78128452  1
  Bi  Bi85  1  0.25229028  0.48091683  0.51588625  1
  Bi  Bi86  1  0.50732873  0.25561642  0.02951458  1
  Bi  Bi87  1  0.00723645  0.00761706  0.77706077  1
  Bi  Bi88  1  0.51654696  0.75559127  -0.01029856  1
  Bi  Bi89  1  0.75843686  0.25753570  0.26625365  1
  Bi  Bi90  1  -0.00571892  0.73323697  0.76953361  1
  Bi  Bi91  1  0.26140468  0.77838032  -0.00729682  1
  Bi  Bi92  1  0.73049044  0.01549172  0.01328344  1
  Bi  Bi93  1  0.75630552  0.49386149  0.00997670  1
  Bi  Bi94  1  0.23423035  0.78035748  0.74538656  1
  Bi  Bi95  1  0.47625400  -0.01196829  0.51597880  1
  Bi  Bi96  1  0.21752794  0.24391869  0.49862788  1
  Bi  Bi97  1  0.77217112  0.50081430  0.24819936  1
  Bi  Bi98  1  -0.03279252  0.00811543  -0.00189733  1
  Bi  Bi99  1  0.26045108  0.24839511  0.79009655  1
  Bi  Bi100  1  0.49164659  -0.01055316  0.26424563  1
  Bi  Bi101  1  0.71771722  0.27983798  -0.01008318  1
  Bi  Bi102  1  0.21648952  0.74544825  0.50310852  1
  Bi  Bi103  1  0.49386664  0.47589824  0.23980800  1
  Bi  Bi104  1  -0.00128887  0.73132895  0.24767259  1
  Bi  Bi105  1  -0.02517407  0.76533228  -0.00032147  1
  Bi  Bi106  1  0.77244326  0.26677667  0.73164413  1
  Bi  Bi107  1  0.23031348  -0.02013849  0.26078816  1
  Bi  Bi108  1  0.50384088  0.72750401  0.52728546  1
  Bi  Bi109  1  0.74587805  -0.02915823  0.52046901  1
  Bi  Bi110  1  0.03045783  0.48720587  -0.00216150  1
  Bi  Bi111  1  0.00738472  0.49347263  0.22752602  1
  Bi  Bi112  1  0.74630834  0.47835226  0.49596663  1
  Bi  Bi113  1  0.47111225  0.50718813  0.76539492  1
  Bi  Bi114  1  0.22204770  0.26450594  0.25244974  1
  Bi  Bi115  1  0.23269675  0.74089008  0.25835692  1
  Bi  Bi116  1  0.46517881  0.75207360  0.75502134  1
  Bi  Bi117  1  0.23056975  0.51039921  0.24858545  1
  Bi  Bi118  1  -0.03110083  0.21757580  0.25377064  1
  Bi  Bi119  1  0.76453218  0.21872717  0.51095520  1
  Bi  Bi120  1  -0.02176668  0.23041661  0.54577326  1
  Bi  Bi121  1  -0.00299561  0.51755508  0.53150124  1
  Bi  Bi122  1  0.49055748  0.72671858  0.25272356  1
  Bi  Bi123  1  0.53587417  0.28478608  0.77428842  1
  Bi  Bi124  1  0.72458432  0.74967588  0.51746043  1
  O  O125  1  0.15590108  0.11667150  0.00834710  1
  O  O126  1  0.14111335  0.11747136  0.25226431  1
  O  O127  1  0.12407625  0.13634022  0.49552168  1
  O  O128  1  0.12587262  0.08795387  0.75154317  1
  O  O129  1  0.14140927  0.40462130  0.00035418  1
  O  O130  1  0.11610857  0.35599848  0.25423888  1
  O  O131  1  0.14667342  0.37675352  0.49012802  1
  O  O132  1  0.12996482  0.38980090  0.73934410  1
  O  O133  1  0.10365924  0.61861442  -0.00307696  1
  O  O134  1  0.15285721  0.62668518  0.25354103  1
  O  O135  1  0.10496624  0.65595504  0.49892882  1
  O  O136  1  0.15278794  0.61621639  0.74903248  1
  O  O137  1  0.16005341  0.86958456  0.01554649  1
  O  O138  1  0.11498140  0.90370256  0.25408209  1
  O  O139  1  0.10244567  0.84390133  0.50130375  1
  O  O140  1  0.13427794  0.88641121  0.74348245  1
  O  O141  1  0.36745164  0.11748193  0.00003152  1
  O  O142  1  0.38989397  0.14260648  0.24969818  1
  O  O143  1  0.39482459  0.12015462  0.48989086  1
  O  O144  1  0.38900024  0.13094936  0.73437325  1
  O  O145  1  0.34617361  0.39864705  0.00358556  1
  O  O146  1  0.39939304  0.37073234  0.25258879  1
  O  O147  1  0.36718806  0.38848800  0.49152995  1
  O  O148  1  0.36716963  0.37837713  0.74277112  1
  O  O149  1  0.39375417  0.61361555  0.00755274  1
  O  O150  1  0.36781428  0.64430988  0.25029577  1
  O  O151  1  0.39929268  0.62580083  0.49131891  1
  O  O152  1  0.38766648  0.63583143  0.75828739  1
  O  O153  1  0.34355451  0.88783974  0.01078017  1
  O  O154  1  0.41249998  0.87325455  0.24763802  1
  O  O155  1  0.37775089  0.88244023  0.49147045  1
  O  O156  1  0.36407508  0.85050187  0.75034206  1
  O  O157  1  0.65012732  0.12599769  -0.01780224  1
  O  O158  1  0.61187906  0.11417994  0.24305728  1
  O  O159  1  0.63794125  0.14105221  0.49525343  1
  O  O160  1  0.59287526  0.11460614  0.74308510  1
  O  O161  1  0.60770599  0.36309288  -0.00175151  1
  O  O162  1  0.61543132  0.40041517  0.24881472  1
  O  O163  1  0.64149916  0.37403664  0.49295233  1
  O  O164  1  0.64166474  0.36697974  0.74033421  1
  O  O165  1  0.61624292  0.65074983  0.00678222  1
  O  O166  1  0.65855998  0.62106223  0.24800715  1
  O  O167  1  0.62237952  0.64690199  0.48888368  1
  O  O168  1  0.65895214  0.63760655  0.76080219  1
  O  O169  1  0.64484005  0.83583814  0.00011649  1
  O  O170  1  0.60729359  0.90316952  0.24212842  1
  O  O171  1  0.64048547  0.87295162  0.48706007  1
  O  O172  1  0.60536323  0.87670316  0.75886567  1
  O  O173  1  0.87803472  0.12883417  -0.00900312  1
  O  O174  1  0.88492200  0.10568812  0.24053237  1
  O  O175  1  0.88147567  0.13901862  0.51765461  1
  O  O176  1  0.89319635  0.08186240  0.74950691  1
  O  O177  1  0.90201053  0.32662183  -0.01222237  1
  O  O178  1  0.88057987  0.41076319  0.24946702  1
  O  O179  1  0.85806463  0.37334036  0.49036436  1
  O  O180  1  0.83093178  0.39288070  0.75393786  1
  O  O181  1  0.90536733  0.63490345  0.00709209  1
  O  O182  1  0.84461711  0.62169337  0.24668919  1
  O  O183  1  0.91183132  0.64817529  0.49413951  1
  O  O184  1  0.85946126  0.64830667  0.74592479  1
  O  O185  1  0.84876986  0.82894220  0.00014540  1
  O  O186  1  0.88615945  0.89163568  0.23946540  1
  O  O187  1  0.85448259  0.86750994  0.49253402  1
  O  O188  1  0.88545896  0.86936366  0.75479785  1
  O  O189  1  0.00995544  0.10702997  0.12175709  1
  O  O190  1  0.00688627  0.11631865  0.36299410  1
  O  O191  1  0.00826939  0.13348718  0.63578104  1
  O  O192  1  0.00388273  0.11679347  0.87401602  1
  O  O193  1  0.00007460  0.41046596  0.11661701  1
  O  O194  1  -0.00122148  0.39334813  0.38496327  1
  O  O195  1  0.00369085  0.40183105  0.61285728  1
  O  O196  1  0.00331282  0.37719090  0.86365518  1
  O  O197  1  -0.00382384  0.61642659  0.15794734  1
  O  O198  1  -0.00781978  0.62125267  0.34320097  1
  O  O199  1  0.00246218  0.60706784  0.63771459  1
  O  O200  1  0.00549972  0.61599113  0.84447102  1
  O  O201  1  0.00719071  0.88846083  0.09956924  1
  O  O202  1  -0.00600243  0.88990768  0.37658317  1
  O  O203  1  -0.00764941  0.92235593  0.62525651  1
  O  O204  1  -0.00481618  0.88397255  0.90932715  1
  O  O205  1  0.26528710  0.14871932  0.13028383  1
  O  O206  1  0.25846756  0.12877326  0.39566204  1
  O  O207  1  0.25525629  0.12964274  0.59559660  1
  O  O208  1  0.26209989  0.12295851  0.85113204  1
  O  O209  1  0.25705737  0.35181001  0.14519781  1
  O  O210  1  0.25840559  0.36254550  0.35238874  1
  O  O211  1  0.24767260  0.38846912  0.61855944  1
  O  O212  1  0.25051417  0.38191603  0.85886475  1
  O  O213  1  0.25578147  0.64386179  0.11544631  1
  O  O214  1  0.25782709  0.64879151  0.38653994  1
  O  O215  1  0.24417690  0.65143602  0.60424027  1
  O  O216  1  0.25233841  0.61731627  0.90476438  1
  O  O217  1  0.26178244  0.87066425  0.16457576  1
  O  O218  1  0.26105884  0.86670051  0.35397427  1
  O  O219  1  0.23676674  0.84374049  0.61698140  1
  O  O220  1  0.25060217  0.84197919  0.87318954  1
  O  O221  1  0.50523044  0.12420311  0.09475092  1
  O  O222  1  0.50492292  0.11532756  0.37692511  1
  O  O223  1  0.50484885  0.09881029  0.60485674  1
  O  O224  1  0.49985832  0.10143307  0.87438885  1
  O  O225  1  0.49227678  0.39993276  0.11724711  1
  O  O226  1  0.50409545  0.40006979  0.37835111  1
  O  O227  1  0.50910253  0.40015533  0.61888578  1
  O  O228  1  0.49937484  0.39470509  0.85476709  1
  O  O229  1  0.50951652  0.61586436  0.15071481  1
  O  O230  1  0.51062403  0.61877196  0.34941758  1
  O  O231  1  0.51188366  0.61040978  0.61546158  1
  O  O232  1  0.51082134  0.57770852  0.87772404  1
  O  O233  1  0.50184345  0.88021131  0.09705166  1
  O  O234  1  0.50751035  0.90497013  0.37779862  1
  O  O235  1  0.51289633  0.90032930  0.61775968  1
  O  O236  1  0.50520469  0.88156576  0.90860043  1
  O  O237  1  0.74033708  0.10925751  0.12459543  1
  O  O238  1  0.74367861  0.14697447  0.35013830  1
  O  O239  1  0.73871036  0.15114082  0.63206183  1
  O  O240  1  0.73985860  0.10718910  0.82049815  1
  O  O241  1  0.75333681  0.37496231  0.08796443  1
  O  O242  1  0.74962195  0.37008562  0.35456268  1
  O  O243  1  0.74758576  0.33078963  0.61196674  1
  O  O244  1  0.76312331  0.37516884  0.90372307  1
  O  O245  1  0.75641804  0.66899421  0.10145837  1
  O  O246  1  0.75397279  0.65982094  0.38545155  1
  O  O247  1  0.75886694  0.64841640  0.60608951  1
  O  O248  1  0.75035448  0.65702818  0.90089281  1
  O  O249  1  0.74523056  0.87158274  0.14000245  1
  O  O250  1  0.74950909  0.86801855  0.34951870  1
  O  O251  1  0.75104620  0.85514709  0.62127706  1
  O  O252  1  0.74685242  0.82983415  0.85411336  1
  O  O253  1  0.15909616  -0.00066081  0.12340914  1
  O  O254  1  0.14851145  -0.00247644  0.39313367  1
  O  O255  1  0.15018529  -0.00722506  0.59352134  1
  O  O256  1  0.15909110  -0.00814289  0.88944481  1
  O  O257  1  0.12606617  0.24260091  0.11681321  1
  O  O258  1  0.13145093  0.24753951  0.37725399  1
  O  O259  1  0.12707690  0.25966214  0.61352396  1
  O  O260  1  0.15487045  0.24558991  0.88349185  1
  O  O261  1  0.13467383  0.50080213  0.15107816  1
  O  O262  1  0.13928005  0.49527875  0.36253314  1
  O  O263  1  0.13437533  0.51011685  0.59742758  1
  O  O264  1  0.11946910  0.50361403  0.87093034  1
  O  O265  1  0.12020749  0.76058458  0.15189104  1
  O  O266  1  0.12299700  0.76381848  0.35187333  1
  O  O267  1  0.09785356  0.74702705  0.63926371  1
  O  O268  1  0.10984113  0.74295344  0.86093305  1
  O  O269  1  0.39101235  0.00593556  0.13444659  1
  O  O270  1  0.37194325  0.00331980  0.35300555  1
  O  O271  1  0.37389609  0.00171991  0.61735670  1
  O  O272  1  0.37160192  0.00222689  0.85307187  1
  O  O273  1  0.40738499  0.25617611  0.12568478  1
  O  O274  1  0.40071730  0.25527509  0.37712933  1
  O  O275  1  0.39356861  0.24363295  0.59643377  1
  O  O276  1  0.37243561  0.24487121  0.87539518  1
  O  O277  1  0.35732491  0.50406359  0.14766637  1
  O  O278  1  0.36387872  0.50597386  0.36527410  1
  O  O279  1  0.36666040  0.50689065  0.61039661  1
  O  O280  1  0.36263649  0.50438414  0.85692212  1
  O  O281  1  0.38927244  0.75250065  0.12091182  1
  O  O282  1  0.40127056  0.75349761  0.37371272  1
  O  O283  1  0.40725703  0.75128153  0.62458919  1
  O  O284  1  0.39709691  0.73948017  0.89064757  1
  O  O285  1  0.61665056  -0.00356064  0.09255188  1
  O  O286  1  0.65065271  0.01002408  0.37532445  1
  O  O287  1  0.66175355  -0.00146911  0.63079807  1
  O  O288  1  0.64136644  -0.01522274  0.89438041  1
  O  O289  1  0.61487555  0.24731392  0.11847896  1
  O  O290  1  0.61094823  0.25650897  0.35917868  1
  O  O291  1  0.59146878  0.24801291  0.62862762  1
  O  O292  1  0.62394544  0.23535873  0.86466938  1
  O  O293  1  0.65197233  0.51332850  0.10254875  1
  O  O294  1  0.64946941  0.50735226  0.38689540  1
  O  O295  1  0.66160364  0.49047354  0.61603229  1
  O  O296  1  0.66012050  0.50914090  0.88594473  1
  O  O297  1  0.60965964  0.75481535  0.15062502  1
  O  O298  1  0.61543275  0.76039676  0.34676788  1
  O  O299  1  0.61488783  0.75833267  0.61656894  1
  O  O300  1  0.58801386  0.74251494  0.87126230  1
  O  O301  1  0.86811840  -0.01320329  0.09252400  1
  O  O302  1  0.86361723  -0.00731797  0.36809048  1
  O  O303  1  0.84032028  -0.01260133  0.62077669  1
  O  O304  1  0.85860718  -0.02091649  0.90245854  1
  O  O305  1  0.87250273  0.24866825  0.16153346  1
  O  O306  1  0.87781455  0.26603069  0.34361025  1
  O  O307  1  0.89920121  0.26439932  0.65542774  1
  O  O308  1  0.89060978  0.24616926  0.83793724  1
  O  O309  1  0.84577440  0.51437603  0.11801898  1
  O  O310  1  0.85172000  0.51192163  0.38285764  1
  O  O311  1  0.86910714  0.51581976  0.60024309  1
  O  O312  1  0.89030905  0.49231477  0.87930463  1
  O  O313  1  0.90353542  0.75513085  0.13787351  1
  O  O314  1  0.88520115  0.75332720  0.34645558  1
  O  O315  1  0.91058719  0.75685241  0.61912434  1
  O  O316  1  0.90504059  0.74832330  0.87422221  1
