# generated using pymatgen
data_Mg32Ti42(Bi17O64)3
_symmetry_space_group_name_H-M   'P 1'
_cell_length_a   15.99435020
_cell_length_b   15.96715067
_cell_length_c   15.99140181
_cell_angle_alpha   89.81283934
_cell_angle_beta   89.82660860
_cell_angle_gamma   89.86871238
_symmetry_Int_Tables_number   1
_chemical_formula_structural   Mg32Ti42(Bi17O64)3
_chemical_formula_sum   'Mg32 Ti42 Bi51 O192'
_cell_volume   4083.90023154
_cell_formula_units_Z   1
loop_
 _symmetry_equiv_pos_site_id
 _symmetry_equiv_pos_as_xyz
  1  'x, y, z'
loop_
 _atom_site_type_symbol
 _atom_site_label
 _atom_site_symmetry_multiplicity
 _atom_site_fract_x
 _atom_site_fract_y
 _atom_site_fract_z
 _atom_site_occupancy
  Mg  Mg0  1  0.12554639  0.62508263  0.87303151  1
  Mg  Mg1  1  0.62130619  0.86703353  0.37785172  1
  Mg  Mg2  1  0.88495732  0.87238450  0.37001836  1
  Mg  Mg3  1  0.11141502  0.12983399  0.12420690  1
  Mg  Mg4  1  0.13250245  0.88120015  0.61358952  1
  Mg  Mg5  1  0.87550678  0.62584449  0.36273215  1
  Mg  Mg6  1  0.12125130  0.87959248  0.88348962  1
  Mg  Mg7  1  0.38338139  0.87276265  0.87384209  1
  Mg  Mg8  1  0.86048927  0.61678051  0.87953264  1
  Mg  Mg9  1  0.37315029  0.62382962  0.62747759  1
  Mg  Mg10  1  0.62059509  0.37042295  0.61017312  1
  Mg  Mg11  1  0.37748338  0.62048426  0.37842082  1
  Mg  Mg12  1  0.10965118  0.12494756  0.88190340  1
  Mg  Mg13  1  0.63101933  0.87666136  0.12066580  1
  Mg  Mg14  1  0.86723960  0.87481569  0.86976413  1
  Mg  Mg15  1  0.11472529  0.37504156  0.88717542  1
  Mg  Mg16  1  0.36868485  0.37903635  0.12239200  1
  Mg  Mg17  1  0.12770241  0.62380100  0.13161886  1
  Mg  Mg18  1  0.86894361  0.88706186  0.62588760  1
  Mg  Mg19  1  0.78587885  -0.00255081  0.76358762  1
  Mg  Mg20  1  -0.00731514  0.59094409  0.75380493  1
  Mg  Mg21  1  -0.02642856  0.74678922  -0.06340842  1
  Mg  Mg22  1  0.16399439  -0.00045874  0.01001911  1
  Mg  Mg23  1  0.82192217  0.02956232  0.27669363  1
  Mg  Mg24  1  -0.04592867  0.21903875  -0.01340976  1
  Mg  Mg25  1  0.22691604  0.46728405  0.25237195  1
  Mg  Mg26  1  0.56533505  0.28420349  0.04866610  1
  Mg  Mg27  1  0.47477557  0.27319407  0.45816174  1
  Mg  Mg28  1  0.49362882  0.71484126  0.74267437  1
  Mg  Mg29  1  0.74138153  0.23492214  -0.01815150  1
  Mg  Mg30  1  -0.01822246  -0.00723457  -0.06820964  1
  Mg  Mg31  1  0.03320626  -0.01737832  0.23533173  1
  Ti  Ti32  1  0.88508725  0.88624005  0.11027269  1
  Ti  Ti33  1  0.86793721  0.62952602  0.13061191  1
  Ti  Ti34  1  0.62652034  0.61131947  0.86801491  1
  Ti  Ti35  1  0.37511409  0.39124452  0.35653935  1
  Ti  Ti36  1  0.86465512  0.11676221  0.62901773  1
  Ti  Ti37  1  0.37656771  0.86930495  0.11509372  1
  Ti  Ti38  1  0.62773126  0.63034753  0.11133359  1
  Ti  Ti39  1  0.38348854  0.12810079  0.37031552  1
  Ti  Ti40  1  0.11948399  0.37016831  0.12553859  1
  Ti  Ti41  1  0.63159063  0.12492235  0.87444617  1
  Ti  Ti42  1  0.36890513  0.36909308  0.62552730  1
  Ti  Ti43  1  0.62181442  0.36099095  0.88319754  1
  Ti  Ti44  1  0.62164012  0.86046434  0.62641694  1
  Ti  Ti45  1  0.62884971  0.12637078  0.60571935  1
  Ti  Ti46  1  0.37067385  0.86016147  0.36705899  1
  Ti  Ti47  1  0.61658417  0.11597452  0.12237178  1
  Ti  Ti48  1  0.62097828  0.36278756  0.38401182  1
  Ti  Ti49  1  0.37660631  0.62716365  0.86400061  1
  Ti  Ti50  1  0.11211922  0.36860694  0.37307921  1
  Ti  Ti51  1  0.88646524  0.10722657  0.10821625  1
  Ti  Ti52  1  0.62461073  0.62399900  0.37056926  1
  Ti  Ti53  1  0.38347341  0.61794326  0.12729814  1
  Ti  Ti54  1  0.87014887  0.37826885  0.88240809  1
  Ti  Ti55  1  0.12848125  0.61378827  0.63480733  1
  Ti  Ti56  1  0.12160294  0.61389914  0.36767624  1
  Ti  Ti57  1  0.61356532  0.12474232  0.36555302  1
  Ti  Ti58  1  0.12159502  0.86770628  0.12424876  1
  Ti  Ti59  1  0.38127139  0.13335633  0.61922234  1
  Ti  Ti60  1  0.61924056  0.87036676  0.86489417  1
  Ti  Ti61  1  0.14616412  0.13346111  0.62180207  1
  Ti  Ti62  1  0.13079355  0.86312271  0.37208878  1
  Ti  Ti63  1  0.11453850  0.37473287  0.61819296  1
  Ti  Ti64  1  0.38005748  0.86795211  0.63651860  1
  Ti  Ti65  1  0.38485912  0.12034292  0.87068258  1
  Ti  Ti66  1  0.87981080  0.37481913  0.37420277  1
  Ti  Ti67  1  0.89063181  0.35957596  0.11861458  1
  Ti  Ti68  1  0.37250229  0.12129082  0.11993995  1
  Ti  Ti69  1  0.62339490  0.61834809  0.62678034  1
  Ti  Ti70  1  0.86370650  0.12700368  0.87053355  1
  Ti  Ti71  1  0.13745814  0.12207754  0.37385993  1
  Ti  Ti72  1  0.37890359  0.35407919  0.87630745  1
  Ti  Ti73  1  0.86984075  0.35846933  0.60549636  1
  Bi  Bi74  1  0.53051473  0.46544351  0.21521312  1
  Bi  Bi75  1  0.26620349  0.71324519  0.24115660  1
  Bi  Bi76  1  0.51129596  0.24938825  0.72866467  1
  Bi  Bi77  1  -0.02401298  0.19647598  0.27196175  1
  Bi  Bi78  1  0.51041227  -0.03018440  0.24494477  1
  Bi  Bi79  1  0.01372111  0.74736819  0.52947644  1
  Bi  Bi80  1  0.23361231  0.48700169  0.48433544  1
  Bi  Bi81  1  0.03582010  0.01115505  0.71545048  1
  Bi  Bi82  1  0.23577092  0.46687344  0.76694316  1
  Bi  Bi83  1  -0.00573692  0.28540300  0.76956202  1
  Bi  Bi84  1  0.00214810  -0.00558818  0.46001153  1
  Bi  Bi85  1  0.01417862  0.80094841  0.74636410  1
  Bi  Bi86  1  0.77302017  0.21394591  0.45213942  1
  Bi  Bi87  1  0.00004902  0.74341083  0.24065205  1
  Bi  Bi88  1  0.50507409  -0.00608798  -0.01157745  1
  Bi  Bi89  1  0.24970477  0.72188647  0.50202278  1
  Bi  Bi90  1  0.71951993  0.46565551  0.01496427  1
  Bi  Bi91  1  0.76207729  -0.01711968  0.46532177  1
  Bi  Bi92  1  0.49341108  0.73528049  -0.02642889  1
  Bi  Bi93  1  0.00157792  0.21543480  0.51331684  1
  Bi  Bi94  1  0.49704075  0.50296097  0.49884528  1
  Bi  Bi95  1  0.24801070  0.22105996  -0.00600885  1
  Bi  Bi96  1  0.77983142  0.51237983  0.71461916  1
  Bi  Bi97  1  0.77064693  0.79518711  0.24961825  1
  Bi  Bi98  1  0.79561452  0.73912616  0.52650836  1
  Bi  Bi99  1  0.24734890  0.72761250  0.00405008  1
  Bi  Bi100  1  0.24521790  -0.01168635  0.22102380  1
  Bi  Bi101  1  -0.01953510  0.52731364  -0.00924071  1
  Bi  Bi102  1  0.49940345  -0.03013088  0.48859934  1
  Bi  Bi103  1  0.78484782  0.75106228  0.74013088  1
  Bi  Bi104  1  0.77440831  0.75232355  -0.01500450  1
  Bi  Bi105  1  0.48516276  0.24310418  0.23223441  1
  Bi  Bi106  1  0.50747724  0.72348519  0.50635610  1
  Bi  Bi107  1  0.21757262  0.49691332  0.00859061  1
  Bi  Bi108  1  0.47347792  0.48439615  -0.01897862  1
  Bi  Bi109  1  0.52763547  0.00427658  0.72938875  1
  Bi  Bi110  1  0.74991315  0.47591993  0.23845921  1
  Bi  Bi111  1  0.74088959  0.25927883  0.72153691  1
  Bi  Bi112  1  0.53189047  0.74788356  0.23926133  1
  Bi  Bi113  1  0.74418663  0.50401434  0.47362224  1
  Bi  Bi114  1  0.26980269  -0.00457250  0.78052626  1
  Bi  Bi115  1  -0.01380044  0.50674395  0.22873814  1
  Bi  Bi116  1  0.24678410  0.25180250  0.22803037  1
  Bi  Bi117  1  0.27403910  -0.02658171  0.50494326  1
  Bi  Bi118  1  0.26736301  0.24973644  0.47610613  1
  Bi  Bi119  1  0.74407837  0.23371998  0.21507154  1
  Bi  Bi120  1  -0.03030717  0.52911208  0.52464776  1
  Bi  Bi121  1  0.73537670  -0.01680587  -0.01590053  1
  Bi  Bi122  1  0.21874362  0.24540258  0.76524018  1
  Bi  Bi123  1  0.48434804  0.48321750  0.73538247  1
  Bi  Bi124  1  0.22862933  0.76622872  0.76788350  1
  O  O125  1  0.15505804  0.12717189  0.00476797  1
  O  O126  1  0.10407704  0.10905548  0.26176024  1
  O  O127  1  0.12921397  0.15212691  0.50326050  1
  O  O128  1  0.13548710  0.11872489  0.74497991  1
  O  O129  1  0.13998409  0.36893537  0.01002947  1
  O  O130  1  0.11808463  0.40197827  0.26307847  1
  O  O131  1  0.14589155  0.36521753  0.50091630  1
  O  O132  1  0.12580197  0.38620291  0.74281251  1
  O  O133  1  0.14891232  0.62985622  -0.00119562  1
  O  O134  1  0.16965768  0.58926892  0.26164558  1
  O  O135  1  0.11000229  0.65423123  0.49627598  1
  O  O136  1  0.12126448  0.59835277  0.74796299  1
  O  O137  1  0.12816980  0.87059961  0.01129228  1
  O  O138  1  0.13983562  0.90234379  0.25757482  1
  O  O139  1  0.10037397  0.86182513  0.49075302  1
  O  O140  1  0.12209745  0.88933481  0.74582302  1
  O  O141  1  0.36222232  0.14129527  0.00480059  1
  O  O142  1  0.40058181  0.12003397  0.25567617  1
  O  O143  1  0.38229436  0.16943460  0.50453441  1
  O  O144  1  0.37251973  0.10075040  0.75530640  1
  O  O145  1  0.38188269  0.36937427  -0.00764800  1
  O  O146  1  0.37209456  0.41694331  0.24941966  1
  O  O147  1  0.37825017  0.34708981  0.51058682  1
  O  O148  1  0.37378177  0.40418151  0.76098210  1
  O  O149  1  0.36966684  0.66021072  -0.00046544  1
  O  O150  1  0.36501657  0.61360708  0.24506723  1
  O  O151  1  0.37389731  0.66762373  0.50563526  1
  O  O152  1  0.40158766  0.61356360  0.75214693  1
  O  O153  1  0.38579177  0.85500229  0.00245149  1
  O  O154  1  0.36109661  0.90083033  0.25884589  1
  O  O155  1  0.38365744  0.87990084  0.50234450  1
  O  O156  1  0.37227593  0.91115511  0.74628742  1
  O  O157  1  0.62454024  0.08499336  0.00221903  1
  O  O158  1  0.61173922  0.14636943  0.24398548  1
  O  O159  1  0.62670305  0.12708837  0.49415038  1
  O  O160  1  0.61376581  0.13701832  0.76402522  1
  O  O161  1  0.60345556  0.39428992  0.00237971  1
  O  O162  1  0.63454676  0.39129881  0.26047114  1
  O  O163  1  0.58076181  0.34769519  0.49297575  1
  O  O164  1  0.63774731  0.35025913  0.76983498  1
  O  O165  1  0.62599025  0.63709500  -0.00009294  1
  O  O166  1  0.60530833  0.61285607  0.25739349  1
  O  O167  1  0.63645435  0.64972858  0.51019093  1
  O  O168  1  0.59307960  0.62618546  0.75337632  1
  O  O169  1  0.61520192  0.90540039  -0.00569836  1
  O  O170  1  0.60694176  0.87073019  0.25119383  1
  O  O171  1  0.60818138  0.87884311  0.50591109  1
  O  O172  1  0.62186673  0.88824941  0.74888942  1
  O  O173  1  0.84212954  0.15580748  0.00879244  1
  O  O174  1  0.93290137  0.07333719  0.22968490  1
  O  O175  1  0.87722663  0.14229804  0.51109860  1
  O  O176  1  0.85424969  0.11019615  0.75678462  1
  O  O177  1  0.90158806  0.33489241  0.00933770  1
  O  O178  1  0.87319874  0.40382960  0.26004414  1
  O  O179  1  0.86984107  0.33214689  0.49644675  1
  O  O180  1  0.84618486  0.38777079  0.76977272  1
  O  O181  1  0.89900628  0.64172764  0.01124004  1
  O  O182  1  0.86660996  0.58316998  0.24293219  1
  O  O183  1  0.90138042  0.64586002  0.48659172  1
  O  O184  1  0.87054917  0.59473469  0.75897616  1
  O  O185  1  0.89877774  0.82727894  0.00927132  1
  O  O186  1  0.84951107  0.90697408  0.23256506  1
  O  O187  1  0.86672749  0.85764375  0.49883425  1
  O  O188  1  0.83739192  0.88334005  0.75047633  1
  O  O189  1  -0.01000957  0.15342187  0.08984824  1
  O  O190  1  0.00891480  0.13312121  0.39758568  1
  O  O191  1  -0.00957501  0.11409201  0.62111956  1
  O  O192  1  -0.02136472  0.11809871  0.90457244  1
  O  O193  1  0.00375699  0.36501290  0.14671380  1
  O  O194  1  -0.00424176  0.35875841  0.38429601  1
  O  O195  1  -0.00153398  0.38165257  0.61315450  1
  O  O196  1  -0.01028201  0.38789129  0.86492137  1
  O  O197  1  0.00205078  0.63081427  0.15495496  1
  O  O198  1  0.00920827  0.62176406  0.33510569  1
  O  O199  1  0.00639010  0.61474348  0.62936034  1
  O  O200  1  -0.00314435  0.62424532  0.87789332  1
  O  O201  1  0.00201288  0.87899881  0.15471123  1
  O  O202  1  0.00883625  0.90717849  0.35261544  1
  O  O203  1  -0.00388650  0.90009961  0.63748148  1
  O  O204  1  -0.00802342  0.87343221  0.87425336  1
  O  O205  1  0.25869891  0.12750392  0.14773369  1
  O  O206  1  0.25761163  0.13752166  0.37702771  1
  O  O207  1  0.25650471  0.15276150  0.62013259  1
  O  O208  1  0.25571286  0.15948227  0.87059382  1
  O  O209  1  0.24239149  0.38181212  0.15585004  1
  O  O210  1  0.24951505  0.40544087  0.36736892  1
  O  O211  1  0.25370327  0.37498184  0.63940111  1
  O  O212  1  0.25463611  0.35529621  0.85851917  1
  O  O213  1  0.25737066  0.64151403  0.11925681  1
  O  O214  1  0.24597916  0.61857893  0.40924694  1
  O  O215  1  0.24524381  0.64243078  0.61698659  1
  O  O216  1  0.26151621  0.66759771  0.86470950  1
  O  O217  1  0.25106336  0.88998220  0.12589125  1
  O  O218  1  0.24988475  0.87437098  0.39622881  1
  O  O219  1  0.25958285  0.87234542  0.61045511  1
  O  O220  1  0.25293086  0.86478866  0.85779715  1
  O  O221  1  0.50828332  0.16415821  0.11116639  1
  O  O222  1  0.49900206  0.16649780  0.38602352  1
  O  O223  1  0.50109409  0.12620561  0.63595520  1
  O  O224  1  0.50071799  0.09761536  0.88755045  1
  O  O225  1  0.50163944  0.35308822  0.13792566  1
  O  O226  1  0.49683016  0.36186816  0.35680099  1
  O  O227  1  0.50010798  0.37074635  0.65412945  1
  O  O228  1  0.50050819  0.39506750  0.86605880  1
  O  O229  1  0.50070714  0.63582399  0.12031965  1
  O  O230  1  0.50368912  0.61842974  0.41058757  1
  O  O231  1  0.49995578  0.61798053  0.59802899  1
  O  O232  1  0.49988320  0.61198092  0.90161786  1
  O  O233  1  0.49322318  0.87415908  0.13704735  1
  O  O234  1  0.48875468  0.88053450  0.37556239  1
  O  O235  1  0.49617962  0.90864997  0.62866001  1
  O  O236  1  0.50738132  0.91548820  0.87376280  1
  O  O237  1  0.77759808  0.10443575  0.17679979  1
  O  O238  1  0.73905582  0.09785075  0.37188135  1
  O  O239  1  0.74609261  0.15154906  0.62201268  1
  O  O240  1  0.74406955  0.16219518  0.88018159  1
  O  O241  1  0.76812149  0.39038279  0.12709951  1
  O  O242  1  0.74663573  0.39370866  0.38765867  1
  O  O243  1  0.75014260  0.35728324  0.62287886  1
  O  O244  1  0.74752569  0.35334187  0.92400702  1
  O  O245  1  0.75370302  0.62179023  0.11562887  1
  O  O246  1  0.74434112  0.60301046  0.37661698  1
  O  O247  1  0.73908671  0.63653030  0.64437028  1
  O  O248  1  0.73633888  0.64503829  0.87569830  1
  O  O249  1  0.76122953  0.87082414  0.09401656  1
  O  O250  1  0.74466182  0.88691399  0.37184442  1
  O  O251  1  0.73436749  0.83709143  0.61995064  1
  O  O252  1  0.74168632  0.86166528  0.90453695  1
  O  O253  1  0.12304368  0.00057668  0.12886625  1
  O  O254  1  0.13348887  0.01010382  0.40315778  1
  O  O255  1  0.13234939  0.01286385  0.61551391  1
  O  O256  1  0.10750715  0.00167638  0.90086411  1
  O  O257  1  0.13882568  0.25288996  0.14437003  1
  O  O258  1  0.13554579  0.25603660  0.36282969  1
  O  O259  1  0.11042009  0.25331071  0.63697983  1
  O  O260  1  0.10528184  0.25115331  0.85256455  1
  O  O261  1  0.11872348  0.49755308  0.10991969  1
  O  O262  1  0.11459201  0.50334045  0.41016293  1
  O  O263  1  0.13610930  0.50067944  0.60286159  1
  O  O264  1  0.15318751  0.49721505  0.88778888  1
  O  O265  1  0.12672282  0.75405760  0.15413907  1
  O  O266  1  0.12498092  0.75110035  0.35093125  1
  O  O267  1  0.10589544  0.75099225  0.63961102  1
  O  O268  1  0.11323522  0.75267166  0.84598205  1
  O  O269  1  0.38235287  0.00664432  0.12137713  1
  O  O270  1  0.37962649  0.01830955  0.40277419  1
  O  O271  1  0.36470983  0.01924945  0.60082943  1
  O  O272  1  0.34653780  0.00916341  0.89228706  1
  O  O273  1  0.36590893  0.25124068  0.15239752  1
  O  O274  1  0.35915434  0.26648336  0.36568860  1
  O  O275  1  0.38443420  0.25213588  0.66186993  1
  O  O276  1  0.40038970  0.24553327  0.86269642  1
  O  O277  1  0.38095845  0.50749138  0.09713620  1
  O  O278  1  0.38498022  0.49599417  0.41192365  1
  O  O279  1  0.39071369  0.49108329  0.61923703  1
  O  O280  1  0.36060059  0.51454613  0.89614457  1
  O  O281  1  0.36877630  0.75773435  0.15096178  1
  O  O282  1  0.37099190  0.74956966  0.34979687  1
  O  O283  1  0.39919127  0.76064092  0.66115497  1
  O  O284  1  0.42064892  0.74896694  0.85464947  1
  O  O285  1  0.61137609  0.00446376  0.14595746  1
  O  O286  1  0.58999933  0.01207230  0.36674783  1
  O  O287  1  0.63058385  0.01134924  0.63395430  1
  O  O288  1  0.67600429  0.01009824  0.85772209  1
  O  O289  1  0.67275077  0.22573519  0.09163926  1
  O  O290  1  0.65028452  0.25138087  0.36818084  1
  O  O291  1  0.61835010  0.24566636  0.63997116  1
  O  O292  1  0.60778928  0.24893857  0.92310150  1
  O  O293  1  0.63072375  0.50940757  0.12828778  1
  O  O294  1  0.61686536  0.49597881  0.40742502  1
  O  O295  1  0.62589795  0.50189419  0.61733911  1
  O  O296  1  0.64213477  0.49861329  0.87615807  1
  O  O297  1  0.63025155  0.74698560  0.14144724  1
  O  O298  1  0.61327665  0.74091954  0.36067906  1
  O  O299  1  0.58263650  0.75414606  0.64340542  1
  O  O300  1  0.59720011  0.76002814  0.87061938  1
  O  O301  1  0.90058976  -0.00500399  0.06484782  1
  O  O302  1  0.87458419  -0.00170761  0.39257870  1
  O  O303  1  0.83743227  0.00775584  0.62937127  1
  O  O304  1  0.85649391  0.00423245  0.88534936  1
  O  O305  1  0.87082338  0.24893869  0.16137157  1
  O  O306  1  0.85593312  0.25116955  0.34624732  1
  O  O307  1  0.88257633  0.25207822  0.65503325  1
  O  O308  1  0.89548181  0.25027935  0.86561477  1
  O  O309  1  0.90423981  0.49630553  0.10751006  1
  O  O310  1  0.87723972  0.49078444  0.41299625  1
  O  O311  1  0.86155927  0.48406257  0.60442553  1
  O  O312  1  0.86508656  0.49182755  0.92199380  1
  O  O313  1  0.87434771  0.74547384  0.15980596  1
  O  O314  1  0.87140371  0.75292830  0.33327805  1
  O  O315  1  0.87836393  0.75358446  0.63824283  1
  O  O316  1  0.86605950  0.74631741  0.86913905  1
