# generated using pymatgen
data_Mg32Ti42(Bi17O64)3
_symmetry_space_group_name_H-M   'P 1'
_cell_length_a   15.92886667
_cell_length_b   15.94700685
_cell_length_c   15.97424602
_cell_angle_alpha   90.13730571
_cell_angle_beta   90.03281249
_cell_angle_gamma   89.99949089
_symmetry_Int_Tables_number   1
_chemical_formula_structural   Mg32Ti42(Bi17O64)3
_chemical_formula_sum   'Mg32 Ti42 Bi51 O192'
_cell_volume   4057.72965147
_cell_formula_units_Z   1
loop_
 _symmetry_equiv_pos_site_id
 _symmetry_equiv_pos_as_xyz
  1  'x, y, z'
loop_
 _atom_site_type_symbol
 _atom_site_label
 _atom_site_symmetry_multiplicity
 _atom_site_fract_x
 _atom_site_fract_y
 _atom_site_fract_z
 _atom_site_occupancy
  Mg  Mg0  1  0.87085093  0.62505161  0.62247519  1
  Mg  Mg1  1  0.63597914  0.86383366  0.11871865  1
  Mg  Mg2  1  0.89328238  0.37630274  0.11590321  1
  Mg  Mg3  1  0.86956232  0.12834673  0.36767664  1
  Mg  Mg4  1  0.38431540  0.12679914  0.13161396  1
  Mg  Mg5  1  0.12277275  0.13182267  0.62403640  1
  Mg  Mg6  1  0.12172748  0.63469893  0.88540728  1
  Mg  Mg7  1  0.38211131  0.87650928  0.60778907  1
  Mg  Mg8  1  0.63803089  0.11485814  0.11929357  1
  Mg  Mg9  1  0.62122935  0.62144574  0.36955050  1
  Mg  Mg10  1  0.37590292  0.62904979  0.61367330  1
  Mg  Mg11  1  0.87348016  0.11644804  0.87018694  1
  Mg  Mg12  1  0.12473230  0.86805282  0.12764465  1
  Mg  Mg13  1  0.12579940  0.36671415  0.87765474  1
  Mg  Mg14  1  0.37023978  0.38428773  0.37227732  1
  Mg  Mg15  1  0.87648663  0.38114603  0.37390503  1
  Mg  Mg16  1  0.37282429  0.12208061  0.87869142  1
  Mg  Mg17  1  0.37559917  0.11790191  0.37267752  1
  Mg  Mg18  1  0.37997932  0.36416697  0.63182176  1
  Mg  Mg19  1  -0.02632402  0.19209071  0.00812308  1
  Mg  Mg20  1  0.24745151  0.50435011  0.21646905  1
  Mg  Mg21  1  0.21249209  0.00133220  0.47143956  1
  Mg  Mg22  1  0.69674316  0.46749850  0.03438500  1
  Mg  Mg23  1  0.25543259  0.45972870  0.52817583  1
  Mg  Mg24  1  0.01556243  -0.04736584  0.22656294  1
  Mg  Mg25  1  0.76195594  0.76016903  0.25315202  1
  Mg  Mg26  1  0.47979883  0.75954170  0.45679406  1
  Mg  Mg27  1  0.00236180  -0.01017228  -0.00333353  1
  Mg  Mg28  1  0.73637049  -0.01613923  0.21357480  1
  Mg  Mg29  1  0.79891535  0.68179162  0.05323790  1
  Mg  Mg30  1  0.55633702  -0.00141505  0.51123029  1
  Mg  Mg31  1  0.25570681  0.76201115  0.24995027  1
  Ti  Ti32  1  0.36336902  0.63073825  0.87084832  1
  Ti  Ti33  1  0.87138563  0.87901355  0.85339336  1
  Ti  Ti34  1  0.12143515  0.36054217  0.62774062  1
  Ti  Ti35  1  0.37035069  0.88032388  0.86273537  1
  Ti  Ti36  1  0.88585707  0.86911950  0.61511128  1
  Ti  Ti37  1  0.61863832  0.37783612  0.37057102  1
  Ti  Ti38  1  0.37530745  0.86365996  0.13080708  1
  Ti  Ti39  1  0.11913361  0.87437522  0.59585070  1
  Ti  Ti40  1  0.12519602  0.12166544  0.88586153  1
  Ti  Ti41  1  0.61904355  0.13534650  0.62260354  1
  Ti  Ti42  1  0.12392767  0.88774385  0.87312961  1
  Ti  Ti43  1  0.86742148  0.38529372  0.63204834  1
  Ti  Ti44  1  0.37092643  0.37232649  0.88662292  1
  Ti  Ti45  1  0.36713791  0.38211797  0.12582243  1
  Ti  Ti46  1  0.88330208  0.40193194  0.88070696  1
  Ti  Ti47  1  0.13491568  0.36924824  0.11361687  1
  Ti  Ti48  1  0.13480507  0.62074316  0.60968171  1
  Ti  Ti49  1  0.62127192  0.62358629  0.61253254  1
  Ti  Ti50  1  0.64062899  0.87164939  0.86600885  1
  Ti  Ti51  1  0.37978211  0.11751795  0.61069450  1
  Ti  Ti52  1  0.37811615  0.61783620  0.36307366  1
  Ti  Ti53  1  0.87589146  0.88283211  0.36399419  1
  Ti  Ti54  1  0.62874686  0.87723668  0.37419911  1
  Ti  Ti55  1  0.14066867  0.61681834  0.37188539  1
  Ti  Ti56  1  0.87008566  0.87817757  0.13541728  1
  Ti  Ti57  1  0.10648399  0.11298531  0.12468343  1
  Ti  Ti58  1  0.13527054  0.39010785  0.37856812  1
  Ti  Ti59  1  0.86972084  0.61584852  0.37328272  1
  Ti  Ti60  1  0.62254750  0.11529822  0.36902364  1
  Ti  Ti61  1  0.87747473  0.10802406  0.14407738  1
  Ti  Ti62  1  0.87880753  0.14372619  0.63130956  1
  Ti  Ti63  1  0.62276285  0.62928037  0.12734313  1
  Ti  Ti64  1  0.61896484  0.86693767  0.61328062  1
  Ti  Ti65  1  0.37610381  0.62712509  0.13064574  1
  Ti  Ti66  1  0.65398373  0.63789762  0.89712308  1
  Ti  Ti67  1  0.37176213  0.87691086  0.36719553  1
  Ti  Ti68  1  0.63211506  0.12065426  0.88015063  1
  Ti  Ti69  1  0.61848552  0.38478107  0.62441749  1
  Ti  Ti70  1  0.13150210  0.86960949  0.36029666  1
  Ti  Ti71  1  0.14380269  0.63648512  0.13060519  1
  Ti  Ti72  1  0.12098940  0.12467263  0.36313239  1
  Ti  Ti73  1  0.87533621  0.63886911  0.87301452  1
  Bi  Bi74  1  0.23270040  0.49873728  -0.02845584  1
  Bi  Bi75  1  0.75875532  0.28482996  0.20696151  1
  Bi  Bi76  1  -0.00769416  0.54776953  0.02858570  1
  Bi  Bi77  1  0.00671535  0.03864161  0.48841690  1
  Bi  Bi78  1  0.72374863  0.49518692  0.78495639  1
  Bi  Bi79  1  -0.00797135  0.77892938  -0.01797103  1
  Bi  Bi80  1  0.27995456  0.00992713  0.00761598  1
  Bi  Bi81  1  0.50236234  0.76144277  -0.03356425  1
  Bi  Bi82  1  0.02544115  0.49506710  0.23261037  1
  Bi  Bi83  1  0.52677082  -0.00137970  0.23283895  1
  Bi  Bi84  1  0.48331079  0.51266899  0.75501758  1
  Bi  Bi85  1  0.49974052  0.26330314  0.78299084  1
  Bi  Bi86  1  0.27120721  0.21822138  0.73944860  1
  Bi  Bi87  1  0.25266658  0.47475969  0.73831439  1
  Bi  Bi88  1  0.53051042  0.48302509  0.21532277  1
  Bi  Bi89  1  0.25154569  -0.00033218  0.70152881  1
  Bi  Bi90  1  0.52656685  0.75003264  0.25430420  1
  Bi  Bi91  1  0.78722346  -0.00343621  -0.00661550  1
  Bi  Bi92  1  0.02324419  0.72708817  0.74841256  1
  Bi  Bi93  1  0.75357075  0.01328548  0.72095667  1
  Bi  Bi94  1  0.52851124  0.24651356  0.22881976  1
  Bi  Bi95  1  0.72749567  0.27362014  0.75255529  1
  Bi  Bi96  1  -0.00708656  0.24884807  0.79017426  1
  Bi  Bi97  1  0.25436712  0.76252651  0.71274060  1
  Bi  Bi98  1  -0.03575630  0.72728067  0.23540249  1
  Bi  Bi99  1  0.26740762  0.25608777  0.24816773  1
  Bi  Bi100  1  0.76666077  0.75702240  0.48227619  1
  Bi  Bi101  1  0.75321772  0.74088747  0.71630386  1
  Bi  Bi102  1  0.27238469  0.00574029  0.24286887  1
  Bi  Bi103  1  0.24527125  0.78129221  0.00221886  1
  Bi  Bi104  1  0.48486136  0.25260828  0.46320978  1
  Bi  Bi105  1  0.48877698  0.52864335  -0.01213946  1
  Bi  Bi106  1  0.50554834  0.02015188  0.75920569  1
  Bi  Bi107  1  -0.00058817  0.72425364  0.49283749  1
  Bi  Bi108  1  0.27347504  0.74130807  0.47468661  1
  Bi  Bi109  1  0.78529818  0.51545846  0.21177354  1
  Bi  Bi110  1  0.47168552  0.48552731  0.51211939  1
  Bi  Bi111  1  0.01821244  0.01207439  0.74768368  1
  Bi  Bi112  1  0.77682133  0.27201894  -0.02048074  1
  Bi  Bi113  1  0.25927465  0.22620876  0.02096216  1
  Bi  Bi114  1  0.02636862  0.49695417  0.77211878  1
  Bi  Bi115  1  0.24727785  0.23676553  0.47266258  1
  Bi  Bi116  1  0.49645535  0.75665777  0.73290446  1
  Bi  Bi117  1  -0.01488190  0.25887429  0.25007700  1
  Bi  Bi118  1  0.55327337  0.28377955  0.01935660  1
  Bi  Bi119  1  0.52312991  -0.00749228  -0.00000308  1
  Bi  Bi120  1  0.74669999  0.25689539  0.46920547  1
  Bi  Bi121  1  0.72542043  0.50068785  0.48365572  1
  Bi  Bi122  1  -0.00983178  0.26644357  0.47973580  1
  Bi  Bi123  1  0.77325829  0.01907291  0.49661646  1
  Bi  Bi124  1  -0.01325432  0.49234317  0.52346268  1
  O  O125  1  0.09170620  0.14796203  -0.00196857  1
  O  O126  1  0.12509195  0.11047849  0.24691084  1
  O  O127  1  0.09930709  0.14168932  0.50111720  1
  O  O128  1  0.13470165  0.08715649  0.75094200  1
  O  O129  1  0.13479022  0.36128940  0.00289520  1
  O  O130  1  0.15617777  0.40539117  0.26654709  1
  O  O131  1  0.10658301  0.35277757  0.50782705  1
  O  O132  1  0.12919780  0.40496525  0.74728999  1
  O  O133  1  0.10373595  0.64646702  0.01670390  1
  O  O134  1  0.15210759  0.59184419  0.25542759  1
  O  O135  1  0.12276850  0.65778093  0.49171770  1
  O  O136  1  0.11395429  0.61539293  0.73536814  1
  O  O137  1  0.11596483  0.84569120  0.00116994  1
  O  O138  1  0.13283700  0.90639440  0.25031185  1
  O  O139  1  0.10258279  0.85104326  0.48715453  1
  O  O140  1  0.12974699  0.90605241  0.75896143  1
  O  O141  1  0.36607265  0.12913705  0.00683632  1
  O  O142  1  0.33686260  0.13100830  0.24981438  1
  O  O143  1  0.39249946  0.14135701  0.50123062  1
  O  O144  1  0.34697890  0.10035972  0.75339091  1
  O  O145  1  0.35866623  0.35136823  0.00016287  1
  O  O146  1  0.35531561  0.38295593  0.24472737  1
  O  O147  1  0.40487694  0.36354530  0.50608655  1
  O  O148  1  0.37483020  0.40981381  0.75394349  1
  O  O149  1  0.39531842  0.63488977  0.01146965  1
  O  O150  1  0.35306686  0.59093966  0.25103094  1
  O  O151  1  0.39103439  0.66775770  0.48965025  1
  O  O152  1  0.36444992  0.59480900  0.75824163  1
  O  O153  1  0.38368432  0.84785383  0.00930573  1
  O  O154  1  0.32737181  0.87242850  0.24566852  1
  O  O155  1  0.38551437  0.84674106  0.48266571  1
  O  O156  1  0.34699111  0.89224927  0.75299039  1
  O  O157  1  0.59847427  0.12201662  -0.00642707  1
  O  O158  1  0.64601446  0.08501627  0.25831012  1
  O  O159  1  0.59696830  0.12282249  0.50894573  1
  O  O160  1  0.63087037  0.09093300  0.74725532  1
  O  O161  1  0.66100370  0.35440151  -0.00169356  1
  O  O162  1  0.62912416  0.38588324  0.25590067  1
  O  O163  1  0.61311918  0.36313437  0.50964493  1
  O  O164  1  0.64277584  0.38338668  0.75040019  1
  O  O165  1  0.59717531  0.64799575  0.00735743  1
  O  O166  1  0.62962446  0.58672243  0.24180141  1
  O  O167  1  0.60954414  0.62993246  0.50279079  1
  O  O168  1  0.65529057  0.61591232  0.77578523  1
  O  O169  1  0.59241335  0.86734020  -0.00252012  1
  O  O170  1  0.63791971  0.90608864  0.25657898  1
  O  O171  1  0.58110483  0.85939101  0.49877101  1
  O  O172  1  0.64891695  0.88038556  0.75296891  1
  O  O173  1  0.90589184  0.08285905  0.01405389  1
  O  O174  1  0.86561607  0.16035827  0.24740486  1
  O  O175  1  0.87890831  0.11971313  0.51225827  1
  O  O176  1  0.84434618  0.12365711  0.74440593  1
  O  O177  1  0.86948015  0.37937304  -0.00650359  1
  O  O178  1  0.87763618  0.35057611  0.24879088  1
  O  O179  1  0.90485327  0.37671299  0.50598503  1
  O  O180  1  0.87692109  0.39939791  0.74540633  1
  O  O181  1  0.90646986  0.65021454  0.00366286  1
  O  O182  1  0.85021650  0.64052232  0.25671844  1
  O  O183  1  0.87623823  0.65191966  0.49098682  1
  O  O184  1  0.84460520  0.63054212  0.76064720  1
  O  O185  1  0.90109429  0.90360200  0.02139663  1
  O  O186  1  0.82192268  0.88653395  0.25779120  1
  O  O187  1  0.87928026  0.85040866  0.49671140  1
  O  O188  1  0.85859119  0.87898408  0.74259931  1
  O  O189  1  -0.00380906  0.16410998  0.13212983  1
  O  O190  1  -0.00013547  0.13352368  0.37526481  1
  O  O191  1  -0.00880758  0.10385075  0.64261278  1
  O  O192  1  0.00076372  0.11333339  0.84222208  1
  O  O193  1  0.01779090  0.35992847  0.15486588  1
  O  O194  1  0.01337747  0.35081683  0.36755914  1
  O  O195  1  0.00999355  0.41398347  0.63521237  1
  O  O196  1  -0.00170505  0.37715789  0.85889301  1
  O  O197  1  0.01897327  0.62877603  0.15678192  1
  O  O198  1  -0.00010449  0.65309252  0.36805785  1
  O  O199  1  0.00424737  0.62369125  0.60336159  1
  O  O200  1  -0.00639432  0.62858575  0.85520327  1
  O  O201  1  -0.00719803  0.84837170  0.15160744  1
  O  O202  1  -0.01269300  0.87873218  0.33615827  1
  O  O203  1  -0.00001415  0.89055437  0.62479236  1
  O  O204  1  -0.00526135  0.88713369  0.88216377  1
  O  O205  1  0.22686683  0.10411106  0.10124411  1
  O  O206  1  0.24173606  0.10727174  0.40723899  1
  O  O207  1  0.25363472  0.13563071  0.62065865  1
  O  O208  1  0.23954249  0.12087089  0.89898298  1
  O  O209  1  0.25061993  0.41190823  0.12332386  1
  O  O210  1  0.24704823  0.38919281  0.42248930  1
  O  O211  1  0.24699515  0.37448699  0.62702408  1
  O  O212  1  0.24957321  0.40024400  0.86506832  1
  O  O213  1  0.25438252  0.59297463  0.11569457  1
  O  O214  1  0.25301607  0.61343649  0.39889734  1
  O  O215  1  0.24834005  0.65791270  0.61800292  1
  O  O216  1  0.24777918  0.62023816  0.89947093  1
  O  O217  1  0.24878193  0.88415439  0.09440625  1
  O  O218  1  0.24146568  0.89887573  0.39762610  1
  O  O219  1  0.24365509  0.85848056  0.61494922  1
  O  O220  1  0.24523263  0.87557739  0.89724373  1
  O  O221  1  0.50474559  0.12916769  0.15937108  1
  O  O222  1  0.50692332  0.14704990  0.35463910  1
  O  O223  1  0.49905153  0.10062070  0.64436336  1
  O  O224  1  0.49745074  0.13203522  0.84504896  1
  O  O225  1  0.49192116  0.34707202  0.13071944  1
  O  O226  1  0.50180920  0.35458935  0.36479938  1
  O  O227  1  0.50556222  0.40311982  0.64405959  1
  O  O228  1  0.49005552  0.36889341  0.87949406  1
  O  O229  1  0.49738465  0.63635346  0.15143433  1
  O  O230  1  0.49396460  0.66192971  0.36007228  1
  O  O231  1  0.50297217  0.60757304  0.65212415  1
  O  O232  1  0.49112997  0.61872486  0.87038148  1
  O  O233  1  0.48928137  0.86706203  0.15476396  1
  O  O234  1  0.48950841  0.84689650  0.35322752  1
  O  O235  1  0.50397940  0.87424186  0.65459372  1
  O  O236  1  0.48855033  0.85968789  0.85603363  1
  O  O237  1  0.76330031  0.08235575  0.12431530  1
  O  O238  1  0.74127909  0.12344356  0.40436256  1
  O  O239  1  0.74121217  0.12027510  0.61678349  1
  O  O240  1  0.74491868  0.11578669  0.89685817  1
  O  O241  1  0.76323105  0.40330578  0.13047109  1
  O  O242  1  0.74687900  0.38627536  0.40017772  1
  O  O243  1  0.75412295  0.36043565  0.62224680  1
  O  O244  1  0.77643947  0.35104840  0.85984298  1
  O  O245  1  0.73810116  0.58447676  0.10049808  1
  O  O246  1  0.75008803  0.60193193  0.39161953  1
  O  O247  1  0.74208174  0.64758146  0.61535207  1
  O  O248  1  0.76017742  0.66350496  0.92839130  1
  O  O249  1  0.75651830  0.90789261  0.10973114  1
  O  O250  1  0.73430867  0.88793438  0.41379779  1
  O  O251  1  0.73935078  0.84128790  0.60509428  1
  O  O252  1  0.75267445  0.87562778  0.89589495  1
  O  O253  1  0.07500574  0.00369908  0.10931692  1
  O  O254  1  0.10918118  0.00435951  0.39486031  1
  O  O255  1  0.14621341  -0.00823658  0.58297524  1
  O  O256  1  0.10863273  -0.00060371  0.91412453  1
  O  O257  1  0.16239507  0.25577445  0.14004371  1
  O  O258  1  0.15373499  0.24562534  0.36697359  1
  O  O259  1  0.10871985  0.25426227  0.65650753  1
  O  O260  1  0.11539489  0.24044900  0.85127775  1
  O  O261  1  0.10491874  0.49738784  0.11964869  1
  O  O262  1  0.10942231  0.50518903  0.39764392  1
  O  O263  1  0.15498530  0.51128933  0.58981720  1
  O  O264  1  0.11234730  0.50654782  0.89138797  1
  O  O265  1  0.16714998  0.74483205  0.15527306  1
  O  O266  1  0.15416532  0.75689787  0.34166797  1
  O  O267  1  0.11604012  0.76005626  0.64683384  1
  O  O268  1  0.10636860  0.75952239  0.85542748  1
  O  O269  1  0.36769417  -0.00593134  0.13001264  1
  O  O270  1  0.37990046  -0.00777528  0.34632060  1
  O  O271  1  0.35994510  0.00156800  0.60476828  1
  O  O272  1  0.38368489  -0.00873229  0.89801028  1
  O  O273  1  0.34399916  0.25266397  0.13051254  1
  O  O274  1  0.35600013  0.25141399  0.38352622  1
  O  O275  1  0.38250695  0.23985408  0.66081177  1
  O  O276  1  0.36660643  0.25489809  0.84765682  1
  O  O277  1  0.40670591  0.49430276  0.11044928  1
  O  O278  1  0.39772482  0.50821644  0.39619812  1
  O  O279  1  0.35857304  0.50545355  0.58560432  1
  O  O280  1  0.37110022  0.50064543  0.90926077  1
  O  O281  1  0.35216643  0.74125704  0.15037485  1
  O  O282  1  0.33863155  0.74886132  0.34839514  1
  O  O283  1  0.38221470  0.75206150  0.65379110  1
  O  O284  1  0.36298048  0.74668720  0.86313633  1
  O  O285  1  0.60192787  -0.00723118  0.11571780  1
  O  O286  1  0.59702217  -0.00163714  0.39534284  1
  O  O287  1  0.63401336  -0.01634398  0.60768820  1
  O  O288  1  0.60372141  -0.00696999  0.88252313  1
  O  O289  1  0.63127733  0.23937119  0.13119691  1
  O  O290  1  0.64325545  0.24906574  0.37335436  1
  O  O291  1  0.61480212  0.24766989  0.64879315  1
  O  O292  1  0.62898682  0.23578503  0.84744685  1
  O  O293  1  0.59453747  0.50361287  0.09947680  1
  O  O294  1  0.61304512  0.49342043  0.39875096  1
  O  O295  1  0.64573390  0.50190562  0.62483287  1
  O  O296  1  0.66496026  0.51776179  0.91128001  1
  O  O297  1  0.65984775  0.74011700  0.15572543  1
  O  O298  1  0.64474030  0.75759870  0.34129557  1
  O  O299  1  0.60818340  0.74227864  0.64729384  1
  O  O300  1  0.61603162  0.75395970  0.87213744  1
  O  O301  1  0.90735189  0.00059442  0.17828183  1
  O  O302  1  0.87155609  -0.00150982  0.39543647  1
  O  O303  1  0.85039984  -0.01386805  0.61685872  1
  O  O304  1  0.86373836  -0.00626636  0.86954609  1
  O  O305  1  0.84841797  0.24781067  0.10413775  1
  O  O306  1  0.86392569  0.25350921  0.39863812  1
  O  O307  1  0.89408196  0.25573102  0.63264671  1
  O  O308  1  0.91024707  0.23335362  0.90611254  1
  O  O309  1  0.91034407  0.50045968  0.14293162  1
  O  O310  1  0.89705186  0.50603584  0.36982126  1
  O  O311  1  0.86723963  0.50188679  0.59917158  1
  O  O312  1  0.86970939  0.51476847  0.88765681  1
  O  O313  1  0.84520356  0.76212817  0.14288338  1
  O  O314  1  0.84209103  0.76190061  0.36012412  1
  O  O315  1  0.88005954  0.75272487  0.64092117  1
  O  O316  1  0.89122808  0.76070834  0.87409994  1
