# generated using pymatgen
data_Mg32Ti42(Bi17O64)3
_symmetry_space_group_name_H-M   'P 1'
_cell_length_a   15.94353552
_cell_length_b   15.90268317
_cell_length_c   15.95664463
_cell_angle_alpha   89.94202123
_cell_angle_beta   90.04206162
_cell_angle_gamma   89.90820208
_symmetry_Int_Tables_number   1
_chemical_formula_structural   Mg32Ti42(Bi17O64)3
_chemical_formula_sum   'Mg32 Ti42 Bi51 O192'
_cell_volume   4045.71900869
_cell_formula_units_Z   1
loop_
 _symmetry_equiv_pos_site_id
 _symmetry_equiv_pos_as_xyz
  1  'x, y, z'
loop_
 _atom_site_type_symbol
 _atom_site_label
 _atom_site_symmetry_multiplicity
 _atom_site_fract_x
 _atom_site_fract_y
 _atom_site_fract_z
 _atom_site_occupancy
  Mg  Mg0  1  0.87895171  0.86787025  0.37637370  1
  Mg  Mg1  1  0.37860619  0.12497680  0.86156113  1
  Mg  Mg2  1  0.13635326  0.64491185  0.86822884  1
  Mg  Mg3  1  0.87040915  0.62488999  0.12337262  1
  Mg  Mg4  1  0.88743252  0.38181664  0.62148096  1
  Mg  Mg5  1  0.12153036  0.87591771  0.62617915  1
  Mg  Mg6  1  0.62697112  0.87772514  0.87344966  1
  Mg  Mg7  1  0.87391201  0.62779823  0.86905126  1
  Mg  Mg8  1  0.12353819  0.36530277  0.12001533  1
  Mg  Mg9  1  0.88317513  0.12690508  0.37689105  1
  Mg  Mg10  1  0.37997647  0.37215561  0.88208799  1
  Mg  Mg11  1  0.62117990  0.61610239  0.88502723  1
  Mg  Mg12  1  0.37321257  0.86940924  0.88079444  1
  Mg  Mg13  1  0.87590809  0.88281309  0.11487542  1
  Mg  Mg14  1  0.60615509  0.63417398  0.61683178  1
  Mg  Mg15  1  0.61952668  0.13580366  0.87079098  1
  Mg  Mg16  1  0.37588467  0.62952262  0.88611056  1
  Mg  Mg17  1  0.37608631  0.87279061  0.61137691  1
  Mg  Mg18  1  0.88537059  0.38413123  0.86955124  1
  Mg  Mg19  1  0.02736002  0.49445031  0.49921844  1
  Mg  Mg20  1  0.55977825  0.73815375  0.00246538  1
  Mg  Mg21  1  0.00265537  0.54000192  0.81524409  1
  Mg  Mg22  1  0.24184837  -0.01878382  0.21588723  1
  Mg  Mg23  1  0.50585552  0.74272312  0.83237636  1
  Mg  Mg24  1  0.23644389  -0.00233178  0.53577622  1
  Mg  Mg25  1  0.00356774  0.22507223  0.24151139  1
  Mg  Mg26  1  0.19632174  0.73105980  0.05942750  1
  Mg  Mg27  1  0.49218083  -0.08239798  0.74889399  1
  Mg  Mg28  1  0.49610714  0.79232140  0.44671074  1
  Mg  Mg29  1  0.03910177  0.57033662  0.00015969  1
  Mg  Mg30  1  0.23117878  0.50458639  0.54509089  1
  Mg  Mg31  1  0.68495298  0.47265647  0.75983801  1
  Ti  Ti32  1  0.88351438  0.36933715  0.12101921  1
  Ti  Ti33  1  0.12389019  0.61901569  0.63546316  1
  Ti  Ti34  1  0.64023254  0.86769354  0.37742071  1
  Ti  Ti35  1  0.62726555  0.38201861  0.36630388  1
  Ti  Ti36  1  0.62385357  0.13580498  0.12725397  1
  Ti  Ti37  1  0.36993006  0.38898412  0.37283982  1
  Ti  Ti38  1  0.63502053  0.62393052  0.13326302  1
  Ti  Ti39  1  0.37162697  0.37486420  0.11938683  1
  Ti  Ti40  1  0.11757885  0.12020911  0.62020619  1
  Ti  Ti41  1  0.37975264  0.87131608  0.12253607  1
  Ti  Ti42  1  0.12908570  0.87178876  0.86203150  1
  Ti  Ti43  1  0.36874591  0.12444978  0.62822765  1
  Ti  Ti44  1  0.88091585  0.61637857  0.63609835  1
  Ti  Ti45  1  0.36746034  0.12459658  0.37796593  1
  Ti  Ti46  1  0.36969199  0.62647083  0.60484252  1
  Ti  Ti47  1  0.61150262  0.37315499  0.89032839  1
  Ti  Ti48  1  0.62972979  0.62781355  0.37012280  1
  Ti  Ti49  1  0.86728673  0.12615512  0.12971193  1
  Ti  Ti50  1  0.37332870  0.63480788  0.13564052  1
  Ti  Ti51  1  0.13897718  0.39915962  0.37757812  1
  Ti  Ti52  1  0.12847232  0.11510070  0.86046292  1
  Ti  Ti53  1  0.11984069  0.88233616  0.11195998  1
  Ti  Ti54  1  0.88452456  0.38959185  0.37647145  1
  Ti  Ti55  1  0.13008740  0.11601239  0.36503417  1
  Ti  Ti56  1  0.63686687  0.37390970  0.12254569  1
  Ti  Ti57  1  0.11614046  0.37599784  0.63711141  1
  Ti  Ti58  1  0.36801089  0.88602102  0.37033244  1
  Ti  Ti59  1  0.62932829  0.13415158  0.38526513  1
  Ti  Ti60  1  0.61549360  0.11411800  0.62411327  1
  Ti  Ti61  1  0.61865756  0.88032130  0.61607624  1
  Ti  Ti62  1  0.37616685  0.63301012  0.37218552  1
  Ti  Ti63  1  0.13785590  0.62628923  0.37899960  1
  Ti  Ti64  1  0.88546987  0.62425425  0.38687017  1
  Ti  Ti65  1  0.36319040  0.38035522  0.61138668  1
  Ti  Ti66  1  0.87789804  0.86760452  0.62745058  1
  Ti  Ti67  1  0.36856963  0.11690782  0.13668134  1
  Ti  Ti68  1  0.87872800  0.13735888  0.61524740  1
  Ti  Ti69  1  0.86515276  0.87734286  0.86741929  1
  Ti  Ti70  1  0.62900278  0.87919652  0.12238278  1
  Ti  Ti71  1  0.11859569  0.38117242  0.88440326  1
  Ti  Ti72  1  0.13041947  0.11810241  0.13230469  1
  Ti  Ti73  1  0.12946468  0.88200205  0.37723453  1
  Bi  Bi74  1  -0.00751055  0.27805949  0.48926060  1
  Bi  Bi75  1  0.47250311  0.00083820  0.50938706  1
  Bi  Bi76  1  0.72561041  0.01244103  -0.01910509  1
  Bi  Bi77  1  0.52222078  0.28385579  0.70603971  1
  Bi  Bi78  1  0.78391828  -0.00619973  0.51032273  1
  Bi  Bi79  1  -0.01342611  0.76629031  -0.02459647  1
  Bi  Bi80  1  0.00823410  0.71468658  0.22450187  1
  Bi  Bi81  1  0.22788851  0.23803521  0.51577766  1
  Bi  Bi82  1  0.75761688  0.29519650  0.75813683  1
  Bi  Bi83  1  0.28240746  0.50293097  0.77118165  1
  Bi  Bi84  1  -0.02613278  0.00662349  0.74007394  1
  Bi  Bi85  1  0.22699472  0.25241974  0.24696808  1
  Bi  Bi86  1  0.79241871  0.49539673  -0.01336690  1
  Bi  Bi87  1  0.77907638  0.77091004  0.23304503  1
  Bi  Bi88  1  -0.02914968  0.24440984  0.77202505  1
  Bi  Bi89  1  0.48283046  0.52204837  -0.00228834  1
  Bi  Bi90  1  0.25142788  0.23823887  -0.02023034  1
  Bi  Bi91  1  0.27419070  -0.00093290  -0.01922091  1
  Bi  Bi92  1  0.73165549  0.50258107  0.55462317  1
  Bi  Bi93  1  0.75503024  0.05014820  0.75001961  1
  Bi  Bi94  1  0.01184685  -0.00221744  0.48433583  1
  Bi  Bi95  1  0.51016226  0.51024329  0.48856887  1
  Bi  Bi96  1  0.78615518  0.25747736  0.26299191  1
  Bi  Bi97  1  0.50131349  -0.01063633  -0.03290097  1
  Bi  Bi98  1  0.78084010  0.51132687  0.25546298  1
  Bi  Bi99  1  0.77332707  0.22806879  -0.03283510  1
  Bi  Bi100  1  0.01452992  0.73400318  0.48673514  1
  Bi  Bi101  1  0.23964691  0.76946442  0.51306368  1
  Bi  Bi102  1  -0.02045227  -0.00544785  0.24323967  1
  Bi  Bi103  1  0.25675694  0.27616015  0.76229495  1
  Bi  Bi104  1  0.76086865  0.01290362  0.27101495  1
  Bi  Bi105  1  0.01497292  0.50306400  0.20517624  1
  Bi  Bi106  1  0.23783499  0.53285612  -0.00075529  1
  Bi  Bi107  1  0.25919085  -0.01857639  0.74436666  1
  Bi  Bi108  1  0.51617725  0.76453667  0.24289342  1
  Bi  Bi109  1  0.52171717  0.01184561  0.26828106  1
  Bi  Bi110  1  0.48914654  0.26071822  0.24911652  1
  Bi  Bi111  1  0.72510578  0.28387023  0.52898043  1
  Bi  Bi112  1  0.48138857  0.26397325  0.48183040  1
  Bi  Bi113  1  -0.02326167  0.01567679  -0.02051710  1
  Bi  Bi114  1  0.69437546  0.73762332  0.75100369  1
  Bi  Bi115  1  0.29057844  0.74560331  0.74725742  1
  Bi  Bi116  1  0.50183728  0.53189748  0.73881946  1
  Bi  Bi117  1  0.23886950  0.77424873  0.24331561  1
  Bi  Bi118  1  0.01183726  0.24006791  -0.00486134  1
  Bi  Bi119  1  0.48378468  0.21987170  0.00864044  1
  Bi  Bi120  1  0.23385430  0.50286073  0.21712441  1
  Bi  Bi121  1  0.01673307  0.74197700  0.73078909  1
  Bi  Bi122  1  0.75378678  0.74013438  0.53184167  1
  Bi  Bi123  1  0.51275049  0.49782718  0.22947910  1
  Bi  Bi124  1  0.75178304  0.72701543  -0.02752286  1
  O  O125  1  0.12100490  0.14318145  0.01847809  1
  O  O126  1  0.16431894  0.07720981  0.26100313  1
  O  O127  1  0.11640302  0.14693387  0.49770495  1
  O  O128  1  0.13253129  0.10406210  0.74661554  1
  O  O129  1  0.13935938  0.34651226  -0.00533424  1
  O  O130  1  0.11114850  0.40236195  0.26541961  1
  O  O131  1  0.12777767  0.32680750  0.46883242  1
  O  O132  1  0.10434791  0.38686015  0.74714891  1
  O  O133  1  0.14858956  0.63746840  -0.00427844  1
  O  O134  1  0.09812264  0.59634532  0.27148188  1
  O  O135  1  0.13249715  0.65862894  0.50284947  1
  O  O136  1  0.09618894  0.60406832  0.74971744  1
  O  O137  1  0.12143361  0.84411451  0.00145952  1
  O  O138  1  0.15515337  0.89218337  0.25939262  1
  O  O139  1  0.11607466  0.83910057  0.49726645  1
  O  O140  1  0.13270818  0.90856805  0.75098280  1
  O  O141  1  0.36458933  0.14024144  0.01222940  1
  O  O142  1  0.39084048  0.11507720  0.25397151  1
  O  O143  1  0.39584427  0.13679957  0.49258974  1
  O  O144  1  0.36161550  0.10235720  0.73922152  1
  O  O145  1  0.34742395  0.35795899  0.00765151  1
  O  O146  1  0.40426837  0.37713808  0.25673406  1
  O  O147  1  0.36290042  0.34623355  0.49209734  1
  O  O148  1  0.36208643  0.37803842  0.73539236  1
  O  O149  1  0.36167096  0.60250664  0.01008239  1
  O  O150  1  0.38963852  0.61245087  0.25048558  1
  O  O151  1  0.34882645  0.63594351  0.49211883  1
  O  O152  1  0.37621781  0.61423027  0.73743011  1
  O  O153  1  0.38162343  0.88370833  0.00950820  1
  O  O154  1  0.33534579  0.88507965  0.25137819  1
  O  O155  1  0.40238380  0.86537082  0.48655549  1
  O  O156  1  0.36297925  0.88484683  0.74236075  1
  O  O157  1  0.64394919  0.12324560  0.00885876  1
  O  O158  1  0.61349858  0.12386371  0.24600756  1
  O  O159  1  0.63879546  0.11523348  0.49760941  1
  O  O160  1  0.63478092  0.12590573  0.74381082  1
  O  O161  1  0.64111006  0.39271814  0.00504230  1
  O  O162  1  0.59232466  0.36789819  0.24655077  1
  O  O163  1  0.64722031  0.38923191  0.48915033  1
  O  O164  1  0.61535322  0.36305011  0.75842617  1
  O  O165  1  0.64754782  0.63038857  0.01284843  1
  O  O166  1  0.59290230  0.63088427  0.25262812  1
  O  O167  1  0.62872582  0.59737204  0.49392577  1
  O  O168  1  0.57403448  0.65533910  0.75661879  1
  O  O169  1  0.60053253  0.86515113  0.00979119  1
  O  O170  1  0.63566699  0.84810944  0.25089892  1
  O  O171  1  0.59678509  0.87321576  0.49046179  1
  O  O172  1  0.61826930  0.86355312  0.74109571  1
  O  O173  1  0.89913281  0.14862473  0.01525649  1
  O  O174  1  0.87805987  0.10176740  0.25151189  1
  O  O175  1  0.88526428  0.10557273  0.50068582  1
  O  O176  1  0.88457683  0.11873230  0.74336752  1
  O  O177  1  0.85362369  0.35956671  0.00558476  1
  O  O178  1  0.87548231  0.39572000  0.25076533  1
  O  O179  1  0.85947194  0.34906861  0.48406162  1
  O  O180  1  0.89212225  0.35688070  0.74423796  1
  O  O181  1  0.84304514  0.62875972  0.00129443  1
  O  O182  1  0.89148419  0.59664538  0.25696256  1
  O  O183  1  0.85483778  0.64197689  0.49715720  1
  O  O184  1  0.90944689  0.60950606  0.74844484  1
  O  O185  1  0.90390007  0.88702137  -0.01023736  1
  O  O186  1  0.85707748  0.89611414  0.24789603  1
  O  O187  1  0.88889106  0.89277964  0.50512549  1
  O  O188  1  0.87397656  0.88346827  0.75015980  1
  O  O189  1  0.01631739  0.11100103  0.16206337  1
  O  O190  1  0.01187925  0.08129951  0.36911709  1
  O  O191  1  0.00326361  0.11617758  0.63303266  1
  O  O192  1  0.01453086  0.15293360  0.88613190  1
  O  O193  1  -0.00464977  0.38483418  0.10947157  1
  O  O194  1  -0.00126061  0.40366066  0.40454839  1
  O  O195  1  0.00882746  0.38163923  0.58004835  1
  O  O196  1  0.00623545  0.33335869  0.88182258  1
  O  O197  1  -0.00252752  0.61328610  0.11382498  1
  O  O198  1  -0.00319439  0.59875909  0.42061708  1
  O  O199  1  -0.00100805  0.65121108  0.61126617  1
  O  O200  1  0.00681553  0.64412516  0.89715808  1
  O  O201  1  0.00939963  0.90026231  0.13214357  1
  O  O202  1  0.01078670  0.90157850  0.37267770  1
  O  O203  1  -0.00346090  0.85462002  0.63899139  1
  O  O204  1  0.01045882  0.84472748  0.86416591  1
  O  O205  1  0.25451056  0.15218045  0.13976109  1
  O  O206  1  0.25374645  0.14878245  0.39001114  1
  O  O207  1  0.24656661  0.11533478  0.60162574  1
  O  O208  1  0.24459986  0.10342554  0.89180344  1
  O  O209  1  0.24928727  0.36261938  0.16233570  1
  O  O210  1  0.25120026  0.36614275  0.35481889  1
  O  O211  1  0.23300286  0.38695908  0.60645924  1
  O  O212  1  0.23995283  0.39061976  0.85323439  1
  O  O213  1  0.25610829  0.64566959  0.13892617  1
  O  O214  1  0.24744156  0.63519355  0.35418308  1
  O  O215  1  0.24149155  0.60717543  0.62755954  1
  O  O216  1  0.25229971  0.59610982  0.86944521  1
  O  O217  1  0.25081546  0.83904499  0.11752481  1
  O  O218  1  0.25158507  0.84575889  0.39344066  1
  O  O219  1  0.24700554  0.88306063  0.59897164  1
  O  O220  1  0.24798067  0.91026286  0.87474829  1
  O  O221  1  0.50083575  0.11415394  0.10750145  1
  O  O222  1  0.50922300  0.09450546  0.37695426  1
  O  O223  1  0.49985595  0.10590842  0.62115804  1
  O  O224  1  0.49878587  0.13190414  0.90237471  1
  O  O225  1  0.48683654  0.40957939  0.10962017  1
  O  O226  1  0.49937449  0.38261460  0.40011029  1
  O  O227  1  0.48432900  0.37478395  0.61262403  1
  O  O228  1  0.50310763  0.34736807  0.89980599  1
  O  O229  1  0.49644040  0.59447877  0.11304922  1
  O  O230  1  0.49177173  0.60639396  0.39466539  1
  O  O231  1  0.48608202  0.60276374  0.60538125  1
  O  O232  1  0.50076291  0.65022921  0.92456865  1
  O  O233  1  0.49371262  0.88520061  0.15247938  1
  O  O234  1  0.49026281  0.88623485  0.34589133  1
  O  O235  1  0.50193672  0.90182097  0.62755850  1
  O  O236  1  0.49848233  0.87628091  0.86448373  1
  O  O237  1  0.75327140  0.14582264  0.13429871  1
  O  O238  1  0.74607731  0.13887130  0.35623476  1
  O  O239  1  0.75936040  0.13140272  0.62936535  1
  O  O240  1  0.75300498  0.10694023  0.88357511  1
  O  O241  1  0.74463311  0.35289967  0.14567417  1
  O  O242  1  0.74282493  0.35999215  0.34987253  1
  O  O243  1  0.75633893  0.37389781  0.62865094  1
  O  O244  1  0.75421259  0.40624135  0.83960369  1
  O  O245  1  0.74574571  0.63963627  0.16058211  1
  O  O246  1  0.74164518  0.63455655  0.35352471  1
  O  O247  1  0.75336786  0.63129022  0.63157013  1
  O  O248  1  0.74483997  0.63832677  0.86088166  1
  O  O249  1  0.74414254  0.84623903  0.11550026  1
  O  O250  1  0.74841184  0.84611733  0.39146477  1
  O  O251  1  0.75080347  0.87193927  0.59857484  1
  O  O252  1  0.75412191  0.89464760  0.88524508  1
  O  O253  1  0.15817055  -0.00302847  0.11508723  1
  O  O254  1  0.15147197  -0.01039473  0.42376973  1
  O  O255  1  0.12221735  0.00341459  0.59704377  1
  O  O256  1  0.09760746  0.00313217  0.89628009  1
  O  O257  1  0.11326647  0.24244361  0.16294486  1
  O  O258  1  0.09987880  0.22113308  0.32939369  1
  O  O259  1  0.13169316  0.25227611  0.63053321  1
  O  O260  1  0.15901763  0.24166424  0.86213509  1
  O  O261  1  0.13583876  0.49477356  0.11997343  1
  O  O262  1  0.14990857  0.50300022  0.42907587  1
  O  O263  1  0.11198241  0.50498258  0.59604173  1
  O  O264  1  0.09016026  0.49176571  0.90376030  1
  O  O265  1  0.11636474  0.76298967  0.15267094  1
  O  O266  1  0.10212393  0.74255245  0.35922929  1
  O  O267  1  0.13385939  0.74397556  0.65406536  1
  O  O268  1  0.15881009  0.76321379  0.84153957  1
  O  O269  1  0.34416097  0.00147544  0.13105724  1
  O  O270  1  0.36043631  0.00084081  0.39066222  1
  O  O271  1  0.36081039  0.00316178  0.58920761  1
  O  O272  1  0.38367196  0.00172166  0.89268968  1
  O  O273  1  0.39662440  0.25347467  0.14046656  1
  O  O274  1  0.40364202  0.24352161  0.36465855  1
  O  O275  1  0.36249274  0.24373134  0.62994432  1
  O  O276  1  0.34231173  0.24860817  0.86610025  1
  O  O277  1  0.33977048  0.49502283  0.12992895  1
  O  O278  1  0.36460731  0.49831583  0.38687856  1
  O  O279  1  0.35679455  0.49456721  0.59204128  1
  O  O280  1  0.39251202  0.49756813  0.86083863  1
  O  O281  1  0.39748522  0.74924221  0.13549961  1
  O  O282  1  0.39752745  0.74688107  0.36582100  1
  O  O283  1  0.36573804  0.74364814  0.62692939  1
  O  O284  1  0.37856743  0.74818088  0.85008554  1
  O  O285  1  0.64129184  -0.00604520  0.12875939  1
  O  O286  1  0.64034124  -0.01166633  0.35501301  1
  O  O287  1  0.64524203  -0.00217511  0.62465870  1
  O  O288  1  0.61951355  0.00238715  0.89081532  1
  O  O289  1  0.60161351  0.25284683  0.11831075  1
  O  O290  1  0.60369716  0.24842176  0.38485778  1
  O  O291  1  0.61233984  0.24013477  0.61191174  1
  O  O292  1  0.66096467  0.26048273  0.88431998  1
  O  O293  1  0.63471367  0.49862788  0.14836237  1
  O  O294  1  0.62206396  0.49791888  0.35398610  1
  O  O295  1  0.63358463  0.51480119  0.65589710  1
  O  O296  1  0.60068133  0.49678114  0.85495666  1
  O  O297  1  0.59477118  0.73997378  0.12393263  1
  O  O298  1  0.59530401  0.74511235  0.38341625  1
  O  O299  1  0.63229267  0.75442614  0.61518910  1
  O  O300  1  0.62603285  0.75270365  0.88269919  1
  O  O301  1  0.87369969  0.01143299  0.11056027  1
  O  O302  1  0.84177762  -0.00364488  0.37997262  1
  O  O303  1  0.87474022  -0.00324281  0.63326505  1
  O  O304  1  0.90593843  -0.00325536  0.86582950  1
  O  O305  1  0.90048909  0.24985914  0.15907056  1
  O  O306  1  0.90680126  0.25228506  0.34267103  1
  O  O307  1  0.89839282  0.24833650  0.61183437  1
  O  O308  1  0.85435415  0.25473685  0.86153421  1
  O  O309  1  0.85063455  0.49213650  0.11447943  1
  O  O310  1  0.84714157  0.49923339  0.38597850  1
  O  O311  1  0.87954693  0.50751803  0.60435301  1
  O  O312  1  0.90212695  0.50355417  0.89833254  1
  O  O313  1  0.88990218  0.75341020  0.14544296  1
  O  O314  1  0.89951091  0.73883170  0.35747378  1
  O  O315  1  0.85969557  0.75080182  0.62737369  1
  O  O316  1  0.86973911  0.75742267  0.88745219  1
