# generated using pymatgen
data_Mg32Ti42(Bi17O64)3
_symmetry_space_group_name_H-M   'P 1'
_cell_length_a   15.96250435
_cell_length_b   15.92071228
_cell_length_c   15.98063024
_cell_angle_alpha   89.92125482
_cell_angle_beta   90.06177733
_cell_angle_gamma   89.85346903
_symmetry_Int_Tables_number   1
_chemical_formula_structural   Mg32Ti42(Bi17O64)3
_chemical_formula_sum   'Mg32 Ti42 Bi51 O192'
_cell_volume   4061.20900889
_cell_formula_units_Z   1
loop_
 _symmetry_equiv_pos_site_id
 _symmetry_equiv_pos_as_xyz
  1  'x, y, z'
loop_
 _atom_site_type_symbol
 _atom_site_label
 _atom_site_symmetry_multiplicity
 _atom_site_fract_x
 _atom_site_fract_y
 _atom_site_fract_z
 _atom_site_occupancy
  Mg  Mg0  1  0.65642050  0.61980214  0.86104962  1
  Mg  Mg1  1  0.13073246  0.88073569  0.87243986  1
  Mg  Mg2  1  0.62322043  0.37989791  0.37692252  1
  Mg  Mg3  1  0.37158699  0.86728090  0.63540503  1
  Mg  Mg4  1  0.12061252  0.63499978  0.13192430  1
  Mg  Mg5  1  0.87747919  0.87395030  0.38217832  1
  Mg  Mg6  1  0.86476769  0.38361739  0.86730798  1
  Mg  Mg7  1  0.37134850  0.12062962  0.88332312  1
  Mg  Mg8  1  0.13452091  0.37367699  0.61549234  1
  Mg  Mg9  1  0.88497522  0.87560395  0.87519933  1
  Mg  Mg10  1  0.87896946  0.62944014  0.87677349  1
  Mg  Mg11  1  0.37700602  0.12572701  0.62736971  1
  Mg  Mg12  1  0.88229055  0.12408960  0.62940883  1
  Mg  Mg13  1  0.62784728  0.87630283  0.88093472  1
  Mg  Mg14  1  0.86130634  0.63805078  0.10751313  1
  Mg  Mg15  1  0.86418416  0.37405803  0.12973560  1
  Mg  Mg16  1  0.86278555  0.62302589  0.37561605  1
  Mg  Mg17  1  0.38749019  0.39158358  0.87727964  1
  Mg  Mg18  1  0.37763440  0.62169271  0.36414302  1
  Mg  Mg19  1  0.00056529  0.68683791  0.68646478  1
  Mg  Mg20  1  0.25665377  -0.02064131  0.78263034  1
  Mg  Mg21  1  0.75295494  -0.07674490  0.00619975  1
  Mg  Mg22  1  0.50298756  0.71372462  0.52605356  1
  Mg  Mg23  1  0.22477542  0.54986621  -0.05245206  1
  Mg  Mg24  1  0.53089493  0.50150730  0.26452645  1
  Mg  Mg25  1  0.55673700  0.70673745  -0.00824449  1
  Mg  Mg26  1  -0.04733346  0.70262671  0.24726923  1
  Mg  Mg27  1  0.50342938  0.55219801  0.79713739  1
  Mg  Mg28  1  0.79970274  0.74981256  0.71743859  1
  Mg  Mg29  1  0.24090562  0.52502995  0.45454813  1
  Mg  Mg30  1  0.03567822  0.56202841  0.80784514  1
  Mg  Mg31  1  0.76633443  0.74771245  -0.08575034  1
  Ti  Ti32  1  0.12232131  0.86629177  0.38572009  1
  Ti  Ti33  1  0.63072071  0.38917717  0.62592341  1
  Ti  Ti34  1  0.62914414  0.87572438  0.38973982  1
  Ti  Ti35  1  0.62268846  0.86867786  0.63613011  1
  Ti  Ti36  1  0.38322671  0.11649293  0.12018346  1
  Ti  Ti37  1  0.12385692  0.37030138  0.13323146  1
  Ti  Ti38  1  0.87302066  0.37341900  0.37007902  1
  Ti  Ti39  1  0.61998063  0.38164636  0.85647274  1
  Ti  Ti40  1  0.12781201  0.87237142  0.13216758  1
  Ti  Ti41  1  0.62508409  0.86409365  0.11842101  1
  Ti  Ti42  1  0.37921756  0.87190704  0.12740425  1
  Ti  Ti43  1  0.13817639  0.86989579  0.62878014  1
  Ti  Ti44  1  0.12864347  0.13814182  0.36942383  1
  Ti  Ti45  1  0.14435361  0.60378315  0.59891319  1
  Ti  Ti46  1  0.38318191  0.38117944  0.63542791  1
  Ti  Ti47  1  0.37386904  0.88194096  0.37728299  1
  Ti  Ti48  1  0.36800508  0.86799510  0.87445692  1
  Ti  Ti49  1  0.62232653  0.37058167  0.13520250  1
  Ti  Ti50  1  0.14249420  0.12337297  0.88133513  1
  Ti  Ti51  1  0.62201141  0.62665956  0.63277606  1
  Ti  Ti52  1  0.62315079  0.12021162  0.88861862  1
  Ti  Ti53  1  0.38070483  0.61546965  0.63614965  1
  Ti  Ti54  1  0.38016348  0.13437600  0.37143376  1
  Ti  Ti55  1  0.13524111  0.38143587  0.37456061  1
  Ti  Ti56  1  0.11878087  0.63202667  0.37093058  1
  Ti  Ti57  1  0.87804570  0.36714971  0.63226785  1
  Ti  Ti58  1  0.62803994  0.11886604  0.37790998  1
  Ti  Ti59  1  0.12499784  0.12357778  0.11692466  1
  Ti  Ti60  1  0.61918974  0.62639176  0.13891978  1
  Ti  Ti61  1  0.88745388  0.12676497  0.87111616  1
  Ti  Ti62  1  0.62686361  0.62264252  0.38315607  1
  Ti  Ti63  1  0.37938364  0.63172410  0.12914596  1
  Ti  Ti64  1  0.61663740  0.12059883  0.63117378  1
  Ti  Ti65  1  0.13016413  0.13207651  0.63218790  1
  Ti  Ti66  1  0.88234000  0.12215249  0.38413284  1
  Ti  Ti67  1  0.63058697  0.12074929  0.12386127  1
  Ti  Ti68  1  0.89295740  0.87638999  0.62831309  1
  Ti  Ti69  1  0.37581367  0.39404102  0.12215815  1
  Ti  Ti70  1  0.86904273  0.12500889  0.10662036  1
  Ti  Ti71  1  0.38106967  0.37929701  0.36151886  1
  Ti  Ti72  1  0.88582436  0.87231152  0.12629071  1
  Ti  Ti73  1  0.37266049  0.62640377  0.88363241  1
  Bi  Bi74  1  0.52419280  0.75238691  0.79366706  1
  Bi  Bi75  1  0.25894333  0.28628011  -0.00026077  1
  Bi  Bi76  1  0.47567500  -0.01646742  0.52337131  1
  Bi  Bi77  1  -0.00681301  0.49109675  0.49189159  1
  Bi  Bi78  1  0.02945447  0.01391860  0.50945302  1
  Bi  Bi79  1  0.74600451  0.27838390  -0.01963357  1
  Bi  Bi80  1  0.77044375  0.51157492  -0.00675224  1
  Bi  Bi81  1  0.25179454  -0.01309930  0.00703696  1
  Bi  Bi82  1  0.48917511  0.00629938  0.76199638  1
  Bi  Bi83  1  -0.01043106  0.28911618  0.00308762  1
  Bi  Bi84  1  -0.00454491  0.51252767  0.21545654  1
  Bi  Bi85  1  0.24078443  0.73687848  0.01158663  1
  Bi  Bi86  1  0.24906214  0.28313278  0.76833258  1
  Bi  Bi87  1  0.78810519  0.01460324  0.25067059  1
  Bi  Bi88  1  0.75193711  0.21871945  0.76572116  1
  Bi  Bi89  1  0.26575512  0.75537993  0.27002614  1
  Bi  Bi90  1  0.01548260  -0.01408559  0.27508456  1
  Bi  Bi91  1  0.75485948  0.25368421  0.52833864  1
  Bi  Bi92  1  0.25990661  0.00056052  0.25225139  1
  Bi  Bi93  1  0.20406289  0.71927458  0.76129080  1
  Bi  Bi94  1  0.01330700  -0.02856899  -0.00184400  1
  Bi  Bi95  1  0.26811368  0.27186441  0.50191458  1
  Bi  Bi96  1  0.75141375  0.25496335  0.27241996  1
  Bi  Bi97  1  0.77258640  0.51138140  0.23655870  1
  Bi  Bi98  1  0.01526563  0.26371556  0.51157955  1
  Bi  Bi99  1  0.49784244  -0.02578565  -0.01239464  1
  Bi  Bi100  1  0.76772780  0.77920432  0.25756611  1
  Bi  Bi101  1  0.76222287  0.48581321  0.49968118  1
  Bi  Bi102  1  0.48899438  0.23823664  0.75295523  1
  Bi  Bi103  1  0.75123060  0.01576154  0.53337290  1
  Bi  Bi104  1  0.80792189  0.54698543  0.72946311  1
  Bi  Bi105  1  0.51014776  0.75983530  0.27954858  1
  Bi  Bi106  1  0.74480302  0.73977662  0.52225027  1
  Bi  Bi107  1  -0.03239671  0.73533573  0.50220239  1
  Bi  Bi108  1  0.25703797  0.02773555  0.51440897  1
  Bi  Bi109  1  0.52642331  -0.00574908  0.24493398  1
  Bi  Bi110  1  0.04821353  0.50991402  -0.00859698  1
  Bi  Bi111  1  0.23578467  0.51870143  0.23288611  1
  Bi  Bi112  1  0.52044756  0.25140211  0.26326858  1
  Bi  Bi113  1  0.01270202  0.74637379  -0.04356818  1
  Bi  Bi114  1  0.02837438  0.28297052  0.78511881  1
  Bi  Bi115  1  0.53450414  0.50028543  0.00836229  1
  Bi  Bi116  1  0.28068602  0.74398473  0.51203519  1
  Bi  Bi117  1  0.50281146  0.26995568  0.51743899  1
  Bi  Bi118  1  0.48351993  0.25182004  -0.01090651  1
  Bi  Bi119  1  0.02775618  0.00269802  0.75181620  1
  Bi  Bi120  1  -0.01055331  0.22963197  0.22186955  1
  Bi  Bi121  1  0.21680247  0.48716131  0.76605167  1
  Bi  Bi122  1  0.76982536  -0.02565340  0.76874645  1
  Bi  Bi123  1  0.47689395  0.51786917  0.48077687  1
  Bi  Bi124  1  0.27171836  0.24441957  0.23017822  1
  O  O125  1  0.14589653  0.13929960  0.00096022  1
  O  O126  1  0.08857588  0.11133664  0.25712063  1
  O  O127  1  0.12740436  0.12569443  0.49478806  1
  O  O128  1  0.12149910  0.10819429  0.74743420  1
  O  O129  1  0.11541793  0.35907224  0.01529747  1
  O  O130  1  0.11431574  0.39253939  0.26148911  1
  O  O131  1  0.13942311  0.34109548  0.49423350  1
  O  O132  1  0.13374354  0.36867737  0.74083001  1
  O  O133  1  0.14135814  0.61674409  0.00900605  1
  O  O134  1  0.11247927  0.59522588  0.25693716  1
  O  O135  1  0.16940220  0.63320471  0.48571744  1
  O  O136  1  0.11431829  0.61336007  0.72574174  1
  O  O137  1  0.12658039  0.88472138  0.00709994  1
  O  O138  1  0.12112145  0.89817283  0.24759290  1
  O  O139  1  0.12724615  0.85366591  0.50043992  1
  O  O140  1  0.14568939  0.92251890  0.74505271  1
  O  O141  1  0.35473620  0.09164145  0.01009084  1
  O  O142  1  0.37967058  0.14954611  0.24611012  1
  O  O143  1  0.36190215  0.12391915  0.48842926  1
  O  O144  1  0.40395319  0.12649190  0.75328382  1
  O  O145  1  0.34693168  0.39150517  0.00576229  1
  O  O146  1  0.37180452  0.35510588  0.24578391  1
  O  O147  1  0.37268806  0.36473479  0.50157705  1
  O  O148  1  0.39462988  0.35355275  0.74950457  1
  O  O149  1  0.32493810  0.61793936  -0.00781474  1
  O  O150  1  0.39590299  0.65445984  0.23908628  1
  O  O151  1  0.35095440  0.58408587  0.49154030  1
  O  O152  1  0.40902782  0.63280417  0.74441924  1
  O  O153  1  0.36448895  0.90136494  0.00498627  1
  O  O154  1  0.38031247  0.84880356  0.24611526  1
  O  O155  1  0.36004909  0.88052733  0.49066286  1
  O  O156  1  0.36061323  0.89550767  0.75920706  1
  O  O157  1  0.63788780  0.12102898  0.00279852  1
  O  O158  1  0.59493452  0.12184488  0.24623467  1
  O  O159  1  0.63890530  0.11288048  0.49199523  1
  O  O160  1  0.59556861  0.12466061  0.74544168  1
  O  O161  1  0.63097784  0.39240337  0.01512150  1
  O  O162  1  0.58411429  0.38325698  0.25007046  1
  O  O163  1  0.65029919  0.37213771  0.50474599  1
  O  O164  1  0.61225020  0.36682099  0.74430096  1
  O  O165  1  0.63252680  0.60024901  0.00308380  1
  O  O166  1  0.58048112  0.62679375  0.25207506  1
  O  O167  1  0.64991991  0.62672143  0.49980172  1
  O  O168  1  0.59448050  0.62604197  0.74678230  1
  O  O169  1  0.62691984  0.89839008  0.00514028  1
  O  O170  1  0.60277553  0.86584773  0.24329886  1
  O  O171  1  0.62796529  0.88203729  0.50142829  1
  O  O172  1  0.61276058  0.86424369  0.75202569  1
  O  O173  1  0.86085290  0.12406036  -0.00556413  1
  O  O174  1  0.88657166  0.11929541  0.25795205  1
  O  O175  1  0.84958768  0.11573234  0.49873068  1
  O  O176  1  0.87334631  0.14632710  0.75320906  1
  O  O177  1  0.86072760  0.36149635  0.00131230  1
  O  O178  1  0.88655790  0.39929041  0.25817528  1
  O  O179  1  0.83562225  0.36693609  0.49446332  1
  O  O180  1  0.89141334  0.36898244  0.74277940  1
  O  O181  1  0.81124971  0.64244981  -0.00995326  1
  O  O182  1  0.88281330  0.59429737  0.25517041  1
  O  O183  1  0.85708078  0.65840949  0.49555952  1
  O  O184  1  0.93013432  0.60364313  0.75013828  1
  O  O185  1  0.87273966  0.88828106  0.01120984  1
  O  O186  1  0.85914444  0.88896963  0.24774662  1
  O  O187  1  0.87277181  0.85752160  0.51045846  1
  O  O188  1  0.85911734  0.86532519  0.74787670  1
  O  O189  1  -0.00626916  0.14144687  0.11412951  1
  O  O190  1  -0.00480548  0.13255105  0.40052644  1
  O  O191  1  0.00766634  0.09553438  0.62175034  1
  O  O192  1  -0.00285495  0.15634535  0.87710637  1
  O  O193  1  -0.00480809  0.36166464  0.12683277  1
  O  O194  1  -0.00523319  0.37167376  0.40869198  1
  O  O195  1  -0.00354402  0.38080176  0.59069398  1
  O  O196  1  -0.00870707  0.36428727  0.88755540  1
  O  O197  1  -0.00694163  0.63079628  0.13958081  1
  O  O198  1  0.00463900  0.64540975  0.37868727  1
  O  O199  1  0.02807268  0.62743434  0.57847443  1
  O  O200  1  -0.00401905  0.61245447  0.91288347  1
  O  O201  1  0.00110168  0.87680482  0.12397956  1
  O  O202  1  0.00676918  0.86688792  0.37154042  1
  O  O203  1  0.00261582  0.91064153  0.63033720  1
  O  O204  1  0.00695056  0.87831128  0.89244313  1
  O  O205  1  0.23778074  0.11565391  0.15343140  1
  O  O206  1  0.24174327  0.11182104  0.35332773  1
  O  O207  1  0.24771165  0.13176672  0.61580202  1
  O  O208  1  0.24912963  0.08750921  0.85751321  1
  O  O209  1  0.24394122  0.36506968  0.13546020  1
  O  O210  1  0.25311790  0.40776590  0.38413002  1
  O  O211  1  0.26668944  0.34519389  0.63208053  1
  O  O212  1  0.26317622  0.39124233  0.85245591  1
  O  O213  1  0.25189277  0.62393389  0.14971058  1
  O  O214  1  0.25176230  0.59980912  0.34371892  1
  O  O215  1  0.25804370  0.64490399  0.63287463  1
  O  O216  1  0.26048569  0.60544582  0.83956905  1
  O  O217  1  0.24824145  0.89959090  0.13117172  1
  O  O218  1  0.24900609  0.88001737  0.35048556  1
  O  O219  1  0.24792064  0.83853366  0.62470701  1
  O  O220  1  0.25312580  0.90873220  0.88609333  1
  O  O221  1  0.49478060  0.12439699  0.10313507  1
  O  O222  1  0.49505582  0.14552940  0.37987842  1
  O  O223  1  0.50375658  0.09105462  0.60428265  1
  O  O224  1  0.50384250  0.15539664  0.89132732  1
  O  O225  1  0.48551978  0.37108503  0.10506225  1
  O  O226  1  0.49105168  0.34551559  0.38311145  1
  O  O227  1  0.50935287  0.38506875  0.60070337  1
  O  O228  1  0.50829435  0.35159602  0.89432741  1
  O  O229  1  0.48673265  0.63511975  0.08168217  1
  O  O230  1  0.49713382  0.64339332  0.41826170  1
  O  O231  1  0.50056940  0.60404966  0.59553459  1
  O  O232  1  0.49005663  0.65616411  0.89271378  1
  O  O233  1  0.49275076  0.87954823  0.11352166  1
  O  O234  1  0.49307231  0.86777956  0.37689052  1
  O  O235  1  0.49866676  0.89255156  0.62149654  1
  O  O236  1  0.48991770  0.85317346  0.89563871  1
  O  O237  1  0.74535827  0.12414976  0.14192074  1
  O  O238  1  0.74286110  0.12403011  0.35207893  1
  O  O239  1  0.74076026  0.13003585  0.62561793  1
  O  O240  1  0.73504005  0.10417054  0.84564391  1
  O  O241  1  0.73538195  0.37493223  0.15424814  1
  O  O242  1  0.74960691  0.37800044  0.34753449  1
  O  O243  1  0.74876477  0.34416820  0.63698723  1
  O  O244  1  0.73515006  0.37942715  0.88336057  1
  O  O245  1  0.73126951  0.62603442  0.15891916  1
  O  O246  1  0.73656352  0.60826316  0.35132257  1
  O  O247  1  0.74062472  0.65605255  0.64116084  1
  O  O248  1  0.76810176  0.66616580  0.81266796  1
  O  O249  1  0.74125460  0.87358028  0.12255949  1
  O  O250  1  0.74260548  0.87229045  0.36943261  1
  O  O251  1  0.73944002  0.83410418  0.63420770  1
  O  O252  1  0.75359551  0.87923623  0.88805961  1
  O  O253  1  0.10897641  0.00878202  0.11233339  1
  O  O254  1  0.10988332  -0.00545005  0.38360302  1
  O  O255  1  0.14232789  -0.00404173  0.59470207  1
  O  O256  1  0.09567795  0.01352793  0.88696238  1
  O  O257  1  0.12068130  0.24601656  0.15329861  1
  O  O258  1  0.13579378  0.25196316  0.35731120  1
  O  O259  1  0.10258582  0.24316843  0.62833059  1
  O  O260  1  0.14448323  0.24261786  0.85753916  1
  O  O261  1  0.11678240  0.49266865  0.12544174  1
  O  O262  1  0.11320782  0.49862249  0.40618369  1
  O  O263  1  0.16133327  0.49496817  0.58860186  1
  O  O264  1  0.12831780  0.50362894  0.87370982  1
  O  O265  1  0.14536916  0.75901166  0.12840031  1
  O  O266  1  0.14537195  0.74709837  0.35442582  1
  O  O267  1  0.09748639  0.76966457  0.67022268  1
  O  O268  1  0.12646702  0.75307515  0.87072778  1
  O  O269  1  0.37522486  -0.00020641  0.15931060  1
  O  O270  1  0.37478154  0.00215538  0.35295860  1
  O  O271  1  0.36057042  -0.00225701  0.60628687  1
  O  O272  1  0.41030339  -0.00152931  0.87475470  1
  O  O273  1  0.35024363  0.24085539  0.10510379  1
  O  O274  1  0.34317649  0.25154092  0.37447508  1
  O  O275  1  0.41572202  0.24689449  0.62385111  1
  O  O276  1  0.36348532  0.24893058  0.91020253  1
  O  O277  1  0.37585419  0.50706393  0.14222773  1
  O  O278  1  0.41591077  0.49315061  0.34434479  1
  O  O279  1  0.36949421  0.49513886  0.64422885  1
  O  O280  1  0.40868638  0.51550131  0.87123535  1
  O  O281  1  0.34914365  0.75481275  0.10174877  1
  O  O282  1  0.35149601  0.74929753  0.38010475  1
  O  O283  1  0.39568361  0.73499237  0.58881671  1
  O  O284  1  0.34180532  0.75417115  0.88082522  1
  O  O285  1  0.61604371  0.00175318  0.13880450  1
  O  O286  1  0.61148456  -0.00233888  0.36082700  1
  O  O287  1  0.64811451  -0.00982737  0.63272346  1
  O  O288  1  0.58856526  0.00397634  0.87150383  1
  O  O289  1  0.61344767  0.25073189  0.13882300  1
  O  O290  1  0.63122203  0.24622400  0.35335588  1
  O  O291  1  0.60541559  0.23840449  0.61405743  1
  O  O292  1  0.64752401  0.24478343  0.87411978  1
  O  O293  1  0.59324539  0.50589867  0.14067517  1
  O  O294  1  0.59477285  0.50750150  0.37673577  1
  O  O295  1  0.65213471  0.50185806  0.62813461  1
  O  O296  1  0.59998494  0.49931623  0.86334191  1
  O  O297  1  0.61135270  0.74647221  0.10425037  1
  O  O298  1  0.62061001  0.75124478  0.37167792  1
  O  O299  1  0.59485171  0.74378485  0.60868191  1
  O  O300  1  0.63161317  0.74415824  0.89212568  1
  O  O301  1  0.87012134  0.00574114  0.13255412  1
  O  O302  1  0.87679233  0.00318693  0.37099218  1
  O  O303  1  0.84540130  -0.00733239  0.63582435  1
  O  O304  1  0.88052939  0.00737883  0.85161619  1
  O  O305  1  0.86901426  0.24319010  0.14005821  1
  O  O306  1  0.86210101  0.25133372  0.36654626  1
  O  O307  1  0.88615063  0.25006964  0.59943082  1
  O  O308  1  0.83471669  0.24471573  0.87682814  1
  O  O309  1  0.85349889  0.50606023  0.11173679  1
  O  O310  1  0.87500917  0.49720705  0.40799736  1
  O  O311  1  0.85657803  0.48731730  0.60512330  1
  O  O312  1  0.84547308  0.50822132  0.87411694  1
  O  O313  1  0.87283819  0.75566047  0.15545195  1
  O  O314  1  0.87138346  0.74696562  0.33802639  1
  O  O315  1  0.90816238  0.75488333  0.63785479  1
  O  O316  1  0.89492244  0.75225095  0.88911661  1
