# generated using pymatgen
data_Mg32Ti42(Bi17O64)3
_symmetry_space_group_name_H-M   'P 1'
_cell_length_a   15.95515261
_cell_length_b   15.99660588
_cell_length_c   15.95001065
_cell_angle_alpha   90.05766213
_cell_angle_beta   89.97381815
_cell_angle_gamma   90.08681295
_symmetry_Int_Tables_number   1
_chemical_formula_structural   Mg32Ti42(Bi17O64)3
_chemical_formula_sum   'Mg32 Ti42 Bi51 O192'
_cell_volume   4070.88675627
_cell_formula_units_Z   1
loop_
 _symmetry_equiv_pos_site_id
 _symmetry_equiv_pos_as_xyz
  1  'x, y, z'
loop_
 _atom_site_type_symbol
 _atom_site_label
 _atom_site_symmetry_multiplicity
 _atom_site_fract_x
 _atom_site_fract_y
 _atom_site_fract_z
 _atom_site_occupancy
  Mg  Mg0  1  0.88066719  0.62580883  0.38147451  1
  Mg  Mg1  1  0.87623209  0.38111565  0.62225874  1
  Mg  Mg2  1  0.86789518  0.63204844  0.11893059  1
  Mg  Mg3  1  0.87546633  0.12534689  0.88559568  1
  Mg  Mg4  1  0.62053342  0.11856823  0.86787598  1
  Mg  Mg5  1  0.37524087  0.63138060  0.37785979  1
  Mg  Mg6  1  0.61751580  0.38149619  0.11925040  1
  Mg  Mg7  1  0.63059152  0.61870275  0.87947771  1
  Mg  Mg8  1  0.62663662  0.37224534  0.37491567  1
  Mg  Mg9  1  0.37533051  0.62133195  0.86853833  1
  Mg  Mg10  1  0.12037936  0.62049065  0.87530923  1
  Mg  Mg11  1  0.87527312  0.11583794  0.62833979  1
  Mg  Mg12  1  0.37324427  0.37337164  0.37181323  1
  Mg  Mg13  1  0.13540673  0.14223685  0.87624563  1
  Mg  Mg14  1  0.12540507  0.62158451  0.62369254  1
  Mg  Mg15  1  0.13185743  0.36456691  0.13362450  1
  Mg  Mg16  1  0.12062798  0.88534340  0.63942604  1
  Mg  Mg17  1  0.87334468  0.87408961  0.13010428  1
  Mg  Mg18  1  0.62352443  0.63301926  0.37660662  1
  Mg  Mg19  1  0.80059899  -0.00370851  0.79867561  1
  Mg  Mg20  1  0.27725804  0.25454041  -0.01571566  1
  Mg  Mg21  1  0.05013486  -0.02263856  0.50027420  1
  Mg  Mg22  1  0.28025418  0.27598297  0.48648846  1
  Mg  Mg23  1  0.75804906  0.19052697  0.77407265  1
  Mg  Mg24  1  -0.07408545  0.31079341  0.21479730  1
  Mg  Mg25  1  0.54963663  0.70894799  0.74983175  1
  Mg  Mg26  1  0.72585064  0.05762384  -0.02011331  1
  Mg  Mg27  1  0.26981032  -0.05468010  0.25783747  1
  Mg  Mg28  1  0.30144639  0.24675510  0.70532845  1
  Mg  Mg29  1  0.46678086  -0.00208239  0.49103844  1
  Mg  Mg30  1  0.00687749  0.67575890  0.00893891  1
  Mg  Mg31  1  0.25243461  0.06775710  0.73642915  1
  Ti  Ti32  1  0.12883617  0.64299280  0.38093050  1
  Ti  Ti33  1  0.38514888  0.61046926  0.11676388  1
  Ti  Ti34  1  0.63340146  0.12386482  0.62268978  1
  Ti  Ti35  1  0.64722793  0.37057042  0.85956760  1
  Ti  Ti36  1  0.37534483  0.86713055  0.38112592  1
  Ti  Ti37  1  0.12000242  0.36369804  0.87663667  1
  Ti  Ti38  1  0.36658267  0.62609588  0.63531491  1
  Ti  Ti39  1  0.37439153  0.38740311  0.62212442  1
  Ti  Ti40  1  0.88879837  0.62342990  0.62175231  1
  Ti  Ti41  1  0.13948658  0.12273312  0.13336661  1
  Ti  Ti42  1  0.37207352  0.87732845  0.62961315  1
  Ti  Ti43  1  0.13742214  0.36608401  0.62879426  1
  Ti  Ti44  1  0.63617325  0.36480603  0.61940438  1
  Ti  Ti45  1  0.62321398  0.61925675  0.11582525  1
  Ti  Ti46  1  0.61831083  0.87045705  0.37555554  1
  Ti  Ti47  1  0.62142477  0.86243104  0.13592689  1
  Ti  Ti48  1  0.63591785  0.87872565  0.62160064  1
  Ti  Ti49  1  0.36478347  0.36413225  0.85747251  1
  Ti  Ti50  1  0.35450958  0.12908925  0.37257078  1
  Ti  Ti51  1  0.63220101  0.88254889  0.86282244  1
  Ti  Ti52  1  0.13160455  0.87665803  0.36989492  1
  Ti  Ti53  1  0.87330273  0.37598686  0.38025391  1
  Ti  Ti54  1  0.37905390  0.13004930  0.86600185  1
  Ti  Ti55  1  0.86795332  0.10961872  0.12025113  1
  Ti  Ti56  1  0.88127654  0.12445357  0.37568631  1
  Ti  Ti57  1  0.37201855  0.37135931  0.10566889  1
  Ti  Ti58  1  0.87852456  0.36016473  0.86141357  1
  Ti  Ti59  1  0.61671176  0.11913093  0.38749169  1
  Ti  Ti60  1  0.38403604  0.88590253  0.86272574  1
  Ti  Ti61  1  0.37459928  0.12324955  0.60622017  1
  Ti  Ti62  1  0.13527949  0.87676942  0.12535727  1
  Ti  Ti63  1  0.87672234  0.61872548  0.88226171  1
  Ti  Ti64  1  0.38132745  0.87202108  0.12484901  1
  Ti  Ti65  1  0.11967468  0.87099154  0.87698048  1
  Ti  Ti66  1  0.87986738  0.89016105  0.63004139  1
  Ti  Ti67  1  0.13828640  0.36007783  0.38183354  1
  Ti  Ti68  1  0.11783183  0.12154783  0.36779190  1
  Ti  Ti69  1  0.37532342  0.11751124  0.11461254  1
  Ti  Ti70  1  0.12133120  0.12541845  0.62523026  1
  Ti  Ti71  1  0.88467455  0.86290605  0.37364540  1
  Ti  Ti72  1  0.62127751  0.11857977  0.12813424  1
  Ti  Ti73  1  0.88735449  0.87407272  0.89744117  1
  Bi  Bi74  1  0.49319601  0.49566987  0.48108987  1
  Bi  Bi75  1  0.00278918  -0.01783189  0.23188186  1
  Bi  Bi76  1  0.24264695  0.71138612  0.21572470  1
  Bi  Bi77  1  0.22224200  0.52262816  0.01590496  1
  Bi  Bi78  1  0.28024293  0.25399905  0.23207871  1
  Bi  Bi79  1  0.25052681  -0.01156146  0.51955784  1
  Bi  Bi80  1  -0.01337579  0.73636522  0.76717710  1
  Bi  Bi81  1  0.77126706  0.47021175  0.00789514  1
  Bi  Bi82  1  0.76841717  0.72901312  0.24744303  1
  Bi  Bi83  1  0.23609144  0.51116004  0.77512695  1
  Bi  Bi84  1  0.23269715  0.75826203  0.52712058  1
  Bi  Bi85  1  0.23417455  0.48998570  0.23549427  1
  Bi  Bi86  1  0.02254415  0.25138809  0.49968247  1
  Bi  Bi87  1  0.01374274  0.49357552  0.26391675  1
  Bi  Bi88  1  0.77755991  0.24506662  0.52912616  1
  Bi  Bi89  1  0.77217956  0.48986201  0.22618974  1
  Bi  Bi90  1  0.51594531  0.26611241  0.23890923  1
  Bi  Bi91  1  0.00006472  0.25380934  0.04135774  1
  Bi  Bi92  1  0.47589933  -0.00062472  0.27158049  1
  Bi  Bi93  1  0.00818701  0.76982904  0.52755534  1
  Bi  Bi94  1  0.52995215  0.51258441  0.26415256  1
  Bi  Bi95  1  0.26264540  0.51863297  0.48672076  1
  Bi  Bi96  1  -0.01679916  0.24729471  0.73087274  1
  Bi  Bi97  1  0.26317199  0.77781535  -0.01673015  1
  Bi  Bi98  1  0.00631529  0.73594026  0.21531337  1
  Bi  Bi99  1  0.75323216  0.75299360  0.76757234  1
  Bi  Bi100  1  0.74984965  0.21508694  0.25610248  1
  Bi  Bi101  1  0.74971252  -0.01879521  0.27262953  1
  Bi  Bi102  1  0.53084553  0.24497429  0.00266576  1
  Bi  Bi103  1  0.00246709  0.03282231  0.76730272  1
  Bi  Bi104  1  0.24961628  0.01034490  -0.03254766  1
  Bi  Bi105  1  0.48712313  0.73183753  0.25021157  1
  Bi  Bi106  1  0.50798286  0.72535108  0.54102615  1
  Bi  Bi107  1  0.74900097  0.49823551  0.47823406  1
  Bi  Bi108  1  0.01220518  0.48164847  0.02818933  1
  Bi  Bi109  1  0.76022522  -0.02941027  0.49427452  1
  Bi  Bi110  1  0.49406912  0.73407428  -0.03369903  1
  Bi  Bi111  1  0.49193908  0.47351588  -0.03998140  1
  Bi  Bi112  1  0.23177107  0.74633900  0.76043461  1
  Bi  Bi113  1  0.52771965  0.24827633  0.75767835  1
  Bi  Bi114  1  0.74172777  0.71790035  0.51653061  1
  Bi  Bi115  1  0.01188934  0.50189302  0.49029007  1
  Bi  Bi116  1  0.01606166  0.48052807  0.72822057  1
  Bi  Bi117  1  0.50756189  0.26367689  0.48561829  1
  Bi  Bi118  1  0.74889936  0.76039584  0.01424546  1
  Bi  Bi119  1  0.51207303  0.00161525  0.71583274  1
  Bi  Bi120  1  0.02318324  0.02736623  -0.00435029  1
  Bi  Bi121  1  0.52927816  0.51023449  0.72507727  1
  Bi  Bi122  1  0.74144754  0.53162036  0.71561194  1
  Bi  Bi123  1  0.52424597  -0.03099864  0.00203511  1
  Bi  Bi124  1  0.76058572  0.26359208  0.03701476  1
  O  O125  1  0.14035344  0.10472557  0.00534382  1
  O  O126  1  0.11539170  0.11514005  0.25264835  1
  O  O127  1  0.09964862  0.13824322  0.50315266  1
  O  O128  1  0.12720745  0.10819143  0.75006912  1
  O  O129  1  0.12224301  0.40591685  -0.00610486  1
  O  O130  1  0.12823208  0.39816655  0.26662899  1
  O  O131  1  0.14707987  0.33705094  0.50864121  1
  O  O132  1  0.09128595  0.35679199  0.74979367  1
  O  O133  1  0.10220693  0.58844886  -0.00420505  1
  O  O134  1  0.15777864  0.61085654  0.26301168  1
  O  O135  1  0.10258954  0.64410258  0.49483027  1
  O  O136  1  0.14516543  0.64135575  0.74968479  1
  O  O137  1  0.14471129  0.87042373  0.01031347  1
  O  O138  1  0.13309760  0.91051871  0.25701027  1
  O  O139  1  0.12618329  0.86779134  0.49101710  1
  O  O140  1  0.12289644  0.86255336  0.76188536  1
  O  O141  1  0.35040758  0.11889832  -0.00147039  1
  O  O142  1  0.38360936  0.15636689  0.25648819  1
  O  O143  1  0.36149159  0.08578981  0.49460093  1
  O  O144  1  0.36799020  0.14154473  0.74544603  1
  O  O145  1  0.34255007  0.37239376  -0.00634454  1
  O  O146  1  0.38985404  0.34354480  0.24715602  1
  O  O147  1  0.33861421  0.38470394  0.51237913  1
  O  O148  1  0.38239320  0.34226256  0.74252317  1
  O  O149  1  0.41218461  0.61902207  0.00141675  1
  O  O150  1  0.35679594  0.63077220  0.24232929  1
  O  O151  1  0.40684178  0.62296427  0.51275770  1
  O  O152  1  0.33593566  0.64269379  0.74738156  1
  O  O153  1  0.36826460  0.88549200  0.00849024  1
  O  O154  1  0.38814388  0.87759980  0.25688435  1
  O  O155  1  0.36713668  0.90793343  0.49549079  1
  O  O156  1  0.38156239  0.87465424  0.74701554  1
  O  O157  1  0.63465400  0.14590984  -0.00279754  1
  O  O158  1  0.61936010  0.12160411  0.24854436  1
  O  O159  1  0.62957570  0.13855676  0.50406230  1
  O  O160  1  0.59258953  0.11622724  0.74085515  1
  O  O161  1  0.63864502  0.34489732  -0.02208325  1
  O  O162  1  0.59914389  0.37934333  0.24892377  1
  O  O163  1  0.63503974  0.35342615  0.50331274  1
  O  O164  1  0.59505779  0.38045042  0.74517338  1
  O  O165  1  0.61408025  0.65352964  0.00134284  1
  O  O166  1  0.64188912  0.59176904  0.24382109  1
  O  O167  1  0.61648551  0.65212596  0.50528803  1
  O  O168  1  0.62567986  0.60386297  0.75154064  1
  O  O169  1  0.61729593  0.85651108  0.00694583  1
  O  O170  1  0.61842115  0.90487377  0.25081671  1
  O  O171  1  0.63279720  0.86540941  0.50036108  1
  O  O172  1  0.61567117  0.90983236  0.75127183  1
  O  O173  1  0.83850801  0.11918659  0.00601890  1
  O  O174  1  0.85327619  0.11864739  0.25055588  1
  O  O175  1  0.87713070  0.15541379  0.49061371  1
  O  O176  1  0.87724333  0.09575915  0.75707020  1
  O  O177  1  0.85136019  0.35913786  -0.01675755  1
  O  O178  1  0.88958112  0.42033005  0.26126175  1
  O  O179  1  0.86473100  0.34770171  0.49401411  1
  O  O180  1  0.90553769  0.38715306  0.74810281  1
  O  O181  1  0.87318543  0.66284182  -0.00644418  1
  O  O182  1  0.84147055  0.60780380  0.25630047  1
  O  O183  1  0.88037115  0.65845383  0.50994437  1
  O  O184  1  0.89962426  0.62328690  0.75191831  1
  O  O185  1  0.86375859  0.84939262  0.00483726  1
  O  O186  1  0.87269105  0.90457642  0.26045074  1
  O  O187  1  0.85176091  0.86269365  0.49104396  1
  O  O188  1  0.88246246  0.90987473  0.74099122  1
  O  O189  1  -0.00838045  0.12939439  0.10064357  1
  O  O190  1  -0.00835893  0.10808790  0.36889508  1
  O  O191  1  -0.00019165  0.11101865  0.64979421  1
  O  O192  1  0.00575650  0.12377847  0.88521343  1
  O  O193  1  0.00450072  0.36403223  0.12938927  1
  O  O194  1  0.00233589  0.40376406  0.38305459  1
  O  O195  1  0.00389551  0.40249036  0.60057474  1
  O  O196  1  -0.00278855  0.35446466  0.89086050  1
  O  O197  1  -0.00685825  0.63579465  0.12520320  1
  O  O198  1  0.01135498  0.59822523  0.35846437  1
  O  O199  1  0.00145275  0.59669395  0.62247003  1
  O  O200  1  -0.00220955  0.65436469  0.88407520  1
  O  O201  1  0.00679991  0.86664534  0.15170655  1
  O  O202  1  -0.00194673  0.89197503  0.38544002  1
  O  O203  1  -0.00425041  0.89892496  0.59344769  1
  O  O204  1  0.00445863  0.85126934  0.89005239  1
  O  O205  1  0.25025992  0.11825638  0.14592560  1
  O  O206  1  0.24111019  0.14876456  0.37946071  1
  O  O207  1  0.23815101  0.15118504  0.63812214  1
  O  O208  1  0.25487540  0.09553516  0.86098462  1
  O  O209  1  0.25570857  0.37405255  0.15142698  1
  O  O210  1  0.25060071  0.34008526  0.37146401  1
  O  O211  1  0.24648027  0.34587249  0.65224019  1
  O  O212  1  0.24812607  0.39289466  0.85089800  1
  O  O213  1  0.26528400  0.63512798  0.09986041  1
  O  O214  1  0.24806212  0.63385706  0.40636908  1
  O  O215  1  0.25066312  0.63735917  0.59703826  1
  O  O216  1  0.25047992  0.59106053  0.89059132  1
  O  O217  1  0.25488249  0.88295173  0.14761122  1
  O  O218  1  0.25207007  0.87327163  0.36734371  1
  O  O219  1  0.24717084  0.87105610  0.61283924  1
  O  O220  1  0.25782179  0.88299089  0.88377413  1
  O  O221  1  0.49424372  0.13428602  0.11012351  1
  O  O222  1  0.49968619  0.08814174  0.39191043  1
  O  O223  1  0.48587330  0.09497628  0.60543798  1
  O  O224  1  0.49357805  0.15051893  0.88100861  1
  O  O225  1  0.49031862  0.35919492  0.10013153  1
  O  O226  1  0.49329630  0.37658278  0.40778386  1
  O  O227  1  0.48826824  0.38945302  0.60065169  1
  O  O228  1  0.48822936  0.34968722  0.89228815  1
  O  O229  1  0.50268564  0.62040911  0.15415433  1
  O  O230  1  0.49955698  0.62543589  0.34217147  1
  O  O231  1  0.48516174  0.64362973  0.65736551  1
  O  O232  1  0.50161495  0.65300401  0.85623502  1
  O  O233  1  0.50010685  0.88928665  0.12417361  1
  O  O234  1  0.49725751  0.91201005  0.38754551  1
  O  O235  1  0.48401539  0.91520306  0.60598829  1
  O  O236  1  0.50109942  0.87006136  0.88481880  1
  O  O237  1  0.74221774  0.12471418  0.13400099  1
  O  O238  1  0.74206179  0.15758636  0.37614986  1
  O  O239  1  0.74281265  0.14892029  0.64936238  1
  O  O240  1  0.74625807  0.09599414  0.85746424  1
  O  O241  1  0.74408511  0.37695700  0.11552650  1
  O  O242  1  0.75469434  0.39968348  0.36849459  1
  O  O243  1  0.74714243  0.35493642  0.63289982  1
  O  O244  1  0.75412805  0.39979607  0.84560572  1
  O  O245  1  0.73971549  0.66111491  0.11835019  1
  O  O246  1  0.74792256  0.62357899  0.41118977  1
  O  O247  1  0.76312572  0.65075141  0.64220429  1
  O  O248  1  0.75846915  0.63517511  0.85451647  1
  O  O249  1  0.74124995  0.84809485  0.13007472  1
  O  O250  1  0.74293030  0.87347748  0.36150929  1
  O  O251  1  0.74864256  0.86074617  0.63205923  1
  O  O252  1  0.75238094  0.88340790  0.85835585  1
  O  O253  1  0.10024089  0.00038569  0.12306106  1
  O  O254  1  0.12729117  0.00701465  0.39964338  1
  O  O255  1  0.13044403  0.00691181  0.60294972  1
  O  O256  1  0.11880990  -0.01287852  0.89194122  1
  O  O257  1  0.12233987  0.23962430  0.11461631  1
  O  O258  1  0.09474224  0.25071091  0.37453241  1
  O  O259  1  0.08486245  0.24865109  0.63112362  1
  O  O260  1  0.16067839  0.26163605  0.91036412  1
  O  O261  1  0.14153623  0.49475147  0.13536493  1
  O  O262  1  0.14659757  0.48634231  0.41496406  1
  O  O263  1  0.14159731  0.48620498  0.64170669  1
  O  O264  1  0.11351851  0.49281854  0.83957720  1
  O  O265  1  0.12756135  0.75898654  0.14246353  1
  O  O266  1  0.11874124  0.75592756  0.35685307  1
  O  O267  1  0.11581005  0.75602005  0.61675150  1
  O  O268  1  0.16225676  0.74766133  0.88637279  1
  O  O269  1  0.37908914  0.00714537  0.14558189  1
  O  O270  1  0.35147865  0.01116162  0.33779495  1
  O  O271  1  0.32631463  0.00918979  0.64098053  1
  O  O272  1  0.39172658  0.00267088  0.87151484  1
  O  O273  1  0.34694152  0.24759438  0.10510977  1
  O  O274  1  0.38444957  0.23946458  0.41272016  1
  O  O275  1  0.37169412  0.24000281  0.59508113  1
  O  O276  1  0.34567536  0.24614183  0.88005057  1
  O  O277  1  0.37320724  0.49527267  0.12170559  1
  O  O278  1  0.37230448  0.50174732  0.39285752  1
  O  O279  1  0.36353011  0.50369442  0.64162924  1
  O  O280  1  0.40130996  0.48716754  0.85833387  1
  O  O281  1  0.38584374  0.75567595  0.12522021  1
  O  O282  1  0.39299079  0.75897585  0.38736389  1
  O  O283  1  0.36787145  0.76253897  0.61035057  1
  O  O284  1  0.36548267  0.75717606  0.89024916  1
  O  O285  1  0.62801511  0.00517813  0.09439697  1
  O  O286  1  0.65256761  0.00760633  0.38095104  1
  O  O287  1  0.62855708  0.00472429  0.62101226  1
  O  O288  1  0.62420962  -0.00497263  0.90863416  1
  O  O289  1  0.61831736  0.24815316  0.12747010  1
  O  O290  1  0.58634820  0.24221791  0.36752201  1
  O  O291  1  0.59706936  0.24655113  0.63540087  1
  O  O292  1  0.64980365  0.24990977  0.82842652  1
  O  O293  1  0.63010156  0.50769651  0.09262965  1
  O  O294  1  0.60401546  0.50227825  0.38942823  1
  O  O295  1  0.63558352  0.48976426  0.62740959  1
  O  O296  1  0.60111905  0.48878899  0.87822960  1
  O  O297  1  0.60164972  0.75194067  0.15841670  1
  O  O298  1  0.60562364  0.76148656  0.35204216  1
  O  O299  1  0.59327619  0.77516035  0.65084798  1
  O  O300  1  0.63251012  0.76058956  0.84202400  1
  O  O301  1  0.89319985  -0.00126940  0.12467390  1
  O  O302  1  0.84272482  0.01173761  0.38795079  1
  O  O303  1  0.85218203  -0.00192692  0.59512413  1
  O  O304  1  0.88958644  -0.01160610  0.89301059  1
  O  O305  1  0.87598603  0.24242129  0.12507502  1
  O  O306  1  0.88051651  0.26717497  0.32941142  1
  O  O307  1  0.88616746  0.24910183  0.63222519  1
  O  O308  1  0.85308704  0.25019478  0.84120369  1
  O  O309  1  0.85013838  0.51014617  0.10851101  1
  O  O310  1  0.87598253  0.50182080  0.42382553  1
  O  O311  1  0.84530322  0.51088198  0.60935442  1
  O  O312  1  0.88375197  0.50768726  0.90349171  1
  O  O313  1  0.87548510  0.75208072  0.16473828  1
  O  O314  1  0.88114085  0.75173344  0.34961075  1
  O  O315  1  0.91234395  0.75918398  0.64020508  1
  O  O316  1  0.87208731  0.76415955  0.84033408  1
