# generated using pymatgen
data_Mg32Ti42(Bi17O64)3
_symmetry_space_group_name_H-M   'P 1'
_cell_length_a   15.94159800
_cell_length_b   15.91586666
_cell_length_c   15.93840692
_cell_angle_alpha   89.95959821
_cell_angle_beta   89.87864775
_cell_angle_gamma   90.13197076
_symmetry_Int_Tables_number   1
_chemical_formula_structural   Mg32Ti42(Bi17O64)3
_chemical_formula_sum   'Mg32 Ti42 Bi51 O192'
_cell_volume   4043.94108889
_cell_formula_units_Z   1
loop_
 _symmetry_equiv_pos_site_id
 _symmetry_equiv_pos_as_xyz
  1  'x, y, z'
loop_
 _atom_site_type_symbol
 _atom_site_label
 _atom_site_symmetry_multiplicity
 _atom_site_fract_x
 _atom_site_fract_y
 _atom_site_fract_z
 _atom_site_occupancy
  Mg  Mg0  1  0.62404226  0.86539780  0.37854606  1
  Mg  Mg1  1  0.62316800  0.37062542  0.87705078  1
  Mg  Mg2  1  0.88389110  0.61782397  0.13430626  1
  Mg  Mg3  1  0.63113225  0.87750185  0.62170972  1
  Mg  Mg4  1  0.87136664  0.38066158  0.62769261  1
  Mg  Mg5  1  0.88461135  0.88863668  0.63193275  1
  Mg  Mg6  1  0.87255994  0.13354837  0.37221550  1
  Mg  Mg7  1  0.37345115  0.37314765  0.87682036  1
  Mg  Mg8  1  0.11388507  0.13363503  0.38210687  1
  Mg  Mg9  1  0.37337459  0.87332511  0.37127368  1
  Mg  Mg10  1  0.62765014  0.62722116  0.11955990  1
  Mg  Mg11  1  0.87898642  0.37488638  0.36907419  1
  Mg  Mg12  1  0.63412208  0.88010584  0.87647595  1
  Mg  Mg13  1  0.86538026  0.11562960  0.88076993  1
  Mg  Mg14  1  0.38619857  0.10656018  0.37189170  1
  Mg  Mg15  1  0.12063030  0.62514637  0.37400157  1
  Mg  Mg16  1  0.86301956  0.12976542  0.11442443  1
  Mg  Mg17  1  0.88212668  0.87978584  0.11400584  1
  Mg  Mg18  1  0.12961420  0.12893062  0.87192419  1
  Mg  Mg19  1  -0.02892252  0.04942368  0.23353078  1
  Mg  Mg20  1  0.52329620  -0.00832105  0.28963481  1
  Mg  Mg21  1  0.75873373  -0.00428613  0.04100957  1
  Mg  Mg22  1  0.50393348  0.72100713  0.46444375  1
  Mg  Mg23  1  0.24730873  0.53114572  0.76795269  1
  Mg  Mg24  1  0.00267792  0.01366504  0.82114012  1
  Mg  Mg25  1  0.48649958  -0.05957996  0.47209260  1
  Mg  Mg26  1  0.02512190  0.47655588  0.02816355  1
  Mg  Mg27  1  0.77471913  0.23628423  0.76030752  1
  Mg  Mg28  1  0.50768642  0.77924682  0.28599609  1
  Mg  Mg29  1  0.81422881  0.51619226  0.00768859  1
  Mg  Mg30  1  0.74593023  0.52063785  0.20169484  1
  Mg  Mg31  1  0.22906719  0.47464706  0.55971816  1
  Ti  Ti32  1  0.62508224  0.10676777  0.38639143  1
  Ti  Ti33  1  0.37948709  0.62483402  0.37664523  1
  Ti  Ti34  1  0.37490919  0.37930885  0.62517767  1
  Ti  Ti35  1  0.61589065  0.62126922  0.62868250  1
  Ti  Ti36  1  0.62487104  0.37960339  0.36872194  1
  Ti  Ti37  1  0.13642555  0.37211848  0.89060532  1
  Ti  Ti38  1  0.11535020  0.63151921  0.62018869  1
  Ti  Ti39  1  0.38020850  0.87904780  0.87124152  1
  Ti  Ti40  1  0.63294386  0.37099653  0.12089847  1
  Ti  Ti41  1  0.87370903  0.87967861  0.88581599  1
  Ti  Ti42  1  0.37889878  0.62589262  0.86834715  1
  Ti  Ti43  1  0.12118638  0.86078058  0.12775811  1
  Ti  Ti44  1  0.37992877  0.62406212  0.12724220  1
  Ti  Ti45  1  0.14105212  0.86641759  0.38880486  1
  Ti  Ti46  1  0.87769342  0.60649814  0.36365766  1
  Ti  Ti47  1  0.37412030  0.87750528  0.61086423  1
  Ti  Ti48  1  0.87944776  0.37838116  0.11462152  1
  Ti  Ti49  1  0.12489757  0.37230491  0.37138299  1
  Ti  Ti50  1  0.36464629  0.11980123  0.62777562  1
  Ti  Ti51  1  0.62458488  0.37179639  0.62249111  1
  Ti  Ti52  1  0.14100632  0.37757016  0.12879069  1
  Ti  Ti53  1  0.62521634  0.86231910  0.13493412  1
  Ti  Ti54  1  0.63976935  0.62183508  0.86550101  1
  Ti  Ti55  1  0.61789940  0.12936601  0.61870542  1
  Ti  Ti56  1  0.37780103  0.37787863  0.11531939  1
  Ti  Ti57  1  0.38679400  0.86355180  0.13123716  1
  Ti  Ti58  1  0.85066418  0.12955177  0.63276998  1
  Ti  Ti59  1  0.37801025  0.62050921  0.62903606  1
  Ti  Ti60  1  0.37258702  0.13351778  0.87714097  1
  Ti  Ti61  1  0.11702765  0.62632143  0.88284881  1
  Ti  Ti62  1  0.88668258  0.38450980  0.88348218  1
  Ti  Ti63  1  0.86099748  0.61805563  0.61996443  1
  Ti  Ti64  1  0.63123602  0.12177605  0.12376549  1
  Ti  Ti65  1  0.12048236  0.87506819  0.87428491  1
  Ti  Ti66  1  0.12843767  0.62597160  0.12806347  1
  Ti  Ti67  1  0.62312279  0.12474711  0.86933031  1
  Ti  Ti68  1  0.88167901  0.62040892  0.86114968  1
  Ti  Ti69  1  0.38790865  0.10751956  0.12975882  1
  Ti  Ti70  1  0.12712383  0.12310966  0.63611336  1
  Ti  Ti71  1  0.62572330  0.61566308  0.35387901  1
  Ti  Ti72  1  0.36821286  0.38337111  0.37432981  1
  Ti  Ti73  1  0.12938410  0.88484253  0.62402428  1
  Bi  Bi74  1  0.50924431  0.49547814  0.21734495  1
  Bi  Bi75  1  0.76090568  0.48003483  0.48193515  1
  Bi  Bi76  1  -0.01346904  0.77670757  0.27782382  1
  Bi  Bi77  1  -0.00955343  0.73173382  0.02227060  1
  Bi  Bi78  1  0.26068153  0.74756629  -0.00129658  1
  Bi  Bi79  1  0.04523687  0.48902036  0.74785768  1
  Bi  Bi80  1  0.49870225  0.23970609  0.74451534  1
  Bi  Bi81  1  0.76258454  -0.04384934  0.47696559  1
  Bi  Bi82  1  0.77243199  0.77915738  0.26782675  1
  Bi  Bi83  1  0.25372338  -0.02528334  0.02672109  1
  Bi  Bi84  1  0.00418410  0.76336729  0.74189058  1
  Bi  Bi85  1  0.24476090  0.02402650  0.47520667  1
  Bi  Bi86  1  0.75202111  0.45899863  0.76322182  1
  Bi  Bi87  1  0.51126644  0.24074558  -0.01017822  1
  Bi  Bi88  1  0.24066395  0.71707614  0.50463713  1
  Bi  Bi89  1  0.75940493  0.24131489  -0.01804074  1
  Bi  Bi90  1  0.52683461  0.76081666  -0.01548122  1
  Bi  Bi91  1  0.77208067  0.71824705  0.00570867  1
  Bi  Bi92  1  0.52852566  0.23068599  0.26047437  1
  Bi  Bi93  1  0.02867921  0.02864556  0.02766399  1
  Bi  Bi94  1  0.22421344  0.29543007  0.72887883  1
  Bi  Bi95  1  0.26162580  0.77128668  0.73610615  1
  Bi  Bi96  1  0.01100365  0.49145254  0.25478678  1
  Bi  Bi97  1  0.78419780  0.25575603  0.24024285  1
  Bi  Bi98  1  0.26951812  0.51187541  -0.01671480  1
  Bi  Bi99  1  0.72928645  0.72067658  0.48739398  1
  Bi  Bi100  1  -0.04230886  0.75382954  0.51342668  1
  Bi  Bi101  1  0.22691891  0.25956383  0.50225886  1
  Bi  Bi102  1  -0.00161927  0.24092690  -0.01728612  1
  Bi  Bi103  1  0.76966967  0.76842217  0.73561679  1
  Bi  Bi104  1  0.25375805  0.00514013  0.77263322  1
  Bi  Bi105  1  0.74927875  0.25498193  0.48148484  1
  Bi  Bi106  1  0.52506283  0.51480839  -0.01647261  1
  Bi  Bi107  1  0.23434951  0.20077356  0.03295760  1
  Bi  Bi108  1  0.19770390  0.02623667  0.24174061  1
  Bi  Bi109  1  0.29329194  0.24507307  0.24845950  1
  Bi  Bi110  1  0.01975814  0.46426497  0.51618320  1
  Bi  Bi111  1  0.51921835  -0.00401118  -0.00550768  1
  Bi  Bi112  1  0.47235518  0.24802546  0.48935541  1
  Bi  Bi113  1  0.25918135  0.75847586  0.26682832  1
  Bi  Bi114  1  0.50749640  -0.00765699  0.71693398  1
  Bi  Bi115  1  -0.01336433  -0.00887089  0.44703600  1
  Bi  Bi116  1  -0.01345324  0.23918351  0.72804884  1
  Bi  Bi117  1  0.52479912  0.76412353  0.74297476  1
  Bi  Bi118  1  0.49648178  0.48823667  0.50174666  1
  Bi  Bi119  1  0.24999622  0.51823382  0.27225836  1
  Bi  Bi120  1  0.78552102  -0.00472010  0.24956717  1
  Bi  Bi121  1  -0.03212610  0.23954694  0.51208171  1
  Bi  Bi122  1  0.49340540  0.48020782  0.76191626  1
  Bi  Bi123  1  0.02323272  0.23334082  0.21008732  1
  Bi  Bi124  1  0.76160608  -0.00770645  0.75117440  1
  O  O125  1  0.14339033  0.09943060  -0.00306498  1
  O  O126  1  0.08350506  0.11018925  0.25694348  1
  O  O127  1  0.15956058  0.12966173  0.50675361  1
  O  O128  1  0.08938737  0.13116451  0.74881411  1
  O  O129  1  0.13436182  0.40202401  0.00962200  1
  O  O130  1  0.09566047  0.36972564  0.24467857  1
  O  O131  1  0.14926325  0.39968563  0.48738500  1
  O  O132  1  0.10505047  0.36035803  0.76853982  1
  O  O133  1  0.08715381  0.59585069  -0.00834837  1
  O  O134  1  0.15888343  0.63483933  0.23863874  1
  O  O135  1  0.12106604  0.63663855  0.50044502  1
  O  O136  1  0.14119723  0.60958104  0.74163154  1
  O  O137  1  0.15578316  0.87919625  -0.01191150  1
  O  O138  1  0.10994872  0.85399148  0.24157073  1
  O  O139  1  0.15693701  0.86381471  0.50516860  1
  O  O140  1  0.11314959  0.85447213  0.74663372  1
  O  O141  1  0.35110722  0.11597237  0.01073295  1
  O  O142  1  0.39434692  0.14792616  0.24854345  1
  O  O143  1  0.35054482  0.11576220  0.51010988  1
  O  O144  1  0.39800663  0.13671056  0.75878721  1
  O  O145  1  0.36273084  0.39509051  0.00495398  1
  O  O146  1  0.38975836  0.35071428  0.26275581  1
  O  O147  1  0.33693697  0.40684311  0.51275265  1
  O  O148  1  0.40784137  0.36918528  0.74627100  1
  O  O149  1  0.38127305  0.59857008  -0.00832482  1
  O  O150  1  0.34991359  0.63656935  0.24170865  1
  O  O151  1  0.41091352  0.63409567  0.49009893  1
  O  O152  1  0.34262927  0.62913513  0.74450938  1
  O  O153  1  0.34900611  0.87667145  -0.00608037  1
  O  O154  1  0.39999686  0.83571455  0.24172691  1
  O  O155  1  0.36163010  0.89510751  0.50095637  1
  O  O156  1  0.39622415  0.86187198  0.75258863  1
  O  O157  1  0.63574184  0.16036354  0.00829394  1
  O  O158  1  0.58930125  0.10136090  0.25709028  1
  O  O159  1  0.63355786  0.13865637  0.50471572  1
  O  O160  1  0.58924740  0.11939697  0.75817919  1
  O  O161  1  0.63204297  0.34774039  0.00833722  1
  O  O162  1  0.59784848  0.38915668  0.25555451  1
  O  O163  1  0.64771254  0.36920431  0.50122394  1
  O  O164  1  0.60512671  0.40020432  0.74274457  1
  O  O165  1  0.60821907  0.64199304  -0.00874231  1
  O  O166  1  0.64393657  0.58512181  0.24585952  1
  O  O167  1  0.60589743  0.66138539  0.50738134  1
  O  O168  1  0.63364549  0.60136793  0.74882202  1
  O  O169  1  0.63518401  0.84311117  0.00439439  1
  O  O170  1  0.58197092  0.88493954  0.24961394  1
  O  O171  1  0.66854075  0.86182886  0.50176074  1
  O  O172  1  0.59361281  0.88789985  0.75108133  1
  O  O173  1  0.81751434  0.10870709  -0.00143353  1
  O  O174  1  0.89244887  0.15784384  0.24310695  1
  O  O175  1  0.85130984  0.14467542  0.51313819  1
  O  O176  1  0.88170197  0.15280181  0.75700181  1
  O  O177  1  0.83350550  0.38981805  -0.00453289  1
  O  O178  1  0.88384335  0.36076309  0.23698779  1
  O  O179  1  0.84030829  0.36134623  0.49983593  1
  O  O180  1  0.88760453  0.39342671  0.76259956  1
  O  O181  1  0.88108330  0.62653721  -0.01324658  1
  O  O182  1  0.84738244  0.58311166  0.25167253  1
  O  O183  1  0.88225222  0.63624926  0.49764367  1
  O  O184  1  0.86227093  0.63732339  0.74388065  1
  O  O185  1  0.84258621  0.90927425  -0.00707526  1
  O  O186  1  0.88606531  0.85891319  0.24097471  1
  O  O187  1  0.87301181  0.88720370  0.50405661  1
  O  O188  1  0.89597026  0.84609442  0.75348647  1
  O  O189  1  -0.00814060  0.14134894  0.10070231  1
  O  O190  1  -0.00556389  0.13337989  0.41815236  1
  O  O191  1  0.00320344  0.15119396  0.61304880  1
  O  O192  1  -0.00441498  0.11132639  0.90785818  1
  O  O193  1  -0.00831377  0.35260884  0.09908842  1
  O  O194  1  0.00785392  0.37281999  0.39353685  1
  O  O195  1  -0.00381035  0.36370944  0.59871395  1
  O  O196  1  -0.00501571  0.40444377  0.91533847  1
  O  O197  1  0.00850161  0.65327419  0.13948123  1
  O  O198  1  -0.00627483  0.61861982  0.34433920  1
  O  O199  1  0.00293812  0.65924061  0.62592404  1
  O  O200  1  -0.00330331  0.60950564  0.84411267  1
  O  O201  1  0.00859498  0.85657582  0.09363161  1
  O  O202  1  0.01740242  0.85525940  0.38755080  1
  O  O203  1  0.01219818  0.84597894  0.61849613  1
  O  O204  1  0.00324380  0.89731751  0.88677905  1
  O  O205  1  0.25648459  0.12251707  0.15292881  1
  O  O206  1  0.25369554  0.09901349  0.35890385  1
  O  O207  1  0.24696782  0.11722031  0.65994151  1
  O  O208  1  0.25683938  0.12797508  0.85769439  1
  O  O209  1  0.24981921  0.38780714  0.15010932  1
  O  O210  1  0.25256727  0.39329441  0.35066607  1
  O  O211  1  0.26003121  0.41757407  0.67247011  1
  O  O212  1  0.24554615  0.35615622  0.87013159  1
  O  O213  1  0.24516811  0.61339863  0.08749659  1
  O  O214  1  0.26104838  0.59880493  0.38465010  1
  O  O215  1  0.26502331  0.59927096  0.58798617  1
  O  O216  1  0.23733679  0.63136741  0.89858856  1
  O  O217  1  0.25497977  0.88098956  0.13356384  1
  O  O218  1  0.24836960  0.89170208  0.34426383  1
  O  O219  1  0.25176926  0.88772688  0.65567098  1
  O  O220  1  0.25010851  0.87258529  0.84643099  1
  O  O221  1  0.50042169  0.13223602  0.11004317  1
  O  O222  1  0.50503053  0.15759846  0.38812652  1
  O  O223  1  0.49255627  0.13960893  0.62014953  1
  O  O224  1  0.49664128  0.11473892  0.91690983  1
  O  O225  1  0.49381526  0.37104598  0.12278021  1
  O  O226  1  0.49530102  0.36528245  0.41163591  1
  O  O227  1  0.49382615  0.37179353  0.59403317  1
  O  O228  1  0.49844725  0.41223456  0.88570229  1
  O  O229  1  0.49356696  0.62391032  0.13450812  1
  O  O230  1  0.50423251  0.66083665  0.34617204  1
  O  O231  1  0.49892283  0.64582073  0.64364495  1
  O  O232  1  0.49239065  0.60742182  0.86156717  1
  O  O233  1  0.49918705  0.86554697  0.09744978  1
  O  O234  1  0.50333959  0.83164122  0.40571545  1
  O  O235  1  0.49542211  0.89588297  0.60066684  1
  O  O236  1  0.49625192  0.88171476  0.90110317  1
  O  O237  1  0.74063920  0.11209375  0.15782374  1
  O  O238  1  0.73876770  0.09977990  0.36568148  1
  O  O239  1  0.73794799  0.14623528  0.65913674  1
  O  O240  1  0.73513194  0.15470176  0.85226474  1
  O  O241  1  0.74284037  0.40372190  0.14881347  1
  O  O242  1  0.73723148  0.41012871  0.36232220  1
  O  O243  1  0.74114573  0.38786116  0.64483995  1
  O  O244  1  0.74394292  0.34278390  0.83472881  1
  O  O245  1  0.75594681  0.59531809  0.09379279  1
  O  O246  1  0.74019059  0.60491088  0.39707077  1
  O  O247  1  0.74433671  0.61624142  0.60530163  1
  O  O248  1  0.75052009  0.64750611  0.87571896  1
  O  O249  1  0.74132774  0.89900898  0.14578533  1
  O  O250  1  0.74738996  0.89272854  0.35059995  1
  O  O251  1  0.75510132  0.88582524  0.66148950  1
  O  O252  1  0.75598839  0.87642927  0.84081935  1
  O  O253  1  0.12424466  -0.01658442  0.12302092  1
  O  O254  1  0.11587190  -0.00585453  0.39015016  1
  O  O255  1  0.11805276  -0.00147900  0.62186603  1
  O  O256  1  0.12846534  -0.00545825  0.84725488  1
  O  O257  1  0.13520020  0.25825731  0.12278701  1
  O  O258  1  0.14682914  0.25661266  0.38035921  1
  O  O259  1  0.14636680  0.24766837  0.62221798  1
  O  O260  1  0.11052753  0.25429799  0.90225480  1
  O  O261  1  0.09685269  0.50209200  0.13941124  1
  O  O262  1  0.12022633  0.50052363  0.34001056  1
  O  O263  1  0.11076351  0.50750361  0.61839178  1
  O  O264  1  0.14176323  0.49613644  0.85147045  1
  O  O265  1  0.14226222  0.74397425  0.09349194  1
  O  O266  1  0.15760342  0.74883536  0.37245224  1
  O  O267  1  0.16516040  0.74259262  0.62779523  1
  O  O268  1  0.10826137  0.74495919  0.88027372  1
  O  O269  1  0.38532565  -0.00769492  0.13349030  1
  O  O270  1  0.42526850  -0.01126963  0.36711529  1
  O  O271  1  0.37295336  0.00500017  0.64299409  1
  O  O272  1  0.36837136  -0.00239670  0.86393834  1
  O  O273  1  0.35137458  0.25573770  0.12126766  1
  O  O274  1  0.35901329  0.26265706  0.40666204  1
  O  O275  1  0.35022121  0.26179248  0.61880559  1
  O  O276  1  0.39792228  0.24652197  0.89137125  1
  O  O277  1  0.37904270  0.49928235  0.14333589  1
  O  O278  1  0.39646992  0.50259470  0.36070766  1
  O  O279  1  0.40333507  0.50815510  0.63210291  1
  O  O280  1  0.34088495  0.50612894  0.85377043  1
  O  O281  1  0.36299333  0.74424257  0.09924810  1
  O  O282  1  0.34496099  0.74344056  0.37602147  1
  O  O283  1  0.35477766  0.75662767  0.61836201  1
  O  O284  1  0.37254597  0.74443688  0.88436634  1
  O  O285  1  0.63033971  0.00730244  0.08541830  1
  O  O286  1  0.59501373  -0.00418926  0.40164332  1
  O  O287  1  0.62028058  0.01299585  0.62950083  1
  O  O288  1  0.62718688  0.00908425  0.90030922  1
  O  O289  1  0.63011311  0.24979056  0.15602401  1
  O  O290  1  0.63957559  0.25969597  0.35910445  1
  O  O291  1  0.61369699  0.25761348  0.64162757  1
  O  O292  1  0.58181417  0.24797604  0.86819973  1
  O  O293  1  0.60225777  0.49256001  0.11216953  1
  O  O294  1  0.59400626  0.50726413  0.39482963  1
  O  O295  1  0.60256485  0.50622803  0.59960254  1
  O  O296  1  0.63968427  0.50590199  0.89810800  1
  O  O297  1  0.63660016  0.75216068  0.15116133  1
  O  O298  1  0.65612043  0.74044358  0.35904470  1
  O  O299  1  0.63491073  0.74976723  0.65747261  1
  O  O300  1  0.60269944  0.74621416  0.85860245  1
  O  O301  1  0.88896912  0.00601144  0.14549602  1
  O  O302  1  0.90848137  0.01280160  0.33884504  1
  O  O303  1  0.86422741  0.01487741  0.64737857  1
  O  O304  1  0.87693134  -0.00366737  0.83569604  1
  O  O305  1  0.84030593  0.25796133  0.10361755  1
  O  O306  1  0.83797583  0.25467515  0.37351237  1
  O  O307  1  0.87377501  0.25454230  0.63787264  1
  O  O308  1  0.88755329  0.26045725  0.89546510  1
  O  O309  1  0.90918214  0.49508480  0.09812559  1
  O  O310  1  0.88067829  0.49609175  0.40243216  1
  O  O311  1  0.89151726  0.50847283  0.61632918  1
  O  O312  1  0.84758574  0.50737230  0.87938003  1
  O  O313  1  0.87033309  0.74854709  0.10006172  1
  O  O314  1  0.86511052  0.73375461  0.35885642  1
  O  O315  1  0.85946482  0.75187978  0.61328015  1
  O  O316  1  0.88031274  0.75890952  0.90025539  1
