# generated using pymatgen
data_Mg32Ti42(Bi17O64)3
_symmetry_space_group_name_H-M   'P 1'
_cell_length_a   15.94653054
_cell_length_b   15.93271358
_cell_length_c   15.91252247
_cell_angle_alpha   90.00772325
_cell_angle_beta   90.09093430
_cell_angle_gamma   89.98063730
_symmetry_Int_Tables_number   1
_chemical_formula_structural   Mg32Ti42(Bi17O64)3
_chemical_formula_sum   'Mg32 Ti42 Bi51 O192'
_cell_volume   4042.91315393
_cell_formula_units_Z   1
loop_
 _symmetry_equiv_pos_site_id
 _symmetry_equiv_pos_as_xyz
  1  'x, y, z'
loop_
 _atom_site_type_symbol
 _atom_site_label
 _atom_site_symmetry_multiplicity
 _atom_site_fract_x
 _atom_site_fract_y
 _atom_site_fract_z
 _atom_site_occupancy
  Mg  Mg0  1  0.37024960  0.62234550  0.12301056  1
  Mg  Mg1  1  0.63204757  0.11328496  0.12400337  1
  Mg  Mg2  1  0.38124134  0.62433139  0.62473493  1
  Mg  Mg3  1  0.88302070  0.12204536  0.37239224  1
  Mg  Mg4  1  0.86723920  0.62685543  0.62398008  1
  Mg  Mg5  1  0.11904470  0.64768874  0.62303265  1
  Mg  Mg6  1  0.88609203  0.37134186  0.13013772  1
  Mg  Mg7  1  0.62425121  0.63558714  0.12292115  1
  Mg  Mg8  1  0.37960783  0.87270688  0.62377442  1
  Mg  Mg9  1  0.88156954  0.12851750  0.63120431  1
  Mg  Mg10  1  0.88405541  0.37357303  0.63225536  1
  Mg  Mg11  1  0.11913924  0.12156282  0.37212406  1
  Mg  Mg12  1  0.36130764  0.38947452  0.88372728  1
  Mg  Mg13  1  0.36799586  0.36464362  0.11064024  1
  Mg  Mg14  1  0.87962336  0.37871816  0.36883098  1
  Mg  Mg15  1  0.88638870  0.87661593  0.86990110  1
  Mg  Mg16  1  0.13753631  0.36140712  0.89492191  1
  Mg  Mg17  1  0.13519244  0.11979717  0.63663620  1
  Mg  Mg18  1  0.62267570  0.37835512  0.38383524  1
  Mg  Mg19  1  0.75736342  0.01260363  0.02575896  1
  Mg  Mg20  1  0.27752044  0.18205339  -0.04008109  1
  Mg  Mg21  1  0.51274930  0.48667841  0.53288822  1
  Mg  Mg22  1  0.27215829  -0.01825362  -0.02096935  1
  Mg  Mg23  1  0.03627035  0.78172470  0.74628014  1
  Mg  Mg24  1  0.01351879  0.04211113  0.23509067  1
  Mg  Mg25  1  0.44888844  0.26380437  -0.03361810  1
  Mg  Mg26  1  0.00877675  0.24933114  0.27371778  1
  Mg  Mg27  1  0.01013782  0.05109338  0.77203473  1
  Mg  Mg28  1  0.01129151  0.46199756  0.23538114  1
  Mg  Mg29  1  -0.02086043  0.73228028  0.51240278  1
  Mg  Mg30  1  0.20557922  0.48751898  0.01261772  1
  Mg  Mg31  1  0.47445542  0.74844797  0.74150817  1
  Ti  Ti32  1  0.13093665  0.63238825  0.36862420  1
  Ti  Ti33  1  0.12845616  0.12990971  0.88243431  1
  Ti  Ti34  1  0.38904722  0.86542445  0.86572932  1
  Ti  Ti35  1  0.38550266  0.38272935  0.62167669  1
  Ti  Ti36  1  0.88526970  0.86832360  0.62769978  1
  Ti  Ti37  1  0.11451744  0.88268474  0.36960165  1
  Ti  Ti38  1  0.62693776  0.12430943  0.62859081  1
  Ti  Ti39  1  0.62859095  0.88774088  0.86723289  1
  Ti  Ti40  1  0.37255448  0.60744203  0.37360920  1
  Ti  Ti41  1  0.11714921  0.61654520  0.13346588  1
  Ti  Ti42  1  0.12080701  0.36326266  0.12374166  1
  Ti  Ti43  1  0.87790936  0.39132724  0.87411662  1
  Ti  Ti44  1  0.38581987  0.62338345  0.86604725  1
  Ti  Ti45  1  0.62946297  0.12669829  0.38328987  1
  Ti  Ti46  1  0.62110843  0.88502307  0.62987388  1
  Ti  Ti47  1  0.12043556  0.13135752  0.11449064  1
  Ti  Ti48  1  0.62211548  0.36132845  0.62362668  1
  Ti  Ti49  1  0.86493459  0.63268630  0.87506321  1
  Ti  Ti50  1  0.13159410  0.86395681  0.61793101  1
  Ti  Ti51  1  0.11768360  0.39009102  0.36994381  1
  Ti  Ti52  1  0.36667060  0.37301907  0.36350126  1
  Ti  Ti53  1  0.60494570  0.87029789  0.12254826  1
  Ti  Ti54  1  0.62046396  0.64518511  0.87304808  1
  Ti  Ti55  1  0.11549600  0.87391271  0.88533681  1
  Ti  Ti56  1  0.63482589  0.11701842  0.89389380  1
  Ti  Ti57  1  0.35755143  0.87905796  0.12040955  1
  Ti  Ti58  1  0.36417454  0.12859694  0.37146476  1
  Ti  Ti59  1  0.60881570  0.61056822  0.38438651  1
  Ti  Ti60  1  0.09937787  0.63117977  0.86868664  1
  Ti  Ti61  1  0.86970383  0.11780455  0.88365160  1
  Ti  Ti62  1  0.62181416  0.61642843  0.63383674  1
  Ti  Ti63  1  0.87716048  0.12628497  0.13416683  1
  Ti  Ti64  1  0.88095750  0.88154121  0.38565453  1
  Ti  Ti65  1  0.12487573  0.85904961  0.11960510  1
  Ti  Ti66  1  0.88015758  0.88113662  0.13932145  1
  Ti  Ti67  1  0.86704830  0.61625384  0.13261330  1
  Ti  Ti68  1  0.62681083  0.36210010  0.87785412  1
  Ti  Ti69  1  0.60066314  0.87394564  0.38361013  1
  Ti  Ti70  1  0.36750868  0.13693389  0.12508886  1
  Ti  Ti71  1  0.37097156  0.13220405  0.61724076  1
  Ti  Ti72  1  0.36998616  0.88650040  0.37021510  1
  Ti  Ti73  1  0.85036292  0.62587475  0.37415676  1
  Bi  Bi74  1  -0.00871901  0.00270414  0.01359166  1
  Bi  Bi75  1  0.51569445  0.47115059  0.75116818  1
  Bi  Bi76  1  -0.00316184  0.53995689  0.47888198  1
  Bi  Bi77  1  0.51311772  0.74761790  0.53127555  1
  Bi  Bi78  1  0.21751604  0.49805385  0.53567255  1
  Bi  Bi79  1  0.23763650  -0.00704182  0.77904916  1
  Bi  Bi80  1  0.54296325  0.26554359  0.22458763  1
  Bi  Bi81  1  0.01599713  0.22880810  0.49023549  1
  Bi  Bi82  1  0.72167212  0.46848486  0.21448096  1
  Bi  Bi83  1  -0.02027221  0.51240855  0.01259011  1
  Bi  Bi84  1  0.78501645  0.00296887  0.74875938  1
  Bi  Bi85  1  0.00865813  0.51636976  0.71122477  1
  Bi  Bi86  1  0.26718766  0.73395436  0.50842746  1
  Bi  Bi87  1  0.77257372  0.24417890  0.74405130  1
  Bi  Bi88  1  0.48937525  0.73030235  0.25070521  1
  Bi  Bi89  1  0.28236643  0.25630268  0.75903683  1
  Bi  Bi90  1  0.76723853  0.01314686  0.49956774  1
  Bi  Bi91  1  0.75721948  0.49241823  0.72699307  1
  Bi  Bi92  1  0.78686811  0.25654417  0.49541409  1
  Bi  Bi93  1  0.25342277  -0.01698034  0.50311930  1
  Bi  Bi94  1  0.47173304  0.74264592  0.01260052  1
  Bi  Bi95  1  0.72106228  0.51192149  -0.01592959  1
  Bi  Bi96  1  0.25492006  0.74664837  0.26582910  1
  Bi  Bi97  1  0.22482053  0.23625783  0.25200626  1
  Bi  Bi98  1  -0.02589623  0.75903481  0.01003246  1
  Bi  Bi99  1  0.47953339  0.01326187  0.74571327  1
  Bi  Bi100  1  0.22688717  0.28624490  0.51212951  1
  Bi  Bi101  1  0.74932593  0.77202101  0.50239097  1
  Bi  Bi102  1  0.01414108  0.01094419  0.54239650  1
  Bi  Bi103  1  0.05573801  0.28351033  0.72286430  1
  Bi  Bi104  1  -0.02227332  0.73814438  0.27444395  1
  Bi  Bi105  1  0.50033536  0.47979413  0.22545993  1
  Bi  Bi106  1  0.77893611  0.47843902  0.49692601  1
  Bi  Bi107  1  0.22117697  -0.00648299  0.24267051  1
  Bi  Bi108  1  0.71841676  0.00000956  0.25815691  1
  Bi  Bi109  1  0.75701458  0.75003517  0.73639701  1
  Bi  Bi110  1  0.71725533  0.74854631  0.26215919  1
  Bi  Bi111  1  0.49744993  0.02440879  0.50499551  1
  Bi  Bi112  1  0.25826362  0.73251962  0.75775641  1
  Bi  Bi113  1  -0.01471728  0.26258444  -0.02781556  1
  Bi  Bi114  1  0.74018665  0.79251717  -0.00065450  1
  Bi  Bi115  1  0.26108497  0.48524208  0.21834506  1
  Bi  Bi116  1  0.49392358  0.26785170  0.47091253  1
  Bi  Bi117  1  0.76480320  0.25694390  0.25737642  1
  Bi  Bi118  1  0.47259901  0.02474344  0.00756531  1
  Bi  Bi119  1  0.22856166  0.48770114  0.77855729  1
  Bi  Bi120  1  0.49462454  0.49364615  -0.00712515  1
  Bi  Bi121  1  0.24048568  0.70306426  -0.00831679  1
  Bi  Bi122  1  0.49042544  0.03316430  0.24294276  1
  Bi  Bi123  1  0.72474497  0.28654482  0.03179478  1
  Bi  Bi124  1  0.50993800  0.22601723  0.78050682  1
  O  O125  1  0.14648409  0.10319009  0.00786152  1
  O  O126  1  0.10441871  0.16510336  0.24639267  1
  O  O127  1  0.09979321  0.11230304  0.50097837  1
  O  O128  1  0.13053962  0.13365465  0.76511375  1
  O  O129  1  0.10274171  0.39409519  0.01284740  1
  O  O130  1  0.15805879  0.36972079  0.25589908  1
  O  O131  1  0.12485013  0.40443468  0.49280463  1
  O  O132  1  0.16805412  0.34925875  0.76959701  1
  O  O133  1  0.13958439  0.59742385  -0.01098710  1
  O  O134  1  0.10817267  0.65048919  0.24412529  1
  O  O135  1  0.13211009  0.60705276  0.48594381  1
  O  O136  1  0.09165078  0.66879680  0.75413690  1
  O  O137  1  0.10213973  0.89247779  -0.00114995  1
  O  O138  1  0.15444718  0.86584646  0.23534551  1
  O  O139  1  0.11286923  0.91033517  0.48136767  1
  O  O140  1  0.14714149  0.84214171  0.73011433  1
  O  O141  1  0.34863071  0.08510699  0.01219637  1
  O  O142  1  0.39966467  0.14701338  0.24759366  1
  O  O143  1  0.36685482  0.09932981  0.49144522  1
  O  O144  1  0.40647506  0.13328916  0.73751874  1
  O  O145  1  0.41418530  0.38393586  -0.00374488  1
  O  O146  1  0.34221713  0.36151243  0.25212895  1
  O  O147  1  0.41563380  0.38545749  0.50539107  1
  O  O148  1  0.35388605  0.37218495  0.75136631  1
  O  O149  1  0.39748848  0.61876211  -0.00615909  1
  O  O150  1  0.37211130  0.65249159  0.25005578  1
  O  O151  1  0.35250030  0.61511426  0.48858542  1
  O  O152  1  0.38066780  0.65654235  0.75022764  1
  O  O153  1  0.38701668  0.90773714  -0.01287784  1
  O  O154  1  0.34424511  0.86372582  0.23725638  1
  O  O155  1  0.37720898  0.91203498  0.48474789  1
  O  O156  1  0.36510848  0.83109639  0.74721428  1
  O  O157  1  0.65647210  0.09408914  0.00209887  1
  O  O158  1  0.62948809  0.11507096  0.25772920  1
  O  O159  1  0.64035287  0.09054142  0.50106744  1
  O  O160  1  0.60586068  0.12524812  0.74682084  1
  O  O161  1  0.62035099  0.36920410  -0.00533637  1
  O  O162  1  0.64930057  0.35137620  0.25964534  1
  O  O163  1  0.58858877  0.38203769  0.51155791  1
  O  O164  1  0.64177224  0.38624082  0.75199036  1
  O  O165  1  0.62303972  0.62873347  -0.00745108  1
  O  O166  1  0.61379433  0.65563974  0.25842203  1
  O  O167  1  0.59022177  0.59752826  0.50100299  1
  O  O168  1  0.63168969  0.61639204  0.75221986  1
  O  O169  1  0.61213869  0.86646822  0.00285815  1
  O  O170  1  0.63598031  0.85832021  0.25712125  1
  O  O171  1  0.58922539  0.88284279  0.50167947  1
  O  O172  1  0.65298353  0.87706978  0.74895230  1
  O  O173  1  0.86655585  0.07644175  -0.00049579  1
  O  O174  1  0.91134765  0.12383804  0.24425391  1
  O  O175  1  0.88048854  0.14430104  0.50404429  1
  O  O176  1  0.86377448  0.13864705  0.75859298  1
  O  O177  1  0.90999249  0.38053638  -0.00115953  1
  O  O178  1  0.83714529  0.37155801  0.24898872  1
  O  O179  1  0.87651033  0.37243499  0.50402283  1
  O  O180  1  0.84966782  0.36090853  0.76144277  1
  O  O181  1  0.86244663  0.58778063  0.00698904  1
  O  O182  1  0.88436750  0.63005690  0.25236784  1
  O  O183  1  0.87673363  0.63566184  0.49252625  1
  O  O184  1  0.86448878  0.65107002  0.76054195  1
  O  O185  1  0.91246265  0.88918720  -0.00138100  1
  O  O186  1  0.85754629  0.87580218  0.25112659  1
  O  O187  1  0.90602942  0.84486672  0.50303897  1
  O  O188  1  0.84055123  0.86060789  0.74685925  1
  O  O189  1  0.00356626  0.13881990  0.09976509  1
  O  O190  1  0.00035831  0.16691618  0.37347450  1
  O  O191  1  0.00326009  0.10158126  0.65169611  1
  O  O192  1  0.00346568  0.12983957  0.88561983  1
  O  O193  1  0.01100221  0.34675896  0.16862820  1
  O  O194  1  0.00584135  0.36310975  0.34122925  1
  O  O195  1  0.00653533  0.38882583  0.65646685  1
  O  O196  1  0.00194660  0.34230659  0.86236409  1
  O  O197  1  0.00513015  0.63900958  0.09864953  1
  O  O198  1  0.00766851  0.66029799  0.39424435  1
  O  O199  1  -0.00525375  0.61942728  0.60304681  1
  O  O200  1  -0.00904036  0.63713215  0.89922634  1
  O  O201  1  0.00979613  0.84062597  0.13506414  1
  O  O202  1  0.00139108  0.85681777  0.35317933  1
  O  O203  1  -0.00699881  0.86295127  0.65742128  1
  O  O204  1  0.00884171  0.83627286  0.85280374  1
  O  O205  1  0.25349666  0.12290899  0.15797173  1
  O  O206  1  0.24976469  0.12041905  0.35242321  1
  O  O207  1  0.26150263  0.10780546  0.63377431  1
  O  O208  1  0.24109967  0.07954335  0.88424957  1
  O  O209  1  0.24336000  0.40827609  0.10712802  1
  O  O210  1  0.25775429  0.38985412  0.40355365  1
  O  O211  1  0.26715564  0.38852729  0.60602846  1
  O  O212  1  0.24427978  0.43123553  0.90594864  1
  O  O213  1  0.24142521  0.59618690  0.11825192  1
  O  O214  1  0.24637528  0.61592592  0.34955438  1
  O  O215  1  0.24876234  0.66223177  0.63272460  1
  O  O216  1  0.26310950  0.61546729  0.85978863  1
  O  O217  1  0.24876355  0.91383415  0.09345114  1
  O  O218  1  0.24508777  0.91501550  0.37837154  1
  O  O219  1  0.24791932  0.86792156  0.58862379  1
  O  O220  1  0.24123454  0.89819613  0.88185008  1
  O  O221  1  0.49754309  0.12016649  0.11410589  1
  O  O222  1  0.50461111  0.12494629  0.39088193  1
  O  O223  1  0.50600826  0.13484358  0.59340096  1
  O  O224  1  0.51313806  0.16078404  0.90747561  1
  O  O225  1  0.49145252  0.36400956  0.15350986  1
  O  O226  1  0.49548896  0.34568913  0.35516885  1
  O  O227  1  0.50371260  0.35483067  0.66281603  1
  O  O228  1  0.50990363  0.34830309  0.86169405  1
  O  O229  1  0.49724794  0.66293472  0.12665948  1
  O  O230  1  0.48862205  0.64567142  0.37115648  1
  O  O231  1  0.50667941  0.66144458  0.64030162  1
  O  O232  1  0.50556286  0.66461576  0.85895087  1
  O  O233  1  0.49423486  0.84857488  0.12935904  1
  O  O234  1  0.48845630  0.86245099  0.35794108  1
  O  O235  1  0.50987035  0.83717849  0.64511645  1
  O  O236  1  0.50284661  0.85166678  0.84953973  1
  O  O237  1  0.76767539  0.08209712  0.13987006  1
  O  O238  1  0.75193316  0.09462995  0.37073597  1
  O  O239  1  0.74283895  0.10111371  0.63583013  1
  O  O240  1  0.75130505  0.09698750  0.86623868  1
  O  O241  1  0.76093244  0.40058788  0.10094853  1
  O  O242  1  0.74404806  0.38699755  0.40883874  1
  O  O243  1  0.73780878  0.40215222  0.61565958  1
  O  O244  1  0.75913056  0.39798838  0.89799168  1
  O  O245  1  0.75505149  0.60032097  0.13933598  1
  O  O246  1  0.73771883  0.61570717  0.37807258  1
  O  O247  1  0.73985803  0.59757586  0.62663185  1
  O  O248  1  0.74941748  0.60067542  0.87683250  1
  O  O249  1  0.77335966  0.90382179  0.09383207  1
  O  O250  1  0.76025434  0.88972955  0.40855369  1
  O  O251  1  0.73721736  0.88747131  0.58740601  1
  O  O252  1  0.74294996  0.90317965  0.90396381  1
  O  O253  1  0.11033709  0.01522315  0.15351738  1
  O  O254  1  0.10103106  0.00052218  0.32750931  1
  O  O255  1  0.12287634  -0.01393552  0.62535541  1
  O  O256  1  0.10112905  -0.01632304  0.83853273  1
  O  O257  1  0.15582775  0.25348267  0.11734992  1
  O  O258  1  0.13433978  0.26310693  0.40253001  1
  O  O259  1  0.13009051  0.24649565  0.60911461  1
  O  O260  1  0.16292303  0.23560697  0.90988185  1
  O  O261  1  0.10291773  0.50123113  0.15279163  1
  O  O262  1  0.09114474  0.50770451  0.34783755  1
  O  O263  1  0.13777168  0.52060559  0.64750191  1
  O  O264  1  0.10744844  0.51559877  0.83637157  1
  O  O265  1  0.15293800  0.74906275  0.10129521  1
  O  O266  1  0.14943463  0.75801470  0.37037759  1
  O  O267  1  0.09352808  0.76258168  0.57325720  1
  O  O268  1  0.14599307  0.74684845  0.89647064  1
  O  O269  1  0.40319427  -0.00663872  0.13601539  1
  O  O270  1  0.38438414  0.00669596  0.33926552  1
  O  O271  1  0.40312611  -0.00182344  0.63143542  1
  O  O272  1  0.37638548  -0.01862336  0.83101631  1
  O  O273  1  0.36460424  0.23798720  0.07153719  1
  O  O274  1  0.36498885  0.24833181  0.39657060  1
  O  O275  1  0.36313712  0.24959008  0.61547187  1
  O  O276  1  0.34600391  0.25728337  0.88577755  1
  O  O277  1  0.38739392  0.49910114  0.14674682  1
  O  O278  1  0.38692185  0.49625884  0.35645640  1
  O  O279  1  0.41574521  0.49838288  0.62970719  1
  O  O280  1  0.41444675  0.50915966  0.86837704  1
  O  O281  1  0.35446853  0.76136032  0.09103777  1
  O  O282  1  0.34043045  0.76765112  0.37761714  1
  O  O283  1  0.38062723  0.75488365  0.57830429  1
  O  O284  1  0.35926184  0.75284083  0.90011597  1
  O  O285  1  0.61784382  -0.01510970  0.14745664  1
  O  O286  1  0.61403615  -0.01141438  0.36221214  1
  O  O287  1  0.59713814  -0.00369465  0.63342680  1
  O  O288  1  0.59653721  0.00100082  0.87124402  1
  O  O289  1  0.64701422  0.23704608  0.12970849  1
  O  O290  1  0.63342364  0.23949361  0.39978109  1
  O  O291  1  0.64533551  0.24673939  0.62228766  1
  O  O292  1  0.65201222  0.24422000  0.87023790  1
  O  O293  1  0.60476774  0.50885325  0.14060855  1
  O  O294  1  0.60486956  0.50333991  0.35469609  1
  O  O295  1  0.59228111  0.49930385  0.63362058  1
  O  O296  1  0.60473495  0.49457343  0.88796748  1
  O  O297  1  0.66236959  0.76132460  0.12807777  1
  O  O298  1  0.64157869  0.75647387  0.39435237  1
  O  O299  1  0.64898738  0.74334924  0.60306740  1
  O  O300  1  0.65654005  0.75533670  0.87330290  1
  O  O301  1  0.92969794  -0.00924699  0.14100962  1
  O  O302  1  0.89642340  -0.00680988  0.39983785  1
  O  O303  1  0.86910427  -0.01236078  0.62688622  1
  O  O304  1  0.90140769  0.00203900  0.83239716  1
  O  O305  1  0.85026936  0.23886477  0.12420554  1
  O  O306  1  0.84973265  0.25109440  0.37068692  1
  O  O307  1  0.84847081  0.25295137  0.63040659  1
  O  O308  1  0.86542265  0.23377111  0.90882662  1
  O  O309  1  0.91853256  0.50063275  0.14330752  1
  O  O310  1  0.88372508  0.50897016  0.38469570  1
  O  O311  1  0.87512338  0.50037499  0.64883466  1
  O  O312  1  0.90022145  0.50040251  0.86033790  1
  O  O313  1  0.86910544  0.74639534  0.10605681  1
  O  O314  1  0.86412076  0.74952630  0.36287983  1
  O  O315  1  0.84212377  0.75198145  0.62315826  1
  O  O316  1  0.85822429  0.74539160  0.90933422  1
