# generated using pymatgen
data_Mg32Ti42(Bi17O64)3
_symmetry_space_group_name_H-M   'P 1'
_cell_length_a   15.94463283
_cell_length_b   15.94784884
_cell_length_c   15.93958659
_cell_angle_alpha   89.98285048
_cell_angle_beta   89.94483548
_cell_angle_gamma   89.93685652
_symmetry_Int_Tables_number   1
_chemical_formula_structural   Mg32Ti42(Bi17O64)3
_chemical_formula_sum   'Mg32 Ti42 Bi51 O192'
_cell_volume   4053.15490967
_cell_formula_units_Z   1
loop_
 _symmetry_equiv_pos_site_id
 _symmetry_equiv_pos_as_xyz
  1  'x, y, z'
loop_
 _atom_site_type_symbol
 _atom_site_label
 _atom_site_symmetry_multiplicity
 _atom_site_fract_x
 _atom_site_fract_y
 _atom_site_fract_z
 _atom_site_occupancy
  Mg  Mg0  1  0.37768849  0.37794471  0.61934422  1
  Mg  Mg1  1  0.12597999  0.38172783  0.37172963  1
  Mg  Mg2  1  0.62043728  0.12065148  0.14705385  1
  Mg  Mg3  1  0.87129851  0.87956631  0.87566949  1
  Mg  Mg4  1  0.88072350  0.11830824  0.88694687  1
  Mg  Mg5  1  0.87877402  0.13518273  0.14412568  1
  Mg  Mg6  1  0.62082459  0.12874583  0.87134294  1
  Mg  Mg7  1  0.36837295  0.87294086  0.38517582  1
  Mg  Mg8  1  0.11600004  0.13368331  0.63486843  1
  Mg  Mg9  1  0.62344206  0.37931979  0.12663074  1
  Mg  Mg10  1  0.87022936  0.89138898  0.37358796  1
  Mg  Mg11  1  0.11709797  0.61986434  0.87571908  1
  Mg  Mg12  1  0.12397245  0.87150759  0.13112044  1
  Mg  Mg13  1  0.87264028  0.37386625  0.36896857  1
  Mg  Mg14  1  0.87137899  0.87679176  0.13168581  1
  Mg  Mg15  1  0.38102474  0.38067963  0.12053554  1
  Mg  Mg16  1  0.38223807  0.61916077  0.87828447  1
  Mg  Mg17  1  0.12989966  0.86780538  0.62501910  1
  Mg  Mg18  1  0.62419683  0.13340512  0.61729518  1
  Mg  Mg19  1  0.53667030  0.30457114  0.50537667  1
  Mg  Mg20  1  0.00219863  0.25100621  0.42352245  1
  Mg  Mg21  1  0.50379642  0.25222024  0.06949566  1
  Mg  Mg22  1  0.80074213  0.44446685  0.77535014  1
  Mg  Mg23  1  0.77405296  0.03827510  0.25383713  1
  Mg  Mg24  1  0.29561643  0.77569915  0.19535623  1
  Mg  Mg25  1  0.75499846  0.78086809  0.01421182  1
  Mg  Mg26  1  0.79272284  0.24549983  0.80526453  1
  Mg  Mg27  1  0.25556997  0.72652666  0.80560950  1
  Mg  Mg28  1  0.20040467  0.72638151  0.48766366  1
  Mg  Mg29  1  0.54158344  0.46618816  0.00851319  1
  Mg  Mg30  1  0.06621041  0.22846772  0.25791354  1
  Mg  Mg31  1  0.17415045  0.23574346  0.48916936  1
  Ti  Ti32  1  0.35765416  0.63468145  0.36779710  1
  Ti  Ti33  1  0.13289126  0.36302409  0.12095729  1
  Ti  Ti34  1  0.61720056  0.61792880  0.87539182  1
  Ti  Ti35  1  0.13634685  0.12348240  0.12034040  1
  Ti  Ti36  1  0.36755835  0.87895825  0.86450968  1
  Ti  Ti37  1  0.63151295  0.89572947  0.36961823  1
  Ti  Ti38  1  0.87457261  0.13103700  0.37281141  1
  Ti  Ti39  1  0.63262636  0.38903701  0.62540244  1
  Ti  Ti40  1  0.13265565  0.12689083  0.88088336  1
  Ti  Ti41  1  0.37498516  0.13455543  0.13918625  1
  Ti  Ti42  1  0.37802919  0.12643154  0.61957334  1
  Ti  Ti43  1  0.86165896  0.37505964  0.13107568  1
  Ti  Ti44  1  0.62043896  0.62665665  0.38164400  1
  Ti  Ti45  1  0.38096152  0.11900417  0.39078375  1
  Ti  Ti46  1  0.62400059  0.63059671  0.11928089  1
  Ti  Ti47  1  0.62945501  0.38831103  0.37553363  1
  Ti  Ti48  1  0.88286252  0.61771469  0.36899203  1
  Ti  Ti49  1  0.13831802  0.37296885  0.88302734  1
  Ti  Ti50  1  0.12923003  0.87897300  0.87416895  1
  Ti  Ti51  1  0.11607353  0.62360583  0.36491918  1
  Ti  Ti52  1  0.36957815  0.38777388  0.37883538  1
  Ti  Ti53  1  0.38104121  0.11254192  0.86884459  1
  Ti  Ti54  1  0.63136416  0.86786044  0.12704080  1
  Ti  Ti55  1  0.13646021  0.36737779  0.62873516  1
  Ti  Ti56  1  0.61532704  0.12071937  0.38192312  1
  Ti  Ti57  1  0.86432297  0.36858051  0.62143251  1
  Ti  Ti58  1  0.63353741  0.86847201  0.63669963  1
  Ti  Ti59  1  0.11480784  0.62299093  0.62622575  1
  Ti  Ti60  1  0.12458122  0.86387553  0.37822490  1
  Ti  Ti61  1  0.63371828  0.37247229  0.86876920  1
  Ti  Ti62  1  0.87323459  0.88345885  0.63451684  1
  Ti  Ti63  1  0.36265782  0.87204719  0.62768239  1
  Ti  Ti64  1  0.34421819  0.63842275  0.62123601  1
  Ti  Ti65  1  0.88002409  0.63091178  0.87398711  1
  Ti  Ti66  1  0.87621018  0.14477468  0.61847132  1
  Ti  Ti67  1  0.11339051  0.62745375  0.12870281  1
  Ti  Ti68  1  0.63084895  0.63085244  0.63127805  1
  Ti  Ti69  1  0.38510902  0.37977664  0.87781380  1
  Ti  Ti70  1  0.86958970  0.62338986  0.64139779  1
  Ti  Ti71  1  0.62003842  0.87768691  0.89043944  1
  Ti  Ti72  1  0.87375304  0.63024225  0.11325074  1
  Ti  Ti73  1  0.38552810  0.61984096  0.11238750  1
  Bi  Bi74  1  0.73372404  0.25546332  0.23966270  1
  Bi  Bi75  1  0.50938546  0.25405878  0.72773621  1
  Bi  Bi76  1  0.27776497  -0.02812949  0.03527571  1
  Bi  Bi77  1  0.48947922  0.76021519  0.77299239  1
  Bi  Bi78  1  0.00177084  0.46575200  0.22433440  1
  Bi  Bi79  1  0.28805959  0.23371538  -0.00682795  1
  Bi  Bi80  1  0.25560337  0.51245429  -0.00618440  1
  Bi  Bi81  1  0.53608783  0.01321076  0.74532469  1
  Bi  Bi82  1  -0.02245318  0.78417377  0.00277295  1
  Bi  Bi83  1  -0.02942267  0.47759898  -0.03099446  1
  Bi  Bi84  1  0.76108400  0.04071476  0.76285687  1
  Bi  Bi85  1  0.75997585  0.52435124  0.49203581  1
  Bi  Bi86  1  0.77617065  0.76877780  0.50445038  1
  Bi  Bi87  1  0.49650505  0.26597085  0.28820500  1
  Bi  Bi88  1  -0.04223693  0.26443678  0.00186520  1
  Bi  Bi89  1  0.21222850  0.03825278  0.49145803  1
  Bi  Bi90  1  0.01606325  0.76824785  0.76613352  1
  Bi  Bi91  1  -0.01737561  0.77441502  0.26018876  1
  Bi  Bi92  1  0.74611892  0.25418971  0.48107195  1
  Bi  Bi93  1  0.27367294  0.26446174  0.75080244  1
  Bi  Bi94  1  0.77770766  0.01468568  0.03912792  1
  Bi  Bi95  1  0.25492104  -0.03507080  0.26006220  1
  Bi  Bi96  1  -0.00940195  0.48049321  0.73125324  1
  Bi  Bi97  1  0.00509881  0.76308220  0.51616400  1
  Bi  Bi98  1  0.75253815  0.75706743  0.27716546  1
  Bi  Bi99  1  0.25146639  0.23739570  0.30047509  1
  Bi  Bi100  1  0.23645773  0.48715773  0.49802734  1
  Bi  Bi101  1  0.75976316  0.52268911  0.23289532  1
  Bi  Bi102  1  0.70515467  0.23532529  -0.00173949  1
  Bi  Bi103  1  0.03582055  0.02557004  0.28099286  1
  Bi  Bi104  1  0.00906005  0.01319423  0.76814267  1
  Bi  Bi105  1  0.51776580  0.02556241  0.02229366  1
  Bi  Bi106  1  0.46991663  0.78460506  0.02761928  1
  Bi  Bi107  1  0.24385170  0.50590190  0.22279386  1
  Bi  Bi108  1  0.73461606  0.74866445  0.79214388  1
  Bi  Bi109  1  0.49944764  0.73995824  0.27671986  1
  Bi  Bi110  1  0.74926647  0.02291911  0.51386334  1
  Bi  Bi111  1  0.74488676  0.51560395  -0.02740050  1
  Bi  Bi112  1  0.48162453  0.52218008  0.52656590  1
  Bi  Bi113  1  0.50162340  -0.01356324  0.52025722  1
  Bi  Bi114  1  -0.00194702  0.26250142  0.78585171  1
  Bi  Bi115  1  0.24837052  0.01628158  0.71683933  1
  Bi  Bi116  1  0.00202535  0.02383249  0.03591156  1
  Bi  Bi117  1  0.00910624  0.01561037  0.52546296  1
  Bi  Bi118  1  -0.00699402  0.48115150  0.49555285  1
  Bi  Bi119  1  0.47278383  -0.04061170  0.23199042  1
  Bi  Bi120  1  0.48106878  0.75427535  0.50958885  1
  Bi  Bi121  1  0.49660622  0.48686976  0.76297586  1
  Bi  Bi122  1  0.24635186  0.51807297  0.76522403  1
  Bi  Bi123  1  0.50285651  0.49341667  0.24232673  1
  Bi  Bi124  1  0.21919330  0.74128850  0.00423590  1
  O  O125  1  0.09493932  0.13277496  -0.00269084  1
  O  O126  1  0.13999039  0.11700054  0.24281459  1
  O  O127  1  0.10649763  0.12713104  0.50641836  1
  O  O128  1  0.13820218  0.09932603  0.75463399  1
  O  O129  1  0.15510043  0.36323342  -0.00112995  1
  O  O130  1  0.09765499  0.36570284  0.24342303  1
  O  O131  1  0.16354110  0.36881325  0.50401404  1
  O  O132  1  0.10290374  0.37971782  0.74614328  1
  O  O133  1  0.12498065  0.63405005  0.00873436  1
  O  O134  1  0.14072006  0.61280582  0.25171328  1
  O  O135  1  0.09755942  0.64821128  0.49497572  1
  O  O136  1  0.14134123  0.61549711  0.73905281  1
  O  O137  1  0.13264721  0.85162519  -0.00272134  1
  O  O138  1  0.12673505  0.90755736  0.25573903  1
  O  O139  1  0.13269963  0.83434749  0.49641644  1
  O  O140  1  0.10222087  0.87867692  0.75212101  1
  O  O141  1  0.38819880  0.13686471  -0.01308103  1
  O  O142  1  0.35730461  0.13089530  0.25135869  1
  O  O143  1  0.39997427  0.12356767  0.50431401  1
  O  O144  1  0.34787750  0.11615134  0.74868337  1
  O  O145  1  0.34975227  0.39071113  -0.01284511  1
  O  O146  1  0.41699201  0.37284813  0.25335461  1
  O  O147  1  0.35825177  0.38691916  0.49228192  1
  O  O148  1  0.41409124  0.36507936  0.74719212  1
  O  O149  1  0.38266053  0.58429662  0.00162098  1
  O  O150  1  0.35484188  0.66656717  0.25078557  1
  O  O151  1  0.39508734  0.63758093  0.49720954  1
  O  O152  1  0.32399306  0.63735608  0.73696835  1
  O  O153  1  0.37338576  0.87652653  -0.01137269  1
  O  O154  1  0.36381254  0.87349659  0.25504761  1
  O  O155  1  0.39403795  0.86584435  0.50703739  1
  O  O156  1  0.39278818  0.87121941  0.74625843  1
  O  O157  1  0.62227435  0.11574432  -0.00002673  1
  O  O158  1  0.63859589  0.15785010  0.26762304  1
  O  O159  1  0.61487530  0.07888753  0.49834084  1
  O  O160  1  0.62629580  0.12045176  0.74427110  1
  O  O161  1  0.65127601  0.39500522  -0.01233112  1
  O  O162  1  0.60703518  0.35624551  0.25869529  1
  O  O163  1  0.64507518  0.38168176  0.49790852  1
  O  O164  1  0.59477419  0.36884626  0.74429770  1
  O  O165  1  0.60797404  0.58336761  -0.01102785  1
  O  O166  1  0.64112057  0.64021634  0.23401429  1
  O  O167  1  0.60629764  0.60611451  0.49343800  1
  O  O168  1  0.64808043  0.64332583  0.74417921  1
  O  O169  1  0.58968903  0.89092762  0.00176289  1
  O  O170  1  0.64715914  0.85288082  0.24039400  1
  O  O171  1  0.61734984  0.90192437  0.48546256  1
  O  O172  1  0.62783129  0.84740180  0.75088479  1
  O  O173  1  0.89117831  0.11051343  0.01116737  1
  O  O174  1  0.83351076  0.15349269  0.26364529  1
  O  O175  1  0.89057038  0.09871694  0.50071962  1
  O  O176  1  0.84479642  0.15371945  0.73318320  1
  O  O177  1  0.87579608  0.38557799  0.00487077  1
  O  O178  1  0.90308873  0.36151508  0.24097137  1
  O  O179  1  0.86395401  0.41513714  0.50964794  1
  O  O180  1  0.89500943  0.35993366  0.74140051  1
  O  O181  1  0.88567449  0.59595601  -0.00008133  1
  O  O182  1  0.84946937  0.63666675  0.24226612  1
  O  O183  1  0.88270194  0.59020444  0.48891942  1
  O  O184  1  0.85811929  0.64878024  0.75242764  1
  O  O185  1  0.89452573  0.89257200  0.00331382  1
  O  O186  1  0.85921618  0.84220007  0.25100723  1
  O  O187  1  0.86072144  0.87719716  0.50174941  1
  O  O188  1  0.88504282  0.84846860  0.74575385  1
  O  O189  1  0.00651992  0.11305463  0.14487100  1
  O  O190  1  -0.01139029  0.15427901  0.34004543  1
  O  O191  1  -0.01072701  0.10115606  0.64355900  1
  O  O192  1  0.00413355  0.12525089  0.84850932  1
  O  O193  1  0.00861480  0.39218403  0.10088579  1
  O  O194  1  -0.00144281  0.37765495  0.40400964  1
  O  O195  1  0.00554656  0.40404818  0.61329500  1
  O  O196  1  0.01507216  0.36008099  0.89201512  1
  O  O197  1  -0.00268612  0.64048195  0.13362697  1
  O  O198  1  -0.00287731  0.60360385  0.35037382  1
  O  O199  1  -0.00533098  0.59332022  0.63706856  1
  O  O200  1  -0.00680449  0.61618504  0.85919890  1
  O  O201  1  -0.00052413  0.84937689  0.13998525  1
  O  O202  1  -0.00375356  0.87148481  0.35678090  1
  O  O203  1  -0.00881042  0.88581464  0.60608722  1
  O  O204  1  0.00569940  0.85563523  0.88019209  1
  O  O205  1  0.25428904  0.13142402  0.09812296  1
  O  O206  1  0.25951047  0.15935494  0.41470578  1
  O  O207  1  0.25263782  0.11898955  0.61397727  1
  O  O208  1  0.24753478  0.12727961  0.89607470  1
  O  O209  1  0.24803032  0.38887391  0.14303148  1
  O  O210  1  0.25776509  0.37195012  0.34586085  1
  O  O211  1  0.25345014  0.37098452  0.65747434  1
  O  O212  1  0.25523040  0.37248875  0.84168766  1
  O  O213  1  0.25779549  0.59247761  0.11483611  1
  O  O214  1  0.24754379  0.64980547  0.39658546  1
  O  O215  1  0.23703030  0.65887581  0.58784613  1
  O  O216  1  0.25102836  0.61103673  0.88378829  1
  O  O217  1  0.25179443  0.88605767  0.13668004  1
  O  O218  1  0.24166916  0.87340133  0.36802401  1
  O  O219  1  0.25450451  0.85438234  0.63671867  1
  O  O220  1  0.25043066  0.86548046  0.85624530  1
  O  O221  1  0.49569907  0.13549389  0.12542617  1
  O  O222  1  0.49969352  0.10730375  0.36348478  1
  O  O223  1  0.49628845  0.09337423  0.63583669  1
  O  O224  1  0.49415855  0.11147298  0.84832653  1
  O  O225  1  0.50256846  0.37461349  0.08516462  1
  O  O226  1  0.50680637  0.36844408  0.39526307  1
  O  O227  1  0.50620456  0.39621414  0.59534225  1
  O  O228  1  0.50247793  0.41225635  0.89103388  1
  O  O229  1  0.50030145  0.65194920  0.12497032  1
  O  O230  1  0.50292724  0.61262001  0.34101207  1
  O  O231  1  0.51453927  0.60056837  0.63540032  1
  O  O232  1  0.50333674  0.61406773  0.84181977  1
  O  O233  1  0.50302430  0.85037144  0.14494995  1
  O  O234  1  0.51133903  0.88930567  0.34628408  1
  O  O235  1  0.51443117  0.88888215  0.62180786  1
  O  O236  1  0.49796550  0.86302996  0.86749050  1
  O  O237  1  0.74252545  0.10205502  0.13736731  1
  O  O238  1  0.74697967  0.13242264  0.41116261  1
  O  O239  1  0.75269167  0.13737433  0.59130980  1
  O  O240  1  0.75115774  0.14154482  0.87194229  1
  O  O241  1  0.74952359  0.39006191  0.15011752  1
  O  O242  1  0.74152970  0.33924011  0.36030843  1
  O  O243  1  0.75095374  0.35450863  0.63843296  1
  O  O244  1  0.74157463  0.35279332  0.83577623  1
  O  O245  1  0.74670865  0.60016106  0.10194493  1
  O  O246  1  0.74206023  0.63116270  0.38882577  1
  O  O247  1  0.75635465  0.62430218  0.59780194  1
  O  O248  1  0.74602722  0.63769713  0.89193690  1
  O  O249  1  0.74318657  0.88439158  0.09402913  1
  O  O250  1  0.74421928  0.85050720  0.38145144  1
  O  O251  1  0.75290088  0.84673276  0.62178458  1
  O  O252  1  0.73815924  0.84885335  0.90419338  1
  O  O253  1  0.13324237  0.00520733  0.10337494  1
  O  O254  1  0.10652091  -0.01140399  0.40321543  1
  O  O255  1  0.13562853  -0.00500620  0.60603328  1
  O  O256  1  0.11238974  -0.00528514  0.88390739  1
  O  O257  1  0.12041824  0.24744099  0.13544909  1
  O  O258  1  0.12113911  0.25578899  0.37368067  1
  O  O259  1  0.12680985  0.25549347  0.61797224  1
  O  O260  1  0.13168748  0.24531132  0.85539650  1
  O  O261  1  0.12388813  0.50218827  0.13772980  1
  O  O262  1  0.13868089  0.50805806  0.39459903  1
  O  O263  1  0.14679008  0.50568319  0.60474609  1
  O  O264  1  0.13490706  0.48990313  0.88019661  1
  O  O265  1  0.16681137  0.73971775  0.13547698  1
  O  O266  1  0.10850412  0.74659112  0.35610935  1
  O  O267  1  0.08341347  0.74302785  0.63276091  1
  O  O268  1  0.13758912  0.74550400  0.85528454  1
  O  O269  1  0.38233677  0.01323487  0.11484555  1
  O  O270  1  0.35539955  0.00764223  0.37954261  1
  O  O271  1  0.36073187  -0.00760766  0.62139460  1
  O  O272  1  0.36613957  -0.00298268  0.87435715  1
  O  O273  1  0.37826535  0.25192330  0.10780618  1
  O  O274  1  0.38073817  0.25463428  0.36754548  1
  O  O275  1  0.38853554  0.24182011  0.63992450  1
  O  O276  1  0.36998416  0.25487022  0.86693516  1
  O  O277  1  0.39065573  0.50883974  0.16108456  1
  O  O278  1  0.36408288  0.51033044  0.36527224  1
  O  O279  1  0.36433243  0.51820540  0.61509110  1
  O  O280  1  0.37086362  0.49622147  0.83874224  1
  O  O281  1  0.35401675  0.73557382  0.09174501  1
  O  O282  1  0.40687321  0.74942873  0.38229347  1
  O  O283  1  0.40298887  0.74510636  0.62800552  1
  O  O284  1  0.37393872  0.74704075  0.86294545  1
  O  O285  1  0.59452344  -0.00915489  0.13471240  1
  O  O286  1  0.66131146  0.00307440  0.33780355  1
  O  O287  1  0.65078818  -0.01377593  0.64310267  1
  O  O288  1  0.63079180  -0.01168141  0.85970329  1
  O  O289  1  0.62689421  0.25087007  0.10986355  1
  O  O290  1  0.60755524  0.23430798  0.41971541  1
  O  O291  1  0.58904012  0.25495041  0.61086808  1
  O  O292  1  0.60973629  0.25796228  0.89642056  1
  O  O293  1  0.59846121  0.50705617  0.13378512  1
  O  O294  1  0.63796571  0.49848581  0.35569255  1
  O  O295  1  0.64834805  0.49875961  0.63065502  1
  O  O296  1  0.65093501  0.50000127  0.85087505  1
  O  O297  1  0.64537078  0.74835454  0.08464704  1
  O  O298  1  0.60528785  0.74380810  0.37559730  1
  O  O299  1  0.61940188  0.74453730  0.60331040  1
  O  O300  1  0.61312061  0.74026631  0.87539011  1
  O  O301  1  0.86618647  0.00159818  0.14436658  1
  O  O302  1  0.86314117  0.01434519  0.34620857  1
  O  O303  1  0.84826631  -0.00380752  0.64222095  1
  O  O304  1  0.87473500  0.00232171  0.84175626  1
  O  O305  1  0.85869842  0.25692206  0.10462862  1
  O  O306  1  0.87538385  0.24920062  0.41316027  1
  O  O307  1  0.89402684  0.25556858  0.59799650  1
  O  O308  1  0.89234023  0.24475220  0.88260420  1
  O  O309  1  0.87771635  0.50127414  0.14579281  1
  O  O310  1  0.84452339  0.49961692  0.34994251  1
  O  O311  1  0.85862193  0.49591540  0.66726382  1
  O  O312  1  0.86253452  0.50392373  0.86778150  1
  O  O313  1  0.85361409  0.74254746  0.08925294  1
  O  O314  1  0.87718844  0.73413442  0.38589235  1
  O  O315  1  0.88759583  0.73422657  0.60133244  1
  O  O316  1  0.87640734  0.74490093  0.90498965  1
