# generated using pymatgen
data_Mg32Ti42(Bi17O64)3
_symmetry_space_group_name_H-M   'P 1'
_cell_length_a   15.92594668
_cell_length_b   15.90511156
_cell_length_c   15.94674787
_cell_angle_alpha   89.88869582
_cell_angle_beta   90.04361827
_cell_angle_gamma   90.11404075
_symmetry_Int_Tables_number   1
_chemical_formula_structural   Mg32Ti42(Bi17O64)3
_chemical_formula_sum   'Mg32 Ti42 Bi51 O192'
_cell_volume   4039.35758041
_cell_formula_units_Z   1
loop_
 _symmetry_equiv_pos_site_id
 _symmetry_equiv_pos_as_xyz
  1  'x, y, z'
loop_
 _atom_site_type_symbol
 _atom_site_label
 _atom_site_symmetry_multiplicity
 _atom_site_fract_x
 _atom_site_fract_y
 _atom_site_fract_z
 _atom_site_occupancy
  Mg  Mg0  1  0.11651300  0.37386722  0.61816336  1
  Mg  Mg1  1  0.36927515  0.62742574  0.62608128  1
  Mg  Mg2  1  0.38572611  0.37825321  0.62668336  1
  Mg  Mg3  1  0.61997448  0.11825100  0.36606285  1
  Mg  Mg4  1  0.12506332  0.10272365  0.10828041  1
  Mg  Mg5  1  0.37461493  0.37584781  0.36908078  1
  Mg  Mg6  1  0.37702278  0.11815005  0.12412890  1
  Mg  Mg7  1  0.37059843  0.87133112  0.37869996  1
  Mg  Mg8  1  0.37071742  0.12619590  0.63039448  1
  Mg  Mg9  1  0.13439717  0.12803634  0.87232911  1
  Mg  Mg10  1  0.37695277  0.87500514  0.11965022  1
  Mg  Mg11  1  0.62271750  0.62396985  0.86412918  1
  Mg  Mg12  1  0.63693006  0.37872036  0.38743926  1
  Mg  Mg13  1  0.12974626  0.63677173  0.88194452  1
  Mg  Mg14  1  0.37646453  0.62654498  0.11469819  1
  Mg  Mg15  1  0.11994945  0.62407004  0.12240281  1
  Mg  Mg16  1  0.62409928  0.62449822  0.38319780  1
  Mg  Mg17  1  0.12312742  0.11305424  0.38074288  1
  Mg  Mg18  1  0.88149140  0.87192550  0.10642910  1
  Mg  Mg19  1  0.54184337  0.26884631  0.28323794  1
  Mg  Mg20  1  0.37066412  0.86566970  -0.13193183  1
  Mg  Mg21  1  -0.00626865  0.73219317  0.00411053  1
  Mg  Mg22  1  0.48277061  0.51139222  0.74996749  1
  Mg  Mg23  1  0.05336896  0.22818764  0.00195238  1
  Mg  Mg24  1  -0.05916152  0.04443064  0.02239550  1
  Mg  Mg25  1  0.73114631  0.22330484  0.45507789  1
  Mg  Mg26  1  0.49533215  -0.02921641  -0.05794208  1
  Mg  Mg27  1  0.75846808  0.75253352  0.72781445  1
  Mg  Mg28  1  0.71438488  0.52932399  0.52196690  1
  Mg  Mg29  1  0.30877293  -0.01933155  -0.01105959  1
  Mg  Mg30  1  0.24549161  -0.03743673  0.48042775  1
  Mg  Mg31  1  -0.01051219  0.46602876  0.45998566  1
  Ti  Ti32  1  0.62936743  0.14902038  0.61504888  1
  Ti  Ti33  1  0.62824438  0.87450325  0.62515006  1
  Ti  Ti34  1  0.13348697  0.36128442  0.88031863  1
  Ti  Ti35  1  0.63179303  0.36871861  0.12394238  1
  Ti  Ti36  1  0.86794630  0.87193111  0.38619286  1
  Ti  Ti37  1  0.12134224  0.87283826  0.89165278  1
  Ti  Ti38  1  0.87575481  0.38067116  0.61492507  1
  Ti  Ti39  1  0.86792356  0.60886600  0.37912941  1
  Ti  Ti40  1  0.87901297  0.38217652  0.88464376  1
  Ti  Ti41  1  0.86853850  0.36083480  0.36229301  1
  Ti  Ti42  1  0.61903119  0.13363477  0.88471276  1
  Ti  Ti43  1  0.88543544  0.86977776  0.87597746  1
  Ti  Ti44  1  0.11740878  0.61917197  0.37146105  1
  Ti  Ti45  1  0.36106677  0.12135347  0.36698343  1
  Ti  Ti46  1  0.36075494  0.87933909  0.62602597  1
  Ti  Ti47  1  0.11729446  0.36675674  0.37673231  1
  Ti  Ti48  1  0.38053081  0.62514707  0.37858218  1
  Ti  Ti49  1  0.63508498  0.38536873  0.62728952  1
  Ti  Ti50  1  0.87034800  0.88153628  0.62700618  1
  Ti  Ti51  1  0.62336824  0.62663013  0.64022063  1
  Ti  Ti52  1  0.86939802  0.14165671  0.61455092  1
  Ti  Ti53  1  0.88207379  0.62006281  0.11828073  1
  Ti  Ti54  1  0.13077493  0.12354851  0.62411887  1
  Ti  Ti55  1  0.61208300  0.12429071  0.12483827  1
  Ti  Ti56  1  0.87591935  0.12456107  0.38325264  1
  Ti  Ti57  1  0.11352834  0.88433337  0.62824418  1
  Ti  Ti58  1  0.12955951  0.86921803  0.11062760  1
  Ti  Ti59  1  0.87251884  0.38336617  0.12147424  1
  Ti  Ti60  1  0.13194568  0.87426585  0.36987552  1
  Ti  Ti61  1  0.37188542  0.12240859  0.87285592  1
  Ti  Ti62  1  0.87065516  0.14028007  0.86940943  1
  Ti  Ti63  1  0.62150243  0.87114955  0.36860898  1
  Ti  Ti64  1  0.62130114  0.88954473  0.11839618  1
  Ti  Ti65  1  0.12296072  0.61853188  0.62901955  1
  Ti  Ti66  1  0.88255451  0.63604940  0.87620130  1
  Ti  Ti67  1  0.12621712  0.37763354  0.11589021  1
  Ti  Ti68  1  0.62256900  0.37920327  0.87979691  1
  Ti  Ti69  1  0.63376973  0.86668171  0.85645099  1
  Ti  Ti70  1  0.38792787  0.62484033  0.87466419  1
  Ti  Ti71  1  0.88589225  0.61832807  0.60905663  1
  Ti  Ti72  1  0.38759497  0.37756317  0.87814679  1
  Ti  Ti73  1  0.37386090  0.37345529  0.13311377  1
  Bi  Bi74  1  0.73748992  0.24143268  0.25418483  1
  Bi  Bi75  1  0.73009112  -0.00603043  0.48351945  1
  Bi  Bi76  1  0.02035458  0.51615498  -0.01363003  1
  Bi  Bi77  1  0.75485564  0.74774423  0.23296828  1
  Bi  Bi78  1  0.26675136  0.50020031  0.73649001  1
  Bi  Bi79  1  0.26017878  0.51226027  0.21855485  1
  Bi  Bi80  1  0.00530369  0.25046395  0.74287986  1
  Bi  Bi81  1  0.76465156  0.22026794  0.02793981  1
  Bi  Bi82  1  0.26414734  0.26726217  0.72980328  1
  Bi  Bi83  1  -0.02045762  0.20741621  0.19949753  1
  Bi  Bi84  1  0.22076576  0.74283599  0.49526296  1
  Bi  Bi85  1  0.46489215  0.01849816  0.49694128  1
  Bi  Bi86  1  0.00626766  -0.00812276  0.49128184  1
  Bi  Bi87  1  0.48455639  -0.01763796  0.25539996  1
  Bi  Bi88  1  0.20148909  0.22437597  0.24555650  1
  Bi  Bi89  1  0.74078862  0.51297760  -0.01948053  1
  Bi  Bi90  1  0.51109944  0.49508314  0.26348793  1
  Bi  Bi91  1  -0.01661390  0.75067172  0.73034871  1
  Bi  Bi92  1  0.25452707  0.49976956  0.48889340  1
  Bi  Bi93  1  -0.01386587  -0.02292809  0.24473023  1
  Bi  Bi94  1  0.51522112  0.73161621  0.21632707  1
  Bi  Bi95  1  0.78152053  0.02049430  0.21666205  1
  Bi  Bi96  1  0.74864661  0.03142020  0.74601267  1
  Bi  Bi97  1  0.49758252  0.77417068  -0.00880144  1
  Bi  Bi98  1  0.25394071  0.51762357  -0.01883471  1
  Bi  Bi99  1  0.48944672  0.24743216  0.46392038  1
  Bi  Bi100  1  0.75659180  -0.01737534  -0.02973077  1
  Bi  Bi101  1  0.49100991  0.75539912  0.74148246  1
  Bi  Bi102  1  0.27322471  0.26536828  0.49538514  1
  Bi  Bi103  1  0.51088197  0.01807231  0.72527781  1
  Bi  Bi104  1  0.22028610  0.74311483  0.74657843  1
  Bi  Bi105  1  0.72595108  0.53020112  0.23356172  1
  Bi  Bi106  1  0.75228362  0.28002002  0.75980984  1
  Bi  Bi107  1  0.49092341  0.26138730  0.02705322  1
  Bi  Bi108  1  0.25949572  0.22767686  0.02005824  1
  Bi  Bi109  1  -0.00266701  0.74575078  0.22575475  1
  Bi  Bi110  1  0.71769333  0.73891930  0.00361125  1
  Bi  Bi111  1  0.01951344  0.23509114  0.49857635  1
  Bi  Bi112  1  0.73339026  0.74325361  0.50327805  1
  Bi  Bi113  1  0.01316606  0.48349453  0.25276614  1
  Bi  Bi114  1  0.76954403  0.51695361  0.74950790  1
  Bi  Bi115  1  0.48141245  0.75240101  0.49700300  1
  Bi  Bi116  1  0.24708120  -0.01642259  0.78011093  1
  Bi  Bi117  1  0.25654776  0.74284761  0.21016174  1
  Bi  Bi118  1  0.00214700  0.01708209  0.78093477  1
  Bi  Bi119  1  0.02833341  0.48796883  0.75002793  1
  Bi  Bi120  1  0.49512468  0.24479443  0.75520663  1
  Bi  Bi121  1  -0.00420041  0.74065095  0.47793234  1
  Bi  Bi122  1  0.52079549  0.52970559  0.03668592  1
  Bi  Bi123  1  0.25830270  -0.00042660  0.22032540  1
  Bi  Bi124  1  0.50380963  0.49898198  0.51897095  1
  O  O125  1  0.14858916  0.14821597  -0.00611801  1
  O  O126  1  0.10609613  0.12134784  0.24590308  1
  O  O127  1  0.13188821  0.15166238  0.50769142  1
  O  O128  1  0.08608755  0.12650618  0.74396024  1
  O  O129  1  0.09741120  0.35110483  0.00340864  1
  O  O130  1  0.13032599  0.40020909  0.25461781  1
  O  O131  1  0.08562818  0.36768827  0.49494936  1
  O  O132  1  0.13121813  0.38335595  0.75990597  1
  O  O133  1  0.08274261  0.64060444  0.00141052  1
  O  O134  1  0.14115570  0.60148408  0.26184148  1
  O  O135  1  0.10578844  0.65074867  0.51338342  1
  O  O136  1  0.14897663  0.61915192  0.75505575  1
  O  O137  1  0.08912248  0.84333581  0.00071883  1
  O  O138  1  0.14781178  0.88932324  0.25981039  1
  O  O139  1  0.10147388  0.84977923  0.51479699  1
  O  O140  1  0.16013027  0.88222127  0.74089491  1
  O  O141  1  0.34875108  0.12289619  -0.00859132  1
  O  O142  1  0.37816974  0.09136647  0.25364070  1
  O  O143  1  0.37952294  0.13870424  0.50447439  1
  O  O144  1  0.41885591  0.12248678  0.75550933  1
  O  O145  1  0.39360057  0.36863159  -0.00657209  1
  O  O146  1  0.35758505  0.39234202  0.24492761  1
  O  O147  1  0.38533223  0.34746884  0.50277439  1
  O  O148  1  0.34925925  0.38656550  0.75258389  1
  O  O149  1  0.41888970  0.62910397  -0.00666034  1
  O  O150  1  0.34593167  0.61062152  0.26499099  1
  O  O151  1  0.40353339  0.63512847  0.50378225  1
  O  O152  1  0.36605076  0.59298920  0.75133177  1
  O  O153  1  0.40488012  0.88789511  -0.00786233  1
  O  O154  1  0.36394335  0.90880312  0.25537611  1
  O  O155  1  0.40025628  0.86445892  0.50941378  1
  O  O156  1  0.34195920  0.87984915  0.74533410  1
  O  O157  1  0.65854849  0.11696698  -0.00153478  1
  O  O158  1  0.60776776  0.16353420  0.24086117  1
  O  O159  1  0.65372351  0.12519512  0.50439265  1
  O  O160  1  0.60216710  0.12980310  0.75224240  1
  O  O161  1  0.60029455  0.39344722  -0.00511297  1
  O  O162  1  0.63310194  0.34458006  0.23980737  1
  O  O163  1  0.62639033  0.42195540  0.50836619  1
  O  O164  1  0.63775251  0.36066984  0.74937209  1
  O  O165  1  0.62608481  0.60235576  -0.00434996  1
  O  O166  1  0.66023831  0.65213488  0.26060337  1
  O  O167  1  0.60582073  0.59615292  0.51122994  1
  O  O168  1  0.66898059  0.65323915  0.74541468  1
  O  O169  1  0.58989140  0.89902567  0.00482519  1
  O  O170  1  0.63994018  0.85075682  0.25642637  1
  O  O171  1  0.62065938  0.89569183  0.51078617  1
  O  O172  1  0.65955623  0.83731590  0.75065605  1
  O  O173  1  0.83970438  0.10796379  -0.01526323  1
  O  O174  1  0.88898015  0.09992571  0.26483575  1
  O  O175  1  0.83574846  0.15548289  0.50108796  1
  O  O176  1  0.89243016  0.12682116  0.74959497  1
  O  O177  1  0.88173269  0.39217833  0.00156470  1
  O  O178  1  0.84622054  0.37511281  0.25020116  1
  O  O179  1  0.90052409  0.38557728  0.50555747  1
  O  O180  1  0.84333930  0.38504442  0.76192283  1
  O  O181  1  0.90598852  0.61557168  0.00596916  1
  O  O182  1  0.84588013  0.63576571  0.26537917  1
  O  O183  1  0.91880067  0.60462277  0.50127509  1
  O  O184  1  0.85252792  0.65103733  0.76159374  1
  O  O185  1  0.89211398  0.91416047  -0.01219551  1
  O  O186  1  0.86844119  0.89306874  0.26616285  1
  O  O187  1  0.89656522  0.87704667  0.51062244  1
  O  O188  1  0.85896168  0.83732837  0.75166842  1
  O  O189  1  0.00287844  0.13518906  0.08510716  1
  O  O190  1  -0.00522581  0.10755451  0.40674963  1
  O  O191  1  -0.02068743  0.11176028  0.58965322  1
  O  O192  1  -0.02090690  0.09293981  0.89803997  1
  O  O193  1  -0.01058252  0.39691820  0.14588282  1
  O  O194  1  -0.00377035  0.38566217  0.35620806  1
  O  O195  1  -0.01035323  0.38679335  0.66004593  1
  O  O196  1  -0.00952999  0.40020913  0.86172019  1
  O  O197  1  -0.00670877  0.61565105  0.16485575  1
  O  O198  1  -0.00120543  0.63866245  0.36395979  1
  O  O199  1  0.00103388  0.61598446  0.66002084  1
  O  O200  1  -0.00635982  0.59628314  0.86251344  1
  O  O201  1  0.00949137  0.87562740  0.15656816  1
  O  O202  1  0.00041051  0.89392365  0.37073161  1
  O  O203  1  -0.00236365  0.88335830  0.65681474  1
  O  O204  1  -0.00021546  0.88459644  0.85167237  1
  O  O205  1  0.24461362  0.14579375  0.13888390  1
  O  O206  1  0.24551428  0.13428075  0.35312154  1
  O  O207  1  0.24156576  0.13880144  0.64885342  1
  O  O208  1  0.26174462  0.13473513  0.84149519  1
  O  O209  1  0.24204090  0.36197629  0.11317789  1
  O  O210  1  0.23905711  0.37315394  0.40644639  1
  O  O211  1  0.24155247  0.34005557  0.61057294  1
  O  O212  1  0.24518723  0.34615558  0.88862592  1
  O  O213  1  0.24938318  0.63134753  0.12519567  1
  O  O214  1  0.24460363  0.62875700  0.41176032  1
  O  O215  1  0.24098931  0.65169139  0.61682899  1
  O  O216  1  0.26112632  0.62917411  0.90316940  1
  O  O217  1  0.24596813  0.83970971  0.11250906  1
  O  O218  1  0.24542384  0.86126277  0.40461886  1
  O  O219  1  0.25103623  0.88841117  0.58901788  1
  O  O220  1  0.24140904  0.90038984  0.90124111  1
  O  O221  1  0.50185974  0.12475986  0.10176471  1
  O  O222  1  0.49442053  0.11363717  0.38691285  1
  O  O223  1  0.51624234  0.10379001  0.61204150  1
  O  O224  1  0.51356185  0.09045440  0.90241424  1
  O  O225  1  0.49572223  0.36344303  0.13295612  1
  O  O226  1  0.50291377  0.36289712  0.36290148  1
  O  O227  1  0.50902471  0.42601426  0.64256751  1
  O  O228  1  0.49732539  0.40295246  0.84251427  1
  O  O229  1  0.49624083  0.60506935  0.15783696  1
  O  O230  1  0.49662274  0.60352758  0.35225857  1
  O  O231  1  0.51160912  0.60890508  0.66097667  1
  O  O232  1  0.50037721  0.59832152  0.84351094  1
  O  O233  1  0.50365409  0.88758974  0.15787411  1
  O  O234  1  0.50498808  0.89383542  0.36406656  1
  O  O235  1  0.51439215  0.87119063  0.65699468  1
  O  O236  1  0.51279731  0.88018493  0.84973069  1
  O  O237  1  0.74678287  0.14184149  0.14612238  1
  O  O238  1  0.75210057  0.14209281  0.35536941  1
  O  O239  1  0.74594243  0.14070986  0.65069100  1
  O  O240  1  0.74673682  0.13971672  0.84698776  1
  O  O241  1  0.74449027  0.37327938  0.10386247  1
  O  O242  1  0.76009119  0.33882657  0.39899731  1
  O  O243  1  0.75186431  0.36117373  0.62083267  1
  O  O244  1  0.73732388  0.34353240  0.88936432  1
  O  O245  1  0.76621774  0.66050567  0.12195109  1
  O  O246  1  0.75645502  0.60703504  0.42195775  1
  O  O247  1  0.76475870  0.63471959  0.59633163  1
  O  O248  1  0.76102317  0.63716721  0.91336114  1
  O  O249  1  0.74134589  0.86230002  0.11021801  1
  O  O250  1  0.75125934  0.87037349  0.40455588  1
  O  O251  1  0.75734172  0.83870588  0.61627457  1
  O  O252  1  0.74969385  0.84846873  0.90643837  1
  O  O253  1  0.14756423  -0.01819350  0.11102537  1
  O  O254  1  0.13717273  -0.00991264  0.41703272  1
  O  O255  1  0.11863934  0.00354961  0.60982371  1
  O  O256  1  0.12096441  -0.00108792  0.85803606  1
  O  O257  1  0.10130436  0.25972408  0.14117573  1
  O  O258  1  0.10907159  0.25276833  0.36774829  1
  O  O259  1  0.08815458  0.24560776  0.63138035  1
  O  O260  1  0.08873315  0.25052753  0.87089181  1
  O  O261  1  0.12619161  0.49702997  0.10111704  1
  O  O262  1  0.10373342  0.50712607  0.40538783  1
  O  O263  1  0.13121293  0.50307793  0.62635069  1
  O  O264  1  0.13747055  0.49238413  0.90327728  1
  O  O265  1  0.11587166  0.74708356  0.15739164  1
  O  O266  1  0.12006336  0.75052261  0.38060729  1
  O  O267  1  0.11309057  0.75472602  0.65645990  1
  O  O268  1  0.12813369  0.76205664  0.85322487  1
  O  O269  1  0.33801024  -0.00398352  0.10946574  1
  O  O270  1  0.34907241  0.00341121  0.41428359  1
  O  O271  1  0.38969420  -0.00345706  0.62437543  1
  O  O272  1  0.37221707  0.00254546  0.87724771  1
  O  O273  1  0.37761326  0.25040098  0.11467474  1
  O  O274  1  0.38212252  0.24158924  0.36952999  1
  O  O275  1  0.38445154  0.25193250  0.65945472  1
  O  O276  1  0.40355167  0.25006781  0.86392095  1
  O  O277  1  0.35821242  0.49438844  0.11269664  1
  O  O278  1  0.36249513  0.50130400  0.40500612  1
  O  O279  1  0.33916498  0.49879270  0.61147975  1
  O  O280  1  0.35002738  0.49345372  0.88403854  1
  O  O281  1  0.39142271  0.74909339  0.14863717  1
  O  O282  1  0.39705792  0.74395884  0.37779582  1
  O  O283  1  0.39373336  0.75470310  0.64260084  1
  O  O284  1  0.39537449  0.74181006  0.85364880  1
  O  O285  1  0.63451211  0.00638267  0.14524647  1
  O  O286  1  0.64872013  -0.00543450  0.37184067  1
  O  O287  1  0.64242950  -0.01053386  0.65013154  1
  O  O288  1  0.65507861  -0.01229760  0.86187041  1
  O  O289  1  0.62329095  0.24925145  0.09282601  1
  O  O290  1  0.61845589  0.24764518  0.38902955  1
  O  O291  1  0.60599584  0.26161570  0.60850854  1
  O  O292  1  0.59425897  0.24752735  0.88316129  1
  O  O293  1  0.61886758  0.48947670  0.14778770  1
  O  O294  1  0.63289758  0.49854981  0.33548529  1
  O  O295  1  0.66366499  0.50738802  0.64405228  1
  O  O296  1  0.66102425  0.49420371  0.86410374  1
  O  O297  1  0.59356781  0.76129700  0.10412285  1
  O  O298  1  0.61723695  0.75463422  0.40718224  1
  O  O299  1  0.62290996  0.74206193  0.59983295  1
  O  O300  1  0.61009753  0.75069987  0.90287398  1
  O  O301  1  0.88570144  -0.00314874  0.13294241  1
  O  O302  1  0.85939059  0.00476911  0.40795856  1
  O  O303  1  0.84813953  -0.00587337  0.63237711  1
  O  O304  1  0.84259382  -0.01409907  0.85339524  1
  O  O305  1  0.87461270  0.26339328  0.11821447  1
  O  O306  1  0.89779795  0.24533615  0.36258071  1
  O  O307  1  0.88924324  0.25494269  0.63574650  1
  O  O308  1  0.88447655  0.25424305  0.87739716  1
  O  O309  1  0.85109122  0.50785444  0.13126560  1
  O  O310  1  0.88533349  0.49696667  0.37163200  1
  O  O311  1  0.86231023  0.50245588  0.63684513  1
  O  O312  1  0.84561176  0.50357468  0.87925967  1
  O  O313  1  0.91642817  0.74954990  0.10874473  1
  O  O314  1  0.87349387  0.75410555  0.39063523  1
  O  O315  1  0.90656588  0.74106910  0.61357814  1
  O  O316  1  0.90928049  0.74951286  0.90528804  1
