# generated using pymatgen
data_Mg32Ti42(Bi17O64)3
_symmetry_space_group_name_H-M   'P 1'
_cell_length_a   15.93785983
_cell_length_b   15.93141899
_cell_length_c   15.94233574
_cell_angle_alpha   90.15885367
_cell_angle_beta   89.85029766
_cell_angle_gamma   89.83671170
_symmetry_Int_Tables_number   1
_chemical_formula_structural   Mg32Ti42(Bi17O64)3
_chemical_formula_sum   'Mg32 Ti42 Bi51 O192'
_cell_volume   4047.91597663
_cell_formula_units_Z   1
loop_
 _symmetry_equiv_pos_site_id
 _symmetry_equiv_pos_as_xyz
  1  'x, y, z'
loop_
 _atom_site_type_symbol
 _atom_site_label
 _atom_site_symmetry_multiplicity
 _atom_site_fract_x
 _atom_site_fract_y
 _atom_site_fract_z
 _atom_site_occupancy
  Mg  Mg0  1  0.87678368  0.37248157  0.62523668  1
  Mg  Mg1  1  0.37077100  0.37777141  0.11635533  1
  Mg  Mg2  1  0.13221899  0.62318916  0.63776844  1
  Mg  Mg3  1  0.87266966  0.62638064  0.63183304  1
  Mg  Mg4  1  0.37616695  0.36613275  0.87734924  1
  Mg  Mg5  1  0.61882550  0.62925364  0.87408500  1
  Mg  Mg6  1  0.12186846  0.87326111  0.12819600  1
  Mg  Mg7  1  0.62810049  0.12427069  0.62029012  1
  Mg  Mg8  1  0.61969990  0.12373069  0.86437998  1
  Mg  Mg9  1  0.12192749  0.62053296  0.13508515  1
  Mg  Mg10  1  0.87560655  0.36217254  0.87014073  1
  Mg  Mg11  1  0.37100849  0.12771124  0.62417726  1
  Mg  Mg12  1  0.62671298  0.38217444  0.12561707  1
  Mg  Mg13  1  0.37953517  0.62527576  0.39409409  1
  Mg  Mg14  1  0.11915005  0.36868565  0.36651480  1
  Mg  Mg15  1  0.86982244  0.37510217  0.36739685  1
  Mg  Mg16  1  0.88218312  0.63336295  0.87452706  1
  Mg  Mg17  1  0.62042766  0.12232738  0.12225324  1
  Mg  Mg18  1  0.62000795  0.13096198  0.37658906  1
  Mg  Mg19  1  0.77023066  0.81612919  0.74447835  1
  Mg  Mg20  1  0.01850774  0.21761974  0.76635367  1
  Mg  Mg21  1  0.82479448  -0.02239793  0.69193018  1
  Mg  Mg22  1  0.52729878  0.51709564  0.52765153  1
  Mg  Mg23  1  0.79176301  0.78081895  0.56445760  1
  Mg  Mg24  1  0.23065720  0.49872021  0.73925865  1
  Mg  Mg25  1  0.01410774  0.01153021  0.22100076  1
  Mg  Mg26  1  0.22415916  0.20980869  0.71338330  1
  Mg  Mg27  1  0.04270820  0.24399616  0.22209163  1
  Mg  Mg28  1  0.58467359  0.74126964  0.51118111  1
  Mg  Mg29  1  0.22026150  0.72810101  0.03652883  1
  Mg  Mg30  1  -0.00019457  0.00431431  0.01061238  1
  Mg  Mg31  1  -0.04840481  -0.07396692  0.52579048  1
  Ti  Ti32  1  0.87520967  0.62620754  0.13064863  1
  Ti  Ti33  1  0.63040585  0.38427594  0.37821848  1
  Ti  Ti34  1  0.63443367  0.88153085  0.62337643  1
  Ti  Ti35  1  0.87439471  0.13144839  0.12858976  1
  Ti  Ti36  1  0.12999160  0.86600967  0.62803146  1
  Ti  Ti37  1  0.11477773  0.13528200  0.60049991  1
  Ti  Ti38  1  0.88481741  0.87729132  0.89033014  1
  Ti  Ti39  1  0.36992795  0.62251423  0.89030700  1
  Ti  Ti40  1  0.12047680  0.86527940  0.89098145  1
  Ti  Ti41  1  0.88605020  0.12706249  0.61719462  1
  Ti  Ti42  1  0.12822183  0.10992819  0.11652638  1
  Ti  Ti43  1  0.12988068  0.60421440  0.38405372  1
  Ti  Ti44  1  0.10684288  0.88185213  0.38030819  1
  Ti  Ti45  1  0.87982531  0.88780034  0.12481431  1
  Ti  Ti46  1  0.86046050  0.36742175  0.11952767  1
  Ti  Ti47  1  0.12860783  0.11094170  0.88208010  1
  Ti  Ti48  1  0.12269261  0.61734149  0.87998811  1
  Ti  Ti49  1  0.86347487  0.87282394  0.37207341  1
  Ti  Ti50  1  0.61713703  0.62372290  0.12841410  1
  Ti  Ti51  1  0.36702970  0.87748598  0.12945070  1
  Ti  Ti52  1  0.36192096  0.36019295  0.64591345  1
  Ti  Ti53  1  0.63023971  0.37611893  0.87512928  1
  Ti  Ti54  1  0.40130883  0.65592891  0.60801287  1
  Ti  Ti55  1  0.38267179  0.12223331  0.11751151  1
  Ti  Ti56  1  0.61817957  0.87196343  0.37255332  1
  Ti  Ti57  1  0.38411782  0.87703743  0.61939774  1
  Ti  Ti58  1  0.12655928  0.38510142  0.12367586  1
  Ti  Ti59  1  0.36885005  0.11968471  0.37975995  1
  Ti  Ti60  1  0.88347898  0.11590040  0.36052126  1
  Ti  Ti61  1  0.11122987  0.11829736  0.36445417  1
  Ti  Ti62  1  0.61771370  0.39436057  0.63636390  1
  Ti  Ti63  1  0.86677662  0.63393794  0.38338865  1
  Ti  Ti64  1  0.36018966  0.61670354  0.13069687  1
  Ti  Ti65  1  0.62892946  0.87529188  0.85871758  1
  Ti  Ti66  1  0.12528080  0.36507169  0.86878976  1
  Ti  Ti67  1  0.61432115  0.87888958  0.11824958  1
  Ti  Ti68  1  0.88899272  0.11959654  0.88828385  1
  Ti  Ti69  1  0.12541163  0.36748243  0.63300551  1
  Ti  Ti70  1  0.37088382  0.86882497  0.38182276  1
  Ti  Ti71  1  0.63170245  0.63657574  0.64381530  1
  Ti  Ti72  1  0.62356203  0.62470449  0.37108110  1
  Ti  Ti73  1  0.36941393  0.13609401  0.85869701  1
  Bi  Bi74  1  0.72882112  0.75198504  -0.02059975  1
  Bi  Bi75  1  0.77529013  0.22180942  0.75860465  1
  Bi  Bi76  1  0.49566207  0.29714845  0.51322926  1
  Bi  Bi77  1  -0.01165912  0.48972978  0.74854215  1
  Bi  Bi78  1  -0.01690858  0.48236239  -0.01918591  1
  Bi  Bi79  1  0.00175573  0.71839046  0.50400204  1
  Bi  Bi80  1  0.27075714  0.45697698  0.28272369  1
  Bi  Bi81  1  -0.01109109  0.26055681  0.45803313  1
  Bi  Bi82  1  0.25435480  0.74697622  0.79035161  1
  Bi  Bi83  1  0.50664821  0.49191282  -0.01446836  1
  Bi  Bi84  1  0.27552108  0.50603792  0.53104789  1
  Bi  Bi85  1  0.23500231  -0.00828079  0.51501922  1
  Bi  Bi86  1  -0.01485581  0.76497930  0.23850212  1
  Bi  Bi87  1  0.74591147  0.00889819  0.48112674  1
  Bi  Bi88  1  0.25812371  0.48466123  -0.01178937  1
  Bi  Bi89  1  0.73202375  0.76441745  0.23392102  1
  Bi  Bi90  1  0.50653251  0.02029158  0.48448902  1
  Bi  Bi91  1  0.48131338  0.76847366  0.76626974  1
  Bi  Bi92  1  0.25212646  -0.02249581  0.00420275  1
  Bi  Bi93  1  0.25562270  -0.02502087  0.76485001  1
  Bi  Bi94  1  0.51260160  0.26151387  0.02722435  1
  Bi  Bi95  1  0.73110900  0.01362744  0.23290811  1
  Bi  Bi96  1  0.22387062  0.73384338  0.26880570  1
  Bi  Bi97  1  0.75615647  0.51141297  0.25324188  1
  Bi  Bi98  1  0.52159048  0.23445095  0.73460920  1
  Bi  Bi99  1  0.76760065  0.23321299  0.50530555  1
  Bi  Bi100  1  0.25943387  0.27786237  0.49066466  1
  Bi  Bi101  1  0.47944422  -0.00999014  0.25809492  1
  Bi  Bi102  1  0.72689305  0.25241361  0.27184374  1
  Bi  Bi103  1  0.46573936  -0.01313910  -0.04500707  1
  Bi  Bi104  1  0.75796667  0.50407069  0.52025394  1
  Bi  Bi105  1  0.25847423  0.24662878  -0.00554987  1
  Bi  Bi106  1  0.02853324  0.01370121  0.73213757  1
  Bi  Bi107  1  0.50094457  0.00657322  0.72901453  1
  Bi  Bi108  1  -0.01645486  0.47596428  0.23114410  1
  Bi  Bi109  1  0.23283737  -0.01373060  0.26647539  1
  Bi  Bi110  1  0.48362800  0.73455968  0.26567194  1
  Bi  Bi111  1  0.72447166  0.23744481  -0.01286737  1
  Bi  Bi112  1  -0.02021787  0.47985995  0.48672768  1
  Bi  Bi113  1  0.72903553  0.00824537  -0.02100776  1
  Bi  Bi114  1  0.74992082  0.52982464  -0.01761315  1
  Bi  Bi115  1  0.46940079  0.74707958  0.01504245  1
  Bi  Bi116  1  -0.03075851  0.77402819  0.73048389  1
  Bi  Bi117  1  0.23654656  0.73483477  0.50905256  1
  Bi  Bi118  1  0.48682138  0.49684524  0.27306054  1
  Bi  Bi119  1  0.48135270  0.27602027  0.25933252  1
  Bi  Bi120  1  0.76655823  0.51057325  0.75860936  1
  Bi  Bi121  1  -0.00306337  0.73348851  0.01166556  1
  Bi  Bi122  1  0.26459862  0.24033722  0.26866521  1
  Bi  Bi123  1  0.01063215  0.25481619  0.02730836  1
  Bi  Bi124  1  0.45684625  0.50129826  0.75952737  1
  O  O125  1  0.08566658  0.11765107  -0.00303467  1
  O  O126  1  0.13109318  0.09662180  0.24101786  1
  O  O127  1  0.09780417  0.14494941  0.48703528  1
  O  O128  1  0.14206824  0.09809740  0.75759074  1
  O  O129  1  0.09341374  0.36267084  0.00043392  1
  O  O130  1  0.13888802  0.37230093  0.23815630  1
  O  O131  1  0.13481809  0.34390905  0.51458777  1
  O  O132  1  0.15024552  0.39952435  0.76174204  1
  O  O133  1  0.11450184  0.65988383  0.00157736  1
  O  O134  1  0.13736736  0.61838779  0.26687702  1
  O  O135  1  0.12426532  0.64636862  0.50639802  1
  O  O136  1  0.15933235  0.60391378  0.76383256  1
  O  O137  1  0.16190642  0.84786958  -0.00095251  1
  O  O138  1  0.10349115  0.91186680  0.26080993  1
  O  O139  1  0.15086611  0.87882699  0.50338057  1
  O  O140  1  0.11981126  0.90250102  0.74551149  1
  O  O141  1  0.37976084  0.08946955  -0.00342431  1
  O  O142  1  0.35832902  0.13747196  0.23611905  1
  O  O143  1  0.38266304  0.10135761  0.49414598  1
  O  O144  1  0.33232858  0.15547685  0.75196037  1
  O  O145  1  0.38913666  0.41582121  -0.00444975  1
  O  O146  1  0.35500913  0.34871267  0.23890397  1
  O  O147  1  0.34879656  0.37588758  0.51603125  1
  O  O148  1  0.39334073  0.36111648  0.75618772  1
  O  O149  1  0.39142414  0.61224379  0.00365003  1
  O  O150  1  0.36528802  0.66038581  0.24049531  1
  O  O151  1  0.41297305  0.57669154  0.51759441  1
  O  O152  1  0.39829705  0.64267945  0.72310324  1
  O  O153  1  0.37248412  0.90072177  0.00260223  1
  O  O154  1  0.39549520  0.86192532  0.24314102  1
  O  O155  1  0.35957882  0.90692814  0.49421974  1
  O  O156  1  0.36555376  0.83975392  0.73101605  1
  O  O157  1  0.63778193  0.11061394  -0.00726924  1
  O  O158  1  0.64975934  0.13892332  0.25012908  1
  O  O159  1  0.59474043  0.11883567  0.50005721  1
  O  O160  1  0.64023520  0.15909888  0.74332542  1
  O  O161  1  0.59855593  0.38419093  -0.00229629  1
  O  O162  1  0.63832391  0.35123145  0.24725142  1
  O  O163  1  0.59997792  0.41307273  0.48852140  1
  O  O164  1  0.62233612  0.37475633  0.75065659  1
  O  O165  1  0.63306598  0.62580648  0.00927628  1
  O  O166  1  0.62397955  0.65891272  0.24536881  1
  O  O167  1  0.61417315  0.60920048  0.48472858  1
  O  O168  1  0.62355896  0.64925113  0.75193800  1
  O  O169  1  0.64437834  0.89460138  0.00442549  1
  O  O170  1  0.61501426  0.85856221  0.25175295  1
  O  O171  1  0.61894796  0.87155829  0.50497407  1
  O  O172  1  0.64039013  0.84686719  0.74675035  1
  O  O173  1  0.90016293  0.13762111  0.00223294  1
  O  O174  1  0.84831199  0.10735302  0.24996085  1
  O  O175  1  0.89540565  0.15739169  0.49501624  1
  O  O176  1  0.84114505  0.09885183  0.72968644  1
  O  O177  1  0.90414336  0.35898194  0.00390781  1
  O  O178  1  0.86380745  0.40047066  0.24209120  1
  O  O179  1  0.89394678  0.35838648  0.49762521  1
  O  O180  1  0.86915840  0.41239271  0.74690567  1
  O  O181  1  0.87449282  0.64191030  0.01414303  1
  O  O182  1  0.88334957  0.58578387  0.25809033  1
  O  O183  1  0.86154317  0.66875026  0.50024970  1
  O  O184  1  0.87864823  0.58778210  0.75398770  1
  O  O185  1  0.85918924  0.86055645  0.00980582  1
  O  O186  1  0.91367744  0.89114687  0.25258818  1
  O  O187  1  0.85567831  0.85452927  0.48819326  1
  O  O188  1  0.88895732  0.89484579  0.76444769  1
  O  O189  1  -0.01091147  0.14224929  0.15913316  1
  O  O190  1  -0.00262485  0.08376887  0.34165981  1
  O  O191  1  -0.00422419  0.13860230  0.65777337  1
  O  O192  1  0.00377997  0.10960214  0.84404139  1
  O  O193  1  -0.00115733  0.34321051  0.15025592  1
  O  O194  1  -0.00321866  0.39214526  0.37071756  1
  O  O195  1  0.01069702  0.38894477  0.64094610  1
  O  O196  1  0.00452278  0.40167493  0.85950396  1
  O  O197  1  -0.00412022  0.65303244  0.13321214  1
  O  O198  1  0.00121778  0.61526731  0.40298645  1
  O  O199  1  0.00078411  0.65441522  0.62674983  1
  O  O200  1  0.00752200  0.60182094  0.87612298  1
  O  O201  1  -0.00250353  0.83684686  0.11453745  1
  O  O202  1  -0.00084253  0.88822559  0.41380100  1
  O  O203  1  0.01164725  0.85796544  0.61310878  1
  O  O204  1  0.00719202  0.89752683  0.92258050  1
  O  O205  1  0.23997947  0.09518069  0.09806845  1
  O  O206  1  0.24343980  0.13627252  0.37231265  1
  O  O207  1  0.23229251  0.13748552  0.60536572  1
  O  O208  1  0.24182005  0.13501189  0.89918551  1
  O  O209  1  0.24103024  0.38800969  0.09112072  1
  O  O210  1  0.24256761  0.34778897  0.37021396  1
  O  O211  1  0.25203590  0.31757239  0.64491611  1
  O  O212  1  0.24448146  0.36710437  0.90901364  1
  O  O213  1  0.24967480  0.61655287  0.10561305  1
  O  O214  1  0.24988684  0.63929905  0.39905353  1
  O  O215  1  0.27096048  0.63270645  0.59599890  1
  O  O216  1  0.25200269  0.65967700  0.90640164  1
  O  O217  1  0.25259915  0.90636752  0.13455380  1
  O  O218  1  0.25586330  0.86860307  0.35181773  1
  O  O219  1  0.25063953  0.90775077  0.63147014  1
  O  O220  1  0.24394160  0.86824589  0.85482036  1
  O  O221  1  0.49515415  0.14662725  0.12384072  1
  O  O222  1  0.49226853  0.09782263  0.36215954  1
  O  O223  1  0.49917431  0.12185386  0.65677999  1
  O  O224  1  0.48979172  0.12942116  0.83838589  1
  O  O225  1  0.49542736  0.35019470  0.13731178  1
  O  O226  1  0.50492574  0.37766382  0.34769329  1
  O  O227  1  0.48762003  0.40022118  0.60675791  1
  O  O228  1  0.50284486  0.41508955  0.86890958  1
  O  O229  1  0.49770147  0.66201294  0.12656701  1
  O  O230  1  0.50039598  0.61885303  0.34964783  1
  O  O231  1  0.51951100  0.67987860  0.60514062  1
  O  O232  1  0.49070760  0.59222326  0.86969293  1
  O  O233  1  0.50123234  0.85530394  0.10576064  1
  O  O234  1  0.49947568  0.89736877  0.37415183  1
  O  O235  1  0.50113769  0.86845639  0.63946723  1
  O  O236  1  0.51033220  0.87968780  0.85775467  1
  O  O237  1  0.76029374  0.08507772  0.11392066  1
  O  O238  1  0.75663441  0.12868256  0.40368446  1
  O  O239  1  0.75090876  0.12026921  0.58204089  1
  O  O240  1  0.76676638  0.14067397  0.88230019  1
  O  O241  1  0.75373245  0.39489297  0.10562888  1
  O  O242  1  0.74704007  0.38511184  0.37924874  1
  O  O243  1  0.73361035  0.39854759  0.61118726  1
  O  O244  1  0.74643713  0.34683911  0.88193630  1
  O  O245  1  0.75356640  0.60825595  0.14510526  1
  O  O246  1  0.75010099  0.62257926  0.35809878  1
  O  O247  1  0.74654697  0.58921835  0.63399154  1
  O  O248  1  0.75372955  0.63465553  0.88970231  1
  O  O249  1  0.76303186  0.89072792  0.15472522  1
  O  O250  1  0.74955546  0.86553975  0.35266450  1
  O  O251  1  0.75227272  0.89225448  0.63710645  1
  O  O252  1  0.75994972  0.85297956  0.86903588  1
  O  O253  1  0.08617378  -0.00325351  0.10739649  1
  O  O254  1  0.15115697  0.00232928  0.39018829  1
  O  O255  1  0.10679088  0.01610426  0.60750538  1
  O  O256  1  0.14443353  -0.00494759  0.89017360  1
  O  O257  1  0.12618481  0.23424811  0.12262818  1
  O  O258  1  0.09061915  0.23460981  0.33923013  1
  O  O259  1  0.10890868  0.24516595  0.66856729  1
  O  O260  1  0.10784478  0.25068881  0.85666075  1
  O  O261  1  0.09622096  0.49536425  0.12034448  1
  O  O262  1  0.14637560  0.49453250  0.39245735  1
  O  O263  1  0.15967235  0.48738075  0.62197025  1
  O  O264  1  0.14114781  0.50435838  0.90828864  1
  O  O265  1  0.15253733  0.75157797  0.15124191  1
  O  O266  1  0.11791124  0.76474395  0.36390291  1
  O  O267  1  0.15727107  0.75696920  0.63927872  1
  O  O268  1  0.11273989  0.75659067  0.84916381  1
  O  O269  1  0.39467281  -0.00179399  0.14205986  1
  O  O270  1  0.36401620  -0.00175675  0.34130865  1
  O  O271  1  0.38591648  -0.00193744  0.64909243  1
  O  O272  1  0.37406802  0.01134095  0.85154571  1
  O  O273  1  0.35680752  0.24013238  0.09219576  1
  O  O274  1  0.37613126  0.23565102  0.36935433  1
  O  O275  1  0.40897503  0.25008582  0.61248042  1
  O  O276  1  0.37166555  0.24491061  0.91107144  1
  O  O277  1  0.37578573  0.50631408  0.15674807  1
  O  O278  1  0.37310632  0.50407333  0.35427319  1
  O  O279  1  0.32860990  0.47876768  0.65626114  1
  O  O280  1  0.33661697  0.51679337  0.83738895  1
  O  O281  1  0.35031357  0.76093668  0.08653585  1
  O  O282  1  0.39277351  0.75622824  0.38611940  1
  O  O283  1  0.36961905  0.76313580  0.57798510  1
  O  O284  1  0.38972317  0.73709184  0.86875389  1
  O  O285  1  0.61566764  -0.00565823  0.14861027  1
  O  O286  1  0.63854037  -0.00614687  0.38281263  1
  O  O287  1  0.61350780  -0.00548521  0.63670268  1
  O  O288  1  0.64275936  -0.00563360  0.86340017  1
  O  O289  1  0.63237956  0.24835455  0.09492066  1
  O  O290  1  0.63612483  0.25920022  0.38465863  1
  O  O291  1  0.59912768  0.27335254  0.60830538  1
  O  O292  1  0.61339106  0.25324072  0.90073976  1
  O  O293  1  0.60397837  0.51221222  0.14051803  1
  O  O294  1  0.62400901  0.50506533  0.33838097  1
  O  O295  1  0.59524005  0.51621934  0.63531622  1
  O  O296  1  0.65577704  0.49647997  0.88358493  1
  O  O297  1  0.65565981  0.76151095  0.11395148  1
  O  O298  1  0.60929264  0.75010765  0.38893245  1
  O  O299  1  0.67435656  0.74362208  0.59838582  1
  O  O300  1  0.61601072  0.75829790  0.90237876  1
  O  O301  1  0.91371937  -0.00285764  0.11124501  1
  O  O302  1  0.85723340  -0.00311785  0.39281022  1
  O  O303  1  0.89327609  0.01130098  0.59369969  1
  O  O304  1  0.87708058  0.00308030  0.90176993  1
  O  O305  1  0.84662180  0.24580627  0.13038298  1
  O  O306  1  0.89404940  0.23887571  0.35554831  1
  O  O307  1  0.84966637  0.24673183  0.63154481  1
  O  O308  1  0.90163663  0.23747569  0.83183447  1
  O  O309  1  0.90390574  0.49770364  0.11327434  1
  O  O310  1  0.86941394  0.51154137  0.41144592  1
  O  O311  1  0.87961324  0.50309604  0.58656192  1
  O  O312  1  0.86208677  0.49637464  0.90396676  1
  O  O313  1  0.86421722  0.74418124  0.16374530  1
  O  O314  1  0.88613537  0.74785246  0.34721567  1
  O  O315  1  0.84916039  0.74705256  0.67283907  1
  O  O316  1  0.90697504  0.76086376  0.86554621  1
