# generated using pymatgen
data_Mg32Ti42(Bi17O64)3
_symmetry_space_group_name_H-M   'P 1'
_cell_length_a   15.99146867
_cell_length_b   15.93842076
_cell_length_c   15.99408649
_cell_angle_alpha   89.96647166
_cell_angle_beta   90.00675519
_cell_angle_gamma   90.17701504
_symmetry_Int_Tables_number   1
_chemical_formula_structural   Mg32Ti42(Bi17O64)3
_chemical_formula_sum   'Mg32 Ti42 Bi51 O192'
_cell_volume   4076.53269066
_cell_formula_units_Z   1
loop_
 _symmetry_equiv_pos_site_id
 _symmetry_equiv_pos_as_xyz
  1  'x, y, z'
loop_
 _atom_site_type_symbol
 _atom_site_label
 _atom_site_symmetry_multiplicity
 _atom_site_fract_x
 _atom_site_fract_y
 _atom_site_fract_z
 _atom_site_occupancy
  Mg  Mg0  1  0.36247318  0.63099088  0.13057776  1
  Mg  Mg1  1  0.37503798  0.62687905  0.87616716  1
  Mg  Mg2  1  0.62132236  0.13919744  0.37265416  1
  Mg  Mg3  1  0.11663654  0.13505494  0.86350029  1
  Mg  Mg4  1  0.88195248  0.37633350  0.11611269  1
  Mg  Mg5  1  0.10769242  0.12988259  0.62738997  1
  Mg  Mg6  1  0.87451798  0.11871984  0.11804010  1
  Mg  Mg7  1  0.62879450  0.62415974  0.88311308  1
  Mg  Mg8  1  0.36553915  0.36580180  0.12224008  1
  Mg  Mg9  1  0.62619274  0.36727279  0.12344748  1
  Mg  Mg10  1  0.12071867  0.12919515  0.37865394  1
  Mg  Mg11  1  0.87246921  0.62960285  0.62367328  1
  Mg  Mg12  1  0.86752889  0.37612433  0.37710624  1
  Mg  Mg13  1  0.62984511  0.87357741  0.63190983  1
  Mg  Mg14  1  0.62662790  0.38142846  0.87583977  1
  Mg  Mg15  1  0.13227507  0.12824325  0.12954020  1
  Mg  Mg16  1  0.11684609  0.88079841  0.38388143  1
  Mg  Mg17  1  0.86582400  0.63011684  0.37232654  1
  Mg  Mg18  1  0.86161122  0.86620299  0.88629317  1
  Mg  Mg19  1  0.21074884  0.77637846  0.73368764  1
  Mg  Mg20  1  0.73820039  0.80651425  0.46648580  1
  Mg  Mg21  1  0.53940954  0.00942756  -0.01955430  1
  Mg  Mg22  1  0.02033804  0.30705100  0.75189897  1
  Mg  Mg23  1  0.76340687  0.45042770  0.22318936  1
  Mg  Mg24  1  0.73308348  0.76782545  0.03244488  1
  Mg  Mg25  1  -0.05803188  -0.00479407  0.55012502  1
  Mg  Mg26  1  0.49561981  0.05324755  0.29388898  1
  Mg  Mg27  1  0.25104998  0.26567139  0.31021868  1
  Mg  Mg28  1  0.75741940  0.73729736  0.80442169  1
  Mg  Mg29  1  0.72924140  0.79070829  0.26226105  1
  Mg  Mg30  1  0.19478602  0.74753804  0.05358366  1
  Mg  Mg31  1  0.50478147  -0.00153728  0.56287223  1
  Ti  Ti32  1  0.63461390  0.38061854  0.36053176  1
  Ti  Ti33  1  0.85942807  0.87584231  0.13019279  1
  Ti  Ti34  1  0.87666788  0.14352908  0.88460089  1
  Ti  Ti35  1  0.88139764  0.88562945  0.37406106  1
  Ti  Ti36  1  0.39206028  0.63033813  0.62103086  1
  Ti  Ti37  1  0.62393185  0.12251847  0.62104379  1
  Ti  Ti38  1  0.11631801  0.86538036  0.87116513  1
  Ti  Ti39  1  0.61902073  0.38667253  0.62370515  1
  Ti  Ti40  1  0.38559354  0.86408671  0.12780366  1
  Ti  Ti41  1  0.38421557  0.37822531  0.38443474  1
  Ti  Ti42  1  0.37903954  0.86984996  0.63296571  1
  Ti  Ti43  1  0.61395040  0.89409210  0.36491026  1
  Ti  Ti44  1  0.84797989  0.86531947  0.63288474  1
  Ti  Ti45  1  0.64284273  0.63802011  0.35423739  1
  Ti  Ti46  1  0.36872144  0.37800393  0.88541503  1
  Ti  Ti47  1  0.61523585  0.11107632  0.13391049  1
  Ti  Ti48  1  0.62890876  0.86584190  0.88235270  1
  Ti  Ti49  1  0.36333530  0.86418464  0.87584576  1
  Ti  Ti50  1  0.86817683  0.37567648  0.63296489  1
  Ti  Ti51  1  0.87603060  0.14116554  0.62810422  1
  Ti  Ti52  1  0.10736156  0.87702742  0.62166163  1
  Ti  Ti53  1  0.63091544  0.63718846  0.62335352  1
  Ti  Ti54  1  0.37060959  0.10807235  0.12756069  1
  Ti  Ti55  1  0.13053673  0.36871431  0.11002482  1
  Ti  Ti56  1  0.12218385  0.63457474  0.86614687  1
  Ti  Ti57  1  0.88496137  0.13484535  0.37788433  1
  Ti  Ti58  1  0.63679721  0.61376562  0.12704497  1
  Ti  Ti59  1  0.61192518  0.87818870  0.13010691  1
  Ti  Ti60  1  0.37436308  0.38744779  0.62297959  1
  Ti  Ti61  1  0.13028468  0.38809660  0.63498320  1
  Ti  Ti62  1  0.87698459  0.61948688  0.88391312  1
  Ti  Ti63  1  0.37502856  0.13656733  0.38444790  1
  Ti  Ti64  1  0.12752414  0.37898739  0.87893345  1
  Ti  Ti65  1  0.38056549  0.12308982  0.63516252  1
  Ti  Ti66  1  0.11689964  0.63320556  0.37368604  1
  Ti  Ti67  1  0.12696696  0.63675566  0.62444204  1
  Ti  Ti68  1  0.35691707  0.61908805  0.38248798  1
  Ti  Ti69  1  0.11605527  0.61457724  0.13776174  1
  Ti  Ti70  1  0.86313059  0.61793998  0.12238147  1
  Ti  Ti71  1  0.38208035  0.89057670  0.38270672  1
  Ti  Ti72  1  0.87080213  0.37480412  0.86420900  1
  Ti  Ti73  1  0.37150646  0.10380661  0.86847770  1
  Bi  Bi74  1  0.25903771  0.24054120  0.53076091  1
  Bi  Bi75  1  0.03763980  -0.02270955  0.21557726  1
  Bi  Bi76  1  0.78595113  0.24981874  0.22469840  1
  Bi  Bi77  1  0.00045398  0.24418683  0.03282386  1
  Bi  Bi78  1  0.75053399  0.48056495  0.01378741  1
  Bi  Bi79  1  0.23653407  0.01484462  0.27592956  1
  Bi  Bi80  1  0.73563297  0.24753691  0.50518437  1
  Bi  Bi81  1  0.03187737  0.27838190  0.27167786  1
  Bi  Bi82  1  -0.02008077  0.50652068  0.50014417  1
  Bi  Bi83  1  0.50146513  0.25457977  0.51021548  1
  Bi  Bi84  1  0.01014529  0.28142035  0.49091735  1
  Bi  Bi85  1  -0.02541341  0.02082628  0.75570938  1
  Bi  Bi86  1  0.49616140  0.49856852  0.77689005  1
  Bi  Bi87  1  0.74485663  0.01643960  0.48325651  1
  Bi  Bi88  1  0.74891352  0.02641166  0.77100977  1
  Bi  Bi89  1  0.23157078  0.01763254  0.50610518  1
  Bi  Bi90  1  0.23555284  0.76154349  0.49222248  1
  Bi  Bi91  1  0.24229862  -0.05224587  0.03027388  1
  Bi  Bi92  1  0.23737602  0.54231120  -0.00514294  1
  Bi  Bi93  1  0.73358435  0.53012371  0.75290740  1
  Bi  Bi94  1  0.52448936  0.50716010  0.47082919  1
  Bi  Bi95  1  0.70492166  0.23554847  -0.00877607  1
  Bi  Bi96  1  0.48651182  0.20555272  -0.00424396  1
  Bi  Bi97  1  0.50469091  -0.02077600  0.77668369  1
  Bi  Bi98  1  -0.00468326  0.49730875  -0.00372737  1
  Bi  Bi99  1  0.77168937  0.02408324  0.25496970  1
  Bi  Bi100  1  -0.02515200  0.75078981  0.24252030  1
  Bi  Bi101  1  0.21146366  0.00095219  0.75384878  1
  Bi  Bi102  1  0.47630820  0.73739385  0.27521804  1
  Bi  Bi103  1  -0.01332946  0.51976495  0.74106608  1
  Bi  Bi104  1  0.47180335  0.50191081  0.23948656  1
  Bi  Bi105  1  0.73801558  0.00063886  0.00012512  1
  Bi  Bi106  1  0.22578647  0.46639811  0.24473787  1
  Bi  Bi107  1  0.48828342  0.26541334  0.77584809  1
  Bi  Bi108  1  0.22495995  0.26325816  0.75413190  1
  Bi  Bi109  1  0.25951083  0.54226191  0.74333593  1
  Bi  Bi110  1  0.50736233  0.72084757  0.00849095  1
  Bi  Bi111  1  0.03404943  0.02185023  -0.00384256  1
  Bi  Bi112  1  -0.00457929  0.78097420  0.02466630  1
  Bi  Bi113  1  0.49709193  0.73144717  0.77221837  1
  Bi  Bi114  1  0.47348263  0.49907884  0.03008002  1
  Bi  Bi115  1  0.51055289  0.77950207  0.51038077  1
  Bi  Bi116  1  0.21370643  0.47204473  0.47471544  1
  Bi  Bi117  1  0.49205951  0.27126167  0.22145914  1
  Bi  Bi118  1  0.24908656  0.20938338  -0.00884127  1
  Bi  Bi119  1  -0.03808787  0.75507219  0.75577091  1
  Bi  Bi120  1  0.74542453  0.52339775  0.50008176  1
  Bi  Bi121  1  0.71157841  0.24762805  0.76486260  1
  Bi  Bi122  1  -0.02300678  0.49727738  0.26357619  1
  Bi  Bi123  1  -0.03686459  0.74769452  0.49039958  1
  Bi  Bi124  1  0.24496409  0.79100949  0.26172697  1
  O  O125  1  0.12719909  0.13408449  -0.00898182  1
  O  O126  1  0.12188707  0.08722152  0.24932463  1
  O  O127  1  0.15633898  0.13569628  0.50653651  1
  O  O128  1  0.10801749  0.08895772  0.74798270  1
  O  O129  1  0.14189530  0.34344423  -0.00501138  1
  O  O130  1  0.10053562  0.40054099  0.23370886  1
  O  O131  1  0.13341885  0.35914909  0.51344695  1
  O  O132  1  0.15042897  0.39567048  0.75468836  1
  O  O133  1  0.13806243  0.64271403  -0.01171390  1
  O  O134  1  0.11949515  0.60749112  0.25389335  1
  O  O135  1  0.13885970  0.65675707  0.50619447  1
  O  O136  1  0.12223424  0.59280086  0.75030541  1
  O  O137  1  0.13961794  0.83810053  -0.01618486  1
  O  O138  1  0.14038936  0.89516169  0.25788360  1
  O  O139  1  0.13522270  0.85488679  0.50713561  1
  O  O140  1  0.12975982  0.88774174  0.74392581  1
  O  O141  1  0.36013045  0.12250744  -0.01035836  1
  O  O142  1  0.40109394  0.11625680  0.23752682  1
  O  O143  1  0.34823846  0.12177340  0.49561046  1
  O  O144  1  0.40175272  0.13265133  0.74829003  1
  O  O145  1  0.37010411  0.39620688  -0.00215018  1
  O  O146  1  0.39573435  0.36611518  0.25871550  1
  O  O147  1  0.35363890  0.38364308  0.49902684  1
  O  O148  1  0.39159897  0.35836450  0.73846192  1
  O  O149  1  0.39393270  0.61102433  0.00274301  1
  O  O150  1  0.39050637  0.62068311  0.25747120  1
  O  O151  1  0.36769810  0.62692183  0.50024976  1
  O  O152  1  0.38377136  0.63032231  0.74161405  1
  O  O153  1  0.35968020  0.87393170  -0.00835806  1
  O  O154  1  0.37087840  0.86522417  0.24576630  1
  O  O155  1  0.38036835  0.87628443  0.49707601  1
  O  O156  1  0.41477008  0.87108846  0.74865836  1
  O  O157  1  0.64626968  0.10026216  0.00517181  1
  O  O158  1  0.58935385  0.12801283  0.24414558  1
  O  O159  1  0.65755221  0.12565782  0.49755753  1
  O  O160  1  0.61399414  0.14612300  0.73277073  1
  O  O161  1  0.65606491  0.37827389  -0.00038592  1
  O  O162  1  0.60931049  0.35077100  0.25265999  1
  O  O163  1  0.63951422  0.41905282  0.49846657  1
  O  O164  1  0.61134846  0.35113105  0.73656802  1
  O  O165  1  0.60759868  0.61340162  0.00618072  1
  O  O166  1  0.65160126  0.65765983  0.23915185  1
  O  O167  1  0.62967574  0.60003509  0.50096853  1
  O  O168  1  0.65990695  0.65411802  0.74493935  1
  O  O169  1  0.62866704  0.90717775  0.00540875  1
  O  O170  1  0.62036345  0.85538369  0.24754318  1
  O  O171  1  0.62115078  0.87249776  0.48161220  1
  O  O172  1  0.61178501  0.87882546  0.76235488  1
  O  O173  1  0.84791498  0.11557545  -0.00796332  1
  O  O174  1  0.87326715  0.13152169  0.25627722  1
  O  O175  1  0.86349809  0.09174194  0.50140707  1
  O  O176  1  0.89164076  0.13149290  0.74707311  1
  O  O177  1  0.86812477  0.40360599  -0.01168099  1
  O  O178  1  0.88803640  0.39158987  0.24681824  1
  O  O179  1  0.90048915  0.38116571  0.51137766  1
  O  O180  1  0.89449515  0.34567001  0.74740503  1
  O  O181  1  0.88655928  0.59571976  -0.00137149  1
  O  O182  1  0.88957187  0.62635226  0.24309672  1
  O  O183  1  0.89747225  0.62155445  0.49993656  1
  O  O184  1  0.88574271  0.63753162  0.75094476  1
  O  O185  1  0.86754525  0.86311730  0.01346350  1
  O  O186  1  0.85850650  0.83392659  0.25544842  1
  O  O187  1  0.87940117  0.90159719  0.49344111  1
  O  O188  1  0.83843986  0.82716541  0.74937954  1
  O  O189  1  -0.00159600  0.11217152  0.09516919  1
  O  O190  1  -0.00379661  0.15539008  0.39322718  1
  O  O191  1  -0.01306250  0.09172860  0.61636217  1
  O  O192  1  -0.00794936  0.10052871  0.88053237  1
  O  O193  1  0.00736510  0.38422448  0.08892451  1
  O  O194  1  -0.00371317  0.35465902  0.38002611  1
  O  O195  1  0.01552116  0.39502138  0.64782141  1
  O  O196  1  0.01186019  0.38755756  0.86240120  1
  O  O197  1  0.00361109  0.57687350  0.11619445  1
  O  O198  1  0.00589859  0.66265936  0.37241523  1
  O  O199  1  0.01117792  0.60727711  0.62891077  1
  O  O200  1  0.00586426  0.60431295  0.87271522  1
  O  O201  1  -0.01315047  0.86737931  0.13606581  1
  O  O202  1  -0.00594643  0.85699259  0.36278374  1
  O  O203  1  -0.00110153  0.89959543  0.61863400  1
  O  O204  1  0.00203561  0.87398653  0.87120320  1
  O  O205  1  0.25743556  0.14242085  0.11882748  1
  O  O206  1  0.26157849  0.13469038  0.34137532  1
  O  O207  1  0.26378735  0.14294923  0.64002451  1
  O  O208  1  0.25228555  0.14289344  0.86012902  1
  O  O209  1  0.24335304  0.35751777  0.16027678  1
  O  O210  1  0.25484568  0.38934459  0.35334598  1
  O  O211  1  0.25734392  0.35329717  0.63121975  1
  O  O212  1  0.25680579  0.35107974  0.87061976  1
  O  O213  1  0.23746134  0.64284458  0.11686659  1
  O  O214  1  0.24677050  0.59795942  0.37445388  1
  O  O215  1  0.24632197  0.65251269  0.65348528  1
  O  O216  1  0.24804788  0.62067965  0.86374097  1
  O  O217  1  0.25652742  0.84136371  0.11604866  1
  O  O218  1  0.26244919  0.87604517  0.37337104  1
  O  O219  1  0.26593855  0.85188488  0.63975813  1
  O  O220  1  0.25880558  0.84317810  0.84005127  1
  O  O221  1  0.50112428  0.08961254  0.08466886  1
  O  O222  1  0.49146199  0.14830677  0.38404493  1
  O  O223  1  0.50525782  0.12267867  0.58723282  1
  O  O224  1  0.48902170  0.09315679  0.89436301  1
  O  O225  1  0.50121511  0.38340058  0.12951726  1
  O  O226  1  0.50016308  0.36893751  0.40121970  1
  O  O227  1  0.50172282  0.38232018  0.59870557  1
  O  O228  1  0.49868057  0.38469566  0.86548197  1
  O  O229  1  0.51749548  0.59848397  0.13733555  1
  O  O230  1  0.52070733  0.65185834  0.37558986  1
  O  O231  1  0.50517597  0.61068251  0.62260293  1
  O  O232  1  0.50450443  0.61314350  0.85287697  1
  O  O233  1  0.49869800  0.89587664  0.12042026  1
  O  O234  1  0.49735208  0.85019889  0.36971933  1
  O  O235  1  0.50490573  0.88211046  0.60228772  1
  O  O236  1  0.50924013  0.91482073  0.89411966  1
  O  O237  1  0.74229717  0.13866559  0.15257873  1
  O  O238  1  0.74798931  0.09907341  0.36947672  1
  O  O239  1  0.75354808  0.14389759  0.63132299  1
  O  O240  1  0.76013648  0.14260919  0.84915418  1
  O  O241  1  0.75331792  0.35384930  0.13850163  1
  O  O242  1  0.74589520  0.40259371  0.34139187  1
  O  O243  1  0.75411179  0.36420914  0.62463175  1
  O  O244  1  0.75821926  0.36250468  0.85319661  1
  O  O245  1  0.75551662  0.65306220  0.09361270  1
  O  O246  1  0.74787911  0.59223024  0.37998456  1
  O  O247  1  0.74855001  0.62128111  0.60807645  1
  O  O248  1  0.75962614  0.62980062  0.87467872  1
  O  O249  1  0.74680672  0.84148777  0.13510606  1
  O  O250  1  0.74246089  0.89967106  0.36884552  1
  O  O251  1  0.74714598  0.84960264  0.59060237  1
  O  O252  1  0.73714886  0.81784262  0.90291526  1
  O  O253  1  0.12154355  -0.00364540  0.10593041  1
  O  O254  1  0.15148401  0.00478101  0.39377886  1
  O  O255  1  0.15093697  -0.00784304  0.61562198  1
  O  O256  1  0.14477887  -0.01778666  0.88354619  1
  O  O257  1  0.10184762  0.25238005  0.13297453  1
  O  O258  1  0.13613249  0.24811611  0.34340583  1
  O  O259  1  0.11126210  0.25819438  0.65939752  1
  O  O260  1  0.11061102  0.25747200  0.83683453  1
  O  O261  1  0.15058165  0.49496573  0.09927421  1
  O  O262  1  0.10017680  0.51843271  0.40782221  1
  O  O263  1  0.15465972  0.50322073  0.60503204  1
  O  O264  1  0.13877251  0.49370679  0.90686926  1
  O  O265  1  0.08930058  0.72867914  0.12716896  1
  O  O266  1  0.15833382  0.74921833  0.37145034  1
  O  O267  1  0.11251750  0.75398156  0.64862595  1
  O  O268  1  0.12030543  0.74435700  0.83212785  1
  O  O269  1  0.34230853  -0.00817935  0.12226586  1
  O  O270  1  0.39382129  0.00438083  0.36660447  1
  O  O271  1  0.38977071  0.00224562  0.62473726  1
  O  O272  1  0.35596813  -0.00770856  0.85234047  1
  O  O273  1  0.40383627  0.23792738  0.10839763  1
  O  O274  1  0.35590476  0.25637363  0.38389313  1
  O  O275  1  0.39169626  0.24615170  0.60250070  1
  O  O276  1  0.39761498  0.25159128  0.88188134  1
  O  O277  1  0.37593475  0.49888093  0.13422091  1
  O  O278  1  0.39632562  0.50174233  0.37381525  1
  O  O279  1  0.36380916  0.50160103  0.63264626  1
  O  O280  1  0.37161854  0.49364670  0.85128499  1
  O  O281  1  0.40694837  0.75020364  0.12394916  1
  O  O282  1  0.36312088  0.74105057  0.36269681  1
  O  O283  1  0.40379936  0.75118222  0.61709046  1
  O  O284  1  0.40742594  0.75312720  0.87423523  1
  O  O285  1  0.65285231  -0.00430377  0.13932592  1
  O  O286  1  0.59094439  0.00274809  0.35943462  1
  O  O287  1  0.62234548  0.00581615  0.61956054  1
  O  O288  1  0.67291482  -0.01403572  0.87599235  1
  O  O289  1  0.60681422  0.23421846  0.09666615  1
  O  O290  1  0.64407662  0.26590438  0.40237062  1
  O  O291  1  0.62045257  0.25951194  0.58907552  1
  O  O292  1  0.62523211  0.25202585  0.87963495  1
  O  O293  1  0.66656799  0.50310477  0.14304601  1
  O  O294  1  0.59774930  0.50182324  0.35488567  1
  O  O295  1  0.63341272  0.50022713  0.65457877  1
  O  O296  1  0.63350266  0.50220578  0.84209963  1
  O  O297  1  0.61441586  0.76060154  0.08964659  1
  O  O298  1  0.67226376  0.74713662  0.37590260  1
  O  O299  1  0.60820278  0.74707883  0.60886322  1
  O  O300  1  0.58769995  0.75279238  0.88551576  1
  O  O301  1  0.85846108  -0.00988862  0.14011106  1
  O  O302  1  0.88551678  -0.00161536  0.34653443  1
  O  O303  1  0.85686971  -0.01857330  0.64996741  1
  O  O304  1  0.85378152  -0.00949325  0.84885383  1
  O  O305  1  0.89065126  0.24834253  0.12346389  1
  O  O306  1  0.84791672  0.24402373  0.39191144  1
  O  O307  1  0.89508204  0.24874606  0.60520536  1
  O  O308  1  0.89577921  0.25474489  0.89617913  1
  O  O309  1  0.83876085  0.50186414  0.13163889  1
  O  O310  1  0.90565475  0.50386826  0.38218669  1
  O  O311  1  0.87511649  0.49365463  0.64157305  1
  O  O312  1  0.87360244  0.49678712  0.84695807  1
  O  O313  1  0.90452973  0.73287444  0.11788441  1
  O  O314  1  0.85007892  0.76046817  0.41293019  1
  O  O315  1  0.90082218  0.75580759  0.61658709  1
  O  O316  1  0.89549737  0.73763011  0.88185153  1
