# generated using pymatgen
data_Mg32Ti42(Bi17O64)3
_symmetry_space_group_name_H-M   'P 1'
_cell_length_a   15.96345654
_cell_length_b   15.91680627
_cell_length_c   15.95869779
_cell_angle_alpha   89.97459684
_cell_angle_beta   89.77278707
_cell_angle_gamma   90.16083600
_symmetry_Int_Tables_number   1
_chemical_formula_structural   Mg32Ti42(Bi17O64)3
_chemical_formula_sum   'Mg32 Ti42 Bi51 O192'
_cell_volume   4054.85327934
_cell_formula_units_Z   1
loop_
 _symmetry_equiv_pos_site_id
 _symmetry_equiv_pos_as_xyz
  1  'x, y, z'
loop_
 _atom_site_type_symbol
 _atom_site_label
 _atom_site_symmetry_multiplicity
 _atom_site_fract_x
 _atom_site_fract_y
 _atom_site_fract_z
 _atom_site_occupancy
  Mg  Mg0  1  0.12616961  0.62117094  0.61291562  1
  Mg  Mg1  1  0.62732445  0.12743114  0.87869770  1
  Mg  Mg2  1  0.63066844  0.87516475  0.87898248  1
  Mg  Mg3  1  0.62882374  0.62597935  0.13194913  1
  Mg  Mg4  1  0.13300373  0.13425415  0.88234977  1
  Mg  Mg5  1  0.13311082  0.87527786  0.63056531  1
  Mg  Mg6  1  0.88439189  0.62721676  0.87625891  1
  Mg  Mg7  1  0.37815810  0.12761411  0.62871559  1
  Mg  Mg8  1  0.62450167  0.37496147  0.87480095  1
  Mg  Mg9  1  0.63105189  0.38323414  0.61552954  1
  Mg  Mg10  1  0.12996131  0.86486202  0.37209263  1
  Mg  Mg11  1  0.62152337  0.62501417  0.87493597  1
  Mg  Mg12  1  0.88104122  0.12940934  0.87489934  1
  Mg  Mg13  1  0.61752531  0.37007862  0.13822068  1
  Mg  Mg14  1  0.87750994  0.61891641  0.60999655  1
  Mg  Mg15  1  0.62686386  0.12347254  0.13456044  1
  Mg  Mg16  1  0.12899228  0.12984329  0.62300881  1
  Mg  Mg17  1  0.87792920  0.88317000  0.63243353  1
  Mg  Mg18  1  0.37511976  0.12597666  0.12089893  1
  Mg  Mg19  1  0.74841471  0.49785414  0.43154508  1
  Mg  Mg20  1  -0.01102151  0.50240894  0.23643324  1
  Mg  Mg21  1  0.45459259  0.05520098  0.47507219  1
  Mg  Mg22  1  0.77297711  0.42417398  0.23494128  1
  Mg  Mg23  1  0.79397892  -0.00456680  0.29713252  1
  Mg  Mg24  1  0.03163694  0.72965201  0.49648626  1
  Mg  Mg25  1  0.24210611  0.29425306  0.75750160  1
  Mg  Mg26  1  0.75384529  0.20315399  0.26942152  1
  Mg  Mg27  1  0.74225968  0.80608014  0.27415520  1
  Mg  Mg28  1  0.20035842  0.75925249  0.02705269  1
  Mg  Mg29  1  0.00119791  0.47833831  0.50349767  1
  Mg  Mg30  1  -0.03866655  0.32249936  0.19726485  1
  Mg  Mg31  1  0.75362304  0.00676947  0.55563636  1
  Ti  Ti32  1  0.87433237  0.38358494  0.61987022  1
  Ti  Ti33  1  0.13191898  0.61434475  0.38314428  1
  Ti  Ti34  1  0.85874056  0.63429673  0.14261031  1
  Ti  Ti35  1  0.88605768  0.11450177  0.13466859  1
  Ti  Ti36  1  0.63616742  0.62637117  0.37634722  1
  Ti  Ti37  1  0.13403757  0.37320736  0.61405855  1
  Ti  Ti38  1  0.11958728  0.38269698  0.11630401  1
  Ti  Ti39  1  0.88425749  0.36834571  0.87913822  1
  Ti  Ti40  1  0.37523150  0.62833147  0.11811282  1
  Ti  Ti41  1  0.64038576  0.35750353  0.35911389  1
  Ti  Ti42  1  0.13586933  0.86614104  0.87713582  1
  Ti  Ti43  1  0.13116695  0.10450532  0.13103902  1
  Ti  Ti44  1  0.87687578  0.13670946  0.37423105  1
  Ti  Ti45  1  0.38265612  0.62784604  0.37816305  1
  Ti  Ti46  1  0.37753306  0.87634538  0.37109645  1
  Ti  Ti47  1  0.63276609  0.87475234  0.13124739  1
  Ti  Ti48  1  0.37685487  0.37978709  0.11990721  1
  Ti  Ti49  1  0.62441851  0.88987368  0.38229430  1
  Ti  Ti50  1  0.88133128  0.86656245  0.37712025  1
  Ti  Ti51  1  0.38088343  0.63625302  0.87175349  1
  Ti  Ti52  1  0.62885492  0.61906587  0.61382021  1
  Ti  Ti53  1  0.87793549  0.86993870  0.87132145  1
  Ti  Ti54  1  0.12346262  0.61826457  0.13125732  1
  Ti  Ti55  1  0.63070558  0.11283249  0.37391888  1
  Ti  Ti56  1  0.11609588  0.15101056  0.38155773  1
  Ti  Ti57  1  0.38192893  0.62380321  0.61469854  1
  Ti  Ti58  1  0.37823611  0.13917971  0.86749933  1
  Ti  Ti59  1  0.86737249  0.63993897  0.37740563  1
  Ti  Ti60  1  0.38324208  0.88127973  0.62532519  1
  Ti  Ti61  1  0.37046073  0.87525330  0.12301500  1
  Ti  Ti62  1  0.11665592  0.87530566  0.13358429  1
  Ti  Ti63  1  0.37739993  0.38211604  0.87281013  1
  Ti  Ti64  1  0.12668328  0.38755141  0.87894110  1
  Ti  Ti65  1  0.37303155  0.36315025  0.63001473  1
  Ti  Ti66  1  0.88275139  0.38843334  0.38282284  1
  Ti  Ti67  1  0.10498602  0.38594395  0.36836973  1
  Ti  Ti68  1  0.11768376  0.62680015  0.87537464  1
  Ti  Ti69  1  0.62202705  0.11290477  0.62768602  1
  Ti  Ti70  1  0.62643661  0.88384075  0.62338266  1
  Ti  Ti71  1  0.86424155  0.87289277  0.13177083  1
  Ti  Ti72  1  0.37890845  0.86628308  0.88427932  1
  Ti  Ti73  1  0.88073821  0.11633695  0.63524124  1
  Bi  Bi74  1  0.25367419  0.02112289  0.74957784  1
  Bi  Bi75  1  0.25598112  0.72935141  0.73535851  1
  Bi  Bi76  1  0.26607119  0.50963870  0.23450280  1
  Bi  Bi77  1  0.77019151  0.01340786  -0.01422948  1
  Bi  Bi78  1  0.53102402  0.24445849  0.01920566  1
  Bi  Bi79  1  0.76684930  0.71565822  0.74763622  1
  Bi  Bi80  1  0.76818746  0.76364344  0.52660087  1
  Bi  Bi81  1  0.50972086  -0.00616033  0.78476599  1
  Bi  Bi82  1  -0.03249538  0.49837309  0.01957985  1
  Bi  Bi83  1  0.01631959  0.23228062  0.02561907  1
  Bi  Bi84  1  0.77056671  0.24230686  0.04688937  1
  Bi  Bi85  1  0.24723588  0.52745211  -0.01582263  1
  Bi  Bi86  1  0.76019020  -0.00043361  0.76550573  1
  Bi  Bi87  1  0.49464967  0.01212807  0.23919333  1
  Bi  Bi88  1  0.25862531  0.28667596  0.26669293  1
  Bi  Bi89  1  0.50234947  0.45700564  0.47131925  1
  Bi  Bi90  1  0.00818346  0.74828349  0.70934230  1
  Bi  Bi91  1  0.27551445  0.25460197  0.00581340  1
  Bi  Bi92  1  0.53030600  0.26529963  0.75128826  1
  Bi  Bi93  1  0.51918795  -0.01414076  0.01855361  1
  Bi  Bi94  1  0.52397315  0.74698010  0.26497975  1
  Bi  Bi95  1  0.78026590  0.50301320  0.77612315  1
  Bi  Bi96  1  0.02984390  0.25071369  0.76587725  1
  Bi  Bi97  1  0.27767302  0.50872914  0.73927838  1
  Bi  Bi98  1  0.01164724  0.72745183  0.26723483  1
  Bi  Bi99  1  0.52636980  0.49024920  0.00708521  1
  Bi  Bi100  1  -0.01632267  0.24305155  0.52324281  1
  Bi  Bi101  1  -0.01896936  0.73682651  0.01795136  1
  Bi  Bi102  1  0.75182498  0.46279925  0.02449647  1
  Bi  Bi103  1  0.74735405  0.72180231  -0.01380569  1
  Bi  Bi104  1  0.27217807  0.01014517  -0.01989071  1
  Bi  Bi105  1  0.27383043  0.46938643  0.46716318  1
  Bi  Bi106  1  0.00955874  0.00542831  0.28607787  1
  Bi  Bi107  1  0.75558782  0.27491131  0.76237952  1
  Bi  Bi108  1  0.28562680  0.23961318  0.48410720  1
  Bi  Bi109  1  0.52706986  0.49815173  0.74969447  1
  Bi  Bi110  1  0.51723132  0.74647302  0.01648948  1
  Bi  Bi111  1  0.01475655  0.49972597  0.72593161  1
  Bi  Bi112  1  0.02845694  0.00497275  0.77860750  1
  Bi  Bi113  1  0.02336854  -0.04201650  0.50680196  1
  Bi  Bi114  1  0.53248762  0.23983285  0.51248808  1
  Bi  Bi115  1  0.50449294  0.50587346  0.24298960  1
  Bi  Bi116  1  0.24889931  0.76808798  0.24420481  1
  Bi  Bi117  1  0.26286463  0.77256402  0.50077964  1
  Bi  Bi118  1  0.51012421  0.76030133  0.50198654  1
  Bi  Bi119  1  0.00122313  -0.03161349  -0.00535746  1
  Bi  Bi120  1  0.26848570  0.04399095  0.26881357  1
  Bi  Bi121  1  0.75602176  0.25073507  0.53093838  1
  Bi  Bi122  1  0.47030386  0.23539374  0.29202825  1
  Bi  Bi123  1  0.53690029  0.74951098  0.75279711  1
  Bi  Bi124  1  0.25851994  0.01059450  0.51631689  1
  O  O125  1  0.13598523  0.15851533  0.01742841  1
  O  O126  1  0.11277767  0.09854404  0.24955858  1
  O  O127  1  0.11864913  0.16200112  0.49510302  1
  O  O128  1  0.12914407  0.09205466  0.74826278  1
  O  O129  1  0.11230740  0.35533318  0.00175983  1
  O  O130  1  0.08264400  0.40659496  0.26026887  1
  O  O131  1  0.15024369  0.36501526  0.50208009  1
  O  O132  1  0.11154926  0.40836696  0.75658702  1
  O  O133  1  0.16087344  0.64223460  0.00587900  1
  O  O134  1  0.08806749  0.59679194  0.24579146  1
  O  O135  1  0.13484445  0.65293830  0.48986397  1
  O  O136  1  0.09710672  0.60837967  0.75932683  1
  O  O137  1  0.11895449  0.85473506  0.00250677  1
  O  O138  1  0.15141026  0.88305642  0.24380477  1
  O  O139  1  0.09746586  0.83948527  0.49433950  1
  O  O140  1  0.12970415  0.90510075  0.76169553  1
  O  O141  1  0.35094052  0.13308318  -0.00402896  1
  O  O142  1  0.39116436  0.11279105  0.24855622  1
  O  O143  1  0.36032828  0.13266398  0.50024045  1
  O  O144  1  0.37581078  0.10485519  0.75354698  1
  O  O145  1  0.36166419  0.37089592  -0.00604459  1
  O  O146  1  0.35962316  0.38386625  0.23698032  1
  O  O147  1  0.36027910  0.36822196  0.50700111  1
  O  O148  1  0.35445152  0.37211540  0.75201620  1
  O  O149  1  0.35469941  0.62982193  0.00107069  1
  O  O150  1  0.38433688  0.59035455  0.25450565  1
  O  O151  1  0.35574663  0.63442808  0.49915601  1
  O  O152  1  0.37757046  0.62440189  0.75184748  1
  O  O153  1  0.39429901  0.85630221  -0.00094283  1
  O  O154  1  0.36252252  0.87608755  0.24782690  1
  O  O155  1  0.38699293  0.83558147  0.49022765  1
  O  O156  1  0.36994037  0.89432841  0.73755603  1
  O  O157  1  0.63909443  0.16069200  0.00498684  1
  O  O158  1  0.60190785  0.09978730  0.25820230  1
  O  O159  1  0.64219300  0.15276827  0.48893365  1
  O  O160  1  0.60807201  0.09690778  0.73965250  1
  O  O161  1  0.60685315  0.36316953  0.00072054  1
  O  O162  1  0.63910259  0.41178329  0.25411983  1
  O  O163  1  0.63980749  0.35136887  0.48856130  1
  O  O164  1  0.60972321  0.38428519  0.74307122  1
  O  O165  1  0.62601584  0.65403141  0.00135642  1
  O  O166  1  0.59597041  0.61049551  0.25653996  1
  O  O167  1  0.63367062  0.65103387  0.49677136  1
  O  O168  1  0.60114439  0.61650954  0.74203148  1
  O  O169  1  0.60654122  0.85377786  0.00427695  1
  O  O170  1  0.62977942  0.88147661  0.24910044  1
  O  O171  1  0.62117877  0.85145210  0.49356942  1
  O  O172  1  0.61459288  0.90306631  0.73934315  1
  O  O173  1  0.85144260  0.13115784  0.00960347  1
  O  O174  1  0.88030823  0.08737372  0.24749697  1
  O  O175  1  0.86387114  0.14841533  0.48802763  1
  O  O176  1  0.87162821  0.09443651  0.74718581  1
  O  O177  1  0.87760104  0.37313547  -0.00700794  1
  O  O178  1  0.89666549  0.40569004  0.26380263  1
  O  O179  1  0.86077940  0.34278122  0.49734778  1
  O  O180  1  0.87632767  0.39213032  0.73962955  1
  O  O181  1  0.86924257  0.65264487  0.00725045  1
  O  O182  1  0.89933494  0.60099131  0.25014848  1
  O  O183  1  0.84650116  0.65079751  0.49029992  1
  O  O184  1  0.87229773  0.61492661  0.74512974  1
  O  O185  1  0.88556890  0.85049598  0.00513256  1
  O  O186  1  0.84640712  0.88909373  0.24681409  1
  O  O187  1  0.87821338  0.84387532  0.49061148  1
  O  O188  1  0.87108332  0.90728530  0.75979498  1
  O  O189  1  0.00249338  0.10916975  0.10888433  1
  O  O190  1  -0.00468075  0.12616846  0.36850969  1
  O  O191  1  -0.00265458  0.14098243  0.62466621  1
  O  O192  1  0.00669111  0.14774075  0.86141844  1
  O  O193  1  0.00152088  0.42845213  0.12787307  1
  O  O194  1  -0.00360297  0.36935228  0.41795880  1
  O  O195  1  0.00123679  0.35075596  0.61079178  1
  O  O196  1  -0.00027444  0.35251989  0.86824853  1
  O  O197  1  0.00654050  0.61206619  0.09861825  1
  O  O198  1  -0.01268650  0.66311831  0.39115899  1
  O  O199  1  0.00002877  0.66489212  0.60213334  1
  O  O200  1  0.00631399  0.64111249  0.90639558  1
  O  O201  1  0.00383650  0.88761316  0.14230104  1
  O  O202  1  -0.00749496  0.84994798  0.34829288  1
  O  O203  1  0.00208088  0.86414821  0.63808734  1
  O  O204  1  0.00028162  0.87404843  0.87867223  1
  O  O205  1  0.24400373  0.13289961  0.15767791  1
  O  O206  1  0.23293031  0.12504273  0.37006639  1
  O  O207  1  0.25269747  0.09239158  0.62713766  1
  O  O208  1  0.25203271  0.09686520  0.87033550  1
  O  O209  1  0.23111758  0.35494856  0.13354770  1
  O  O210  1  0.22968075  0.39814457  0.35406124  1
  O  O211  1  0.24438643  0.40538605  0.63826978  1
  O  O212  1  0.24109914  0.39379329  0.87123657  1
  O  O213  1  0.25119401  0.63839834  0.16011398  1
  O  O214  1  0.24389285  0.58839755  0.36443377  1
  O  O215  1  0.24818435  0.61462310  0.64951335  1
  O  O216  1  0.24529540  0.60578650  0.86093075  1
  O  O217  1  0.25828978  0.83474010  0.10862946  1
  O  O218  1  0.25681372  0.87067148  0.39342121  1
  O  O219  1  0.25710677  0.88455577  0.59216405  1
  O  O220  1  0.25052328  0.89160763  0.88774699  1
  O  O221  1  0.49859409  0.08622044  0.11805325  1
  O  O222  1  0.50911227  0.15001932  0.39461973  1
  O  O223  1  0.50501814  0.12497097  0.58996198  1
  O  O224  1  0.49260156  0.14788655  0.87429835  1
  O  O225  1  0.49013823  0.40672517  0.12486300  1
  O  O226  1  0.51823573  0.35826977  0.37222809  1
  O  O227  1  0.48901527  0.35544617  0.62528622  1
  O  O228  1  0.48890537  0.35301761  0.86235951  1
  O  O229  1  0.49047794  0.58804670  0.12037352  1
  O  O230  1  0.49669678  0.64789013  0.38461650  1
  O  O231  1  0.49375122  0.65175802  0.61092176  1
  O  O232  1  0.49287016  0.65210944  0.88299158  1
  O  O233  1  0.49667645  0.89789382  0.13377908  1
  O  O234  1  0.50310775  0.84888807  0.36776138  1
  O  O235  1  0.50143636  0.85337816  0.61717872  1
  O  O236  1  0.49318399  0.86300408  0.85499365  1
  O  O237  1  0.75197779  0.15589772  0.15331128  1
  O  O238  1  0.75065196  0.10139002  0.35002825  1
  O  O239  1  0.74643191  0.11521626  0.62128024  1
  O  O240  1  0.75249397  0.09230160  0.86943235  1
  O  O241  1  0.74662938  0.36987018  0.12569735  1
  O  O242  1  0.75910611  0.39628455  0.36184072  1
  O  O243  1  0.75614311  0.37447265  0.62633285  1
  O  O244  1  0.75238311  0.38299705  0.85682234  1
  O  O245  1  0.75040577  0.65651724  0.13498118  1
  O  O246  1  0.74729916  0.60055785  0.36217765  1
  O  O247  1  0.74071278  0.61280633  0.63638229  1
  O  O248  1  0.75090882  0.62189858  0.87566918  1
  O  O249  1  0.74777729  0.84502866  0.12525714  1
  O  O250  1  0.74158104  0.89641348  0.37099221  1
  O  O251  1  0.74625456  0.89125765  0.61008200  1
  O  O252  1  0.75597526  0.90618070  0.88056699  1
  O  O253  1  0.14141532  -0.00579978  0.10629462  1
  O  O254  1  0.09968110  -0.00775747  0.39244659  1
  O  O255  1  0.12355863  -0.00209351  0.58489206  1
  O  O256  1  0.10192042  0.00279960  0.90067297  1
  O  O257  1  0.06863661  0.27524587  0.14514597  1
  O  O258  1  0.12459417  0.26179330  0.35127492  1
  O  O259  1  0.14815848  0.26372478  0.66349837  1
  O  O260  1  0.14406039  0.26113499  0.84210821  1
  O  O261  1  0.15306293  0.50488826  0.10881058  1
  O  O262  1  0.08983341  0.50504930  0.40782853  1
  O  O263  1  0.08613426  0.49669317  0.60643742  1
  O  O264  1  0.11207039  0.50369923  0.90736527  1
  O  O265  1  0.11805301  0.74566353  0.13724964  1
  O  O266  1  0.13501770  0.73363195  0.33630436  1
  O  O267  1  0.13899697  0.75034382  0.65825961  1
  O  O268  1  0.14033338  0.75045248  0.86540465  1
  O  O269  1  0.34987048  -0.01189860  0.11048385  1
  O  O270  1  0.39143062  -0.01206937  0.38505655  1
  O  O271  1  0.38975401  -0.01024304  0.57930586  1
  O  O272  1  0.38587153  -0.00521939  0.89807398  1
  O  O273  1  0.37528837  0.25748660  0.11270583  1
  O  O274  1  0.35616792  0.25904194  0.36173012  1
  O  O275  1  0.34206152  0.25279967  0.62985272  1
  O  O276  1  0.33725558  0.25067031  0.86900666  1
  O  O277  1  0.34019838  0.49860501  0.11188326  1
  O  O278  1  0.39433222  0.50112175  0.39610037  1
  O  O279  1  0.38320041  0.50561168  0.63215540  1
  O  O280  1  0.38609606  0.49986431  0.87485072  1
  O  O281  1  0.40089848  0.73873001  0.13534529  1
  O  O282  1  0.35213541  0.73666940  0.35341523  1
  O  O283  1  0.34696265  0.74991992  0.63038259  1
  O  O284  1  0.35387413  0.75156106  0.86407198  1
  O  O285  1  0.63737034  -0.00992400  0.09799693  1
  O  O286  1  0.59758107  0.00136694  0.39848577  1
  O  O287  1  0.62828286  -0.00075077  0.58985890  1
  O  O288  1  0.59805392  0.00113416  0.88931584  1
  O  O289  1  0.58080108  0.24929300  0.14276379  1
  O  O290  1  0.65481678  0.24632493  0.33458173  1
  O  O291  1  0.62271151  0.24254461  0.63364000  1
  O  O292  1  0.63943999  0.24877077  0.83800662  1
  O  O293  1  0.63555014  0.50315868  0.09175142  1
  O  O294  1  0.61717247  0.50567594  0.40483026  1
  O  O295  1  0.59694271  0.50645213  0.61353494  1
  O  O296  1  0.59812375  0.50009951  0.87628238  1
  O  O297  1  0.59243206  0.75314742  0.13770578  1
  O  O298  1  0.64311947  0.74584760  0.34109663  1
  O  O299  1  0.63756696  0.75535923  0.64554891  1
  O  O300  1  0.63783723  0.75364191  0.84508189  1
  O  O301  1  0.86388533  -0.00885552  0.10492781  1
  O  O302  1  0.89096958  -0.01363076  0.38068980  1
  O  O303  1  0.87309576  0.00669748  0.59437047  1
  O  O304  1  0.89244723  -0.00059249  0.91210201  1
  O  O305  1  0.89624732  0.23824355  0.12849860  1
  O  O306  1  0.85798309  0.24234875  0.33561830  1
  O  O307  1  0.86589727  0.24256558  0.62859628  1
  O  O308  1  0.85450595  0.25288339  0.85609000  1
  O  O309  1  0.85186429  0.51533930  0.10412095  1
  O  O310  1  0.88098074  0.49931366  0.41449821  1
  O  O311  1  0.90533465  0.49276909  0.59418322  1
  O  O312  1  0.87796327  0.49596505  0.87293995  1
  O  O313  1  0.90109195  0.74975906  0.14159644  1
  O  O314  1  0.83956824  0.74902090  0.34198036  1
  O  O315  1  0.85049503  0.75416061  0.63979691  1
  O  O316  1  0.85962775  0.75617358  0.85677152  1
