# generated using pymatgen
data_Mg32Ti42(Bi17O64)3
_symmetry_space_group_name_H-M   'P 1'
_cell_length_a   15.91918650
_cell_length_b   15.97228338
_cell_length_c   15.92919803
_cell_angle_alpha   89.89668339
_cell_angle_beta   90.09212145
_cell_angle_gamma   90.00383796
_symmetry_Int_Tables_number   1
_chemical_formula_structural   Mg32Ti42(Bi17O64)3
_chemical_formula_sum   'Mg32 Ti42 Bi51 O192'
_cell_volume   4050.23778032
_cell_formula_units_Z   1
loop_
 _symmetry_equiv_pos_site_id
 _symmetry_equiv_pos_as_xyz
  1  'x, y, z'
loop_
 _atom_site_type_symbol
 _atom_site_label
 _atom_site_symmetry_multiplicity
 _atom_site_fract_x
 _atom_site_fract_y
 _atom_site_fract_z
 _atom_site_occupancy
  Mg  Mg0  1  0.13050488  0.13560432  0.13022790  1
  Mg  Mg1  1  0.38915367  0.12049254  0.37625096  1
  Mg  Mg2  1  0.88130596  0.36147297  0.12726103  1
  Mg  Mg3  1  0.87530143  0.12476410  0.88117369  1
  Mg  Mg4  1  0.38141676  0.87290686  0.38346337  1
  Mg  Mg5  1  0.13504333  0.37301147  0.37710387  1
  Mg  Mg6  1  0.61973748  0.13810101  0.62502894  1
  Mg  Mg7  1  0.62915906  0.12196110  0.88455517  1
  Mg  Mg8  1  0.12248850  0.13484402  0.62236940  1
  Mg  Mg9  1  0.63227204  0.40665098  0.12152603  1
  Mg  Mg10  1  0.61307318  0.61736884  0.88192191  1
  Mg  Mg11  1  0.38242252  0.11704074  0.11676025  1
  Mg  Mg12  1  0.87537084  0.35720097  0.61409554  1
  Mg  Mg13  1  0.62997957  0.12354933  0.36328690  1
  Mg  Mg14  1  0.13337902  0.11590037  0.87425177  1
  Mg  Mg15  1  0.62929460  0.39378418  0.37084959  1
  Mg  Mg16  1  0.12049372  0.61757671  0.62395269  1
  Mg  Mg17  1  0.38427310  0.37460260  0.62644460  1
  Mg  Mg18  1  0.86388285  0.62128814  0.37950994  1
  Mg  Mg19  1  -0.01338948  0.29960913  0.28633434  1
  Mg  Mg20  1  0.46882381  0.45445499  0.05570049  1
  Mg  Mg21  1  0.51734435  0.27551272  0.44653031  1
  Mg  Mg22  1  0.75615284  0.44014056  0.72999666  1
  Mg  Mg23  1  0.26025567  0.46607439  0.49522018  1
  Mg  Mg24  1  0.73215867  0.68702929  0.76395049  1
  Mg  Mg25  1  0.49763190  -0.02162221  -0.00840174  1
  Mg  Mg26  1  0.50152408  0.75706699  -0.03971460  1
  Mg  Mg27  1  0.00749925  0.24843518  0.47794078  1
  Mg  Mg28  1  0.71889993  0.26120946  0.04890615  1
  Mg  Mg29  1  0.75518860  0.52907008  0.23701193  1
  Mg  Mg30  1  0.53422771  0.25228613  0.78365312  1
  Mg  Mg31  1  0.71965986  0.73301275  0.50681245  1
  Ti  Ti32  1  0.11757767  0.36387904  0.13948876  1
  Ti  Ti33  1  0.62877088  0.11169384  0.11454520  1
  Ti  Ti34  1  0.87052317  0.37430297  0.87774717  1
  Ti  Ti35  1  0.13093614  0.86730265  0.11239773  1
  Ti  Ti36  1  0.87242967  0.87615074  0.86453414  1
  Ti  Ti37  1  0.61350099  0.63272408  0.10673404  1
  Ti  Ti38  1  0.62774091  0.88313150  0.38200143  1
  Ti  Ti39  1  0.13388263  0.37200103  0.61493674  1
  Ti  Ti40  1  0.38548504  0.37997071  0.37700146  1
  Ti  Ti41  1  0.86325981  0.62856787  0.62043674  1
  Ti  Ti42  1  0.61644961  0.36123522  0.62860180  1
  Ti  Ti43  1  0.87210605  0.87638027  0.38352698  1
  Ti  Ti44  1  0.63343032  0.39157647  0.87888292  1
  Ti  Ti45  1  0.38217825  0.88262365  0.86670458  1
  Ti  Ti46  1  0.13726140  0.60819943  0.38312070  1
  Ti  Ti47  1  0.86514707  0.39967290  0.37080386  1
  Ti  Ti48  1  0.11414755  0.87904075  0.63049968  1
  Ti  Ti49  1  0.86934545  0.62334289  0.87433054  1
  Ti  Ti50  1  0.87945408  0.63178124  0.12885894  1
  Ti  Ti51  1  0.62485905  0.62739853  0.62734914  1
  Ti  Ti52  1  0.88553262  0.13810112  0.61174383  1
  Ti  Ti53  1  0.37640888  0.61995601  0.86292980  1
  Ti  Ti54  1  0.38251537  0.13921553  0.87745536  1
  Ti  Ti55  1  0.87966153  0.13031824  0.12481169  1
  Ti  Ti56  1  0.38101048  0.13547481  0.63323605  1
  Ti  Ti57  1  0.88061441  0.13266931  0.36710725  1
  Ti  Ti58  1  0.12438802  0.62864511  0.11733220  1
  Ti  Ti59  1  0.37356110  0.64169735  0.12823401  1
  Ti  Ti60  1  0.89027395  0.86730410  0.12702028  1
  Ti  Ti61  1  0.36415953  0.61820516  0.61833855  1
  Ti  Ti62  1  0.12091926  0.63535293  0.87321360  1
  Ti  Ti63  1  0.13421579  0.87702791  0.87297995  1
  Ti  Ti64  1  0.61663890  0.87222140  0.10538822  1
  Ti  Ti65  1  0.63496137  0.87674688  0.62215323  1
  Ti  Ti66  1  0.12486067  0.14215977  0.36541964  1
  Ti  Ti67  1  0.38528156  0.38332172  0.86651868  1
  Ti  Ti68  1  0.38534334  0.87334153  0.62230520  1
  Ti  Ti69  1  0.62885796  0.62058843  0.38179907  1
  Ti  Ti70  1  0.86587578  0.87452931  0.62081180  1
  Ti  Ti71  1  0.62582779  0.88289437  0.86063700  1
  Ti  Ti72  1  0.37261964  0.63398986  0.37319194  1
  Ti  Ti73  1  0.37707957  0.87481120  0.11977481  1
  Bi  Bi74  1  0.27654528  0.51570998  0.00321336  1
  Bi  Bi75  1  -0.00887627  0.75768867  -0.02114699  1
  Bi  Bi76  1  0.01766866  0.03015633  0.00787010  1
  Bi  Bi77  1  0.50640123  0.73939155  0.74864981  1
  Bi  Bi78  1  0.02572955  0.25218019  -0.03215246  1
  Bi  Bi79  1  0.26765916  -0.00240195  0.27549366  1
  Bi  Bi80  1  0.47764054  0.51615457  0.50518391  1
  Bi  Bi81  1  0.51367681  0.27306513  -0.00592178  1
  Bi  Bi82  1  0.51402927  0.76932171  0.24620383  1
  Bi  Bi83  1  0.75604245  0.23649486  0.77821755  1
  Bi  Bi84  1  0.24833990  0.01478067  0.72116178  1
  Bi  Bi85  1  0.75989399  0.75201745  0.27429469  1
  Bi  Bi86  1  0.02277594  0.02253758  0.49353248  1
  Bi  Bi87  1  0.73268453  0.75065650  -0.03428568  1
  Bi  Bi88  1  0.52265678  0.03025137  0.49697563  1
  Bi  Bi89  1  0.26654579  0.02896591  0.49969968  1
  Bi  Bi90  1  0.02797183  0.28227847  0.75532383  1
  Bi  Bi91  1  0.28872884  0.23712928  0.26265687  1
  Bi  Bi92  1  0.76487479  0.02300088  0.49960441  1
  Bi  Bi93  1  0.25898811  0.75099542  0.72941258  1
  Bi  Bi94  1  0.76218177  0.02777434  0.74363223  1
  Bi  Bi95  1  0.78332721  -0.00912659  0.01116368  1
  Bi  Bi96  1  0.00171163  0.03139752  0.75643243  1
  Bi  Bi97  1  0.01060719  0.47305289  0.49720660  1
  Bi  Bi98  1  0.28232174  0.27941458  0.04497197  1
  Bi  Bi99  1  0.28943148  0.25868822  0.50302046  1
  Bi  Bi100  1  0.22138859  0.77104366  0.27330024  1
  Bi  Bi101  1  0.01586144  0.74777488  0.50946342  1
  Bi  Bi102  1  0.73983751  0.29658580  0.24257718  1
  Bi  Bi103  1  0.51207943  0.02703507  0.75910732  1
  Bi  Bi104  1  0.26659232  0.48332957  0.21983780  1
  Bi  Bi105  1  0.50800767  0.49522359  0.74090536  1
  Bi  Bi106  1  0.02919091  0.47668253  -0.01984372  1
  Bi  Bi107  1  0.25323269  0.00892775  0.01794972  1
  Bi  Bi108  1  0.24584790  0.25859208  0.79179643  1
  Bi  Bi109  1  0.23779154  0.77876005  0.49419398  1
  Bi  Bi110  1  0.75014065  0.48726544  0.51746120  1
  Bi  Bi111  1  0.50784748  0.52830440  0.24645352  1
  Bi  Bi112  1  0.71248772  0.24902300  0.47807885  1
  Bi  Bi113  1  -0.01906148  0.75849031  0.73456311  1
  Bi  Bi114  1  0.27300551  0.75391447  -0.02917317  1
  Bi  Bi115  1  0.20762267  0.49319011  0.76365010  1
  Bi  Bi116  1  0.02000305  0.51011191  0.24543604  1
  Bi  Bi117  1  0.51339820  0.76563194  0.49183847  1
  Bi  Bi118  1  -0.03786265  0.49419810  0.72834113  1
  Bi  Bi119  1  -0.00300989  0.74263765  0.27993193  1
  Bi  Bi120  1  0.51542351  0.01225838  0.24199421  1
  Bi  Bi121  1  0.04551119  -0.01813433  0.27630776  1
  Bi  Bi122  1  0.76982615  0.00010124  0.23801289  1
  Bi  Bi123  1  0.78519916  0.49684119  0.02311413  1
  Bi  Bi124  1  0.50889463  0.25751838  0.21697350  1
  O  O125  1  0.10519564  0.14012155  -0.00056721  1
  O  O126  1  0.13617554  0.10745016  0.25380467  1
  O  O127  1  0.08627687  0.14566967  0.49359608  1
  O  O128  1  0.13050776  0.09343757  0.74826466  1
  O  O129  1  0.09730657  0.36021418  0.01270659  1
  O  O130  1  0.14025475  0.40530673  0.25081362  1
  O  O131  1  0.08538681  0.35285662  0.50261424  1
  O  O132  1  0.12910354  0.38240230  0.74386133  1
  O  O133  1  0.10806127  0.64465233  0.00514382  1
  O  O134  1  0.13437860  0.58744501  0.25848812  1
  O  O135  1  0.10416499  0.64131573  0.49555222  1
  O  O136  1  0.12983785  0.60936038  0.75690330  1
  O  O137  1  0.11023224  0.84227179  -0.00260646  1
  O  O138  1  0.15141302  0.88650503  0.23431050  1
  O  O139  1  0.11165279  0.84926270  0.51062665  1
  O  O140  1  0.13295112  0.88666416  0.75541913  1
  O  O141  1  0.39907326  0.15271108  -0.01144034  1
  O  O142  1  0.35203347  0.10760491  0.25038402  1
  O  O143  1  0.37880784  0.11937568  0.50708037  1
  O  O144  1  0.36546374  0.09382724  0.74867664  1
  O  O145  1  0.40140767  0.36207247  -0.00630369  1
  O  O146  1  0.35059099  0.38044353  0.26360557  1
  O  O147  1  0.40706823  0.33491813  0.49723359  1
  O  O148  1  0.38803917  0.40881593  0.75199614  1
  O  O149  1  0.37259008  0.64682859  0.01036005  1
  O  O150  1  0.36810864  0.59565890  0.25841005  1
  O  O151  1  0.39533019  0.63873470  0.50281287  1
  O  O152  1  0.36879038  0.59839577  0.75000936  1
  O  O153  1  0.39655921  0.83382182  -0.01019332  1
  O  O154  1  0.36461269  0.90385391  0.23693251  1
  O  O155  1  0.36423046  0.84107535  0.50992789  1
  O  O156  1  0.36558887  0.88588604  0.75013549  1
  O  O157  1  0.63888701  0.15763979  0.00716486  1
  O  O158  1  0.63624083  0.07741038  0.24366266  1
  O  O159  1  0.59262212  0.15450807  0.49947785  1
  O  O160  1  0.63341513  0.09270053  0.74358841  1
  O  O161  1  0.63462251  0.34979864  -0.00549848  1
  O  O162  1  0.66687248  0.41514385  0.24915415  1
  O  O163  1  0.60787484  0.34567265  0.50900455  1
  O  O164  1  0.63045183  0.40825197  0.74712182  1
  O  O165  1  0.59724714  0.66945631  0.00051005  1
  O  O166  1  0.63598301  0.59359219  0.26336789  1
  O  O167  1  0.61336796  0.65502085  0.50656367  1
  O  O168  1  0.62123978  0.62391779  0.74910545  1
  O  O169  1  0.59797550  0.84705945  -0.00510128  1
  O  O170  1  0.60755254  0.89182577  0.26323035  1
  O  O171  1  0.63647570  0.83269880  0.50269976  1
  O  O172  1  0.62945469  0.90089143  0.74544899  1
  O  O173  1  0.87755290  0.10012688  0.00460899  1
  O  O174  1  0.85260279  0.12073023  0.25072785  1
  O  O175  1  0.89234594  0.09759907  0.49533555  1
  O  O176  1  0.87025690  0.12483147  0.73555453  1
  O  O177  1  0.88541377  0.39425931  -0.00292173  1
  O  O178  1  0.86952993  0.35349864  0.25963212  1
  O  O179  1  0.88627279  0.40697916  0.49402028  1
  O  O180  1  0.86962339  0.37355645  0.74620665  1
  O  O181  1  0.87821576  0.60519890  0.00700763  1
  O  O182  1  0.83610884  0.63566358  0.24182544  1
  O  O183  1  0.85112129  0.60588646  0.50865510  1
  O  O184  1  0.85832407  0.65657517  0.75974819  1
  O  O185  1  0.88587349  0.89132353  0.00332888  1
  O  O186  1  0.85053280  0.86114664  0.24186572  1
  O  O187  1  0.88313142  0.87537871  0.49949179  1
  O  O188  1  0.86548779  0.85152111  0.75096313  1
  O  O189  1  -0.00539310  0.12611149  0.12553115  1
  O  O190  1  -0.00789942  0.08893808  0.36127233  1
  O  O191  1  -0.00196976  0.09668587  0.63143954  1
  O  O192  1  -0.00079800  0.11771259  0.86459036  1
  O  O193  1  0.00557155  0.34286705  0.16464707  1
  O  O194  1  -0.00696423  0.40971138  0.36313623  1
  O  O195  1  -0.00140665  0.40424594  0.62918356  1
  O  O196  1  -0.00834384  0.36873373  0.86894416  1
  O  O197  1  -0.00720422  0.63129169  0.15265338  1
  O  O198  1  -0.00279149  0.60997553  0.35144066  1
  O  O199  1  -0.01875255  0.59581783  0.63194749  1
  O  O200  1  -0.00031078  0.65271768  0.87580738  1
  O  O201  1  0.00330100  0.86416338  0.13915918  1
  O  O202  1  -0.01158389  0.87669518  0.35239624  1
  O  O203  1  -0.00485707  0.88254660  0.64900328  1
  O  O204  1  -0.00395447  0.85056817  0.86987625  1
  O  O205  1  0.25584576  0.11369266  0.09956829  1
  O  O206  1  0.23921457  0.14935326  0.39143164  1
  O  O207  1  0.25157343  0.11839130  0.62107196  1
  O  O208  1  0.25962415  0.14143386  0.87550292  1
  O  O209  1  0.24161497  0.40113976  0.10240743  1
  O  O210  1  0.25875806  0.35665894  0.41064758  1
  O  O211  1  0.24929265  0.36734554  0.58512691  1
  O  O212  1  0.26722156  0.36775909  0.87569711  1
  O  O213  1  0.24225613  0.60796092  0.11685561  1
  O  O214  1  0.25235030  0.64334529  0.38443807  1
  O  O215  1  0.25233079  0.64903830  0.62438323  1
  O  O216  1  0.25269918  0.61915572  0.89511073  1
  O  O217  1  0.25160572  0.88223889  0.09099609  1
  O  O218  1  0.25368738  0.85288848  0.37836599  1
  O  O219  1  0.23838943  0.84465213  0.62628713  1
  O  O220  1  0.25556064  0.88060416  0.88881492  1
  O  O221  1  0.50492820  0.13361964  0.15102155  1
  O  O222  1  0.50756832  0.08767216  0.36053692  1
  O  O223  1  0.49484096  0.09903935  0.63691148  1
  O  O224  1  0.50414092  0.14081514  0.84166589  1
  O  O225  1  0.51618188  0.35373146  0.11976845  1
  O  O226  1  0.50181549  0.38608711  0.36358328  1
  O  O227  1  0.50718731  0.41497345  0.62833801  1
  O  O228  1  0.51078729  0.34905473  0.86557430  1
  O  O229  1  0.49252956  0.64470467  0.16254772  1
  O  O230  1  0.49874034  0.59731702  0.37074601  1
  O  O231  1  0.49723534  0.59966054  0.63361646  1
  O  O232  1  0.48876380  0.65423653  0.87404818  1
  O  O233  1  0.49332429  0.86265269  0.13403910  1
  O  O234  1  0.50689374  0.88640005  0.40755498  1
  O  O235  1  0.49724270  0.88765801  0.61172978  1
  O  O236  1  0.50137523  0.84345385  0.85723799  1
  O  O237  1  0.74440070  0.08613229  0.11892126  1
  O  O238  1  0.75647945  0.13391963  0.40087448  1
  O  O239  1  0.75765398  0.12871851  0.60692433  1
  O  O240  1  0.75252095  0.11723060  0.85371958  1
  O  O241  1  0.75054351  0.36786252  0.11452645  1
  O  O242  1  0.75551137  0.35459145  0.39492180  1
  O  O243  1  0.74253481  0.36736442  0.61819283  1
  O  O244  1  0.75237729  0.40453029  0.86194941  1
  O  O245  1  0.72521057  0.60677493  0.10760212  1
  O  O246  1  0.73754945  0.66644874  0.39335926  1
  O  O247  1  0.74045528  0.66828748  0.62795142  1
  O  O248  1  0.74820061  0.62840746  0.88644495  1
  O  O249  1  0.73078242  0.89310982  0.10973436  1
  O  O250  1  0.74601515  0.84996993  0.37858826  1
  O  O251  1  0.74966870  0.85266990  0.61912484  1
  O  O252  1  0.74487220  0.88307418  0.89448379  1
  O  O253  1  0.12389664  -0.00970301  0.09479772  1
  O  O254  1  0.12631281  0.00891471  0.38826301  1
  O  O255  1  0.13596734  -0.01007284  0.60367382  1
  O  O256  1  0.11846737  -0.01101964  0.90229152  1
  O  O257  1  0.16564217  0.25864316  0.13846236  1
  O  O258  1  0.08691752  0.25309726  0.35308986  1
  O  O259  1  0.12153478  0.25680530  0.65082584  1
  O  O260  1  0.11514199  0.24458738  0.85730709  1
  O  O261  1  0.09498912  0.50237504  0.10839074  1
  O  O262  1  0.15411882  0.49818491  0.42040053  1
  O  O263  1  0.15258814  0.49302059  0.62434038  1
  O  O264  1  0.12893541  0.51168989  0.89078074  1
  O  O265  1  0.13120420  0.74403232  0.14808510  1
  O  O266  1  0.11407580  0.73641108  0.35324145  1
  O  O267  1  0.08639825  0.74415737  0.63454181  1
  O  O268  1  0.14841416  0.74928375  0.86400411  1
  O  O269  1  0.38922661  -0.01088711  0.07711201  1
  O  O270  1  0.34983102  -0.00276582  0.38916290  1
  O  O271  1  0.34717895  -0.01551078  0.60872359  1
  O  O272  1  0.40679265  -0.00798849  0.89509425  1
  O  O273  1  0.37030959  0.24644705  0.14811786  1
  O  O274  1  0.39461377  0.24619878  0.35825322  1
  O  O275  1  0.37593056  0.24612466  0.64363997  1
  O  O276  1  0.38085713  0.25278935  0.84263703  1
  O  O277  1  0.37567803  0.51274964  0.11107995  1
  O  O278  1  0.36278156  0.49204281  0.41367260  1
  O  O279  1  0.35723875  0.50305895  0.58771435  1
  O  O280  1  0.38600544  0.50280998  0.90199943  1
  O  O281  1  0.35460974  0.75327167  0.14780731  1
  O  O282  1  0.39788399  0.74264286  0.35800226  1
  O  O283  1  0.38514511  0.74528459  0.65859290  1
  O  O284  1  0.35117902  0.74428622  0.85366425  1
  O  O285  1  0.58555928  -0.00410534  0.09091548  1
  O  O286  1  0.64342693  -0.00569383  0.41104274  1
  O  O287  1  0.63672400  -0.01071906  0.58837555  1
  O  O288  1  0.59254492  -0.00890599  0.89640456  1
  O  O289  1  0.63843495  0.23299803  0.15328057  1
  O  O290  1  0.62235457  0.25362558  0.36424607  1
  O  O291  1  0.59348876  0.25772158  0.66900532  1
  O  O292  1  0.64353031  0.25362755  0.84918362  1
  O  O293  1  0.57266960  0.51645744  0.10268863  1
  O  O294  1  0.64329169  0.51023469  0.41989589  1
  O  O295  1  0.65053673  0.51493383  0.61003270  1
  O  O296  1  0.60131713  0.49609141  0.89720224  1
  O  O297  1  0.62215172  0.75403741  0.15335115  1
  O  O298  1  0.59263157  0.74554195  0.36310371  1
  O  O299  1  0.59312178  0.75620885  0.64036602  1
  O  O300  1  0.65104948  0.75650663  0.85035114  1
  O  O301  1  0.87094648  -0.01027564  0.13473000  1
  O  O302  1  0.84722717  -0.00978528  0.36848939  1
  O  O303  1  0.85584471  -0.01207129  0.62674582  1
  O  O304  1  0.87293998  -0.00890501  0.85412917  1
  O  O305  1  0.84100621  0.23572838  0.10912478  1
  O  O306  1  0.91483641  0.24100720  0.38475629  1
  O  O307  1  0.91650022  0.24338277  0.58505971  1
  O  O308  1  0.85285215  0.25700272  0.87933333  1
  O  O309  1  0.85516060  0.50435437  0.14131232  1
  O  O310  1  0.82816705  0.50273905  0.34732882  1
  O  O311  1  0.83563595  0.51550208  0.66098393  1
  O  O312  1  0.88648908  0.50995830  0.86404515  1
  O  O313  1  0.86504580  0.74888997  0.10813826  1
  O  O314  1  0.88268494  0.74861119  0.36384639  1
  O  O315  1  0.90235429  0.74621794  0.61608037  1
  O  O316  1  0.86130109  0.75285676  0.90403354  1
