# generated using pymatgen
data_Mg32Ti42(Bi17O64)3
_symmetry_space_group_name_H-M   'P 1'
_cell_length_a   15.96790319
_cell_length_b   15.92435719
_cell_length_c   15.94921325
_cell_angle_alpha   89.98051001
_cell_angle_beta   89.83516574
_cell_angle_gamma   90.07073662
_symmetry_Int_Tables_number   1
_chemical_formula_structural   Mg32Ti42(Bi17O64)3
_chemical_formula_sum   'Mg32 Ti42 Bi51 O192'
_cell_volume   4055.52340694
_cell_formula_units_Z   1
loop_
 _symmetry_equiv_pos_site_id
 _symmetry_equiv_pos_as_xyz
  1  'x, y, z'
loop_
 _atom_site_type_symbol
 _atom_site_label
 _atom_site_symmetry_multiplicity
 _atom_site_fract_x
 _atom_site_fract_y
 _atom_site_fract_z
 _atom_site_occupancy
  Mg  Mg0  1  0.10451268  0.13320464  0.37995059  1
  Mg  Mg1  1  0.12155298  0.86802466  0.87765945  1
  Mg  Mg2  1  0.36909881  0.87834666  0.62225761  1
  Mg  Mg3  1  0.38114453  0.11313369  0.37040742  1
  Mg  Mg4  1  0.86921627  0.87003574  0.61835439  1
  Mg  Mg5  1  0.37539313  0.87643116  0.88153506  1
  Mg  Mg6  1  0.11377277  0.12678980  0.62610858  1
  Mg  Mg7  1  0.62208837  0.87642718  0.12976192  1
  Mg  Mg8  1  0.11586237  0.87025873  0.36475976  1
  Mg  Mg9  1  0.87122234  0.87496671  0.12203270  1
  Mg  Mg10  1  0.85986918  0.38142669  0.37138624  1
  Mg  Mg11  1  0.62422572  0.12194597  0.87949986  1
  Mg  Mg12  1  0.35788753  0.63742156  0.37774845  1
  Mg  Mg13  1  0.62463574  0.86963465  0.63221381  1
  Mg  Mg14  1  0.12765809  0.86970028  0.61058834  1
  Mg  Mg15  1  0.36849539  0.12444134  0.88395549  1
  Mg  Mg16  1  0.37254215  0.61629545  0.86585751  1
  Mg  Mg17  1  0.12516503  0.63615478  0.12425041  1
  Mg  Mg18  1  0.62662002  0.61992142  0.61621451  1
  Mg  Mg19  1  0.77234278  0.19546831  0.81502475  1
  Mg  Mg20  1  0.02868244  0.75203343  0.22434714  1
  Mg  Mg21  1  0.27640886  0.24358943  0.05948235  1
  Mg  Mg22  1  0.47950580  0.53491054  0.26013855  1
  Mg  Mg23  1  -0.01458011  -0.01675245  0.68334861  1
  Mg  Mg24  1  0.20140312  0.76168556  0.48121121  1
  Mg  Mg25  1  0.00446555  0.75071478  0.51661244  1
  Mg  Mg26  1  0.49493933  -0.02593266  0.26951648  1
  Mg  Mg27  1  0.27579139  0.46887639  0.52564272  1
  Mg  Mg28  1  0.76689326  0.25866073  0.57568656  1
  Mg  Mg29  1  0.18747290  0.02340994  0.26216003  1
  Mg  Mg30  1  0.29035053  0.47332600  0.74639707  1
  Mg  Mg31  1  -0.02541738  0.71883677  -0.06704952  1
  Ti  Ti32  1  0.88344489  0.62754755  0.37508657  1
  Ti  Ti33  1  0.13132359  0.38134401  0.38175170  1
  Ti  Ti34  1  0.12485444  0.37898467  0.88193191  1
  Ti  Ti35  1  0.62277953  0.62821977  0.87203121  1
  Ti  Ti36  1  0.61306685  0.37667719  0.37447189  1
  Ti  Ti37  1  0.87149033  0.11830565  0.62880457  1
  Ti  Ti38  1  0.37370932  0.38538995  0.13844567  1
  Ti  Ti39  1  0.86558553  0.86406256  0.37426987  1
  Ti  Ti40  1  0.86500163  0.12514697  0.38362076  1
  Ti  Ti41  1  0.88289889  0.62343624  0.14128720  1
  Ti  Ti42  1  0.86886252  0.38584616  0.88082965  1
  Ti  Ti43  1  0.13445489  0.61737175  0.85785191  1
  Ti  Ti44  1  0.13185736  0.39102570  0.63046900  1
  Ti  Ti45  1  0.61524906  0.61966108  0.37395734  1
  Ti  Ti46  1  0.62445032  0.86583770  0.37251788  1
  Ti  Ti47  1  0.61206449  0.37407876  0.12512843  1
  Ti  Ti48  1  0.63239942  0.87077645  0.86887332  1
  Ti  Ti49  1  0.88082314  0.63507591  0.60782526  1
  Ti  Ti50  1  0.35992696  0.37221990  0.88485570  1
  Ti  Ti51  1  0.11681187  0.36980581  0.12527221  1
  Ti  Ti52  1  0.61844098  0.11751405  0.12691123  1
  Ti  Ti53  1  0.62094425  0.11355314  0.37042058  1
  Ti  Ti54  1  0.11580024  0.88367019  0.12895265  1
  Ti  Ti55  1  0.37238210  0.36849848  0.38304754  1
  Ti  Ti56  1  0.12679282  0.64173300  0.36665609  1
  Ti  Ti57  1  0.38583948  0.36672090  0.63218328  1
  Ti  Ti58  1  0.62417722  0.36834924  0.87089450  1
  Ti  Ti59  1  0.13806556  0.13935852  0.87215020  1
  Ti  Ti60  1  0.13395111  0.62366475  0.60169176  1
  Ti  Ti61  1  0.87946604  0.38009745  0.13362359  1
  Ti  Ti62  1  0.63367021  0.12590784  0.64248405  1
  Ti  Ti63  1  0.37766385  0.88151653  0.12565006  1
  Ti  Ti64  1  0.62053972  0.62778141  0.12570723  1
  Ti  Ti65  1  0.37545026  0.12126087  0.62479776  1
  Ti  Ti66  1  0.87641872  0.13343855  0.13585440  1
  Ti  Ti67  1  0.37153626  0.62875249  0.12681623  1
  Ti  Ti68  1  0.37370831  0.10819136  0.12855004  1
  Ti  Ti69  1  0.36201299  0.61814551  0.62130464  1
  Ti  Ti70  1  0.11641756  0.13379855  0.12817357  1
  Ti  Ti71  1  0.61988641  0.37251179  0.60591095  1
  Ti  Ti72  1  0.89049547  0.86982909  0.88610624  1
  Ti  Ti73  1  0.36218025  0.87332096  0.37332545  1
  Bi  Bi74  1  0.47884527  0.24323386  0.00380166  1
  Bi  Bi75  1  0.77265590  0.02869756  0.00207699  1
  Bi  Bi76  1  0.25958958  0.74921493  -0.03317936  1
  Bi  Bi77  1  0.48725923  0.75320210  0.52867577  1
  Bi  Bi78  1  0.21715533  -0.00658488  0.72118978  1
  Bi  Bi79  1  -0.03516280  0.24305843  -0.03005869  1
  Bi  Bi80  1  0.72297101  0.50945947  -0.01026503  1
  Bi  Bi81  1  0.51324440  0.76414280  -0.00943184  1
  Bi  Bi82  1  0.72663011  -0.01355746  0.51965777  1
  Bi  Bi83  1  0.26220343  0.49311646  0.25763031  1
  Bi  Bi84  1  0.23896320  0.23565280  0.26885662  1
  Bi  Bi85  1  0.51538346  -0.00473585  -0.01217103  1
  Bi  Bi86  1  0.73026524  0.24354862  0.26816258  1
  Bi  Bi87  1  -0.00300192  0.52012414  0.00423667  1
  Bi  Bi88  1  -0.00374667  0.77115649  0.72897458  1
  Bi  Bi89  1  0.78951720  -0.00141881  0.78267512  1
  Bi  Bi90  1  0.48704951  -0.01227348  0.49956646  1
  Bi  Bi91  1  0.47381025  0.51587704  0.48178114  1
  Bi  Bi92  1  0.22810960  0.51688295  0.01399727  1
  Bi  Bi93  1  -0.02462710  0.26365731  0.27389142  1
  Bi  Bi94  1  0.51260370  0.52944377  0.74219553  1
  Bi  Bi95  1  -0.02803470  -0.01097572  0.23882569  1
  Bi  Bi96  1  -0.00676203  -0.04192851  0.47906676  1
  Bi  Bi97  1  0.73594097  0.74843002  0.50705111  1
  Bi  Bi98  1  -0.02396177  0.46362862  0.50953557  1
  Bi  Bi99  1  -0.03383338  0.25174084  0.51176201  1
  Bi  Bi100  1  0.23351839  0.24435068  0.50555718  1
  Bi  Bi101  1  0.48299943  0.22669313  0.25406034  1
  Bi  Bi102  1  0.24483629  0.78571403  0.23124233  1
  Bi  Bi103  1  0.77737721  0.70687052  0.76895360  1
  Bi  Bi104  1  0.23194804  0.75492720  0.73770954  1
  Bi  Bi105  1  0.48360620  0.77309580  0.75112044  1
  Bi  Bi106  1  0.73712005  -0.01384292  0.23228973  1
  Bi  Bi107  1  0.71993766  0.49124740  0.24425851  1
  Bi  Bi108  1  0.74834109  0.73878425  0.24282263  1
  Bi  Bi109  1  0.01085038  0.02458595  -0.02906510  1
  Bi  Bi110  1  -0.03339386  0.28776792  0.73101777  1
  Bi  Bi111  1  0.51575143  0.22013005  0.50734584  1
  Bi  Bi112  1  0.22723719  0.01632008  0.46889588  1
  Bi  Bi113  1  0.47922098  0.23928693  0.77266073  1
  Bi  Bi114  1  0.03278471  0.51392108  0.24937530  1
  Bi  Bi115  1  0.73943964  0.26982996  0.01630880  1
  Bi  Bi116  1  0.79001662  0.72523478  0.00226226  1
  Bi  Bi117  1  0.74875214  0.50441117  0.48318356  1
  Bi  Bi118  1  0.74108545  0.46176001  0.72512898  1
  Bi  Bi119  1  0.48794076  0.75692858  0.25270670  1
  Bi  Bi120  1  0.48239456  0.51871551  -0.00129406  1
  Bi  Bi121  1  0.22478663  -0.00412763  -0.01673873  1
  Bi  Bi122  1  0.22692346  0.25756773  0.74456106  1
  Bi  Bi123  1  -0.02698979  0.52793010  0.76882929  1
  Bi  Bi124  1  0.47552569  -0.00250156  0.75819157  1
  O  O125  1  0.13082435  0.11201529  0.00808289  1
  O  O126  1  0.12546323  0.13942411  0.25244037  1
  O  O127  1  0.14769318  0.12607870  0.50151780  1
  O  O128  1  0.13959163  0.14230514  0.75485502  1
  O  O129  1  0.14016474  0.39018423  -0.00437857  1
  O  O130  1  0.11085488  0.37441714  0.24585198  1
  O  O131  1  0.17044385  0.38471204  0.49805033  1
  O  O132  1  0.12197898  0.35996647  0.74511152  1
  O  O133  1  0.11135270  0.60994820  -0.00357865  1
  O  O134  1  0.14235873  0.60174959  0.25201480  1
  O  O135  1  0.10032497  0.65235303  0.49148704  1
  O  O136  1  0.15635018  0.63412610  0.74110185  1
  O  O137  1  0.11292968  0.90039710  0.01559964  1
  O  O138  1  0.16243936  0.89609971  0.24940020  1
  O  O139  1  0.09580472  0.83998952  0.48824870  1
  O  O140  1  0.13484475  0.85349719  0.74769623  1
  O  O141  1  0.36433669  0.16065656  0.01163684  1
  O  O142  1  0.41545146  0.10412469  0.24123157  1
  O  O143  1  0.38826908  0.13450936  0.50489542  1
  O  O144  1  0.39890406  0.11603614  0.75193637  1
  O  O145  1  0.35040293  0.34265959  -0.00187556  1
  O  O146  1  0.39534788  0.42519560  0.24724038  1
  O  O147  1  0.35337032  0.35407701  0.49515291  1
  O  O148  1  0.39022125  0.39302192  0.74474118  1
  O  O149  1  0.40898724  0.63807802  0.00882459  1
  O  O150  1  0.36462666  0.59752267  0.24663770  1
  O  O151  1  0.40086580  0.63092361  0.50033220  1
  O  O152  1  0.35415316  0.58143838  0.73695999  1
  O  O153  1  0.40738094  0.85554128  0.01393661  1
  O  O154  1  0.34736314  0.89155880  0.25459804  1
  O  O155  1  0.40755426  0.86927322  0.49451452  1
  O  O156  1  0.38860245  0.88250847  0.75257966  1
  O  O157  1  0.63359194  0.09251164  0.00913753  1
  O  O158  1  0.61392193  0.15608451  0.24740964  1
  O  O159  1  0.61161985  0.11276516  0.48777874  1
  O  O160  1  0.64097991  0.14726169  0.75251843  1
  O  O161  1  0.64752325  0.37590296  0.00300151  1
  O  O162  1  0.63050068  0.36410172  0.24365726  1
  O  O163  1  0.61799163  0.40250190  0.49256529  1
  O  O164  1  0.63648799  0.36990349  0.75453891  1
  O  O165  1  0.61130001  0.60977517  0.00544157  1
  O  O166  1  0.65460513  0.62798590  0.24773327  1
  O  O167  1  0.61012590  0.59303817  0.48724736  1
  O  O168  1  0.63494237  0.61800998  0.75443000  1
  O  O169  1  0.59705957  0.87913352  0.00296751  1
  O  O170  1  0.66253851  0.86485396  0.25864811  1
  O  O171  1  0.60955541  0.90377423  0.48967923  1
  O  O172  1  0.61530137  0.84761423  0.75625300  1
  O  O173  1  0.86486615  0.13973156  0.01378567  1
  O  O174  1  0.88185169  0.10669222  0.25416850  1
  O  O175  1  0.85618048  0.16372768  0.49660449  1
  O  O176  1  0.85228168  0.11708225  0.74505938  1
  O  O177  1  0.87056815  0.36307175  -0.00000430  1
  O  O178  1  0.90072620  0.39114230  0.24908165  1
  O  O179  1  0.88280320  0.36101718  0.49379611  1
  O  O180  1  0.89133103  0.39969134  0.75635232  1
  O  O181  1  0.91129935  0.64618715  0.01432771  1
  O  O182  1  0.84523945  0.61200647  0.25395359  1
  O  O183  1  0.90176570  0.66799785  0.49335873  1
  O  O184  1  0.85788747  0.60208519  0.73437578  1
  O  O185  1  0.87323334  0.84433484  -0.00034620  1
  O  O186  1  0.85663160  0.90559648  0.25661749  1
  O  O187  1  0.90408192  0.84942062  0.49082422  1
  O  O188  1  0.90242762  0.90604870  0.75683319  1
  O  O189  1  0.00347462  0.14995120  0.12431467  1
  O  O190  1  -0.01637060  0.15944563  0.38151521  1
  O  O191  1  -0.01145244  0.12532938  0.62935222  1
  O  O192  1  0.01512061  0.13869696  0.88879314  1
  O  O193  1  0.00512959  0.35371192  0.10853366  1
  O  O194  1  0.01669761  0.34970634  0.38755117  1
  O  O195  1  0.01670917  0.36025363  0.60923311  1
  O  O196  1  0.01121220  0.35030288  0.88274126  1
  O  O197  1  -0.00320514  0.64290345  0.16681047  1
  O  O198  1  -0.00723489  0.62142696  0.34835718  1
  O  O199  1  0.00897522  0.66900006  0.62964383  1
  O  O200  1  0.01720572  0.64020542  0.84796905  1
  O  O201  1  0.00273058  0.86522144  0.16420232  1
  O  O202  1  -0.01331652  0.89165686  0.35627696  1
  O  O203  1  0.00052251  0.86035975  0.62687913  1
  O  O204  1  0.00053976  0.83630324  0.88926089  1
  O  O205  1  0.26163404  0.12349565  0.14400088  1
  O  O206  1  0.25778292  0.09114069  0.35465409  1
  O  O207  1  0.26138328  0.10041675  0.63513346  1
  O  O208  1  0.24824580  0.09175114  0.88055112  1
  O  O209  1  0.25498680  0.40231053  0.14413977  1
  O  O210  1  0.25401432  0.37516965  0.33942108  1
  O  O211  1  0.25451706  0.40656626  0.64328783  1
  O  O212  1  0.25431631  0.40249851  0.84941694  1
  O  O213  1  0.25585568  0.62565414  0.10505230  1
  O  O214  1  0.23485841  0.66577286  0.39613787  1
  O  O215  1  0.24941863  0.58851063  0.58437352  1
  O  O216  1  0.25048842  0.60368220  0.90360479  1
  O  O217  1  0.25941604  0.86263712  0.11268397  1
  O  O218  1  0.25205550  0.86421093  0.40985473  1
  O  O219  1  0.24912112  0.90875920  0.61860530  1
  O  O220  1  0.25061599  0.88119402  0.90587258  1
  O  O221  1  0.50081677  0.14615241  0.10783514  1
  O  O222  1  0.50504925  0.15532706  0.37343847  1
  O  O223  1  0.50996786  0.14663668  0.62550550  1
  O  O224  1  0.50241830  0.16107724  0.88983838  1
  O  O225  1  0.49892190  0.37331413  0.11100083  1
  O  O226  1  0.49287512  0.36455773  0.37977379  1
  O  O227  1  0.50029754  0.35430408  0.61685257  1
  O  O228  1  0.51118902  0.34238116  0.87901266  1
  O  O229  1  0.50657161  0.60734314  0.15389292  1
  O  O230  1  0.49804542  0.62101196  0.35619319  1
  O  O231  1  0.49499489  0.62178994  0.64242646  1
  O  O232  1  0.50125766  0.62391687  0.85538282  1
  O  O233  1  0.49261312  0.87719091  0.17238598  1
  O  O234  1  0.51189915  0.86411355  0.34351329  1
  O  O235  1  0.49898020  0.84805352  0.63084744  1
  O  O236  1  0.49940618  0.83811811  0.87479849  1
  O  O237  1  0.74981936  0.11126333  0.13460107  1
  O  O238  1  0.74192591  0.12476687  0.35581067  1
  O  O239  1  0.74815566  0.13308045  0.61121238  1
  O  O240  1  0.74675172  0.09126597  0.87883645  1
  O  O241  1  0.76372252  0.38458665  0.13329733  1
  O  O242  1  0.73748166  0.41358550  0.37102953  1
  O  O243  1  0.74185154  0.37800948  0.61720680  1
  O  O244  1  0.75824472  0.40852885  0.87086154  1
  O  O245  1  0.75562309  0.61113660  0.09880177  1
  O  O246  1  0.74584863  0.61179609  0.39647575  1
  O  O247  1  0.76057759  0.63205311  0.59149218  1
  O  O248  1  0.74240404  0.61318848  0.89390238  1
  O  O249  1  0.74635368  0.91350010  0.11847746  1
  O  O250  1  0.75124016  0.88637184  0.40481360  1
  O  O251  1  0.74675249  0.87020319  0.59286533  1
  O  O252  1  0.74691926  0.88458012  0.87443484  1
  O  O253  1  0.11884142  0.01117199  0.14792593  1
  O  O254  1  0.11950304  0.00107820  0.38405747  1
  O  O255  1  0.10455246  -0.00121660  0.64476762  1
  O  O256  1  0.11322755  -0.00107847  0.88203267  1
  O  O257  1  0.16065749  0.25472833  0.11413657  1
  O  O258  1  0.15770061  0.25218518  0.38544020  1
  O  O259  1  0.15409077  0.25746479  0.61764952  1
  O  O260  1  0.16114496  0.25419310  0.87844854  1
  O  O261  1  0.10698430  0.49650190  0.12205773  1
  O  O262  1  0.11725499  0.49768439  0.37374198  1
  O  O263  1  0.10302778  0.50655134  0.62068228  1
  O  O264  1  0.10541175  0.49748649  0.86130866  1
  O  O265  1  0.12881240  0.76181176  0.14469688  1
  O  O266  1  0.10206506  0.74834828  0.32770039  1
  O  O267  1  0.17489636  0.74206984  0.60911640  1
  O  O268  1  0.15588179  0.73983904  0.87761236  1
  O  O269  1  0.37991626  -0.00233556  0.10034441  1
  O  O270  1  0.41114051  -0.01093608  0.37878677  1
  O  O271  1  0.40814098  0.00431668  0.62243731  1
  O  O272  1  0.41270479  0.00081749  0.88584316  1
  O  O273  1  0.36373804  0.26686063  0.15393066  1
  O  O274  1  0.36436007  0.25021866  0.34420346  1
  O  O275  1  0.35961605  0.25011353  0.64137701  1
  O  O276  1  0.36319223  0.25632694  0.84627907  1
  O  O277  1  0.37724214  0.50134714  0.09131061  1
  O  O278  1  0.35340946  0.49448190  0.40532253  1
  O  O279  1  0.38827080  0.48904092  0.59075998  1
  O  O280  1  0.39746351  0.48684914  0.89475972  1
  O  O281  1  0.38219177  0.74566774  0.15249140  1
  O  O282  1  0.38461588  0.75869415  0.34945307  1
  O  O283  1  0.36863867  0.73595846  0.62808877  1
  O  O284  1  0.35055612  0.74337446  0.86626355  1
  O  O285  1  0.60168053  0.00861384  0.16188192  1
  O  O286  1  0.60253879  0.00348106  0.34561895  1
  O  O287  1  0.63317210  0.00599114  0.63172445  1
  O  O288  1  0.59287098  -0.01205235  0.87094980  1
  O  O289  1  0.63547178  0.25167855  0.10808673  1
  O  O290  1  0.64403283  0.26467044  0.37888469  1
  O  O291  1  0.63777011  0.25426540  0.59261521  1
  O  O292  1  0.67660437  0.25366524  0.89019970  1
  O  O293  1  0.63201539  0.49373184  0.12936514  1
  O  O294  1  0.60041865  0.50059383  0.33078789  1
  O  O295  1  0.62200659  0.49274927  0.64338098  1
  O  O296  1  0.61453277  0.49266250  0.88548766  1
  O  O297  1  0.63141616  0.74379651  0.12719659  1
  O  O298  1  0.63267721  0.74645376  0.38727757  1
  O  O299  1  0.62574714  0.74390239  0.58654616  1
  O  O300  1  0.63393185  0.74351562  0.89597186  1
  O  O301  1  0.90161201  0.00692266  0.11776481  1
  O  O302  1  0.87739535  0.01152484  0.40773126  1
  O  O303  1  0.87991902  -0.00042925  0.60622333  1
  O  O304  1  0.88238299  -0.01128295  0.89772161  1
  O  O305  1  0.86919528  0.25195512  0.15027973  1
  O  O306  1  0.85417208  0.25567535  0.34368895  1
  O  O307  1  0.87724643  0.24864284  0.63344576  1
  O  O308  1  0.87152105  0.26205229  0.86061420  1
  O  O309  1  0.90124932  0.50327358  0.11574937  1
  O  O310  1  0.87757170  0.50989426  0.41171643  1
  O  O311  1  0.89586033  0.51950300  0.60084350  1
  O  O312  1  0.91184509  0.49864292  0.88848186  1
  O  O313  1  0.84752783  0.74514083  0.13946641  1
  O  O314  1  0.85516743  0.75166283  0.34997111  1
  O  O315  1  0.86639906  0.75056699  0.66496119  1
  O  O316  1  0.86370222  0.74681779  0.86621408  1
