# generated using pymatgen
data_Mg32Ti42(Bi17O64)3
_symmetry_space_group_name_H-M   'P 1'
_cell_length_a   15.94385860
_cell_length_b   15.96041271
_cell_length_c   15.92768483
_cell_angle_alpha   89.94477227
_cell_angle_beta   89.88195205
_cell_angle_gamma   90.02085722
_symmetry_Int_Tables_number   1
_chemical_formula_structural   Mg32Ti42(Bi17O64)3
_chemical_formula_sum   'Mg32 Ti42 Bi51 O192'
_cell_volume   4053.11617296
_cell_formula_units_Z   1
loop_
 _symmetry_equiv_pos_site_id
 _symmetry_equiv_pos_as_xyz
  1  'x, y, z'
loop_
 _atom_site_type_symbol
 _atom_site_label
 _atom_site_symmetry_multiplicity
 _atom_site_fract_x
 _atom_site_fract_y
 _atom_site_fract_z
 _atom_site_occupancy
  Mg  Mg0  1  0.37712681  0.86085217  0.87229799  1
  Mg  Mg1  1  0.62727443  0.87101577  0.13110535  1
  Mg  Mg2  1  0.12224139  0.11918736  0.12682405  1
  Mg  Mg3  1  0.37735774  0.88105411  0.63111133  1
  Mg  Mg4  1  0.11730429  0.12712754  0.38357854  1
  Mg  Mg5  1  0.62748081  0.12759045  0.60647889  1
  Mg  Mg6  1  0.87641390  0.12239149  0.86778570  1
  Mg  Mg7  1  0.37352780  0.87708578  0.12852227  1
  Mg  Mg8  1  0.10975118  0.37814153  0.62469817  1
  Mg  Mg9  1  0.62868593  0.86401843  0.86916668  1
  Mg  Mg10  1  0.87305443  0.62660275  0.13141586  1
  Mg  Mg11  1  0.37570433  0.13067547  0.37615798  1
  Mg  Mg12  1  0.62679634  0.85939571  0.37175541  1
  Mg  Mg13  1  0.37438032  0.37800884  0.37549581  1
  Mg  Mg14  1  0.37938297  0.86286617  0.36993899  1
  Mg  Mg15  1  0.86301064  0.36986723  0.12584675  1
  Mg  Mg16  1  0.86482599  0.62147949  0.37800059  1
  Mg  Mg17  1  0.87997595  0.88370357  0.37811573  1
  Mg  Mg18  1  0.63327666  0.36877332  0.87230756  1
  Mg  Mg19  1  0.28003907  -0.05519904  0.49773520  1
  Mg  Mg20  1  0.02108540  0.55396517  0.81749134  1
  Mg  Mg21  1  0.72449004  0.28249620  0.27315240  1
  Mg  Mg22  1  0.73022237  0.21388289  0.72711572  1
  Mg  Mg23  1  0.75012655  0.74120886  0.47835899  1
  Mg  Mg24  1  0.53030913  0.70012121  0.74335846  1
  Mg  Mg25  1  -0.00603685  0.50386641  0.43018932  1
  Mg  Mg26  1  0.51653289  -0.05479322  -0.00259038  1
  Mg  Mg27  1  0.76417215  0.24121683  0.46553882  1
  Mg  Mg28  1  0.01320534  -0.04161237  0.52023694  1
  Mg  Mg29  1  -0.12744045  0.37106186  0.35981669  1
  Mg  Mg30  1  -0.08671632  0.24287322  0.23555732  1
  Mg  Mg31  1  0.79863997  0.75323074  0.27964397  1
  Ti  Ti32  1  0.12735626  0.88524333  0.86674276  1
  Ti  Ti33  1  0.12353035  0.87042822  0.38712279  1
  Ti  Ti34  1  0.12008631  0.61986497  0.13155681  1
  Ti  Ti35  1  0.87616848  0.37233110  0.87287503  1
  Ti  Ti36  1  0.87429148  0.61355131  0.62198085  1
  Ti  Ti37  1  0.62258703  0.37400056  0.38744564  1
  Ti  Ti38  1  0.13148520  0.87017450  0.62868387  1
  Ti  Ti39  1  0.36801524  0.39025626  0.88148539  1
  Ti  Ti40  1  0.86625477  0.35825171  0.63631051  1
  Ti  Ti41  1  0.88292415  0.87980615  0.13599023  1
  Ti  Ti42  1  0.62610197  0.12313466  0.13098530  1
  Ti  Ti43  1  0.12935349  0.62801504  0.37895567  1
  Ti  Ti44  1  0.87243153  0.62841560  0.88455159  1
  Ti  Ti45  1  0.11291385  0.37129630  0.87584739  1
  Ti  Ti46  1  0.62020679  0.86973146  0.62595623  1
  Ti  Ti47  1  0.87711098  0.12238926  0.37616950  1
  Ti  Ti48  1  0.37017809  0.37469068  0.12702850  1
  Ti  Ti49  1  0.12450491  0.36744284  0.11985823  1
  Ti  Ti50  1  0.88042325  0.86206072  0.62552426  1
  Ti  Ti51  1  0.38720618  0.62318760  0.64010752  1
  Ti  Ti52  1  0.36693591  0.62660670  0.37250870  1
  Ti  Ti53  1  0.86946080  0.11461013  0.12620155  1
  Ti  Ti54  1  0.62898381  0.36038171  0.12435686  1
  Ti  Ti55  1  0.11791632  0.37035621  0.36563453  1
  Ti  Ti56  1  0.86736363  0.87445954  0.87257291  1
  Ti  Ti57  1  0.63043750  0.12636702  0.87241156  1
  Ti  Ti58  1  0.62749509  0.63889981  0.38021962  1
  Ti  Ti59  1  0.62925667  0.62091578  0.87385238  1
  Ti  Ti60  1  0.10702459  0.61876398  0.61787170  1
  Ti  Ti61  1  0.37203535  0.12234709  0.13197006  1
  Ti  Ti62  1  0.38293420  0.62893153  0.88188481  1
  Ti  Ti63  1  0.11496425  0.12626073  0.87196195  1
  Ti  Ti64  1  0.12186080  0.88243208  0.13170553  1
  Ti  Ti65  1  0.63008750  0.61426914  0.61405529  1
  Ti  Ti66  1  0.62309274  0.36394959  0.62836303  1
  Ti  Ti67  1  0.37947472  0.37303574  0.62434577  1
  Ti  Ti68  1  0.64144810  0.13119493  0.37817473  1
  Ti  Ti69  1  0.87254346  0.11231176  0.61456043  1
  Ti  Ti70  1  0.63130870  0.62405737  0.12881214  1
  Ti  Ti71  1  0.38054931  0.11868195  0.61380583  1
  Ti  Ti72  1  0.36997558  0.61595908  0.11878474  1
  Ti  Ti73  1  0.11596947  0.11764068  0.61691369  1
  Bi  Bi74  1  0.48469728  0.73863486  0.23395462  1
  Bi  Bi75  1  0.74430460  -0.02115867  0.27483957  1
  Bi  Bi76  1  0.23039705  0.22973929  0.73098770  1
  Bi  Bi77  1  0.24674984  0.75441105  0.22762811  1
  Bi  Bi78  1  0.73177749  0.00213918  0.72692875  1
  Bi  Bi79  1  0.50090719  -0.02750622  0.24248959  1
  Bi  Bi80  1  0.75227938  0.48225258  0.75099210  1
  Bi  Bi81  1  0.73915008  0.73211282  0.74586651  1
  Bi  Bi82  1  0.28766622  0.01331609  0.78318170  1
  Bi  Bi83  1  -0.01826064  0.73966240  0.76026999  1
  Bi  Bi84  1  0.26794279  0.22786356  -0.03744995  1
  Bi  Bi85  1  0.22214121  0.47458992  0.50031067  1
  Bi  Bi86  1  0.73511461  0.50168077  0.25749089  1
  Bi  Bi87  1  0.21350597  0.52335815  -0.02767742  1
  Bi  Bi88  1  -0.01595424  0.00430291  0.76095029  1
  Bi  Bi89  1  0.49642049  0.49990928  0.25485853  1
  Bi  Bi90  1  0.49487843  0.23185058  0.48242673  1
  Bi  Bi91  1  0.74700690  -0.03876928  0.50661454  1
  Bi  Bi92  1  0.26111261  -0.00590847  0.29457730  1
  Bi  Bi93  1  0.21797378  0.22109107  0.25127710  1
  Bi  Bi94  1  0.47807982  -0.01061481  0.48117321  1
  Bi  Bi95  1  0.47993242  0.49508050  0.48628688  1
  Bi  Bi96  1  0.00705109  0.76484569  -0.00724446  1
  Bi  Bi97  1  0.25532332  0.73556327  0.53945158  1
  Bi  Bi98  1  -0.01040545  0.48827321  0.03197321  1
  Bi  Bi99  1  -0.00317059  0.24967729  0.73071740  1
  Bi  Bi100  1  0.24075368  0.47602392  0.74090148  1
  Bi  Bi101  1  0.24577454  0.47702034  0.25287351  1
  Bi  Bi102  1  0.30135155  -0.00613553  -0.00682011  1
  Bi  Bi103  1  0.50026350  0.23200248  -0.00005547  1
  Bi  Bi104  1  -0.00966370  0.23407342  0.02931708  1
  Bi  Bi105  1  -0.00559256  0.71789343  0.25523636  1
  Bi  Bi106  1  0.46206376  0.23794817  0.76968588  1
  Bi  Bi107  1  0.22635305  0.70558154  0.77457211  1
  Bi  Bi108  1  0.23486506  0.75807027  -0.00624077  1
  Bi  Bi109  1  0.48316327  0.24090558  0.24686046  1
  Bi  Bi110  1  0.02493039  0.00041151  0.28248544  1
  Bi  Bi111  1  0.72200883  -0.00580639  0.00607137  1
  Bi  Bi112  1  0.50009134  -0.01420848  0.79092222  1
  Bi  Bi113  1  0.76976789  0.46489007  0.49436209  1
  Bi  Bi114  1  0.75781213  0.76172634  0.03890209  1
  Bi  Bi115  1  0.76988741  0.49532562  0.01386417  1
  Bi  Bi116  1  -0.00130891  0.01421051  0.00219910  1
  Bi  Bi117  1  0.52214193  0.74360497  0.00296163  1
  Bi  Bi118  1  0.47705630  0.75536013  0.51775650  1
  Bi  Bi119  1  0.75053865  0.23658531  -0.03116197  1
  Bi  Bi120  1  0.50829054  0.47546986  0.76425127  1
  Bi  Bi121  1  -0.02889227  0.73819446  0.48455313  1
  Bi  Bi122  1  0.51332050  0.46924015  0.00941079  1
  Bi  Bi123  1  -0.02154355  0.26919432  0.48205796  1
  Bi  Bi124  1  0.24196178  0.22985153  0.49507153  1
  O  O125  1  0.09413062  0.13291717  -0.00918921  1
  O  O126  1  0.13225913  0.11711506  0.25375383  1
  O  O127  1  0.11963283  0.15641878  0.50572369  1
  O  O128  1  0.14710139  0.11524372  0.74505117  1
  O  O129  1  0.13321853  0.35898014  -0.00164257  1
  O  O130  1  0.12756357  0.39842872  0.24803832  1
  O  O131  1  0.13709606  0.36711461  0.49582143  1
  O  O132  1  0.13107331  0.39174909  0.75580114  1
  O  O133  1  0.15565342  0.64446177  0.01006073  1
  O  O134  1  0.10699148  0.61797864  0.25539222  1
  O  O135  1  0.15426459  0.64108488  0.50048697  1
  O  O136  1  0.10289059  0.62050955  0.73824650  1
  O  O137  1  0.12332200  0.85589130  0.00239744  1
  O  O138  1  0.11086382  0.88349546  0.25235622  1
  O  O139  1  0.12409150  0.87209410  0.50115217  1
  O  O140  1  0.12646806  0.88553776  0.74820514  1
  O  O141  1  0.37521900  0.15784773  0.01197438  1
  O  O142  1  0.40062463  0.12267777  0.25062891  1
  O  O143  1  0.37046248  0.16758117  0.50069838  1
  O  O144  1  0.38062274  0.11597885  0.73503840  1
  O  O145  1  0.37424835  0.36321051  0.00023356  1
  O  O146  1  0.37699801  0.41166184  0.24771640  1
  O  O147  1  0.39793611  0.37110812  0.50706645  1
  O  O148  1  0.36532258  0.40710002  0.75155531  1
  O  O149  1  0.35628110  0.63793983  0.00132775  1
  O  O150  1  0.40323986  0.60658543  0.24938955  1
  O  O151  1  0.37542908  0.65499838  0.49038728  1
  O  O152  1  0.41208388  0.62937726  0.75259828  1
  O  O153  1  0.38227965  0.88039165  0.00140986  1
  O  O154  1  0.37131136  0.90905223  0.25396388  1
  O  O155  1  0.38263617  0.86327577  0.49534472  1
  O  O156  1  0.38348639  0.91179763  0.75147241  1
  O  O157  1  0.62673024  0.16700666  0.00038266  1
  O  O158  1  0.62307138  0.10557703  0.24483432  1
  O  O159  1  0.65541331  0.16870279  0.48769483  1
  O  O160  1  0.63994493  0.11165290  0.75549812  1
  O  O161  1  0.60979392  0.35825526  0.00077431  1
  O  O162  1  0.64688332  0.39493491  0.24680711  1
  O  O163  1  0.61006339  0.36598151  0.50374528  1
  O  O164  1  0.63214711  0.40632500  0.74778467  1
  O  O165  1  0.63060229  0.65212473  -0.00870985  1
  O  O166  1  0.62755288  0.59836496  0.24735083  1
  O  O167  1  0.64862496  0.65218170  0.49934424  1
  O  O168  1  0.61113550  0.60344248  0.74637936  1
  O  O169  1  0.61798310  0.85813961  -0.00048390  1
  O  O170  1  0.62596086  0.90716674  0.25087830  1
  O  O171  1  0.66367248  0.84648230  0.50241738  1
  O  O172  1  0.61765208  0.90771301  0.74452950  1
  O  O173  1  0.90783385  0.12510364  -0.00615526  1
  O  O174  1  0.87279010  0.12093410  0.24349308  1
  O  O175  1  0.86296525  0.15940930  0.49696602  1
  O  O176  1  0.87201109  0.08321929  0.74010564  1
  O  O177  1  0.87401398  0.38654964  -0.00836499  1
  O  O178  1  0.83698619  0.34436494  0.24468867  1
  O  O179  1  0.85584380  0.33789487  0.51057740  1
  O  O180  1  0.86943380  0.40139331  0.75013955  1
  O  O181  1  0.85595733  0.64726852  -0.00403507  1
  O  O182  1  0.88810856  0.63073918  0.25482473  1
  O  O183  1  0.85482174  0.66375040  0.50364659  1
  O  O184  1  0.90979766  0.61326229  0.73798508  1
  O  O185  1  0.88047087  0.84074957  -0.00980107  1
  O  O186  1  0.88632215  0.90127599  0.24581445  1
  O  O187  1  0.85538202  0.84751285  0.50482185  1
  O  O188  1  0.89401899  0.89482231  0.74828000  1
  O  O189  1  -0.00449834  0.14189740  0.13098117  1
  O  O190  1  -0.00957223  0.09888926  0.38063088  1
  O  O191  1  -0.00511623  0.14646298  0.63472560  1
  O  O192  1  0.00233054  0.13662429  0.83671508  1
  O  O193  1  0.00371280  0.37491364  0.11626859  1
  O  O194  1  0.00073540  0.38522951  0.39619892  1
  O  O195  1  -0.01556273  0.35166952  0.62267497  1
  O  O196  1  -0.00017670  0.35707029  0.86925124  1
  O  O197  1  0.00546130  0.62960428  0.10982511  1
  O  O198  1  0.00296066  0.62583069  0.40128704  1
  O  O199  1  -0.00234689  0.63185645  0.58958872  1
  O  O200  1  -0.00973923  0.66053882  0.87842252  1
  O  O201  1  -0.00312302  0.84743290  0.11842218  1
  O  O202  1  0.00233502  0.91254699  0.39745865  1
  O  O203  1  0.00059764  0.86902826  0.61101891  1
  O  O204  1  0.00874375  0.84442103  0.87502769  1
  O  O205  1  0.25735796  0.12054042  0.13819324  1
  O  O206  1  0.24868029  0.15140014  0.37804590  1
  O  O207  1  0.24552047  0.14303812  0.61216861  1
  O  O208  1  0.23833080  0.11178742  0.89391852  1
  O  O209  1  0.25291315  0.39411104  0.13521716  1
  O  O210  1  0.24520856  0.38787739  0.36825975  1
  O  O211  1  0.25718035  0.39202135  0.62155679  1
  O  O212  1  0.25085223  0.40780308  0.87376964  1
  O  O213  1  0.25666206  0.61780753  0.15436986  1
  O  O214  1  0.25185251  0.63055452  0.35566356  1
  O  O215  1  0.26478253  0.63054938  0.63491310  1
  O  O216  1  0.26198722  0.59488893  0.85091056  1
  O  O217  1  0.24252667  0.87200571  0.13692044  1
  O  O218  1  0.24725437  0.87935102  0.37924482  1
  O  O219  1  0.24602693  0.88523000  0.60877637  1
  O  O220  1  0.24771542  0.90817842  0.88240322  1
  O  O221  1  0.50919976  0.15627164  0.11994467  1
  O  O222  1  0.51326004  0.11572416  0.40235149  1
  O  O223  1  0.49788550  0.13103763  0.59718630  1
  O  O224  1  0.51485866  0.16341837  0.87454810  1
  O  O225  1  0.50347641  0.36798587  0.12910135  1
  O  O226  1  0.50824659  0.41202084  0.36948584  1
  O  O227  1  0.50327978  0.37585993  0.65182440  1
  O  O228  1  0.49486505  0.36170882  0.85330488  1
  O  O229  1  0.49948620  0.64825546  0.11241369  1
  O  O230  1  0.51167998  0.58989180  0.37892877  1
  O  O231  1  0.50942976  0.64445473  0.61394600  1
  O  O232  1  0.49891779  0.65731835  0.88671003  1
  O  O233  1  0.49982938  0.86577776  0.14557295  1
  O  O234  1  0.50502199  0.90672891  0.37204181  1
  O  O235  1  0.50923630  0.87622000  0.60214785  1
  O  O236  1  0.50202164  0.88266543  0.87882626  1
  O  O237  1  0.75048510  0.10115089  0.10534255  1
  O  O238  1  0.75117377  0.17520151  0.35245508  1
  O  O239  1  0.75599022  0.11597938  0.63466721  1
  O  O240  1  0.75309535  0.11119925  0.90243277  1
  O  O241  1  0.73983027  0.39701312  0.10260056  1
  O  O242  1  0.74302136  0.34835680  0.39242862  1
  O  O243  1  0.74606892  0.39020145  0.63017299  1
  O  O244  1  0.75709690  0.41333390  0.87411513  1
  O  O245  1  0.74464087  0.60217145  0.12057264  1
  O  O246  1  0.74540171  0.67116682  0.36287151  1
  O  O247  1  0.75153167  0.62649044  0.64560525  1
  O  O248  1  0.74932183  0.61833862  0.85078644  1
  O  O249  1  0.75585240  0.89061890  0.10721967  1
  O  O250  1  0.75474996  0.85766913  0.34498585  1
  O  O251  1  0.76067530  0.88822057  0.64062760  1
  O  O252  1  0.75556437  0.89467531  0.87261633  1
  O  O253  1  0.10488839  -0.00673937  0.11505846  1
  O  O254  1  0.13587333  -0.00070901  0.37285825  1
  O  O255  1  0.10137965  0.00632731  0.60301271  1
  O  O256  1  0.09767397  0.00075128  0.87851235  1
  O  O257  1  0.13298466  0.25468111  0.13699814  1
  O  O258  1  0.11676182  0.25776521  0.35295752  1
  O  O259  1  0.12066847  0.25346203  0.65416743  1
  O  O260  1  0.14463795  0.24884307  0.85860316  1
  O  O261  1  0.12404976  0.50373164  0.09995145  1
  O  O262  1  0.12066586  0.50901375  0.39796051  1
  O  O263  1  0.12535138  0.50516244  0.60518371  1
  O  O264  1  0.10277097  0.49516239  0.89520509  1
  O  O265  1  0.13974193  0.74401389  0.14077247  1
  O  O266  1  0.11084500  0.75303105  0.36700477  1
  O  O267  1  0.13779284  0.75178362  0.63078835  1
  O  O268  1  0.15693026  0.76113964  0.87703694  1
  O  O269  1  0.39715689  0.01272137  0.10498274  1
  O  O270  1  0.35375370  0.00764839  0.40641566  1
  O  O271  1  0.36532015  0.00853823  0.58623288  1
  O  O272  1  0.38247682  0.01236341  0.88453009  1
  O  O273  1  0.37023702  0.26211153  0.15618826  1
  O  O274  1  0.40935439  0.25712339  0.36376616  1
  O  O275  1  0.37123117  0.26037006  0.64627380  1
  O  O276  1  0.35284711  0.26601977  0.85630195  1
  O  O277  1  0.39539886  0.50320412  0.10750125  1
  O  O278  1  0.36848454  0.50851980  0.40435197  1
  O  O279  1  0.39320802  0.51063625  0.61267715  1
  O  O280  1  0.40186259  0.50562889  0.88936682  1
  O  O281  1  0.36573934  0.74610364  0.15214523  1
  O  O282  1  0.39190178  0.74179443  0.34349485  1
  O  O283  1  0.38348972  0.75200915  0.62310286  1
  O  O284  1  0.33831992  0.74146287  0.86710108  1
  O  O285  1  0.60568905  0.00960640  0.08781634  1
  O  O286  1  0.66426551  0.01527559  0.39024208  1
  O  O287  1  0.64327669  -0.00387603  0.60278905  1
  O  O288  1  0.60436147  0.01450476  0.90553120  1
  O  O289  1  0.65462778  0.25299581  0.15659140  1
  O  O290  1  0.60299170  0.26306016  0.35012062  1
  O  O291  1  0.63781140  0.25483425  0.64985896  1
  O  O292  1  0.67556055  0.24873409  0.85085950  1
  O  O293  1  0.60481512  0.50568888  0.10372652  1
  O  O294  1  0.66811325  0.49954549  0.38113255  1
  O  O295  1  0.62366538  0.50544462  0.59811966  1
  O  O296  1  0.59829798  0.50743255  0.88946249  1
  O  O297  1  0.64011483  0.74285227  0.13297356  1
  O  O298  1  0.58694986  0.74109774  0.35866601  1
  O  O299  1  0.62417537  0.75530264  0.65835451  1
  O  O300  1  0.62756137  0.74141638  0.83532066  1
  O  O301  1  0.89206159  -0.00354902  0.10111685  1
  O  O302  1  0.84148319  0.01095509  0.38318934  1
  O  O303  1  0.89747584  0.00563106  0.58089942  1
  O  O304  1  0.91087285  -0.01054355  0.88347699  1
  O  O305  1  0.86945516  0.23986530  0.11234913  1
  O  O306  1  0.91100611  0.24545640  0.36144648  1
  O  O307  1  0.85225152  0.24889881  0.67315594  1
  O  O308  1  0.85686116  0.25835738  0.86870705  1
  O  O309  1  0.87622082  0.50103563  0.10903711  1
  O  O310  1  0.86894581  0.49574623  0.39993657  1
  O  O311  1  0.87081488  0.50345669  0.59567211  1
  O  O312  1  0.90754928  0.51753004  0.88381508  1
  O  O313  1  0.84231383  0.75814303  0.15168205  1
  O  O314  1  0.90424105  0.75920187  0.35842188  1
  O  O315  1  0.87735425  0.75118467  0.65112028  1
  O  O316  1  0.86197089  0.75315330  0.83829925  1
