# generated using pymatgen
data_Mg32Ti42(Bi17O64)3
_symmetry_space_group_name_H-M   'P 1'
_cell_length_a   15.94163525
_cell_length_b   15.97347151
_cell_length_c   15.96932766
_cell_angle_alpha   90.09107913
_cell_angle_beta   89.97027304
_cell_angle_gamma   89.97336954
_symmetry_Int_Tables_number   1
_chemical_formula_structural   Mg32Ti42(Bi17O64)3
_chemical_formula_sum   'Mg32 Ti42 Bi51 O192'
_cell_volume   4066.47547384
_cell_formula_units_Z   1
loop_
 _symmetry_equiv_pos_site_id
 _symmetry_equiv_pos_as_xyz
  1  'x, y, z'
loop_
 _atom_site_type_symbol
 _atom_site_label
 _atom_site_symmetry_multiplicity
 _atom_site_fract_x
 _atom_site_fract_y
 _atom_site_fract_z
 _atom_site_occupancy
  Mg  Mg0  1  0.87780861  0.86842906  0.38221935  1
  Mg  Mg1  1  0.12488230  0.12685620  0.37327976  1
  Mg  Mg2  1  0.12785062  0.12160212  0.87692869  1
  Mg  Mg3  1  0.63793638  0.89051951  0.36471724  1
  Mg  Mg4  1  0.62168176  0.37940984  0.87418731  1
  Mg  Mg5  1  0.13024415  0.12523863  0.62522076  1
  Mg  Mg6  1  0.13327595  0.37660868  0.37364504  1
  Mg  Mg7  1  0.36754991  0.12177510  0.12347268  1
  Mg  Mg8  1  0.63746821  0.87590095  0.13047316  1
  Mg  Mg9  1  0.87128082  0.62014846  0.37842336  1
  Mg  Mg10  1  0.87607678  0.13038837  0.37117978  1
  Mg  Mg11  1  0.86691476  0.36987641  0.62138382  1
  Mg  Mg12  1  0.38215007  0.63440739  0.62682908  1
  Mg  Mg13  1  0.63410589  0.61560959  0.61611693  1
  Mg  Mg14  1  0.36932734  0.88641421  0.36533927  1
  Mg  Mg15  1  0.63415036  0.63079921  0.12474860  1
  Mg  Mg16  1  0.11982600  0.38654414  0.87828644  1
  Mg  Mg17  1  0.12976727  0.38029363  0.61878867  1
  Mg  Mg18  1  0.63278262  0.62799199  0.37947424  1
  Mg  Mg19  1  -0.00854083  0.75139530  0.69589770  1
  Mg  Mg20  1  0.50541760  -0.03832813  0.25479202  1
  Mg  Mg21  1  0.24971874  0.75580604  -0.04917088  1
  Mg  Mg22  1  0.00143557  0.54360625  0.04713629  1
  Mg  Mg23  1  -0.04129382  0.71642357  0.48526578  1
  Mg  Mg24  1  0.73427476  0.50578582  0.49186263  1
  Mg  Mg25  1  0.46592953  0.56823635  0.30000078  1
  Mg  Mg26  1  0.75403179  0.78379331  0.01072043  1
  Mg  Mg27  1  -0.00346556  -0.03534367  0.24434609  1
  Mg  Mg28  1  0.53283815  0.76341241  0.25259256  1
  Mg  Mg29  1  -0.02515621  0.00397421  0.44777002  1
  Mg  Mg30  1  0.75009896  0.00586113  0.47302001  1
  Mg  Mg31  1  0.81602581  -0.01889644  0.27283459  1
  Ti  Ti32  1  0.37720166  0.39129596  0.87550425  1
  Ti  Ti33  1  0.85218825  0.37113269  0.38396724  1
  Ti  Ti34  1  0.37659922  0.38738587  0.62178106  1
  Ti  Ti35  1  0.11651957  0.63525878  0.61365083  1
  Ti  Ti36  1  0.12398866  0.88150224  0.37216318  1
  Ti  Ti37  1  0.88230728  0.37626982  0.86246027  1
  Ti  Ti38  1  0.61851210  0.37362613  0.35386516  1
  Ti  Ti39  1  0.12268184  0.87461419  0.61708895  1
  Ti  Ti40  1  0.88096336  0.12247219  0.61061580  1
  Ti  Ti41  1  0.37553654  0.10932859  0.36531421  1
  Ti  Ti42  1  0.37436354  0.37572320  0.11572853  1
  Ti  Ti43  1  0.37918614  0.63490050  0.87486592  1
  Ti  Ti44  1  0.12159023  0.87274099  0.87008912  1
  Ti  Ti45  1  0.87332922  0.11084358  0.13021585  1
  Ti  Ti46  1  0.40111069  0.63559277  0.12572472  1
  Ti  Ti47  1  0.87263411  0.11914337  0.85720079  1
  Ti  Ti48  1  0.12510186  0.12223175  0.11511300  1
  Ti  Ti49  1  0.40002754  0.86780464  0.87726118  1
  Ti  Ti50  1  0.89430466  0.88917917  0.61384299  1
  Ti  Ti51  1  0.63784891  0.88022900  0.87730862  1
  Ti  Ti52  1  0.37257398  0.87564196  0.60617613  1
  Ti  Ti53  1  0.11484346  0.88272308  0.12680666  1
  Ti  Ti54  1  0.37576071  0.12731348  0.88304846  1
  Ti  Ti55  1  0.87073277  0.86754125  0.12993213  1
  Ti  Ti56  1  0.11924133  0.64127449  0.13544175  1
  Ti  Ti57  1  0.61836537  0.11573600  0.35801237  1
  Ti  Ti58  1  0.62295421  0.38128321  0.62806301  1
  Ti  Ti59  1  0.87766966  0.61937575  0.61751288  1
  Ti  Ti60  1  0.61527220  0.13104712  0.61897465  1
  Ti  Ti61  1  0.61683700  0.39359254  0.12604500  1
  Ti  Ti62  1  0.38400176  0.86419614  0.12880790  1
  Ti  Ti63  1  0.62581902  0.12427483  0.13556359  1
  Ti  Ti64  1  0.87124450  0.63653258  0.13353750  1
  Ti  Ti65  1  0.10692515  0.61204925  0.37513744  1
  Ti  Ti66  1  0.87501999  0.87525517  0.87424785  1
  Ti  Ti67  1  0.62343743  0.11865942  0.86650524  1
  Ti  Ti68  1  0.37242014  0.37385486  0.36920260  1
  Ti  Ti69  1  0.37400208  0.13175765  0.61488282  1
  Ti  Ti70  1  0.12309734  0.37637347  0.12183449  1
  Ti  Ti71  1  0.64497854  0.62453582  0.88163293  1
  Ti  Ti72  1  0.11414649  0.62979226  0.86995657  1
  Ti  Ti73  1  0.87786337  0.63103545  0.87893337  1
  Bi  Bi74  1  0.48700328  0.02129051  0.74415206  1
  Bi  Bi75  1  0.29507480  0.51706022  0.47335886  1
  Bi  Bi76  1  0.01350067  0.24722981  0.49558943  1
  Bi  Bi77  1  0.79575486  0.48696875  0.02598507  1
  Bi  Bi78  1  0.25210849  0.02056712  0.74563951  1
  Bi  Bi79  1  -0.00094132  0.22724255  0.25071929  1
  Bi  Bi80  1  0.53225708  0.76738887  0.69883666  1
  Bi  Bi81  1  -0.03536561  0.26798241  0.02260566  1
  Bi  Bi82  1  0.23531892  0.28338277  0.74608101  1
  Bi  Bi83  1  0.28245303  -0.01299093  -0.01342612  1
  Bi  Bi84  1  0.27583815  0.50592594  0.22389955  1
  Bi  Bi85  1  0.01864875  0.75333100  0.26912218  1
  Bi  Bi86  1  -0.00336598  0.76707846  -0.01449459  1
  Bi  Bi87  1  0.76950304  0.51909348  0.74110139  1
  Bi  Bi88  1  0.75022191  0.25421185  -0.02878006  1
  Bi  Bi89  1  0.50805623  0.51004157  -0.00626317  1
  Bi  Bi90  1  0.00928442  0.49533064  0.72763317  1
  Bi  Bi91  1  0.73197624  0.79180616  0.50951654  1
  Bi  Bi92  1  0.27335741  0.73521147  0.25316706  1
  Bi  Bi93  1  0.52583467  0.48958199  0.48092195  1
  Bi  Bi94  1  0.51351338  -0.00027063  0.03100071  1
  Bi  Bi95  1  0.54383581  0.75183035  0.00117358  1
  Bi  Bi96  1  0.01748464  0.27343969  0.73971365  1
  Bi  Bi97  1  0.73571561  0.22436331  0.48661578  1
  Bi  Bi98  1  0.26563582  0.77439134  0.73589124  1
  Bi  Bi99  1  0.23817739  0.27287804  -0.02388957  1
  Bi  Bi100  1  0.02026765  0.02211687  0.74248397  1
  Bi  Bi101  1  0.74483349  0.75527001  0.28187126  1
  Bi  Bi102  1  0.47400105  0.74961702  0.44365950  1
  Bi  Bi103  1  0.74381253  0.00520792  0.70847312  1
  Bi  Bi104  1  0.52419581  0.26375470  0.00274888  1
  Bi  Bi105  1  0.75271697  0.01553444  0.00253565  1
  Bi  Bi106  1  0.25893719  -0.01360058  0.22829268  1
  Bi  Bi107  1  0.25921288  0.73035120  0.47755909  1
  Bi  Bi108  1  0.51615441  0.54103484  0.75373001  1
  Bi  Bi109  1  0.77157061  0.27564529  0.20659143  1
  Bi  Bi110  1  0.75394099  0.76859338  0.72638690  1
  Bi  Bi111  1  -0.02168757  0.47449540  0.47831783  1
  Bi  Bi112  1  0.74517734  0.27091462  0.74100032  1
  Bi  Bi113  1  0.22613859  0.24839340  0.23956872  1
  Bi  Bi114  1  0.53643795  -0.02984379  0.52853891  1
  Bi  Bi115  1  -0.02553611  0.45302605  0.23051677  1
  Bi  Bi116  1  0.46853212  0.24336482  0.22803917  1
  Bi  Bi117  1  0.23488239  0.25116723  0.49228872  1
  Bi  Bi118  1  0.74713174  0.52753812  0.25908306  1
  Bi  Bi119  1  0.21807875  0.00224392  0.48499259  1
  Bi  Bi120  1  0.21846875  0.52451546  -0.00442956  1
  Bi  Bi121  1  0.48999991  0.27536700  0.75215810  1
  Bi  Bi122  1  0.00960818  0.00279198  -0.00386794  1
  Bi  Bi123  1  0.24667931  0.52683203  0.71828941  1
  Bi  Bi124  1  0.49090419  0.24024321  0.47138113  1
  O  O125  1  0.10479406  0.11517959  0.00058775  1
  O  O126  1  0.12095694  0.14548341  0.24520938  1
  O  O127  1  0.13198824  0.15457453  0.50219291  1
  O  O128  1  0.13729696  0.09958560  0.75166152  1
  O  O129  1  0.13318961  0.36791880  0.00307083  1
  O  O130  1  0.12899756  0.35576064  0.24567967  1
  O  O131  1  0.12581735  0.34226251  0.49885864  1
  O  O132  1  0.12832161  0.37423181  0.75327603  1
  O  O133  1  0.10734735  0.61269010  0.01474233  1
  O  O134  1  0.11856924  0.62277086  0.25575812  1
  O  O135  1  0.08917692  0.64689878  0.50366831  1
  O  O136  1  0.15180199  0.62966456  0.76241568  1
  O  O137  1  0.08934495  0.87657875  0.01200074  1
  O  O138  1  0.12510101  0.91390423  0.25499033  1
  O  O139  1  0.12768657  0.86357460  0.50362459  1
  O  O140  1  0.14691921  0.87050565  0.76023923  1
  O  O141  1  0.37737075  0.11489540  -0.00169607  1
  O  O142  1  0.36193023  0.14915423  0.25510028  1
  O  O143  1  0.39417460  0.12280400  0.49916181  1
  O  O144  1  0.36876770  0.10225093  0.75313772  1
  O  O145  1  0.37562343  0.37955732  0.00173065  1
  O  O146  1  0.37113434  0.36961142  0.25460231  1
  O  O147  1  0.37466390  0.38679382  0.50722196  1
  O  O148  1  0.38723885  0.37323053  0.75612277  1
  O  O149  1  0.41142897  0.62140328  0.00776845  1
  O  O150  1  0.36127842  0.62134455  0.24612993  1
  O  O151  1  0.36905362  0.64833892  0.50101426  1
  O  O152  1  0.34351185  0.62492929  0.76204483  1
  O  O153  1  0.38381189  0.87046506  0.00857979  1
  O  O154  1  0.33283235  0.86173274  0.24289685  1
  O  O155  1  0.36717452  0.87303152  0.49507747  1
  O  O156  1  0.35938256  0.87483730  0.76614276  1
  O  O157  1  0.61671242  0.08656491  0.00569101  1
  O  O158  1  0.64179329  0.14863943  0.25001279  1
  O  O159  1  0.59452006  0.11597176  0.50397378  1
  O  O160  1  0.64560970  0.12777696  0.75266896  1
  O  O161  1  0.61134832  0.37647733  0.00463524  1
  O  O162  1  0.61533546  0.35076801  0.24434874  1
  O  O163  1  0.63873129  0.40751590  0.50972202  1
  O  O164  1  0.61220805  0.34281331  0.75212122  1
  O  O165  1  0.59604589  0.61574782  -0.00234399  1
  O  O166  1  0.66471603  0.63844271  0.25035213  1
  O  O167  1  0.62204471  0.58401848  0.49680585  1
  O  O168  1  0.64084992  0.62202574  0.76151625  1
  O  O169  1  0.59857479  0.89137399  0.00111173  1
  O  O170  1  0.64088197  0.83694793  0.24841522  1
  O  O171  1  0.65589929  0.91545088  0.49401561  1
  O  O172  1  0.65370300  0.85501480  0.76368536  1
  O  O173  1  0.87878492  0.08758646  0.01061739  1
  O  O174  1  0.86619997  0.16045672  0.24502807  1
  O  O175  1  0.89285605  0.09151307  0.49933385  1
  O  O176  1  0.83570799  0.12495069  0.74840197  1
  O  O177  1  0.88000703  0.37522135  -0.01522682  1
  O  O178  1  0.87532957  0.35541739  0.26035690  1
  O  O179  1  0.84451951  0.41531261  0.49811990  1
  O  O180  1  0.87464792  0.32983613  0.74925761  1
  O  O181  1  0.89801963  0.58596753  -0.00999876  1
  O  O182  1  0.85501884  0.63075729  0.24761622  1
  O  O183  1  0.90543595  0.60180924  0.50722103  1
  O  O184  1  0.84746104  0.63699228  0.75554074  1
  O  O185  1  0.90973996  0.88013824  0.00674897  1
  O  O186  1  0.85162709  0.85901880  0.24544458  1
  O  O187  1  0.90617507  0.90824308  0.50357239  1
  O  O188  1  0.86958731  0.84072166  0.76356198  1
  O  O189  1  -0.00908071  0.15307631  0.12828368  1
  O  O190  1  0.00225852  0.16937868  0.38042983  1
  O  O191  1  -0.00662552  0.13147825  0.64603856  1
  O  O192  1  -0.01122118  0.12251946  0.84165111  1
  O  O193  1  0.00526330  0.34431700  0.13153866  1
  O  O194  1  -0.01594324  0.35147442  0.40293018  1
  O  O195  1  -0.00110449  0.36921233  0.63767966  1
  O  O196  1  -0.00213217  0.36116834  0.85777524  1
  O  O197  1  -0.00591236  0.64516611  0.12921123  1
  O  O198  1  -0.00392002  0.66096086  0.37264320  1
  O  O199  1  -0.00029355  0.62584445  0.66444753  1
  O  O200  1  -0.00229015  0.63773613  0.85963529  1
  O  O201  1  -0.00567370  0.86157211  0.15963444  1
  O  O202  1  0.00273532  0.86319822  0.35490502  1
  O  O203  1  0.00376257  0.86824772  0.65294850  1
  O  O204  1  -0.00290291  0.84442942  0.87114285  1
  O  O205  1  0.23785312  0.09167510  0.12385208  1
  O  O206  1  0.25886264  0.09214659  0.38452360  1
  O  O207  1  0.26125991  0.09889995  0.62280371  1
  O  O208  1  0.25647097  0.08389300  0.87819651  1
  O  O209  1  0.25094149  0.40002825  0.12823335  1
  O  O210  1  0.25814330  0.41286963  0.38200530  1
  O  O211  1  0.25720122  0.38380535  0.63929784  1
  O  O212  1  0.25850371  0.38069947  0.88165148  1
  O  O213  1  0.23332803  0.59796436  0.12604603  1
  O  O214  1  0.22691419  0.61858787  0.39832625  1
  O  O215  1  0.23901030  0.62031988  0.61280265  1
  O  O216  1  0.25449952  0.63040839  0.92107986  1
  O  O217  1  0.23032714  0.90471417  0.11650776  1
  O  O218  1  0.24057637  0.91340561  0.38135892  1
  O  O219  1  0.25060260  0.87120346  0.62898378  1
  O  O220  1  0.23674777  0.87717312  0.91121829  1
  O  O221  1  0.50096698  0.14515772  0.13442329  1
  O  O222  1  0.49904855  0.15671931  0.36139570  1
  O  O223  1  0.49932434  0.13476211  0.65482271  1
  O  O224  1  0.50168705  0.12310706  0.85964337  1
  O  O225  1  0.49629372  0.35356781  0.12361926  1
  O  O226  1  0.49919118  0.35734337  0.38897287  1
  O  O227  1  0.49987540  0.35308072  0.62758319  1
  O  O228  1  0.49283903  0.34711897  0.88274481  1
  O  O229  1  0.50562928  0.66361319  0.15778369  1
  O  O230  1  0.51627346  0.67067403  0.34356815  1
  O  O231  1  0.50804806  0.63995031  0.64832246  1
  O  O232  1  0.49302555  0.64692707  0.85069681  1
  O  O233  1  0.49115366  0.85133367  0.16399124  1
  O  O234  1  0.49788323  0.85132377  0.34854788  1
  O  O235  1  0.49955009  0.85201694  0.59721332  1
  O  O236  1  0.51116565  0.85176601  0.86229437  1
  O  O237  1  0.74682655  0.09299609  0.12084820  1
  O  O238  1  0.73537835  0.10980829  0.40044159  1
  O  O239  1  0.74172016  0.08254361  0.59422402  1
  O  O240  1  0.74672217  0.12365312  0.90185280  1
  O  O241  1  0.73807436  0.39241415  0.13129950  1
  O  O242  1  0.73689618  0.39970740  0.36019953  1
  O  O243  1  0.74240905  0.38107317  0.65420293  1
  O  O244  1  0.74979835  0.35454515  0.86414480  1
  O  O245  1  0.76107206  0.59567060  0.10925613  1
  O  O246  1  0.75256630  0.57752163  0.38660837  1
  O  O247  1  0.76218511  0.58926704  0.60792156  1
  O  O248  1  0.75319199  0.59661856  0.89627439  1
  O  O249  1  0.76049907  0.89226651  0.09560803  1
  O  O250  1  0.76457313  0.92697988  0.37405243  1
  O  O251  1  0.77348709  0.87419944  0.63322345  1
  O  O252  1  0.75455021  0.87110784  0.91096679  1
  O  O253  1  0.07769212  0.00382221  0.12690131  1
  O  O254  1  0.09743217  0.00418191  0.41190190  1
  O  O255  1  0.11650856  -0.00857584  0.62390580  1
  O  O256  1  0.09419212  -0.01250397  0.87780024  1
  O  O257  1  0.15190413  0.24351107  0.11274542  1
  O  O258  1  0.17436802  0.25066665  0.37003275  1
  O  O259  1  0.13958721  0.24870591  0.65211240  1
  O  O260  1  0.15397707  0.24587573  0.87248305  1
  O  O261  1  0.08747430  0.48882957  0.12636145  1
  O  O262  1  0.08993145  0.50062313  0.38223025  1
  O  O263  1  0.11532488  0.50879687  0.63358699  1
  O  O264  1  0.12711596  0.51238365  0.88534693  1
  O  O265  1  0.13352612  0.75586547  0.14089742  1
  O  O266  1  0.14084166  0.76522427  0.35244437  1
  O  O267  1  0.11477990  0.74868905  0.64396853  1
  O  O268  1  0.13160787  0.74793754  0.90312524  1
  O  O269  1  0.38357492  -0.01294033  0.14349637  1
  O  O270  1  0.40590669  0.00417912  0.33537848  1
  O  O271  1  0.40614935  -0.01020306  0.62915505  1
  O  O272  1  0.39273181  -0.01473809  0.89056181  1
  O  O273  1  0.36165865  0.25725835  0.12720935  1
  O  O274  1  0.36312734  0.25749900  0.39674276  1
  O  O275  1  0.36172650  0.24428995  0.62849425  1
  O  O276  1  0.35613886  0.23890412  0.87628659  1
  O  O277  1  0.38704146  0.50315577  0.13903576  1
  O  O278  1  0.39808527  0.50140270  0.38152482  1
  O  O279  1  0.37792341  0.50393531  0.63608848  1
  O  O280  1  0.39580917  0.50453772  0.88062577  1
  O  O281  1  0.34709132  0.74255279  0.12597872  1
  O  O282  1  0.34577341  0.75824565  0.37451624  1
  O  O283  1  0.37390074  0.75988480  0.64579578  1
  O  O284  1  0.35555146  0.75194665  0.88413540  1
  O  O285  1  0.58458017  -0.00197180  0.14984076  1
  O  O286  1  0.59270422  0.00826351  0.34144813  1
  O  O287  1  0.60005700  0.00435041  0.64535846  1
  O  O288  1  0.63074357  -0.00597181  0.85961683  1
  O  O289  1  0.63959420  0.23529453  0.09678701  1
  O  O290  1  0.63085842  0.25886991  0.39977194  1
  O  O291  1  0.64134576  0.24398450  0.61418770  1
  O  O292  1  0.62329032  0.23493563  0.90254156  1
  O  O293  1  0.59970824  0.50250202  0.12906585  1
  O  O294  1  0.57870364  0.49593654  0.35245207  1
  O  O295  1  0.61007838  0.49203093  0.65618836  1
  O  O296  1  0.59513769  0.50502311  0.87457738  1
  O  O297  1  0.65142009  0.75290435  0.08412720  1
  O  O298  1  0.66056554  0.75699965  0.39867799  1
  O  O299  1  0.64877029  0.74221312  0.61994019  1
  O  O300  1  0.64537754  0.74442410  0.90557258  1
  O  O301  1  0.88775143  -0.00140955  0.16467572  1
  O  O302  1  0.91802860  0.01169531  0.33748028  1
  O  O303  1  0.88186151  -0.00213409  0.65491792  1
  O  O304  1  0.87633776  -0.00984009  0.86415460  1
  O  O305  1  0.84735103  0.23676172  0.09557950  1
  O  O306  1  0.83804832  0.25652029  0.39919282  1
  O  O307  1  0.85446297  0.23443431  0.59913572  1
  O  O308  1  0.87232656  0.23206173  0.89839634  1
  O  O309  1  0.89962843  0.50451984  0.12759941  1
  O  O310  1  0.90598668  0.49166170  0.36084234  1
  O  O311  1  0.88849693  0.49918088  0.65747893  1
  O  O312  1  0.87533921  0.48876790  0.84041121  1
  O  O313  1  0.85100750  0.74879043  0.10164805  1
  O  O314  1  0.85455793  0.74862489  0.41323057  1
  O  O315  1  0.89806171  0.74189825  0.60360877  1
  O  O316  1  0.86258079  0.73926622  0.91387473  1
