# generated using pymatgen
data_Mg32Ti42(Bi17O64)3
_symmetry_space_group_name_H-M   'P 1'
_cell_length_a   15.88003756
_cell_length_b   15.96143765
_cell_length_c   15.94601160
_cell_angle_alpha   90.07408266
_cell_angle_beta   89.88521565
_cell_angle_gamma   90.00436171
_symmetry_Int_Tables_number   1
_chemical_formula_structural   Mg32Ti42(Bi17O64)3
_chemical_formula_sum   'Mg32 Ti42 Bi51 O192'
_cell_volume   4041.79582451
_cell_formula_units_Z   1
loop_
 _symmetry_equiv_pos_site_id
 _symmetry_equiv_pos_as_xyz
  1  'x, y, z'
loop_
 _atom_site_type_symbol
 _atom_site_label
 _atom_site_symmetry_multiplicity
 _atom_site_fract_x
 _atom_site_fract_y
 _atom_site_fract_z
 _atom_site_occupancy
  Mg  Mg0  1  0.62052496  0.36888126  0.87329345  1
  Mg  Mg1  1  0.63868672  0.62644438  0.11077264  1
  Mg  Mg2  1  0.37040977  0.86856784  0.62144861  1
  Mg  Mg3  1  0.62547554  0.88127100  0.37622324  1
  Mg  Mg4  1  0.12368587  0.37716141  0.86038704  1
  Mg  Mg5  1  0.87930434  0.37927257  0.12777894  1
  Mg  Mg6  1  0.86307115  0.62291759  0.88418537  1
  Mg  Mg7  1  0.36906110  0.13726308  0.37783308  1
  Mg  Mg8  1  0.38151874  0.62181827  0.87524846  1
  Mg  Mg9  1  0.86905559  0.87651355  0.87895441  1
  Mg  Mg10  1  0.37002760  0.13111115  0.62564208  1
  Mg  Mg11  1  0.62257372  0.61312033  0.62437806  1
  Mg  Mg12  1  0.37299532  0.12671067  0.87489350  1
  Mg  Mg13  1  0.87925142  0.13372280  0.86807137  1
  Mg  Mg14  1  0.87435798  0.11701542  0.37122086  1
  Mg  Mg15  1  0.12515855  0.63245718  0.86877338  1
  Mg  Mg16  1  0.87222058  0.37524898  0.62578612  1
  Mg  Mg17  1  0.88105949  0.86916872  0.62189718  1
  Mg  Mg18  1  0.87186663  0.11572536  0.13120035  1
  Mg  Mg19  1  0.03244879  0.76310633  0.48864350  1
  Mg  Mg20  1  0.28106264  0.76534014  0.23849645  1
  Mg  Mg21  1  0.53688427  0.46831046  0.74575973  1
  Mg  Mg22  1  -0.02884374  0.25376441  0.71569505  1
  Mg  Mg23  1  0.72579664  0.80565253  0.00131868  1
  Mg  Mg24  1  0.73493715  0.45581316  -0.01756117  1
  Mg  Mg25  1  0.24529460  0.48843417  0.69304328  1
  Mg  Mg26  1  0.55604350  0.72511354  0.47022735  1
  Mg  Mg27  1  0.74957965  -0.01666600  0.24370926  1
  Mg  Mg28  1  0.23031581  0.52420617  0.47898902  1
  Mg  Mg29  1  0.24280573  0.29508437  0.48250080  1
  Mg  Mg30  1  -0.00152387  0.75044812  0.22783878  1
  Mg  Mg31  1  0.47490843  0.31340883  0.21805833  1
  Ti  Ti32  1  0.12134565  0.37912529  0.61364463  1
  Ti  Ti33  1  0.62109283  0.36176267  0.36606856  1
  Ti  Ti34  1  0.88822479  0.63213661  0.37724814  1
  Ti  Ti35  1  0.12683968  0.63100734  0.12551965  1
  Ti  Ti36  1  0.37718285  0.86610813  0.38310597  1
  Ti  Ti37  1  0.38775458  0.13244050  0.13193325  1
  Ti  Ti38  1  0.12107579  0.38661046  0.12555858  1
  Ti  Ti39  1  0.63461851  0.36903133  0.12332351  1
  Ti  Ti40  1  0.62049515  0.87930845  0.85880716  1
  Ti  Ti41  1  0.13447604  0.86234921  0.12657929  1
  Ti  Ti42  1  0.85809565  0.62068198  0.62815399  1
  Ti  Ti43  1  0.38470799  0.38194003  0.61849828  1
  Ti  Ti44  1  0.87550768  0.36719663  0.87293453  1
  Ti  Ti45  1  0.12631458  0.14364140  0.86549495  1
  Ti  Ti46  1  0.86333934  0.87821581  0.14081336  1
  Ti  Ti47  1  0.38377695  0.38537514  0.85948086  1
  Ti  Ti48  1  0.36295991  0.62605956  0.37684368  1
  Ti  Ti49  1  0.86813880  0.38312756  0.37617134  1
  Ti  Ti50  1  0.13686855  0.14529849  0.37982006  1
  Ti  Ti51  1  0.87951220  0.86838231  0.36479625  1
  Ti  Ti52  1  0.11563864  0.87665320  0.63011188  1
  Ti  Ti53  1  0.62362929  0.12422246  0.61991262  1
  Ti  Ti54  1  0.62901360  0.11656799  0.14054877  1
  Ti  Ti55  1  0.37806946  0.87293695  0.11343533  1
  Ti  Ti56  1  0.36386659  0.88022712  0.86749411  1
  Ti  Ti57  1  0.62198424  0.12660681  0.86047894  1
  Ti  Ti58  1  0.36570212  0.61505685  0.61133466  1
  Ti  Ti59  1  0.11190780  0.13704170  0.62710871  1
  Ti  Ti60  1  0.13695822  0.86431016  0.35379251  1
  Ti  Ti61  1  0.11982523  0.62626115  0.61370305  1
  Ti  Ti62  1  0.87593620  0.12458809  0.62531477  1
  Ti  Ti63  1  0.62428690  0.37744109  0.61401853  1
  Ti  Ti64  1  0.12245507  0.38553650  0.37883320  1
  Ti  Ti65  1  0.36759188  0.38465986  0.38576065  1
  Ti  Ti66  1  0.38208447  0.63502495  0.12190072  1
  Ti  Ti67  1  0.62283024  0.61018610  0.87689005  1
  Ti  Ti68  1  0.62803349  0.12075548  0.36154777  1
  Ti  Ti69  1  0.62300659  0.87243871  0.13110392  1
  Ti  Ti70  1  0.61518225  0.87033158  0.61485527  1
  Ti  Ti71  1  0.12891030  0.87657962  0.88984553  1
  Ti  Ti72  1  0.11626151  0.63035020  0.37595234  1
  Ti  Ti73  1  0.87545438  0.63005451  0.11951239  1
  Bi  Bi74  1  0.46213789  0.47280322  0.03243217  1
  Bi  Bi75  1  0.76263045  -0.01543213  0.47437706  1
  Bi  Bi76  1  0.01323589  -0.02532285  0.47445748  1
  Bi  Bi77  1  0.02973973  0.22458909  0.03490571  1
  Bi  Bi78  1  0.25520140  0.27847034  0.22833219  1
  Bi  Bi79  1  0.76145666  0.74697332  0.75022173  1
  Bi  Bi80  1  0.48580682  0.25695195  0.48336009  1
  Bi  Bi81  1  0.23456480  0.76962783  0.51140219  1
  Bi  Bi82  1  0.24177741  0.05187115  0.01794187  1
  Bi  Bi83  1  -0.00715091  0.25498931  0.25460893  1
  Bi  Bi84  1  -0.00148540  0.51785873  0.23401577  1
  Bi  Bi85  1  0.25137648  0.02685351  0.24168509  1
  Bi  Bi86  1  0.48346891  0.23622082  0.74922587  1
  Bi  Bi87  1  0.51024086  0.52693212  0.48309851  1
  Bi  Bi88  1  0.28271819  0.28406771  0.00232274  1
  Bi  Bi89  1  0.52562212  0.74607682  -0.01544795  1
  Bi  Bi90  1  0.49118727  0.76266979  0.26791431  1
  Bi  Bi91  1  0.75467929  0.75505278  0.49933745  1
  Bi  Bi92  1  0.49392422  0.70208149  0.73194984  1
  Bi  Bi93  1  0.53444909  0.22874048  0.00440682  1
  Bi  Bi94  1  -0.02476082  0.49527167  0.51680003  1
  Bi  Bi95  1  0.24069940  0.50511592  -0.03396731  1
  Bi  Bi96  1  0.72557134  0.52621270  0.46825776  1
  Bi  Bi97  1  0.24842181  0.02408974  0.50675780  1
  Bi  Bi98  1  -0.00617605  0.00048437  0.76234886  1
  Bi  Bi99  1  0.73993014  0.01657826  -0.03142822  1
  Bi  Bi100  1  0.51545465  0.53118231  0.24914637  1
  Bi  Bi101  1  0.23600223  0.02145860  0.73815615  1
  Bi  Bi102  1  0.00316229  0.53073497  0.75485702  1
  Bi  Bi103  1  -0.01483807  0.76802020  0.77281966  1
  Bi  Bi104  1  -0.01697011  0.02028361  -0.01531649  1
  Bi  Bi105  1  0.49738546  -0.00229660  -0.02160444  1
  Bi  Bi106  1  0.26415246  0.51452528  0.23088179  1
  Bi  Bi107  1  0.48995324  -0.00360299  0.25748255  1
  Bi  Bi108  1  0.79001981  0.25222361  0.01566654  1
  Bi  Bi109  1  0.24826986  0.28030901  0.73482070  1
  Bi  Bi110  1  0.48805719  0.02302408  0.48637366  1
  Bi  Bi111  1  0.72120188  0.72047523  0.27871141  1
  Bi  Bi112  1  0.01653869  0.50103314  -0.02700063  1
  Bi  Bi113  1  -0.03059427  0.24494133  0.48911151  1
  Bi  Bi114  1  0.74635182  0.50834932  0.22701542  1
  Bi  Bi115  1  0.76772821  0.24235289  0.25204024  1
  Bi  Bi116  1  0.75305061  0.49478618  0.78014336  1
  Bi  Bi117  1  0.03245018  0.02696982  0.22454664  1
  Bi  Bi118  1  -0.02334556  0.77338944  0.01709395  1
  Bi  Bi119  1  0.73229582  0.26989902  0.73606626  1
  Bi  Bi120  1  0.74502858  0.23982677  0.49670983  1
  Bi  Bi121  1  0.26680007  0.73235625  0.73820620  1
  Bi  Bi122  1  0.75333252  -0.00985797  0.72156330  1
  Bi  Bi123  1  0.47382954  -0.00559787  0.72032896  1
  Bi  Bi124  1  0.25952071  0.73816536  -0.02770724  1
  O  O125  1  0.15465289  0.15279321  -0.01255013  1
  O  O126  1  0.13310129  0.11457891  0.26077123  1
  O  O127  1  0.14484245  0.12449189  0.50302344  1
  O  O128  1  0.11021967  0.10441591  0.74667928  1
  O  O129  1  0.11485348  0.39299094  0.01162521  1
  O  O130  1  0.16323524  0.37993422  0.26561952  1
  O  O131  1  0.12127188  0.34601939  0.49857026  1
  O  O132  1  0.16194038  0.39329150  0.73343982  1
  O  O133  1  0.13667757  0.61156354  0.01423923  1
  O  O134  1  0.09089895  0.64172759  0.26326610  1
  O  O135  1  0.14914122  0.61790539  0.49929175  1
  O  O136  1  0.10269466  0.62620904  0.74130598  1
  O  O137  1  0.14706729  0.87850145  0.00403555  1
  O  O138  1  0.09566046  0.83992430  0.24683540  1
  O  O139  1  0.15222636  0.87870140  0.48689652  1
  O  O140  1  0.09187139  0.87257355  0.74338556  1
  O  O141  1  0.35332448  0.13441621  0.00672200  1
  O  O142  1  0.38298201  0.10145406  0.25194207  1
  O  O143  1  0.36646072  0.10034208  0.50267141  1
  O  O144  1  0.40572089  0.12248719  0.74997558  1
  O  O145  1  0.40354263  0.35218433  -0.01113030  1
  O  O146  1  0.35983745  0.36472202  0.26943151  1
  O  O147  1  0.41321939  0.38291984  0.50494367  1
  O  O148  1  0.33982716  0.39556169  0.74611911  1
  O  O149  1  0.37879079  0.65652427  0.00891349  1
  O  O150  1  0.38943247  0.60147888  0.25473795  1
  O  O151  1  0.33215453  0.61282390  0.49584071  1
  O  O152  1  0.37998151  0.62646947  0.74678400  1
  O  O153  1  0.35822423  0.85484595  0.00252158  1
  O  O154  1  0.40749771  0.87451925  0.25394018  1
  O  O155  1  0.34073876  0.87133558  0.49325578  1
  O  O156  1  0.39452924  0.87578830  0.75623716  1
  O  O157  1  0.64126836  0.13023983  0.01669215  1
  O  O158  1  0.59358881  0.13732243  0.25525416  1
  O  O159  1  0.65237175  0.12706740  0.50304298  1
  O  O160  1  0.59940175  0.12107424  0.75093528  1
  O  O161  1  0.63071826  0.36495348  0.00522349  1
  O  O162  1  0.63535762  0.38245969  0.25533580  1
  O  O163  1  0.61430257  0.34286535  0.50005813  1
  O  O164  1  0.63750041  0.38555319  0.73962112  1
  O  O165  1  0.61236594  0.62574980  -0.01088017  1
  O  O166  1  0.61650822  0.63005857  0.24094702  1
  O  O167  1  0.62630713  0.61878556  0.49759460  1
  O  O168  1  0.58199135  0.58773591  0.74765594  1
  O  O169  1  0.65265832  0.90830471  0.02285155  1
  O  O170  1  0.59197070  0.85989922  0.25238632  1
  O  O171  1  0.65215586  0.89485705  0.50398692  1
  O  O172  1  0.60261922  0.86445856  0.74955834  1
  O  O173  1  0.86228443  0.09859818  0.00323346  1
  O  O174  1  0.88774744  0.15828241  0.25196141  1
  O  O175  1  0.86003406  0.13273450  0.50175771  1
  O  O176  1  0.91363296  0.14079985  0.74299474  1
  O  O177  1  0.83845359  0.38275829  0.00407437  1
  O  O178  1  0.87697475  0.34683025  0.25884202  1
  O  O179  1  0.89977494  0.37470056  0.49393697  1
  O  O180  1  0.88560518  0.34563349  0.75355792  1
  O  O181  1  0.86029421  0.63143970  0.01043243  1
  O  O182  1  0.91699259  0.64408278  0.26810954  1
  O  O183  1  0.84350708  0.63672649  0.50607141  1
  O  O184  1  0.88125046  0.59247620  0.74620136  1
  O  O185  1  0.84537647  0.85322585  0.01643584  1
  O  O186  1  0.90870313  0.85223019  0.25586817  1
  O  O187  1  0.83849752  0.86985484  0.49958237  1
  O  O188  1  0.90989883  0.87986507  0.74814396  1
  O  O189  1  0.00423019  0.10865166  0.10857137  1
  O  O190  1  0.01471230  0.15512997  0.37475367  1
  O  O191  1  0.00231851  0.10756417  0.59991264  1
  O  O192  1  0.00935557  0.13388748  0.90876432  1
  O  O193  1  0.00520970  0.39932565  0.14883626  1
  O  O194  1  0.01135728  0.34899776  0.36339889  1
  O  O195  1  0.00885085  0.40279847  0.62579246  1
  O  O196  1  -0.00755435  0.39975556  0.88043737  1
  O  O197  1  0.00196637  0.59903501  0.12277495  1
  O  O198  1  -0.00038972  0.64983331  0.42251717  1
  O  O199  1  0.00156989  0.59725205  0.61690646  1
  O  O200  1  -0.00566696  0.60602889  0.87895822  1
  O  O201  1  -0.00365269  0.88259235  0.09721998  1
  O  O202  1  -0.00776704  0.85195403  0.40836218  1
  O  O203  1  0.00451262  0.87104169  0.58109381  1
  O  O204  1  0.00244321  0.84838290  0.89306584  1
  O  O205  1  0.25917263  0.12051078  0.13894615  1
  O  O206  1  0.24866517  0.08723922  0.37663854  1
  O  O207  1  0.24134494  0.12849789  0.64543425  1
  O  O208  1  0.24410732  0.10746534  0.85516923  1
  O  O209  1  0.24884492  0.36071722  0.11686445  1
  O  O210  1  0.25750760  0.40966395  0.41998909  1
  O  O211  1  0.26056108  0.33652479  0.60267525  1
  O  O212  1  0.25345676  0.37435029  0.90029013  1
  O  O213  1  0.24664259  0.64417346  0.16490403  1
  O  O214  1  0.24138207  0.59280130  0.35636919  1
  O  O215  1  0.24061959  0.62139061  0.65342395  1
  O  O216  1  0.25294904  0.62146489  0.88809840  1
  O  O217  1  0.24822515  0.84507873  0.14564833  1
  O  O218  1  0.25042123  0.86844748  0.33128923  1
  O  O219  1  0.23510594  0.84195758  0.63797955  1
  O  O220  1  0.24665130  0.89819244  0.85582598  1
  O  O221  1  0.50121264  0.10796605  0.10489416  1
  O  O222  1  0.50110351  0.13840976  0.40489750  1
  O  O223  1  0.50715050  0.10551205  0.60670603  1
  O  O224  1  0.50283148  0.12376888  0.90882465  1
  O  O225  1  0.51145354  0.41495638  0.14973040  1
  O  O226  1  0.50497452  0.33150056  0.35824464  1
  O  O227  1  0.50070810  0.40078844  0.64653532  1
  O  O228  1  0.49758516  0.39671112  0.84070209  1
  O  O229  1  0.49790494  0.60150770  0.12630625  1
  O  O230  1  0.47977057  0.64205860  0.40857617  1
  O  O231  1  0.48324845  0.61580604  0.60769487  1
  O  O232  1  0.50581634  0.66281208  0.86976547  1
  O  O233  1  0.50159646  0.87859710  0.10687478  1
  O  O234  1  0.48979229  0.82658422  0.40051026  1
  O  O235  1  0.50092577  0.90185219  0.61086692  1
  O  O236  1  0.50431190  0.86863773  0.90280641  1
  O  O237  1  0.74314000  0.14816771  0.14913390  1
  O  O238  1  0.74189213  0.08971134  0.34067331  1
  O  O239  1  0.75659824  0.14194132  0.64932718  1
  O  O240  1  0.74286401  0.11237301  0.86187532  1
  O  O241  1  0.74903407  0.33407201  0.13955157  1
  O  O242  1  0.75431648  0.39318379  0.38398083  1
  O  O243  1  0.74718329  0.34553511  0.62054582  1
  O  O244  1  0.75068513  0.36618726  0.85443974  1
  O  O245  1  0.76162641  0.63258291  0.16074842  1
  O  O246  1  0.76337631  0.60645965  0.35039184  1
  O  O247  1  0.74421476  0.63700374  0.65336066  1
  O  O248  1  0.73307382  0.63192414  0.84169442  1
  O  O249  1  0.75041144  0.86649409  0.16942108  1
  O  O250  1  0.75706544  0.91104512  0.35201818  1
  O  O251  1  0.74406871  0.86777564  0.65597491  1
  O  O252  1  0.74382047  0.90108955  0.86728977  1
  O  O253  1  0.13710276  -0.01922507  0.14889372  1
  O  O254  1  0.09948875  -0.02121321  0.35835750  1
  O  O255  1  0.13810639  -0.00950046  0.62360677  1
  O  O256  1  0.09187330  -0.00764255  0.87405124  1
  O  O257  1  0.10967088  0.26742154  0.14237287  1
  O  O258  1  0.17411533  0.25096790  0.37576837  1
  O  O259  1  0.09166663  0.24900090  0.65111411  1
  O  O260  1  0.12845604  0.25254962  0.84133614  1
  O  O261  1  0.13913397  0.50815163  0.15875549  1
  O  O262  1  0.10343832  0.49801577  0.38628719  1
  O  O263  1  0.15924831  0.48887842  0.59602222  1
  O  O264  1  0.12610553  0.50250417  0.88288145  1
  O  O265  1  0.09374300  0.74480521  0.11479946  1
  O  O266  1  0.13385390  0.74689865  0.39676018  1
  O  O267  1  0.10792233  0.74217090  0.59417909  1
  O  O268  1  0.14751715  0.75723370  0.87634690  1
  O  O269  1  0.36001502  -0.01326580  0.12085859  1
  O  O270  1  0.40496937  -0.01797217  0.37516116  1
  O  O271  1  0.35696439  -0.00339731  0.64496205  1
  O  O272  1  0.38995188  -0.00438038  0.88900299  1
  O  O273  1  0.39307817  0.24328071  0.15051302  1
  O  O274  1  0.35330125  0.26021510  0.41767857  1
  O  O275  1  0.40186371  0.25808608  0.63847370  1
  O  O276  1  0.37656908  0.26054595  0.84704593  1
  O  O277  1  0.35122130  0.51575361  0.10607025  1
  O  O278  1  0.40576265  0.49659162  0.37935904  1
  O  O279  1  0.34710474  0.49647214  0.61775344  1
  O  O280  1  0.37396609  0.49842069  0.90395292  1
  O  O281  1  0.38505547  0.74891255  0.15848300  1
  O  O282  1  0.34984958  0.73899480  0.34657402  1
  O  O283  1  0.36438189  0.73958413  0.63217595  1
  O  O284  1  0.34893084  0.75660972  0.86821797  1
  O  O285  1  0.64458239  0.00441011  0.16689362  1
  O  O286  1  0.58830779  0.00358439  0.36942799  1
  O  O287  1  0.64611511  0.00498208  0.63786662  1
  O  O288  1  0.61094473  0.00161609  0.88594971  1
  O  O289  1  0.58505530  0.26050072  0.13895362  1
  O  O290  1  0.66201223  0.24269157  0.37647211  1
  O  O291  1  0.61489559  0.24373286  0.64291851  1
  O  O292  1  0.61278247  0.24316896  0.87616993  1
  O  O293  1  0.67569321  0.49157767  0.10659915  1
  O  O294  1  0.60995101  0.48200874  0.39287090  1
  O  O295  1  0.64169120  0.48861719  0.59515918  1
  O  O296  1  0.64871559  0.49601442  0.88483496  1
  O  O297  1  0.63881907  0.76071715  0.09447625  1
  O  O298  1  0.65370653  0.75863528  0.39490674  1
  O  O299  1  0.59958530  0.75681717  0.59563352  1
  O  O300  1  0.64327320  0.77151139  0.90777656  1
  O  O301  1  0.85839453  -0.00841319  0.16599771  1
  O  O302  1  0.89924412  -0.00880011  0.38978840  1
  O  O303  1  0.85795057  0.00364775  0.62845373  1
  O  O304  1  0.90112953  0.00210415  0.86922614  1
  O  O305  1  0.89941314  0.24889546  0.10118748  1
  O  O306  1  0.85794149  0.25407928  0.39732014  1
  O  O307  1  0.89915268  0.24849560  0.61311534  1
  O  O308  1  0.87704775  0.25430051  0.90372482  1
  O  O309  1  0.86896406  0.50553860  0.16125042  1
  O  O310  1  0.89554876  0.50358933  0.38042882  1
  O  O311  1  0.86215569  0.50084516  0.60058969  1
  O  O312  1  0.83873276  0.49535260  0.88565460  1
  O  O313  1  0.90414209  0.74494405  0.13653538  1
  O  O314  1  0.84004916  0.75103661  0.38261994  1
  O  O315  1  0.87666874  0.73945940  0.65700453  1
  O  O316  1  0.86518776  0.74821228  0.84890745  1
