# generated using pymatgen
data_Mg32Ti42(Bi17O64)3
_symmetry_space_group_name_H-M   'P 1'
_cell_length_a   15.97202093
_cell_length_b   15.93292062
_cell_length_c   15.96954886
_cell_angle_alpha   90.04324271
_cell_angle_beta   89.97298232
_cell_angle_gamma   90.01249290
_symmetry_Int_Tables_number   1
_chemical_formula_structural   Mg32Ti42(Bi17O64)3
_chemical_formula_sum   'Mg32 Ti42 Bi51 O192'
_cell_volume   4063.94412569
_cell_formula_units_Z   1
loop_
 _symmetry_equiv_pos_site_id
 _symmetry_equiv_pos_as_xyz
  1  'x, y, z'
loop_
 _atom_site_type_symbol
 _atom_site_label
 _atom_site_symmetry_multiplicity
 _atom_site_fract_x
 _atom_site_fract_y
 _atom_site_fract_z
 _atom_site_occupancy
  Mg  Mg0  1  0.12659211  0.62168454  0.10815722  1
  Mg  Mg1  1  0.11966245  0.62004561  0.63486579  1
  Mg  Mg2  1  0.37306189  0.62348837  0.63000856  1
  Mg  Mg3  1  0.87907587  0.63625368  0.88074579  1
  Mg  Mg4  1  0.87825824  0.88007110  0.87025454  1
  Mg  Mg5  1  0.61614216  0.37895508  0.11555326  1
  Mg  Mg6  1  0.62661787  0.12030821  0.86992649  1
  Mg  Mg7  1  0.12140745  0.86826775  0.63070577  1
  Mg  Mg8  1  0.38424160  0.13335025  0.61324916  1
  Mg  Mg9  1  0.87925768  0.86477542  0.36817416  1
  Mg  Mg10  1  0.63303472  0.12136647  0.37380178  1
  Mg  Mg11  1  0.37157184  0.12231806  0.87532345  1
  Mg  Mg12  1  0.37048228  0.37380956  0.62506335  1
  Mg  Mg13  1  0.62283087  0.87400286  0.63443441  1
  Mg  Mg14  1  0.86833311  0.37321545  0.62217238  1
  Mg  Mg15  1  0.59830190  0.63272379  0.13763716  1
  Mg  Mg16  1  0.87740580  0.36946978  0.87718443  1
  Mg  Mg17  1  0.61655686  0.86731970  0.11731903  1
  Mg  Mg18  1  0.87123558  0.12645907  0.12731520  1
  Mg  Mg19  1  0.67288676  0.77221608  0.28463812  1
  Mg  Mg20  1  0.24848985  0.53896781  0.54889251  1
  Mg  Mg21  1  0.46396899  0.71677685  -0.02706643  1
  Mg  Mg22  1  0.70763175  0.51334631  0.04991327  1
  Mg  Mg23  1  0.26973622  0.23966512  0.44008253  1
  Mg  Mg24  1  0.00235914  0.71709410  0.30531431  1
  Mg  Mg25  1  0.71244988  -0.07635606  0.44306963  1
  Mg  Mg26  1  0.25778114  0.69638289  0.73995775  1
  Mg  Mg27  1  0.27756432  0.53496395  0.01255829  1
  Mg  Mg28  1  0.55210003  0.44632812  0.26596563  1
  Mg  Mg29  1  0.25775218  0.48924247  0.74476345  1
  Mg  Mg30  1  -0.01021576  0.80410294  -0.02494981  1
  Mg  Mg31  1  0.54158344  0.51983731  -0.04302822  1
  Ti  Ti32  1  0.11691767  0.86339017  0.37302394  1
  Ti  Ti33  1  0.37107763  0.86579120  0.11278406  1
  Ti  Ti34  1  0.38694712  0.12494739  0.36605784  1
  Ti  Ti35  1  0.36753231  0.86485531  0.87124333  1
  Ti  Ti36  1  0.86940275  0.88393363  0.61648508  1
  Ti  Ti37  1  0.87274371  0.11816394  0.62432015  1
  Ti  Ti38  1  0.62697231  0.11886728  0.62950484  1
  Ti  Ti39  1  0.87569930  0.86793132  0.11563778  1
  Ti  Ti40  1  0.12705543  0.37544604  0.10394791  1
  Ti  Ti41  1  0.12319440  0.11805588  0.36237229  1
  Ti  Ti42  1  0.11937155  0.86260406  0.11907175  1
  Ti  Ti43  1  0.61192830  0.86963747  0.87883932  1
  Ti  Ti44  1  0.13417344  0.37277010  0.86468995  1
  Ti  Ti45  1  0.88218464  0.63642697  0.11865042  1
  Ti  Ti46  1  0.62708564  0.37791810  0.63716681  1
  Ti  Ti47  1  0.36581963  0.61062869  0.87000877  1
  Ti  Ti48  1  0.12917262  0.14071333  0.88372676  1
  Ti  Ti49  1  0.13013096  0.60987950  0.38186278  1
  Ti  Ti50  1  0.86501791  0.37922927  0.12305070  1
  Ti  Ti51  1  0.86151460  0.61896703  0.36508769  1
  Ti  Ti52  1  0.12094018  0.12511210  0.12570581  1
  Ti  Ti53  1  0.13576997  0.37944899  0.61692280  1
  Ti  Ti54  1  0.62426493  0.12351651  0.13108781  1
  Ti  Ti55  1  0.36052791  0.87722433  0.38186857  1
  Ti  Ti56  1  0.86776079  0.13131834  0.87157581  1
  Ti  Ti57  1  0.86977634  0.61671322  0.63008878  1
  Ti  Ti58  1  0.37062942  0.38638184  0.37043417  1
  Ti  Ti59  1  0.13587249  0.60397299  0.86956353  1
  Ti  Ti60  1  0.87893502  0.37313914  0.37638907  1
  Ti  Ti61  1  0.37501038  0.11356922  0.12856261  1
  Ti  Ti62  1  0.37834451  0.38618702  0.11927704  1
  Ti  Ti63  1  0.37647020  0.38472829  0.87138142  1
  Ti  Ti64  1  0.12855630  0.88193408  0.87292480  1
  Ti  Ti65  1  0.63662304  0.63873431  0.86271038  1
  Ti  Ti66  1  0.38055004  0.62456502  0.12784905  1
  Ti  Ti67  1  0.88410898  0.11231704  0.37803122  1
  Ti  Ti68  1  0.62327956  0.38151680  0.88495926  1
  Ti  Ti69  1  0.36591730  0.62336020  0.38255496  1
  Ti  Ti70  1  0.36139123  0.86600184  0.61886694  1
  Ti  Ti71  1  0.63014945  0.62258135  0.62164490  1
  Ti  Ti72  1  0.13938140  0.37397229  0.37871722  1
  Ti  Ti73  1  0.60241014  0.62591299  0.37337658  1
  Bi  Bi74  1  0.73110453  -0.01037013  0.01171275  1
  Bi  Bi75  1  0.00383127  0.52417877  0.22537689  1
  Bi  Bi76  1  0.02651251  0.02362433  0.74920203  1
  Bi  Bi77  1  0.48981650  0.26351839  0.23859620  1
  Bi  Bi78  1  0.76695846  0.49508159  0.78485023  1
  Bi  Bi79  1  0.77166923  0.23757502  0.74384291  1
  Bi  Bi80  1  0.03397345  0.00718070  0.52357280  1
  Bi  Bi81  1  0.24285742  0.24830120  0.22267654  1
  Bi  Bi82  1  0.73075529  0.22654227  0.00599179  1
  Bi  Bi83  1  -0.01871894  0.48237120  0.75082006  1
  Bi  Bi84  1  0.01703160  0.74674057  0.78250481  1
  Bi  Bi85  1  0.73020059  -0.02819608  0.76072371  1
  Bi  Bi86  1  0.78008194  0.76171166  0.74990879  1
  Bi  Bi87  1  -0.02867752  0.01248317  -0.01433463  1
  Bi  Bi88  1  0.72264131  0.26587192  0.27524892  1
  Bi  Bi89  1  0.46318406  0.74785922  0.25270915  1
  Bi  Bi90  1  0.51391171  0.49650109  0.74553734  1
  Bi  Bi91  1  0.26024826  0.04166402  0.49474770  1
  Bi  Bi92  1  0.53416928  0.77805644  0.49412435  1
  Bi  Bi93  1  0.77149620  0.73843198  0.49751311  1
  Bi  Bi94  1  0.71370462  0.73472621  0.01226156  1
  Bi  Bi95  1  0.28210687  0.25425157  -0.01925690  1
  Bi  Bi96  1  0.22504427  0.72522089  0.24085379  1
  Bi  Bi97  1  0.70877434  0.47697108  0.46382949  1
  Bi  Bi98  1  -0.02896381  0.50650123  -0.01527626  1
  Bi  Bi99  1  0.23434735  0.00079781  -0.00177303  1
  Bi  Bi100  1  0.75302220  0.21569550  0.49106274  1
  Bi  Bi101  1  0.50986994  0.24099884  0.73520949  1
  Bi  Bi102  1  -0.00105501  0.74406551  0.51950367  1
  Bi  Bi103  1  -0.02928814  -0.00274830  0.24204670  1
  Bi  Bi104  1  -0.02438578  0.26088269  0.25387077  1
  Bi  Bi105  1  -0.03383153  0.51059973  0.49713871  1
  Bi  Bi106  1  0.73687370  -0.04090367  0.24975439  1
  Bi  Bi107  1  0.24274433  0.02326028  0.72117147  1
  Bi  Bi108  1  0.46819026  -0.00219627  0.72523330  1
  Bi  Bi109  1  0.01332686  0.25233025  0.71879263  1
  Bi  Bi110  1  0.73949787  0.50395483  0.23827175  1
  Bi  Bi111  1  0.50938348  0.22080957  -0.00412089  1
  Bi  Bi112  1  0.52319347  -0.00698873  0.46494439  1
  Bi  Bi113  1  0.47036304  0.49339655  0.51951042  1
  Bi  Bi114  1  0.50248345  -0.03900864  0.24830800  1
  Bi  Bi115  1  0.23916748  0.48536791  0.23093981  1
  Bi  Bi116  1  0.52878839  0.28338593  0.46713732  1
  Bi  Bi117  1  0.23637090  0.73907683  -0.01775218  1
  Bi  Bi118  1  0.25590664  0.24243328  0.71204374  1
  Bi  Bi119  1  0.22839800  -0.02374872  0.24391583  1
  Bi  Bi120  1  0.49162186  0.74779313  0.72860702  1
  Bi  Bi121  1  0.02700117  0.25783523  0.48665477  1
  Bi  Bi122  1  0.23222521  0.73706788  0.52199363  1
  Bi  Bi123  1  0.48160072  0.00406284  -0.01591376  1
  Bi  Bi124  1  -0.02078529  0.25315767  0.02200432  1
  O  O125  1  0.12985692  0.10965415  0.00360763  1
  O  O126  1  0.12895108  0.15801464  0.24774342  1
  O  O127  1  0.13017100  0.09835602  0.48614144  1
  O  O128  1  0.13532096  0.11408988  0.76274360  1
  O  O129  1  0.11355354  0.39323563  -0.00432238  1
  O  O130  1  0.15700355  0.36258998  0.26278369  1
  O  O131  1  0.10273153  0.38816500  0.50404589  1
  O  O132  1  0.14677023  0.35135106  0.75091123  1
  O  O133  1  0.16922209  0.60287065  -0.01040574  1
  O  O134  1  0.10388209  0.64929620  0.26154628  1
  O  O135  1  0.16074548  0.60913112  0.49457147  1
  O  O136  1  0.12975473  0.65356767  0.75759289  1
  O  O137  1  0.14265291  0.89231619  0.00439787  1
  O  O138  1  0.13681034  0.86633919  0.24215760  1
  O  O139  1  0.11609002  0.90399654  0.48334282  1
  O  O140  1  0.10813127  0.86040112  0.75942366  1
  O  O141  1  0.37730607  0.14270384  0.00874086  1
  O  O142  1  0.39152844  0.10463179  0.25063388  1
  O  O143  1  0.34850226  0.14988779  0.49287424  1
  O  O144  1  0.36901676  0.09031319  0.75474235  1
  O  O145  1  0.38566830  0.36055480  0.00997918  1
  O  O146  1  0.35060313  0.39468213  0.25578984  1
  O  O147  1  0.41472690  0.36619836  0.49336222  1
  O  O148  1  0.35304436  0.40469498  0.76003658  1
  O  O149  1  0.34596019  0.64702515  0.00051064  1
  O  O150  1  0.40536547  0.62155792  0.24488664  1
  O  O151  1  0.34517685  0.63643245  0.49384162  1
  O  O152  1  0.34578521  0.59092699  0.75656805  1
  O  O153  1  0.38063681  0.83056102  0.00342856  1
  O  O154  1  0.37997957  0.89431710  0.25681029  1
  O  O155  1  0.36879951  0.85071913  0.50199658  1
  O  O156  1  0.37259668  0.89883175  0.75978145  1
  O  O157  1  0.62371681  0.13048301  -0.00225096  1
  O  O158  1  0.63543536  0.14855433  0.24493519  1
  O  O159  1  0.63634945  0.13316826  0.51245695  1
  O  O160  1  0.63590704  0.16122302  0.74824453  1
  O  O161  1  0.61993546  0.42846159  -0.00250448  1
  O  O162  1  0.62767512  0.34917408  0.23956646  1
  O  O163  1  0.60869849  0.39562980  0.51048287  1
  O  O164  1  0.59887142  0.37013931  0.75825884  1
  O  O165  1  0.63901511  0.60843859  0.00360440  1
  O  O166  1  0.59834950  0.66655925  0.26415171  1
  O  O167  1  0.62810724  0.59269882  0.50552593  1
  O  O168  1  0.62492351  0.66094450  0.75145728  1
  O  O169  1  0.65278812  0.87364049  -0.00366789  1
  O  O170  1  0.61990092  0.87935605  0.24247713  1
  O  O171  1  0.61525662  0.88805339  0.51026715  1
  O  O172  1  0.61402077  0.87595669  0.76187230  1
  O  O173  1  0.89141778  0.14184238  -0.00497294  1
  O  O174  1  0.88614048  0.11190258  0.25584038  1
  O  O175  1  0.88649878  0.13679610  0.50907038  1
  O  O176  1  0.84535920  0.11434389  0.75344701  1
  O  O177  1  0.89510735  0.37100769  0.00306756  1
  O  O178  1  0.88088877  0.36766379  0.24562174  1
  O  O179  1  0.89142756  0.37794226  0.49399539  1
  O  O180  1  0.86705000  0.40158510  0.75114611  1
  O  O181  1  0.87886384  0.61547902  0.00566256  1
  O  O182  1  0.91240090  0.63804349  0.25591041  1
  O  O183  1  0.85502570  0.59901945  0.48842097  1
  O  O184  1  0.88315044  0.62655608  0.74413523  1
  O  O185  1  0.87913866  0.87833710  -0.00001126  1
  O  O186  1  0.88045965  0.89405313  0.23936058  1
  O  O187  1  0.81739253  0.87346340  0.50027941  1
  O  O188  1  0.89005161  0.85283012  0.73709160  1
  O  O189  1  0.00893946  0.14808651  0.12287515  1
  O  O190  1  0.00709171  0.14613809  0.37753872  1
  O  O191  1  -0.01154047  0.11690932  0.65708919  1
  O  O192  1  0.00612007  0.10631307  0.86818226  1
  O  O193  1  0.01635864  0.34705589  0.13498877  1
  O  O194  1  0.01337353  0.35061449  0.36310281  1
  O  O195  1  0.01042315  0.38576498  0.65635354  1
  O  O196  1  0.01239241  0.40292850  0.85919351  1
  O  O197  1  0.00346906  0.61556514  0.11714880  1
  O  O198  1  0.01368805  0.63056652  0.40249721  1
  O  O199  1  -0.00493049  0.62154121  0.59724005  1
  O  O200  1  0.01960191  0.59913453  0.88151850  1
  O  O201  1  0.00646039  0.85247517  0.10029841  1
  O  O202  1  0.00507777  0.83394764  0.35647442  1
  O  O203  1  -0.01609341  0.87369146  0.59022934  1
  O  O204  1  0.01047725  0.90596313  0.89287433  1
  O  O205  1  0.25775819  0.12019747  0.13950746  1
  O  O206  1  0.24892645  0.11765076  0.37127730  1
  O  O207  1  0.25563367  0.12330657  0.62997913  1
  O  O208  1  0.24837691  0.15422124  0.88459916  1
  O  O209  1  0.25198233  0.39109371  0.12313978  1
  O  O210  1  0.25774412  0.36581443  0.40679853  1
  O  O211  1  0.24719583  0.33545738  0.61114460  1
  O  O212  1  0.24997750  0.35754429  0.89341217  1
  O  O213  1  0.25090996  0.61717779  0.15100597  1
  O  O214  1  0.25347244  0.61991061  0.34296378  1
  O  O215  1  0.24550024  0.64468483  0.62754398  1
  O  O216  1  0.25231845  0.66680449  0.86301703  1
  O  O217  1  0.25516302  0.89548577  0.12465548  1
  O  O218  1  0.24707766  0.88895852  0.36473155  1
  O  O219  1  0.24736054  0.86297678  0.62479270  1
  O  O220  1  0.25228786  0.84986442  0.87838560  1
  O  O221  1  0.50282623  0.13525241  0.12013047  1
  O  O222  1  0.50137109  0.12193048  0.38766042  1
  O  O223  1  0.50607718  0.11942886  0.64511232  1
  O  O224  1  0.49860918  0.11232612  0.88989672  1
  O  O225  1  0.49153689  0.38314702  0.16002972  1
  O  O226  1  0.49317120  0.36216422  0.34681610  1
  O  O227  1  0.49423939  0.41371695  0.63565758  1
  O  O228  1  0.49197362  0.41797233  0.88132760  1
  O  O229  1  0.48456059  0.65747788  0.08960290  1
  O  O230  1  0.49264673  0.63258085  0.39808035  1
  O  O231  1  0.50040642  0.62119365  0.64418741  1
  O  O232  1  0.48310592  0.61107255  0.89452255  1
  O  O233  1  0.49123582  0.87516578  0.13373512  1
  O  O234  1  0.49233229  0.88661924  0.37750240  1
  O  O235  1  0.49138562  0.85645215  0.63306324  1
  O  O236  1  0.49986687  0.89667004  0.89170836  1
  O  O237  1  0.74661414  0.12626443  0.10487089  1
  O  O238  1  0.76667847  0.11924380  0.39170773  1
  O  O239  1  0.75180518  0.15435827  0.62510187  1
  O  O240  1  0.75162261  0.14590432  0.88958462  1
  O  O241  1  0.75409474  0.40792985  0.11278885  1
  O  O242  1  0.76166057  0.38297789  0.37006223  1
  O  O243  1  0.73824666  0.35488314  0.62842699  1
  O  O244  1  0.73975724  0.38441485  0.86526254  1
  O  O245  1  0.76879269  0.59258112  0.13647553  1
  O  O246  1  0.75077789  0.61279892  0.34109062  1
  O  O247  1  0.74976232  0.63035105  0.62923545  1
  O  O248  1  0.75007439  0.64956117  0.86651247  1
  O  O249  1  0.75765211  0.89679735  0.12548431  1
  O  O250  1  0.75157360  0.86095493  0.34192185  1
  O  O251  1  0.74843976  0.86468234  0.65867403  1
  O  O252  1  0.75262902  0.85596349  0.84878302  1
  O  O253  1  0.12156423  0.00753190  0.14480089  1
  O  O254  1  0.11449443  0.00390412  0.33760402  1
  O  O255  1  0.11211425  -0.00677261  0.63657279  1
  O  O256  1  0.16398373  -0.00206494  0.87543262  1
  O  O257  1  0.15774572  0.25292891  0.11227605  1
  O  O258  1  0.14377763  0.24970189  0.40912872  1
  O  O259  1  0.09818133  0.25527285  0.61234330  1
  O  O260  1  0.10514836  0.25292628  0.88646598  1
  O  O261  1  0.12159933  0.49306011  0.14588554  1
  O  O262  1  0.12750090  0.49544561  0.36129989  1
  O  O263  1  0.17036128  0.49185337  0.64184347  1
  O  O264  1  0.16510316  0.49815224  0.83750432  1
  O  O265  1  0.14722465  0.75004245  0.11482558  1
  O  O266  1  0.14518927  0.75190423  0.39325279  1
  O  O267  1  0.11155253  0.74796535  0.59733396  1
  O  O268  1  0.09498373  0.76222896  0.90293013  1
  O  O269  1  0.38370220  -0.00007977  0.10255660  1
  O  O270  1  0.37551818  0.00161465  0.40299256  1
  O  O271  1  0.37804246  -0.01014171  0.61759968  1
  O  O272  1  0.36247958  -0.01195558  0.91678215  1
  O  O273  1  0.37482660  0.25694787  0.14871612  1
  O  O274  1  0.37078998  0.24502027  0.35535456  1
  O  O275  1  0.38674685  0.25155805  0.66067190  1
  O  O276  1  0.38746767  0.26387966  0.87652657  1
  O  O277  1  0.36753550  0.50821458  0.10471850  1
  O  O278  1  0.38006091  0.50214184  0.39155941  1
  O  O279  1  0.35488624  0.49930100  0.59498075  1
  O  O280  1  0.33886133  0.50450161  0.90721821  1
  O  O281  1  0.35646076  0.75424600  0.15556939  1
  O  O282  1  0.37084919  0.75210736  0.35792756  1
  O  O283  1  0.36698942  0.74866979  0.66991084  1
  O  O284  1  0.40412736  0.75159320  0.85684983  1
  O  O285  1  0.62670643  0.00523454  0.11542915  1
  O  O286  1  0.63076916  -0.00109239  0.38130449  1
  O  O287  1  0.63850326  0.00753197  0.65212739  1
  O  O288  1  0.64967984  -0.00775139  0.87987155  1
  O  O289  1  0.62235037  0.25440961  0.09433230  1
  O  O290  1  0.65075996  0.24716384  0.38963609  1
  O  O291  1  0.58234681  0.26706914  0.61973024  1
  O  O292  1  0.61455666  0.26911534  0.90443362  1
  O  O293  1  0.62048436  0.50867949  0.16780027  1
  O  O294  1  0.62370481  0.50565054  0.35542892  1
  O  O295  1  0.63220265  0.50427345  0.66128268  1
  O  O296  1  0.62552089  0.51875320  0.85245834  1
  O  O297  1  0.64986751  0.74701980  0.12775780  1
  O  O298  1  0.63777120  0.73828525  0.40602609  1
  O  O299  1  0.61841074  0.74164169  0.59955398  1
  O  O300  1  0.59977704  0.74803709  0.90993844  1
  O  O301  1  0.89975322  0.00058642  0.11624956  1
  O  O302  1  0.90675427  -0.00202367  0.37795325  1
  O  O303  1  0.86440704  -0.00056159  0.62289845  1
  O  O304  1  0.86505757  0.00771969  0.89400329  1
  O  O305  1  0.87736487  0.25569031  0.12229332  1
  O  O306  1  0.87508621  0.25154566  0.36616307  1
  O  O307  1  0.88783997  0.24895594  0.65052594  1
  O  O308  1  0.88559347  0.24724216  0.85217149  1
  O  O309  1  0.90736397  0.49032654  0.12906750  1
  O  O310  1  0.89814950  0.49744505  0.36444643  1
  O  O311  1  0.88206299  0.50088820  0.61900489  1
  O  O312  1  0.87017192  0.50505589  0.87927085  1
  O  O313  1  0.86221569  0.74974612  0.11873700  1
  O  O314  1  0.86800769  0.73609291  0.39272072  1
  O  O315  1  0.87400360  0.74248593  0.59753013  1
  O  O316  1  0.91658464  0.75564807  0.88231577  1
