# generated using pymatgen
data_Mg32Ti42(Bi17O64)3
_symmetry_space_group_name_H-M   'P 1'
_cell_length_a   15.95296837
_cell_length_b   15.92857366
_cell_length_c   15.94561373
_cell_angle_alpha   89.91937568
_cell_angle_beta   89.94659134
_cell_angle_gamma   89.91698929
_symmetry_Int_Tables_number   1
_chemical_formula_structural   Mg32Ti42(Bi17O64)3
_chemical_formula_sum   'Mg32 Ti42 Bi51 O192'
_cell_volume   4051.89850265
_cell_formula_units_Z   1
loop_
 _symmetry_equiv_pos_site_id
 _symmetry_equiv_pos_as_xyz
  1  'x, y, z'
loop_
 _atom_site_type_symbol
 _atom_site_label
 _atom_site_symmetry_multiplicity
 _atom_site_fract_x
 _atom_site_fract_y
 _atom_site_fract_z
 _atom_site_occupancy
  Mg  Mg0  1  0.62590090  0.12780486  0.62851876  1
  Mg  Mg1  1  0.36703859  0.38399962  0.88013578  1
  Mg  Mg2  1  0.60996234  0.38012644  0.62786697  1
  Mg  Mg3  1  0.88441000  0.12044379  0.12044525  1
  Mg  Mg4  1  0.62751891  0.62106128  0.14036476  1
  Mg  Mg5  1  0.87443008  0.13295529  0.86264186  1
  Mg  Mg6  1  0.38717649  0.87949237  0.12064136  1
  Mg  Mg7  1  0.12886044  0.63472618  0.39423452  1
  Mg  Mg8  1  0.13293491  0.12119376  0.37101896  1
  Mg  Mg9  1  0.37457377  0.88689569  0.64051823  1
  Mg  Mg10  1  0.11710423  0.38048976  0.36841084  1
  Mg  Mg11  1  0.12726986  0.87746936  0.38525030  1
  Mg  Mg12  1  0.38469832  0.63014021  0.39900522  1
  Mg  Mg13  1  0.87814630  0.87236900  0.38209466  1
  Mg  Mg14  1  0.62631311  0.38507952  0.86944472  1
  Mg  Mg15  1  0.63362774  0.86164205  0.38579933  1
  Mg  Mg16  1  0.62863533  0.63185596  0.63429865  1
  Mg  Mg17  1  0.11901563  0.87628084  0.62508477  1
  Mg  Mg18  1  0.37696761  0.87813117  0.38560200  1
  Mg  Mg19  1  -0.00707672  0.04326113  -0.02885976  1
  Mg  Mg20  1  -0.03707097  0.72610824  0.44148917  1
  Mg  Mg21  1  0.54973458  -0.01345171  0.53158966  1
  Mg  Mg22  1  0.02677916  0.28710610  0.75784828  1
  Mg  Mg23  1  0.50589607  0.74079133  0.74681733  1
  Mg  Mg24  1  0.03679269  0.04683924  0.49681048  1
  Mg  Mg25  1  0.55433543  0.51570964  0.74930190  1
  Mg  Mg26  1  0.50719631  0.52972422  0.55792246  1
  Mg  Mg27  1  0.03615096  0.50045552  0.01428549  1
  Mg  Mg28  1  0.32268105  0.02440219  0.77893901  1
  Mg  Mg29  1  0.74663047  0.50446641  0.73810282  1
  Mg  Mg30  1  0.29836586  0.52778921  -0.01099301  1
  Mg  Mg31  1  0.47838246  0.05619574  -0.04328737  1
  Ti  Ti32  1  0.62996566  0.36713639  0.12778922  1
  Ti  Ti33  1  0.12820856  0.11812736  0.12482291  1
  Ti  Ti34  1  0.12871943  0.88834239  0.11669345  1
  Ti  Ti35  1  0.11923101  0.13174632  0.86246701  1
  Ti  Ti36  1  0.87615386  0.61594140  0.88228313  1
  Ti  Ti37  1  0.87727662  0.12797725  0.37666639  1
  Ti  Ti38  1  0.38678981  0.12069000  0.11716256  1
  Ti  Ti39  1  0.37524417  0.11896517  0.39279432  1
  Ti  Ti40  1  0.12803368  0.38805813  0.62510861  1
  Ti  Ti41  1  0.88380253  0.62027141  0.12128972  1
  Ti  Ti42  1  0.87732000  0.37970202  0.62797712  1
  Ti  Ti43  1  0.86996794  0.36884789  0.37684377  1
  Ti  Ti44  1  0.40074744  0.12452091  0.62531413  1
  Ti  Ti45  1  0.62445284  0.12326326  0.38280594  1
  Ti  Ti46  1  0.37912983  0.62307779  0.12850101  1
  Ti  Ti47  1  0.39460367  0.63081623  0.87302579  1
  Ti  Ti48  1  0.62520347  0.12152004  0.12924900  1
  Ti  Ti49  1  0.63411593  0.86514802  0.88168124  1
  Ti  Ti50  1  0.86722055  0.14200720  0.61396966  1
  Ti  Ti51  1  0.11798467  0.13912867  0.63104040  1
  Ti  Ti52  1  0.11496744  0.89594860  0.88165992  1
  Ti  Ti53  1  0.87557894  0.88282140  0.12004180  1
  Ti  Ti54  1  0.38087563  0.63228025  0.64786656  1
  Ti  Ti55  1  0.62950872  0.13391639  0.87043904  1
  Ti  Ti56  1  0.12574032  0.37368862  0.88190985  1
  Ti  Ti57  1  0.88665801  0.37796804  0.12009118  1
  Ti  Ti58  1  0.61775801  0.62523945  0.37452689  1
  Ti  Ti59  1  0.39495311  0.86346331  0.87264007  1
  Ti  Ti60  1  0.63641237  0.62344041  0.87878840  1
  Ti  Ti61  1  0.64326218  0.86494133  0.63026106  1
  Ti  Ti62  1  0.12050387  0.62332766  0.88474429  1
  Ti  Ti63  1  0.62922669  0.88702055  0.12688627  1
  Ti  Ti64  1  0.14023283  0.62289323  0.11483099  1
  Ti  Ti65  1  0.88089947  0.85670877  0.61428418  1
  Ti  Ti66  1  0.12999757  0.37971061  0.12385652  1
  Ti  Ti67  1  0.87431807  0.88147424  0.87667807  1
  Ti  Ti68  1  0.88007243  0.37587507  0.87644112  1
  Ti  Ti69  1  0.11764732  0.63210656  0.61766862  1
  Ti  Ti70  1  0.88446694  0.62122226  0.62673210  1
  Ti  Ti71  1  0.36405909  0.38254473  0.63683775  1
  Ti  Ti72  1  0.63061977  0.37816376  0.36556692  1
  Ti  Ti73  1  0.37473906  0.38546676  0.11243744  1
  Bi  Bi74  1  0.76655170  0.24536132  0.00600902  1
  Bi  Bi75  1  0.02551552  0.26060507  0.49969845  1
  Bi  Bi76  1  0.25237647  0.77948057  0.51922431  1
  Bi  Bi77  1  0.76058882  0.02075268  -0.01666138  1
  Bi  Bi78  1  0.28601926  -0.00342489  -0.01151605  1
  Bi  Bi79  1  0.02745166  0.24933549  0.25285858  1
  Bi  Bi80  1  0.76622255  -0.01677471  0.26979142  1
  Bi  Bi81  1  0.03597479  0.75684331  0.25884565  1
  Bi  Bi82  1  0.25505019  0.28051479  0.47416017  1
  Bi  Bi83  1  0.52151912  0.74588767  0.03702015  1
  Bi  Bi84  1  0.75312623  0.75034976  0.02340010  1
  Bi  Bi85  1  0.28443730  -0.00202197  0.26391910  1
  Bi  Bi86  1  0.74818031  0.50064178  0.02392035  1
  Bi  Bi87  1  0.71474977  0.25504752  0.50602514  1
  Bi  Bi88  1  0.75457512  0.00288549  0.50142207  1
  Bi  Bi89  1  0.50009599  0.27625744  0.77598135  1
  Bi  Bi90  1  0.47461914  0.75598200  0.26963839  1
  Bi  Bi91  1  0.26781795  0.76554148  0.01336382  1
  Bi  Bi92  1  0.27131740  0.52405758  0.52019619  1
  Bi  Bi93  1  0.27634581  0.22418461  0.77078585  1
  Bi  Bi94  1  0.26764327  0.23734994  0.00321540  1
  Bi  Bi95  1  0.23639517  0.79121609  0.76522370  1
  Bi  Bi96  1  0.48807288  0.23930399  0.27738009  1
  Bi  Bi97  1  0.01236427  0.75998008  0.75159693  1
  Bi  Bi98  1  0.01730528  0.53221538  0.27206049  1
  Bi  Bi99  1  0.77043556  0.52294358  0.28327513  1
  Bi  Bi100  1  0.76658605  0.72403244  0.75202155  1
  Bi  Bi101  1  -0.00615600  0.00891652  0.71075960  1
  Bi  Bi102  1  0.00776031  0.51137217  0.76554928  1
  Bi  Bi103  1  0.25920149  0.52471969  0.28895818  1
  Bi  Bi104  1  -0.02728496  0.48577959  0.48740283  1
  Bi  Bi105  1  0.26196488  0.77663996  0.26242950  1
  Bi  Bi106  1  0.78539624  0.24675152  0.23484769  1
  Bi  Bi107  1  0.50485821  0.25706044  0.00809560  1
  Bi  Bi108  1  0.00021503  0.76884790  0.00647196  1
  Bi  Bi109  1  0.77000655  0.71767074  0.47721982  1
  Bi  Bi110  1  0.27149986  0.27578165  0.25936566  1
  Bi  Bi111  1  0.47761145  0.29750503  0.50228954  1
  Bi  Bi112  1  0.01061647  -0.01438821  0.27813764  1
  Bi  Bi113  1  0.76337872  0.01305059  0.73335776  1
  Bi  Bi114  1  0.52964690  -0.01089708  0.76311963  1
  Bi  Bi115  1  0.25588742  0.51622807  0.77659752  1
  Bi  Bi116  1  0.24536771  0.02035508  0.54811065  1
  Bi  Bi117  1  0.51791556  -0.02091729  0.28260069  1
  Bi  Bi118  1  0.71719681  0.50676743  0.52329235  1
  Bi  Bi119  1  0.77624205  0.74455053  0.25258834  1
  Bi  Bi120  1  0.52901199  0.49296686  0.00328035  1
  Bi  Bi121  1  0.01862545  0.23817930  0.00349921  1
  Bi  Bi122  1  0.49692168  0.78403112  0.53737232  1
  Bi  Bi123  1  0.47641271  0.46543559  0.28204161  1
  Bi  Bi124  1  0.75142120  0.28292091  0.75451130  1
  O  O125  1  0.14045941  0.15602346  -0.01769226  1
  O  O126  1  0.09285199  0.10788799  0.23921983  1
  O  O127  1  0.12564349  0.14086960  0.50478580  1
  O  O128  1  0.08110157  0.11356463  0.74427527  1
  O  O129  1  0.13126802  0.34601077  -0.00489505  1
  O  O130  1  0.09108277  0.37874274  0.23739776  1
  O  O131  1  0.13660375  0.34953697  0.49998661  1
  O  O132  1  0.09764379  0.39250251  0.74028730  1
  O  O133  1  0.08782025  0.61867813  -0.00064956  1
  O  O134  1  0.14368619  0.60149842  0.23447892  1
  O  O135  1  0.09184647  0.66015708  0.51254511  1
  O  O136  1  0.12855549  0.58526013  0.76372670  1
  O  O137  1  0.11149039  0.85536510  -0.00229778  1
  O  O138  1  0.11305943  0.89032110  0.23561516  1
  O  O139  1  0.15192608  0.86564877  0.50444443  1
  O  O140  1  0.11687607  0.87689891  0.76122794  1
  O  O141  1  0.34884529  0.12107390  -0.00466375  1
  O  O142  1  0.39526153  0.13155604  0.23365798  1
  O  O143  1  0.35520846  0.11395720  0.50530057  1
  O  O144  1  0.38490102  0.13342899  0.74352103  1
  O  O145  1  0.33939566  0.40655835  0.00389404  1
  O  O146  1  0.38735476  0.35210648  0.23562702  1
  O  O147  1  0.35423591  0.36610873  0.50652101  1
  O  O148  1  0.38331943  0.35405160  0.74823264  1
  O  O149  1  0.39479070  0.61513410  -0.00703304  1
  O  O150  1  0.33630749  0.63144577  0.23864603  1
  O  O151  1  0.39841545  0.60092081  0.52497132  1
  O  O152  1  0.33540579  0.63691633  0.75836504  1
  O  O153  1  0.36645196  0.87180535  -0.00601598  1
  O  O154  1  0.37626400  0.87798721  0.24485202  1
  O  O155  1  0.36798812  0.85901452  0.50932129  1
  O  O156  1  0.35314462  0.89144244  0.76676655  1
  O  O157  1  0.65953734  0.13066902  -0.01257637  1
  O  O158  1  0.59531871  0.11595855  0.24314778  1
  O  O159  1  0.65070192  0.12404090  0.49813813  1
  O  O160  1  0.61635357  0.09507962  0.75222164  1
  O  O161  1  0.62845709  0.38321142  -0.00375549  1
  O  O162  1  0.60998988  0.36059840  0.24294294  1
  O  O163  1  0.63704248  0.37549675  0.48996882  1
  O  O164  1  0.57853460  0.38637249  0.74878672  1
  O  O165  1  0.59667198  0.62561406  -0.00502966  1
  O  O166  1  0.66114661  0.62163487  0.26119258  1
  O  O167  1  0.60411928  0.59849744  0.49987897  1
  O  O168  1  0.65674288  0.60363081  0.75886065  1
  O  O169  1  0.61085813  0.85706892  -0.00643144  1
  O  O170  1  0.64182735  0.89622830  0.24633389  1
  O  O171  1  0.61432963  0.86139624  0.51079882  1
  O  O172  1  0.63488412  0.89799206  0.75045631  1
  O  O173  1  0.84587709  0.13236849  -0.00606740  1
  O  O174  1  0.88113360  0.14186040  0.25212912  1
  O  O175  1  0.83857849  0.11892293  0.49796866  1
  O  O176  1  0.88508652  0.09829082  0.73685638  1
  O  O177  1  0.84995755  0.37103581  -0.00958960  1
  O  O178  1  0.88734857  0.35502299  0.23907652  1
  O  O179  1  0.85714361  0.39430464  0.49191591  1
  O  O180  1  0.90758257  0.35673929  0.73726899  1
  O  O181  1  0.89523266  0.62370673  -0.00327468  1
  O  O182  1  0.85117526  0.62550531  0.23975598  1
  O  O183  1  0.89793789  0.64386551  0.51312169  1
  O  O184  1  0.83608327  0.59928479  0.75338811  1
  O  O185  1  0.87615307  0.84267651  -0.00054480  1
  O  O186  1  0.85910520  0.86956205  0.24091902  1
  O  O187  1  0.89187542  0.82892116  0.50497263  1
  O  O188  1  0.86762815  0.89360609  0.76217849  1
  O  O189  1  0.00583910  0.11309327  0.07619531  1
  O  O190  1  -0.01445296  0.13464321  0.40527110  1
  O  O191  1  -0.01831963  0.10173177  0.59893575  1
  O  O192  1  -0.00261708  0.14523927  0.89345643  1
  O  O193  1  -0.00599762  0.39313593  0.08614929  1
  O  O194  1  -0.00866976  0.36187676  0.39895932  1
  O  O195  1  0.00156724  0.38305182  0.58311412  1
  O  O196  1  -0.00963807  0.33676372  0.87707321  1
  O  O197  1  -0.00329744  0.61700458  0.14110708  1
  O  O198  1  0.00945217  0.65091299  0.34910035  1
  O  O199  1  0.00200827  0.62257777  0.65994709  1
  O  O200  1  -0.00991604  0.63150697  0.84756076  1
  O  O201  1  -0.00446501  0.86301921  0.11627974  1
  O  O202  1  0.00092199  0.84515896  0.36119246  1
  O  O203  1  -0.00633884  0.86497688  0.64192605  1
  O  O204  1  -0.00656145  0.84622282  0.88018168  1
  O  O205  1  0.24220151  0.13812945  0.13391772  1
  O  O206  1  0.25860612  0.10064646  0.35942078  1
  O  O207  1  0.23218349  0.13295128  0.63514933  1
  O  O208  1  0.23220257  0.10216593  0.83085858  1
  O  O209  1  0.24432932  0.36313450  0.14492574  1
  O  O210  1  0.24305654  0.36437495  0.35989188  1
  O  O211  1  0.24317104  0.35819984  0.63383958  1
  O  O212  1  0.23330827  0.40006465  0.86074268  1
  O  O213  1  0.25223326  0.61485627  0.08093733  1
  O  O214  1  0.25264749  0.60627091  0.40320629  1
  O  O215  1  0.24842156  0.63217988  0.60421258  1
  O  O216  1  0.23131556  0.58790720  0.89891361  1
  O  O217  1  0.24387648  0.86866253  0.11422067  1
  O  O218  1  0.25081150  0.89547355  0.34980160  1
  O  O219  1  0.24992332  0.85288971  0.63612844  1
  O  O220  1  0.23125481  0.88749343  0.88254667  1
  O  O221  1  0.49899377  0.11501819  0.07554759  1
  O  O222  1  0.49763981  0.14595260  0.38542786  1
  O  O223  1  0.50525064  0.08818369  0.60197340  1
  O  O224  1  0.51649019  0.15267939  0.88949567  1
  O  O225  1  0.49243793  0.37713340  0.09684750  1
  O  O226  1  0.50387846  0.35819578  0.36902758  1
  O  O227  1  0.48388253  0.40418229  0.58973713  1
  O  O228  1  0.49178876  0.34832735  0.89091669  1
  O  O229  1  0.49487867  0.64076028  0.14217694  1
  O  O230  1  0.50427401  0.64846876  0.35717803  1
  O  O231  1  0.49080913  0.59685714  0.66904413  1
  O  O232  1  0.50023267  0.65238530  0.83850627  1
  O  O233  1  0.51194647  0.85936046  0.13253074  1
  O  O234  1  0.50724693  0.85650129  0.35855476  1
  O  O235  1  0.49914714  0.89740049  0.61536425  1
  O  O236  1  0.50230411  0.84087030  0.83915676  1
  O  O237  1  0.73944795  0.14183618  0.14021515  1
  O  O238  1  0.73691532  0.09624748  0.35503607  1
  O  O239  1  0.75421277  0.12920547  0.64835884  1
  O  O240  1  0.74994173  0.08504557  0.85719813  1
  O  O241  1  0.74493770  0.36192199  0.12988540  1
  O  O242  1  0.74905417  0.38457837  0.35203389  1
  O  O243  1  0.76192889  0.40059259  0.64788763  1
  O  O244  1  0.75155390  0.40157040  0.82403089  1
  O  O245  1  0.75062343  0.61970014  0.09289754  1
  O  O246  1  0.74501020  0.59216391  0.40605078  1
  O  O247  1  0.75582145  0.62170958  0.60544566  1
  O  O248  1  0.74691198  0.59824256  0.90745093  1
  O  O249  1  0.74844360  0.87012297  0.10354866  1
  O  O250  1  0.75228427  0.90374382  0.38136229  1
  O  O251  1  0.75095677  0.83391088  0.62248760  1
  O  O252  1  0.74711586  0.89325464  0.89019832  1
  O  O253  1  0.13575208  0.00126478  0.09830086  1
  O  O254  1  0.08776629  0.00059973  0.38934948  1
  O  O255  1  0.11067529  0.00609552  0.60824793  1
  O  O256  1  0.09116020  0.00652583  0.89633165  1
  O  O257  1  0.10071795  0.24596698  0.13294910  1
  O  O258  1  0.11993967  0.24579392  0.35298877  1
  O  O259  1  0.08422451  0.25160507  0.64266082  1
  O  O260  1  0.13039474  0.25071957  0.83558746  1
  O  O261  1  0.12778541  0.49116093  0.10036247  1
  O  O262  1  0.10189922  0.50605581  0.37961589  1
  O  O263  1  0.13575051  0.50187786  0.60209715  1
  O  O264  1  0.07822983  0.48337363  0.89463427  1
  O  O265  1  0.13220787  0.73896317  0.12296380  1
  O  O266  1  0.14898006  0.75265810  0.34427320  1
  O  O267  1  0.12593354  0.73991096  0.66574037  1
  O  O268  1  0.13063476  0.73531801  0.86288133  1
  O  O269  1  0.36613744  0.00463953  0.10929566  1
  O  O270  1  0.39415138  0.00320466  0.35911714  1
  O  O271  1  0.34434372  0.01051581  0.64403473  1
  O  O272  1  0.39016567  -0.00740363  0.88896097  1
  O  O273  1  0.38242453  0.25067964  0.09321831  1
  O  O274  1  0.36619839  0.23723470  0.36783138  1
  O  O275  1  0.40313592  0.24354320  0.61387311  1
  O  O276  1  0.33707179  0.25753555  0.88591485  1
  O  O277  1  0.37860483  0.50135490  0.13759714  1
  O  O278  1  0.38092414  0.50823734  0.36319478  1
  O  O279  1  0.34884220  0.49620855  0.64762590  1
  O  O280  1  0.37676918  0.51222072  0.86377076  1
  O  O281  1  0.36503345  0.74555178  0.11068483  1
  O  O282  1  0.36273203  0.75079215  0.35965527  1
  O  O283  1  0.40976091  0.74706097  0.65276651  1
  O  O284  1  0.35231055  0.74961654  0.88444378  1
  O  O285  1  0.63092695  0.00250760  0.10924599  1
  O  O286  1  0.58819975  0.00239445  0.40091281  1
  O  O287  1  0.65455955  -0.01197430  0.60736352  1
  O  O288  1  0.58201532  -0.00644540  0.88883038  1
  O  O289  1  0.60672231  0.24701194  0.11131517  1
  O  O290  1  0.63897824  0.24506182  0.38159050  1
  O  O291  1  0.62720384  0.25548667  0.61314780  1
  O  O292  1  0.64625040  0.24937810  0.84406703  1
  O  O293  1  0.62508999  0.49448826  0.11291471  1
  O  O294  1  0.60385584  0.49234537  0.35816312  1
  O  O295  1  0.62265967  0.50358692  0.63076200  1
  O  O296  1  0.59170840  0.50893491  0.87461575  1
  O  O297  1  0.63648284  0.74893442  0.11598752  1
  O  O298  1  0.65792586  0.73670300  0.38461308  1
  O  O299  1  0.59095603  0.75275588  0.65082840  1
  O  O300  1  0.65119903  0.74693976  0.86606435  1
  O  O301  1  0.86778003  -0.00494340  0.11584430  1
  O  O302  1  0.88466013  0.00338346  0.36055983  1
  O  O303  1  0.85060906  -0.02500874  0.60660975  1
  O  O304  1  0.89252444  -0.00758453  0.91059677  1
  O  O305  1  0.87090028  0.25270758  0.11209952  1
  O  O306  1  0.84898932  0.24844287  0.37769064  1
  O  O307  1  0.87262191  0.25522622  0.60505971  1
  O  O308  1  0.83085529  0.25525972  0.86569408  1
  O  O309  1  0.85777396  0.49601796  0.12102189  1
  O  O310  1  0.89281800  0.48821883  0.35465598  1
  O  O311  1  0.89359076  0.50154228  0.61754084  1
  O  O312  1  0.89363059  0.49247679  0.87411163  1
  O  O313  1  0.85778772  0.74098799  0.12563682  1
  O  O314  1  0.85040726  0.74592743  0.36923767  1
  O  O315  1  0.88087754  0.74011882  0.66682136  1
  O  O316  1  0.84963607  0.73621680  0.86148904  1
