# generated using pymatgen
data_Mg32Ti42(Bi17O64)3
_symmetry_space_group_name_H-M   'P 1'
_cell_length_a   15.90610652
_cell_length_b   15.93214888
_cell_length_c   15.97686453
_cell_angle_alpha   89.96766579
_cell_angle_beta   90.21913569
_cell_angle_gamma   90.06951669
_symmetry_Int_Tables_number   1
_chemical_formula_structural   Mg32Ti42(Bi17O64)3
_chemical_formula_sum   'Mg32 Ti42 Bi51 O192'
_cell_volume   4048.79913084
_cell_formula_units_Z   1
loop_
 _symmetry_equiv_pos_site_id
 _symmetry_equiv_pos_as_xyz
  1  'x, y, z'
loop_
 _atom_site_type_symbol
 _atom_site_label
 _atom_site_symmetry_multiplicity
 _atom_site_fract_x
 _atom_site_fract_y
 _atom_site_fract_z
 _atom_site_occupancy
  Mg  Mg0  1  0.12620410  0.12337351  0.37269238  1
  Mg  Mg1  1  0.62059779  0.87655829  0.62622584  1
  Mg  Mg2  1  0.13021847  0.88384825  0.12515512  1
  Mg  Mg3  1  0.36793732  0.87864037  0.88359123  1
  Mg  Mg4  1  0.12634083  0.38376454  0.87597680  1
  Mg  Mg5  1  0.63689159  0.87628181  0.87546687  1
  Mg  Mg6  1  0.37165168  0.37983325  0.37672770  1
  Mg  Mg7  1  0.87259678  0.13068121  0.88036419  1
  Mg  Mg8  1  0.62944987  0.62205753  0.37833613  1
  Mg  Mg9  1  0.11284293  0.88047549  0.62183224  1
  Mg  Mg10  1  0.62770162  0.13785180  0.37460511  1
  Mg  Mg11  1  0.38167528  0.12661321  0.13033261  1
  Mg  Mg12  1  0.12375491  0.62441633  0.87601843  1
  Mg  Mg13  1  0.37209573  0.63276578  0.37205759  1
  Mg  Mg14  1  0.86533482  0.62213275  0.62551080  1
  Mg  Mg15  1  0.12272932  0.61088479  0.12689285  1
  Mg  Mg16  1  0.62590586  0.37107524  0.36890488  1
  Mg  Mg17  1  0.87243279  0.13896396  0.61802472  1
  Mg  Mg18  1  0.38450959  0.38086489  0.88174531  1
  Mg  Mg19  1  0.53526406  0.25121377  0.23666872  1
  Mg  Mg20  1  0.78179662  0.00346529  0.05090953  1
  Mg  Mg21  1  0.02095924  0.48387134  0.29364222  1
  Mg  Mg22  1  0.76397651  0.46899522  0.73588588  1
  Mg  Mg23  1  0.72072936  0.25334238  0.53993779  1
  Mg  Mg24  1  0.26353774  0.47988790  0.71235688  1
  Mg  Mg25  1  0.25794728  0.27592003  0.00816573  1
  Mg  Mg26  1  0.01622410  0.70374521  0.23376445  1
  Mg  Mg27  1  0.54953937  -0.01467272  0.47306490  1
  Mg  Mg28  1  0.73434271  0.75948342  0.06353211  1
  Mg  Mg29  1  -0.03181550  0.03037306  0.74867664  1
  Mg  Mg30  1  0.48430566  0.55967913  -0.01191755  1
  Mg  Mg31  1  0.04698380  0.75046522  0.04676797  1
  Ti  Ti32  1  0.38493829  0.87416757  0.11542579  1
  Ti  Ti33  1  0.62349995  0.38138900  0.88084598  1
  Ti  Ti34  1  0.39089993  0.37584034  0.12873476  1
  Ti  Ti35  1  0.13202072  0.37345747  0.12445431  1
  Ti  Ti36  1  0.62657340  0.62617020  0.86742930  1
  Ti  Ti37  1  0.13162697  0.37302923  0.63027265  1
  Ti  Ti38  1  0.87197209  0.87205621  0.87803868  1
  Ti  Ti39  1  0.39008566  0.64144542  0.12499385  1
  Ti  Ti40  1  0.36855024  0.62493873  0.63185271  1
  Ti  Ti41  1  0.87431257  0.36991195  0.87360210  1
  Ti  Ti42  1  0.61802751  0.13502737  0.12056021  1
  Ti  Ti43  1  0.86979419  0.63959279  0.87624176  1
  Ti  Ti44  1  0.60341511  0.13001653  0.62158294  1
  Ti  Ti45  1  0.89045366  0.38221905  0.11803945  1
  Ti  Ti46  1  0.12791694  0.12596004  0.14664057  1
  Ti  Ti47  1  0.12042175  0.85949667  0.89083771  1
  Ti  Ti48  1  0.87470582  0.88109991  0.61810074  1
  Ti  Ti49  1  0.12524757  0.62382705  0.63169595  1
  Ti  Ti50  1  0.12087842  0.12009722  0.61829602  1
  Ti  Ti51  1  0.62227511  0.37887112  0.11631682  1
  Ti  Ti52  1  0.37004041  0.10556931  0.38512607  1
  Ti  Ti53  1  0.12773682  0.37371777  0.38724648  1
  Ti  Ti54  1  0.89699277  0.12485200  0.12476099  1
  Ti  Ti55  1  0.12033904  0.61938556  0.37117163  1
  Ti  Ti56  1  0.62336302  0.37867698  0.62572698  1
  Ti  Ti57  1  0.36130305  0.12892485  0.63064489  1
  Ti  Ti58  1  0.87854603  0.36471655  0.62502879  1
  Ti  Ti59  1  0.38013808  0.88950442  0.62669580  1
  Ti  Ti60  1  0.63199837  0.62662969  0.62534315  1
  Ti  Ti61  1  0.62778642  0.61596861  0.11725160  1
  Ti  Ti62  1  0.37136295  0.61955743  0.86409848  1
  Ti  Ti63  1  0.36826661  0.86944465  0.36955867  1
  Ti  Ti64  1  0.63153510  0.12577129  0.87982703  1
  Ti  Ti65  1  0.88835850  0.86132098  0.10158985  1
  Ti  Ti66  1  0.88107298  0.62123468  0.11799664  1
  Ti  Ti67  1  0.86701879  0.13745389  0.36037288  1
  Ti  Ti68  1  0.37910943  0.36992149  0.62575227  1
  Ti  Ti69  1  0.13310837  0.88878804  0.36458210  1
  Ti  Ti70  1  0.87668270  0.37518147  0.38415811  1
  Ti  Ti71  1  0.63589397  0.89766749  0.11647030  1
  Ti  Ti72  1  0.37265285  0.12254739  0.86060895  1
  Ti  Ti73  1  0.87422786  0.61161505  0.37976158  1
  Bi  Bi74  1  0.27382899  0.50507932  0.22874676  1
  Bi  Bi75  1  -0.04168901  0.00342578  0.47609935  1
  Bi  Bi76  1  0.49707612  0.26665708  0.46696200  1
  Bi  Bi77  1  0.01542845  0.26835911  0.25818046  1
  Bi  Bi78  1  0.73380525  0.02803811  0.51502733  1
  Bi  Bi79  1  -0.00849865  0.51492352  0.52576283  1
  Bi  Bi80  1  0.23727245  0.78877795  0.75495060  1
  Bi  Bi81  1  0.19440700  0.00859715  0.77701136  1
  Bi  Bi82  1  0.01442449  0.23631047  0.49258031  1
  Bi  Bi83  1  0.00545316  0.50323234  -0.01770379  1
  Bi  Bi84  1  0.23393490  -0.01254824  0.50985759  1
  Bi  Bi85  1  0.24474081  0.72436084  -0.00480585  1
  Bi  Bi86  1  0.73507691  -0.01558651  0.28627901  1
  Bi  Bi87  1  0.49941997  0.00492152  -0.01833086  1
  Bi  Bi88  1  0.76351062  0.50570096  -0.03160021  1
  Bi  Bi89  1  0.27180853  -0.00460622  0.22422326  1
  Bi  Bi90  1  -0.02490930  -0.03384481  0.25705481  1
  Bi  Bi91  1  0.25272957  0.28310956  0.77640190  1
  Bi  Bi92  1  0.75716110  0.27348265  0.23888609  1
  Bi  Bi93  1  0.50728082  0.78691784  0.48031176  1
  Bi  Bi94  1  0.72885230  0.79476634  0.45976362  1
  Bi  Bi95  1  0.47333203  0.23302045  -0.00292144  1
  Bi  Bi96  1  0.74196342  0.50185573  0.51732202  1
  Bi  Bi97  1  -0.00172577  0.00383656  -0.03571469  1
  Bi  Bi98  1  0.52882673  0.76944653  -0.00337443  1
  Bi  Bi99  1  0.25616865  0.48921175  -0.01871590  1
  Bi  Bi100  1  0.73746779  0.26356004  0.76191734  1
  Bi  Bi101  1  0.80388907  0.76240384  0.26191699  1
  Bi  Bi102  1  0.50992473  0.52280578  0.25970191  1
  Bi  Bi103  1  0.51933087  -0.00168380  0.75168497  1
  Bi  Bi104  1  0.04497806  0.22969077  -0.01752401  1
  Bi  Bi105  1  -0.01064600  0.51824130  0.75701254  1
  Bi  Bi106  1  0.50587838  0.00757334  0.28201896  1
  Bi  Bi107  1  0.49778116  0.25830178  0.75960300  1
  Bi  Bi108  1  0.23361067  0.74901415  0.23230822  1
  Bi  Bi109  1  0.75705378  0.77566183  0.73337893  1
  Bi  Bi110  1  0.26456702  0.24452053  0.47710554  1
  Bi  Bi111  1  0.49380404  0.77887058  0.76952673  1
  Bi  Bi112  1  0.48104420  0.50863533  0.48273672  1
  Bi  Bi113  1  0.25023066  0.52847927  0.49093592  1
  Bi  Bi114  1  0.23627671  0.05104350  -0.00880524  1
  Bi  Bi115  1  0.54460495  0.76586636  0.25058893  1
  Bi  Bi116  1  0.50205035  0.51945175  0.73566251  1
  Bi  Bi117  1  0.24941509  0.76590789  0.52838960  1
  Bi  Bi118  1  0.02264484  0.22632309  0.75596404  1
  Bi  Bi119  1  0.76931584  0.23544461  0.01903273  1
  Bi  Bi120  1  -0.00443546  0.76346760  0.45073408  1
  Bi  Bi121  1  0.77661790  0.02481058  0.74631540  1
  Bi  Bi122  1  0.28383758  0.25266281  0.24432285  1
  Bi  Bi123  1  0.74825083  0.49883115  0.26546697  1
  Bi  Bi124  1  -0.01725769  0.75186902  0.71574852  1
  O  O125  1  0.16582487  0.16685563  0.01843732  1
  O  O126  1  0.09461347  0.10684016  0.25129775  1
  O  O127  1  0.13730758  0.16126440  0.50753485  1
  O  O128  1  0.07898989  0.09222658  0.73887119  1
  O  O129  1  0.13365865  0.34790267  0.01018090  1
  O  O130  1  0.10073806  0.38638747  0.25238406  1
  O  O131  1  0.11716052  0.35332239  0.50451560  1
  O  O132  1  0.16095902  0.39871322  0.74992858  1
  O  O133  1  0.12622757  0.65737751  0.00594294  1
  O  O134  1  0.08435131  0.59540774  0.25774305  1
  O  O135  1  0.14044209  0.62429782  0.50025885  1
  O  O136  1  0.10122440  0.60807272  0.74623276  1
  O  O137  1  0.14314601  0.83517746  0.00370993  1
  O  O138  1  0.11406493  0.90586643  0.25181979  1
  O  O139  1  0.15031381  0.86275451  0.49323957  1
  O  O140  1  0.12085042  0.88552951  0.75011904  1
  O  O141  1  0.34963623  0.16843655  0.00924415  1
  O  O142  1  0.38901981  0.09011226  0.26447176  1
  O  O143  1  0.34893731  0.13407938  0.51091326  1
  O  O144  1  0.39662985  0.10532454  0.75087644  1
  O  O145  1  0.37819095  0.34281639  0.01641140  1
  O  O146  1  0.36282455  0.39998420  0.25153001  1
  O  O147  1  0.37747129  0.34752573  0.51187524  1
  O  O148  1  0.34552505  0.38811607  0.75066423  1
  O  O149  1  0.39077665  0.64802013  0.00776818  1
  O  O150  1  0.37940332  0.59903784  0.24631373  1
  O  O151  1  0.35330056  0.62690491  0.51185482  1
  O  O152  1  0.35860221  0.58054309  0.75397901  1
  O  O153  1  0.36360252  0.85166760  0.00955979  1
  O  O154  1  0.39298190  0.90349946  0.25737122  1
  O  O155  1  0.35703021  0.85268179  0.50182209  1
  O  O156  1  0.39240229  0.87846988  0.74653240  1
  O  O157  1  0.64616006  0.14370226  -0.00937591  1
  O  O158  1  0.58804303  0.12393692  0.23510181  1
  O  O159  1  0.65708385  0.14787952  0.50336501  1
  O  O160  1  0.60738444  0.10486590  0.74065925  1
  O  O161  1  0.61560524  0.36443062  -0.00303454  1
  O  O162  1  0.62964869  0.34746611  0.23612167  1
  O  O163  1  0.63977538  0.34977382  0.50930175  1
  O  O164  1  0.65812750  0.38357306  0.74950622  1
  O  O165  1  0.60178301  0.62324624  -0.00082960  1
  O  O166  1  0.59855532  0.63142954  0.24109388  1
  O  O167  1  0.63474411  0.61276699  0.50859615  1
  O  O168  1  0.61995127  0.60483377  0.75171645  1
  O  O169  1  0.64778250  0.84448955  0.00107993  1
  O  O170  1  0.61529789  0.89413466  0.23325114  1
  O  O171  1  0.62572546  0.87218981  0.50127841  1
  O  O172  1  0.59660471  0.88112167  0.74970296  1
  O  O173  1  0.84354565  0.10769344  0.01057736  1
  O  O174  1  0.89645908  0.14767411  0.24364440  1
  O  O175  1  0.85192811  0.10099033  0.49139789  1
  O  O176  1  0.88038139  0.12475375  0.74782124  1
  O  O177  1  0.86881968  0.40340419  -0.00773395  1
  O  O178  1  0.87914163  0.35561265  0.23345455  1
  O  O179  1  0.86795177  0.40175795  0.49548118  1
  O  O180  1  0.85475020  0.36645018  0.74455776  1
  O  O181  1  0.87091553  0.59510599  -0.00796318  1
  O  O182  1  0.89596225  0.65359544  0.23830220  1
  O  O183  1  0.85425625  0.59216837  0.49425927  1
  O  O184  1  0.89496825  0.63370038  0.75425920  1
  O  O185  1  0.85221962  0.90950799  -0.00420144  1
  O  O186  1  0.91117080  0.84436105  0.22647309  1
  O  O187  1  0.85054658  0.89716819  0.50812487  1
  O  O188  1  0.89087556  0.84751084  0.75590795  1
  O  O189  1  0.00720193  0.11142288  0.09687509  1
  O  O190  1  -0.00529043  0.12140119  0.40450423  1
  O  O191  1  0.00021166  0.14783242  0.60243887  1
  O  O192  1  -0.00063876  0.12342700  0.89992235  1
  O  O193  1  0.00283184  0.38873340  0.11057116  1
  O  O194  1  -0.00586212  0.37856796  0.37319716  1
  O  O195  1  -0.00900235  0.34209302  0.62921559  1
  O  O196  1  -0.00968611  0.41019120  0.87217745  1
  O  O197  1  -0.00556660  0.64407698  0.10664876  1
  O  O198  1  -0.00560894  0.62295403  0.40533136  1
  O  O199  1  0.00254640  0.63378920  0.60326268  1
  O  O200  1  -0.01015658  0.59771259  0.88078846  1
  O  O201  1  0.00152069  0.86582537  0.08745935  1
  O  O202  1  0.00838689  0.89304748  0.38501648  1
  O  O203  1  -0.00841190  0.84797078  0.60954315  1
  O  O204  1  0.00562013  0.86985843  0.89724631  1
  O  O205  1  0.25196830  0.13723970  0.17058090  1
  O  O206  1  0.25450835  0.15020581  0.37023471  1
  O  O207  1  0.24361048  0.10758336  0.64576773  1
  O  O208  1  0.25583371  0.11971221  0.85964840  1
  O  O209  1  0.25031072  0.33371288  0.13053578  1
  O  O210  1  0.24255614  0.36422475  0.38104745  1
  O  O211  1  0.24480212  0.39133326  0.61182493  1
  O  O212  1  0.25648818  0.35776975  0.90034205  1
  O  O213  1  0.26089359  0.65215902  0.12800105  1
  O  O214  1  0.23796292  0.62021945  0.36504677  1
  O  O215  1  0.24183364  0.58087051  0.63472329  1
  O  O216  1  0.25591267  0.61184876  0.90015543  1
  O  O217  1  0.26177073  0.85701693  0.15398598  1
  O  O218  1  0.24772689  0.85129096  0.35219651  1
  O  O219  1  0.25249679  0.87628199  0.62689269  1
  O  O220  1  0.24544562  0.88755575  0.85730034  1
  O  O221  1  0.50049490  0.10907559  0.08191874  1
  O  O222  1  0.49135401  0.08418081  0.40367759  1
  O  O223  1  0.49373640  0.15249014  0.61243138  1
  O  O224  1  0.49884495  0.12559350  0.90108814  1
  O  O225  1  0.50230114  0.39665491  0.13157116  1
  O  O226  1  0.50006700  0.39355075  0.40222323  1
  O  O227  1  0.49931166  0.35395261  0.64691485  1
  O  O228  1  0.50853956  0.37129616  0.84507662  1
  O  O229  1  0.49661592  0.58752612  0.11861443  1
  O  O230  1  0.49961124  0.60051263  0.37911158  1
  O  O231  1  0.49020965  0.62791107  0.64528982  1
  O  O232  1  0.49576019  0.60656009  0.86495746  1
  O  O233  1  0.50818245  0.88769484  0.09768761  1
  O  O234  1  0.48554508  0.90071305  0.40416502  1
  O  O235  1  0.49194527  0.84874359  0.60971478  1
  O  O236  1  0.49647302  0.86049921  0.88816247  1
  O  O237  1  0.73892014  0.16176042  0.13513321  1
  O  O238  1  0.75325878  0.13031750  0.34073511  1
  O  O239  1  0.74740747  0.09870380  0.63456920  1
  O  O240  1  0.74556762  0.12310247  0.85102289  1
  O  O241  1  0.74756436  0.34760087  0.11802437  1
  O  O242  1  0.75779686  0.38290901  0.35134554  1
  O  O243  1  0.74739607  0.40848671  0.62192361  1
  O  O244  1  0.74630939  0.34951215  0.88146522  1
  O  O245  1  0.74328724  0.63951433  0.11423541  1
  O  O246  1  0.75788143  0.61659845  0.34690174  1
  O  O247  1  0.74419414  0.58142985  0.63738199  1
  O  O248  1  0.74492104  0.63228859  0.88495753  1
  O  O249  1  0.75142284  0.86780299  0.13331941  1
  O  O250  1  0.76005711  0.86695721  0.35106814  1
  O  O251  1  0.75099047  0.88617619  0.65290471  1
  O  O252  1  0.75938532  0.87481714  0.84793483  1
  O  O253  1  0.15886012  0.01026341  0.11016278  1
  O  O254  1  0.14916685  -0.00049875  0.39809708  1
  O  O255  1  0.11369488  0.00648296  0.59046699  1
  O  O256  1  0.12868040  -0.00745742  0.90447771  1
  O  O257  1  0.10377671  0.24712571  0.15273983  1
  O  O258  1  0.10606710  0.25344169  0.36536601  1
  O  O259  1  0.13120887  0.24978025  0.66824314  1
  O  O260  1  0.10522580  0.26012352  0.85910506  1
  O  O261  1  0.15699879  0.48881031  0.11855895  1
  O  O262  1  0.11382367  0.49530792  0.38884118  1
  O  O263  1  0.09254390  0.48768455  0.62057577  1
  O  O264  1  0.12709616  0.50205626  0.91348871  1
  O  O265  1  0.11434457  0.74867719  0.16286830  1
  O  O266  1  0.09086279  0.74373587  0.35009826  1
  O  O267  1  0.14535548  0.73947324  0.63768769  1
  O  O268  1  0.14147872  0.74873453  0.85460382  1
  O  O269  1  0.35650965  -0.00501679  0.11477859  1
  O  O270  1  0.33574140  -0.00485515  0.39716320  1
  O  O271  1  0.38672552  0.00042534  0.61585012  1
  O  O272  1  0.38204156  0.00806852  0.90400953  1
  O  O273  1  0.40774865  0.25279050  0.17670608  1
  O  O274  1  0.38773430  0.24337407  0.38136549  1
  O  O275  1  0.35390765  0.24568067  0.65509607  1
  O  O276  1  0.39145723  0.24575513  0.85748235  1
  O  O277  1  0.34641226  0.49083108  0.11331355  1
  O  O278  1  0.36531227  0.50207100  0.40659270  1
  O  O279  1  0.39097552  0.48779420  0.61724232  1
  O  O280  1  0.38482502  0.50150429  0.92088674  1
  O  O281  1  0.41332983  0.75178044  0.15220331  1
  O  O282  1  0.40037565  0.75720733  0.36332559  1
  O  O283  1  0.34546255  0.73502103  0.64332117  1
  O  O284  1  0.36922913  0.73615343  0.84908508  1
  O  O285  1  0.65938717  0.00818714  0.09436758  1
  O  O286  1  0.63984262  0.01012583  0.37991059  1
  O  O287  1  0.59599338  0.01033162  0.59306990  1
  O  O288  1  0.60343736  0.00304357  0.87481751  1
  O  O289  1  0.58894810  0.24707845  0.11839057  1
  O  O290  1  0.57925676  0.24994141  0.35845713  1
  O  O291  1  0.64572923  0.24848848  0.64496947  1
  O  O292  1  0.61753774  0.24275308  0.84372002  1
  O  O293  1  0.64599459  0.49532924  0.13340418  1
  O  O294  1  0.63333601  0.49703889  0.34354535  1
  O  O295  1  0.59434176  0.49151965  0.62209820  1
  O  O296  1  0.63412632  0.49537939  0.88528163  1
  O  O297  1  0.61309741  0.74601094  0.12677724  1
  O  O298  1  0.61981183  0.74863717  0.37883832  1
  O  O299  1  0.64857577  0.73972286  0.63419082  1
  O  O300  1  0.60728869  0.74165245  0.86681898  1
  O  O301  1  0.87022240  0.00532253  0.14439337  1
  O  O302  1  0.87874028  0.00878036  0.35335486  1
  O  O303  1  0.89566592  -0.00777770  0.65091890  1
  O  O304  1  0.90271004  -0.00766825  0.85384962  1
  O  O305  1  0.88912070  0.24955822  0.09515471  1
  O  O306  1  0.87559252  0.25466991  0.38642887  1
  O  O307  1  0.83287982  0.25937702  0.59818657  1
  O  O308  1  0.89082439  0.25818219  0.88366896  1
  O  O309  1  0.87107871  0.50453621  0.13404535  1
  O  O310  1  0.88992424  0.50062259  0.33691287  1
  O  O311  1  0.90094005  0.49442286  0.63390861  1
  O  O312  1  0.83193842  0.49580082  0.84693029  1
  O  O313  1  0.86153902  0.75140912  0.08434773  1
  O  O314  1  0.87387097  0.73879182  0.38499430  1
  O  O315  1  0.85757953  0.74934637  0.63260344  1
  O  O316  1  0.87902643  0.74957169  0.89188026  1
