# generated using pymatgen
data_Mg32Ti42(Bi17O64)3
_symmetry_space_group_name_H-M   'P 1'
_cell_length_a   15.96976633
_cell_length_b   15.95209463
_cell_length_c   15.96429996
_cell_angle_alpha   90.03137593
_cell_angle_beta   89.86607708
_cell_angle_gamma   89.92585336
_symmetry_Int_Tables_number   1
_chemical_formula_structural   Mg32Ti42(Bi17O64)3
_chemical_formula_sum   'Mg32 Ti42 Bi51 O192'
_cell_volume   4066.90981889
_cell_formula_units_Z   1
loop_
 _symmetry_equiv_pos_site_id
 _symmetry_equiv_pos_as_xyz
  1  'x, y, z'
loop_
 _atom_site_type_symbol
 _atom_site_label
 _atom_site_symmetry_multiplicity
 _atom_site_fract_x
 _atom_site_fract_y
 _atom_site_fract_z
 _atom_site_occupancy
  Mg  Mg0  1  0.87286701  0.63632480  0.86822207  1
  Mg  Mg1  1  0.63186394  0.12877779  0.12358689  1
  Mg  Mg2  1  0.37413369  0.13553086  0.87852979  1
  Mg  Mg3  1  0.37170825  0.62440270  0.11635404  1
  Mg  Mg4  1  0.37182387  0.13479050  0.37246081  1
  Mg  Mg5  1  0.62649164  0.10834311  0.62508484  1
  Mg  Mg6  1  0.12084802  0.13143156  0.87225922  1
  Mg  Mg7  1  0.88630910  0.11756572  0.38454030  1
  Mg  Mg8  1  0.62781971  0.61183210  0.12048176  1
  Mg  Mg9  1  0.13059838  0.63395731  0.87887124  1
  Mg  Mg10  1  0.37320412  0.13005353  0.62392440  1
  Mg  Mg11  1  0.88227869  0.37756210  0.36439182  1
  Mg  Mg12  1  0.62709355  0.62036581  0.62587731  1
  Mg  Mg13  1  0.87983513  0.37751681  0.88040053  1
  Mg  Mg14  1  0.37750072  0.87821042  0.87141205  1
  Mg  Mg15  1  0.63375584  0.62488025  0.87638967  1
  Mg  Mg16  1  0.62393898  0.87770962  0.12498743  1
  Mg  Mg17  1  0.62236060  0.36713723  0.38261983  1
  Mg  Mg18  1  0.63108473  0.61643264  0.37230570  1
  Mg  Mg19  1  -0.00579295  -0.03712844  0.49631696  1
  Mg  Mg20  1  0.74519447  0.79274742  0.70957348  1
  Mg  Mg21  1  -0.00743760  0.51839694  0.21609046  1
  Mg  Mg22  1  0.79822838  0.30091265  0.74742509  1
  Mg  Mg23  1  0.45819856  0.24596698  0.20199270  1
  Mg  Mg24  1  0.05811354  0.73503814  0.53228761  1
  Mg  Mg25  1  0.23695480  0.70080484  0.68246824  1
  Mg  Mg26  1  -0.03289774  -0.03130965  0.27197707  1
  Mg  Mg27  1  -0.03756038  0.22991875  0.71334958  1
  Mg  Mg28  1  0.22290204  0.26816028  0.78107884  1
  Mg  Mg29  1  0.71673598  -0.02984807  0.72301141  1
  Mg  Mg30  1  0.77601522  0.23974279  0.06519225  1
  Mg  Mg31  1  0.23376325  0.28596819  0.47410229  1
  Ti  Ti32  1  0.38526083  0.86728312  0.63479357  1
  Ti  Ti33  1  0.36409461  0.36951954  0.62698345  1
  Ti  Ti34  1  0.85616921  0.10769656  0.63442482  1
  Ti  Ti35  1  0.37898718  0.87144574  0.12207617  1
  Ti  Ti36  1  0.64565154  0.11812495  0.86572500  1
  Ti  Ti37  1  0.88694048  0.11056494  0.14719572  1
  Ti  Ti38  1  0.37692628  0.60207561  0.63533069  1
  Ti  Ti39  1  0.11670365  0.63697328  0.36745036  1
  Ti  Ti40  1  0.36223823  0.37434971  0.12546295  1
  Ti  Ti41  1  0.62735221  0.88072819  0.87691512  1
  Ti  Ti42  1  0.86956673  0.88152293  0.86326355  1
  Ti  Ti43  1  0.87902437  0.87501882  0.12363100  1
  Ti  Ti44  1  0.87499833  0.14368522  0.86519513  1
  Ti  Ti45  1  0.11838322  0.88756561  0.37560076  1
  Ti  Ti46  1  0.87597916  0.86949326  0.61428944  1
  Ti  Ti47  1  0.35967426  0.12881836  0.12081545  1
  Ti  Ti48  1  0.12048793  0.63639437  0.11908188  1
  Ti  Ti49  1  0.36894132  0.63813257  0.86183524  1
  Ti  Ti50  1  0.12682298  0.88367421  0.85761581  1
  Ti  Ti51  1  0.11642055  0.11423074  0.12210733  1
  Ti  Ti52  1  0.87656981  0.63365505  0.12888193  1
  Ti  Ti53  1  0.37001605  0.36556309  0.86185325  1
  Ti  Ti54  1  0.87053514  0.63525642  0.62654020  1
  Ti  Ti55  1  0.62166231  0.12599329  0.38331441  1
  Ti  Ti56  1  0.87456853  0.38393661  0.12694860  1
  Ti  Ti57  1  0.13305773  0.35797683  0.62880233  1
  Ti  Ti58  1  0.12710134  0.12017998  0.39509383  1
  Ti  Ti59  1  0.62914640  0.87367508  0.36787889  1
  Ti  Ti60  1  0.12209890  0.87829328  0.12746164  1
  Ti  Ti61  1  0.12280199  0.37735685  0.36586074  1
  Ti  Ti62  1  0.62802958  0.36490928  0.12981724  1
  Ti  Ti63  1  0.11446988  0.38628001  0.12144729  1
  Ti  Ti64  1  0.87902832  0.61896451  0.37439389  1
  Ti  Ti65  1  0.11747570  0.38385559  0.87415928  1
  Ti  Ti66  1  0.37680310  0.35771224  0.36900361  1
  Ti  Ti67  1  0.63970105  0.36865068  0.86782749  1
  Ti  Ti68  1  0.62232413  0.38063976  0.62445645  1
  Ti  Ti69  1  0.61718850  0.87146964  0.60660474  1
  Ti  Ti70  1  0.39673075  0.87233201  0.37203447  1
  Ti  Ti71  1  0.12321453  0.88399770  0.61783436  1
  Ti  Ti72  1  0.12543317  0.13910874  0.63416860  1
  Ti  Ti73  1  0.86667856  0.87036031  0.37473603  1
  Bi  Bi74  1  -0.02473229  0.24298590  0.01079765  1
  Bi  Bi75  1  0.26463231  -0.02616313  0.25571741  1
  Bi  Bi76  1  0.52399743  0.50407502  0.76571454  1
  Bi  Bi77  1  0.21151878  0.26171940  0.00337929  1
  Bi  Bi78  1  0.00053768  0.76218722  0.25265176  1
  Bi  Bi79  1  0.22422068  0.51319887  0.74569827  1
  Bi  Bi80  1  0.79972320  0.48644444  0.51018902  1
  Bi  Bi81  1  -0.01793118  0.46001515  0.72070909  1
  Bi  Bi82  1  0.22446861  0.51110939  0.22911407  1
  Bi  Bi83  1  0.72788775  0.48305206  0.26832550  1
  Bi  Bi84  1  0.72096171  0.01334497  0.25069481  1
  Bi  Bi85  1  0.46681713  0.52823080  0.26569712  1
  Bi  Bi86  1  0.27718153  0.72516853  0.27049984  1
  Bi  Bi87  1  0.50020479  0.01368423  0.76124918  1
  Bi  Bi88  1  0.03414171  0.72105193  0.73020776  1
  Bi  Bi89  1  0.03495627  0.53484897  0.51365967  1
  Bi  Bi90  1  0.53329693  0.73489776  0.74526944  1
  Bi  Bi91  1  -0.00703097  0.23540292  0.27336794  1
  Bi  Bi92  1  0.26525116  0.50519131  -0.02917026  1
  Bi  Bi93  1  0.26220443  0.76015905  -0.01202193  1
  Bi  Bi94  1  0.76397486  0.26749532  0.54149696  1
  Bi  Bi95  1  0.48808936  0.70547703  0.48422727  1
  Bi  Bi96  1  -0.00075872  0.00007326  -0.02952430  1
  Bi  Bi97  1  0.50863036  0.72807541  0.24124023  1
  Bi  Bi98  1  0.49453366  0.48727661  0.00375396  1
  Bi  Bi99  1  0.75899535  0.51081343  0.73936402  1
  Bi  Bi100  1  -0.02256879  0.52347647  -0.01388491  1
  Bi  Bi101  1  0.73954806  0.73320373  0.26114067  1
  Bi  Bi102  1  0.26374283  0.03503658  0.76189492  1
  Bi  Bi103  1  0.51786114  0.71899384  0.00793985  1
  Bi  Bi104  1  0.75570906  -0.01187413  0.00453945  1
  Bi  Bi105  1  0.27194708  0.51535821  0.46092141  1
  Bi  Bi106  1  0.74388337  0.25172568  0.28479359  1
  Bi  Bi107  1  0.75606016  0.51790579  -0.00156449  1
  Bi  Bi108  1  0.49585880  0.02526452  0.22394813  1
  Bi  Bi109  1  0.74039989  0.75039772  -0.00048252  1
  Bi  Bi110  1  0.26008753  -0.00580121  -0.01435943  1
  Bi  Bi111  1  0.47987819  0.02190953  0.49912139  1
  Bi  Bi112  1  0.51179600  0.00667874  -0.00891860  1
  Bi  Bi113  1  0.73043976  0.73327103  0.50334689  1
  Bi  Bi114  1  0.49409755  0.47240373  0.48966730  1
  Bi  Bi115  1  0.26102037  0.01669282  0.51909581  1
  Bi  Bi116  1  0.26756375  0.78225935  0.49319721  1
  Bi  Bi117  1  -0.00215136  0.74878400  -0.03258032  1
  Bi  Bi118  1  0.76642204  0.01501856  0.48395359  1
  Bi  Bi119  1  0.51645705  0.24125274  0.75173065  1
  Bi  Bi120  1  0.50173938  0.24576004  0.52576710  1
  Bi  Bi121  1  0.00391242  -0.00514730  0.72441416  1
  Bi  Bi122  1  0.23116611  0.21643879  0.25407922  1
  Bi  Bi123  1  0.53261308  0.24972788  0.00282024  1
  Bi  Bi124  1  -0.01057714  0.26257417  0.50416186  1
  O  O125  1  0.14304512  0.13995326  0.00619788  1
  O  O126  1  0.10914393  0.14121970  0.24530387  1
  O  O127  1  0.15588424  0.14105743  0.50264451  1
  O  O128  1  0.10681439  0.09460993  0.74174096  1
  O  O129  1  0.11895240  0.37597964  0.00070937  1
  O  O130  1  0.12915539  0.39644428  0.25362604  1
  O  O131  1  0.11367803  0.32710113  0.51478762  1
  O  O132  1  0.15710895  0.38151025  0.75706032  1
  O  O133  1  0.12271473  0.66049525  0.00970228  1
  O  O134  1  0.10003003  0.58371027  0.25799304  1
  O  O135  1  0.12617430  0.63894609  0.48859183  1
  O  O136  1  0.15011500  0.63659471  0.75266100  1
  O  O137  1  0.10437752  0.86328764  0.01674013  1
  O  O138  1  0.13478764  0.90908027  0.26293582  1
  O  O139  1  0.08578489  0.85495368  0.50221030  1
  O  O140  1  0.13334590  0.90337179  0.74452980  1
  O  O141  1  0.35590815  0.10914011  0.00692481  1
  O  O142  1  0.38413842  0.15260078  0.24868447  1
  O  O143  1  0.36663034  0.10279429  0.49410818  1
  O  O144  1  0.39010610  0.10397608  0.74566053  1
  O  O145  1  0.37839428  0.40142564  0.01173574  1
  O  O146  1  0.38707870  0.34088785  0.25556554  1
  O  O147  1  0.37099337  0.41749678  0.50901007  1
  O  O148  1  0.34211233  0.34819267  0.74910876  1
  O  O149  1  0.38932477  0.58758726  -0.00787672  1
  O  O150  1  0.38851932  0.64695103  0.24376977  1
  O  O151  1  0.40804009  0.59759454  0.51473113  1
  O  O152  1  0.34145307  0.65063527  0.74891213  1
  O  O153  1  0.37004793  0.90280917  0.00885812  1
  O  O154  1  0.35319979  0.85897813  0.25387887  1
  O  O155  1  0.38006972  0.86481807  0.49101673  1
  O  O156  1  0.37194793  0.88199004  0.74478528  1
  O  O157  1  0.62850555  0.10107902  -0.01478094  1
  O  O158  1  0.63613352  0.13030223  0.25949909  1
  O  O159  1  0.64537432  0.09223142  0.49647451  1
  O  O160  1  0.59315427  0.12433993  0.74967097  1
  O  O161  1  0.60263022  0.37193139  -0.01917488  1
  O  O162  1  0.63692447  0.34726862  0.24166977  1
  O  O163  1  0.64513675  0.38352134  0.51016725  1
  O  O164  1  0.58546051  0.36517858  0.75572240  1
  O  O165  1  0.59547817  0.60555198  -0.00602104  1
  O  O166  1  0.62678497  0.65006169  0.24119572  1
  O  O167  1  0.61823252  0.64088175  0.49969772  1
  O  O168  1  0.63068015  0.63874108  0.75382013  1
  O  O169  1  0.62389684  0.92042581  -0.00227101  1
  O  O170  1  0.65185798  0.85259701  0.25251902  1
  O  O171  1  0.61282107  0.86941075  0.49421463  1
  O  O172  1  0.65138166  0.85254431  0.76560740  1
  O  O173  1  0.85507925  0.18132431  -0.01937587  1
  O  O174  1  0.92086516  0.09227163  0.25497170  1
  O  O175  1  0.84889991  0.13723947  0.51454862  1
  O  O176  1  0.90845012  0.10751702  0.74484370  1
  O  O177  1  0.90143144  0.36001185  0.00345427  1
  O  O178  1  0.87744384  0.40880012  0.23930446  1
  O  O179  1  0.85909622  0.35379595  0.49823689  1
  O  O180  1  0.86273094  0.41219678  0.75460579  1
  O  O181  1  0.89921405  0.64674363  0.00809107  1
  O  O182  1  0.89615832  0.60229128  0.24555053  1
  O  O183  1  0.84123628  0.63582341  0.49209680  1
  O  O184  1  0.86834749  0.60650084  0.74326786  1
  O  O185  1  0.90729177  0.86420159  0.01331149  1
  O  O186  1  0.85861666  0.90119069  0.26095074  1
  O  O187  1  0.89520496  0.85680528  0.50478461  1
  O  O188  1  0.83080353  0.89251749  0.75760098  1
  O  O189  1  -0.00269464  0.12823243  0.10025918  1
  O  O190  1  0.01108471  0.16304311  0.39539355  1
  O  O191  1  0.01166863  0.16475355  0.61244700  1
  O  O192  1  -0.00731098  0.12232505  0.89893889  1
  O  O193  1  0.00521767  0.41239337  0.13739268  1
  O  O194  1  0.00772636  0.34552723  0.37262216  1
  O  O195  1  0.01192157  0.33817865  0.66218531  1
  O  O196  1  0.00721534  0.40449322  0.85749430  1
  O  O197  1  0.00404770  0.60537697  0.12213566  1
  O  O198  1  -0.00593661  0.63809010  0.38989942  1
  O  O199  1  -0.01271329  0.65865100  0.60253971  1
  O  O200  1  0.00268460  0.62253364  0.88428794  1
  O  O201  1  -0.00244561  0.88261014  0.17212975  1
  O  O202  1  -0.00382543  0.86811834  0.35052269  1
  O  O203  1  -0.01294552  0.85107690  0.65844960  1
  O  O204  1  -0.00489146  0.90927594  0.86207201  1
  O  O205  1  0.24307209  0.11995449  0.14514860  1
  O  O206  1  0.23888771  0.10750365  0.34776380  1
  O  O207  1  0.24719630  0.09647525  0.63074855  1
  O  O208  1  0.24903240  0.15183844  0.83377431  1
  O  O209  1  0.25012130  0.38132851  0.13042394  1
  O  O210  1  0.24879692  0.39132679  0.39406027  1
  O  O211  1  0.25221402  0.35942524  0.59596113  1
  O  O212  1  0.25859546  0.36612820  0.89992341  1
  O  O213  1  0.24278950  0.63179068  0.14973266  1
  O  O214  1  0.23584104  0.61210598  0.35212480  1
  O  O215  1  0.26538973  0.60022256  0.61028598  1
  O  O216  1  0.25316363  0.64484622  0.91121323  1
  O  O217  1  0.24198380  0.88774911  0.13029464  1
  O  O218  1  0.23530601  0.88983535  0.39452468  1
  O  O219  1  0.23529902  0.89293463  0.59641418  1
  O  O220  1  0.23842682  0.86862523  0.89630023  1
  O  O221  1  0.49793514  0.13523122  0.12943173  1
  O  O222  1  0.50671162  0.12811328  0.39685464  1
  O  O223  1  0.50025858  0.11845074  0.59351555  1
  O  O224  1  0.49922687  0.08894844  0.88068358  1
  O  O225  1  0.50893812  0.33618207  0.12310448  1
  O  O226  1  0.49346672  0.35859211  0.39990481  1
  O  O227  1  0.49642086  0.37684311  0.59746054  1
  O  O228  1  0.47314589  0.42880471  0.87611001  1
  O  O229  1  0.50095632  0.64037308  0.12799344  1
  O  O230  1  0.50862908  0.64847171  0.36153517  1
  O  O231  1  0.49508175  0.65041770  0.64395655  1
  O  O232  1  0.48797856  0.63064934  0.84690447  1
  O  O233  1  0.49243257  0.88491431  0.14470000  1
  O  O234  1  0.50826390  0.84992987  0.36052936  1
  O  O235  1  0.50063717  0.84346785  0.63223406  1
  O  O236  1  0.50959699  0.90579455  0.87831940  1
  O  O237  1  0.76955943  0.13149307  0.14006483  1
  O  O238  1  0.75869194  0.09224700  0.36783527  1
  O  O239  1  0.75087094  0.07690029  0.65595908  1
  O  O240  1  0.75440195  0.14119747  0.84905614  1
  O  O241  1  0.75930091  0.36176604  0.10953598  1
  O  O242  1  0.75255110  0.37747365  0.35574093  1
  O  O243  1  0.73542428  0.36213680  0.65368409  1
  O  O244  1  0.74836234  0.34992093  0.85771245  1
  O  O245  1  0.75776812  0.62900348  0.10654673  1
  O  O246  1  0.75722998  0.60504774  0.34380099  1
  O  O247  1  0.75382478  0.59411397  0.62117020  1
  O  O248  1  0.75291693  0.63267952  0.91264859  1
  O  O249  1  0.76084187  0.88073809  0.10341088  1
  O  O250  1  0.75204530  0.89445848  0.39774024  1
  O  O251  1  0.74788509  0.88884040  0.61824062  1
  O  O252  1  0.75736680  0.87578041  0.91551696  1
  O  O253  1  0.11394491  0.00277529  0.11662795  1
  O  O254  1  0.09333101  0.00453424  0.40597531  1
  O  O255  1  0.08055500  -0.00589445  0.59981230  1
  O  O256  1  0.13077935  0.00059299  0.89874473  1
  O  O257  1  0.12489265  0.26529691  0.12466002  1
  O  O258  1  0.15612417  0.25500095  0.37022694  1
  O  O259  1  0.15920965  0.24046420  0.67186346  1
  O  O260  1  0.13052311  0.26270709  0.87878093  1
  O  O261  1  0.14617130  0.50780214  0.11304284  1
  O  O262  1  0.11764384  0.48857620  0.40998639  1
  O  O263  1  0.11195031  0.47476863  0.61738478  1
  O  O264  1  0.15345092  0.50375533  0.87533982  1
  O  O265  1  0.11129382  0.75300607  0.15998448  1
  O  O266  1  0.12436369  0.75152883  0.35004398  1
  O  O267  1  0.13146994  0.75998947  0.63749957  1
  O  O268  1  0.09904720  0.76771151  0.85914941  1
  O  O269  1  0.37428435  0.00629113  0.15239346  1
  O  O270  1  0.38791681  -0.01152350  0.35820978  1
  O  O271  1  0.38077177  -0.01523420  0.60263259  1
  O  O272  1  0.34059277  0.00463218  0.87687235  1
  O  O273  1  0.36307696  0.25000378  0.11157625  1
  O  O274  1  0.34430627  0.25665995  0.41365482  1
  O  O275  1  0.39199541  0.25469969  0.61386451  1
  O  O276  1  0.40836621  0.26033225  0.88252178  1
  O  O277  1  0.38280943  0.49193826  0.15913858  1
  O  O278  1  0.38305047  0.48932305  0.36477871  1
  O  O279  1  0.38864612  0.49192624  0.66532390  1
  O  O280  1  0.32998007  0.51284222  0.84992580  1
  O  O281  1  0.36867510  0.75761263  0.09896379  1
  O  O282  1  0.35377472  0.75084100  0.38553054  1
  O  O283  1  0.33691392  0.75686843  0.61441596  1
  O  O284  1  0.37399911  0.75304306  0.90185806  1
  O  O285  1  0.61957336  0.00458011  0.15053966  1
  O  O286  1  0.61746210  -0.00952889  0.34981256  1
  O  O287  1  0.60864045  -0.01965823  0.64795665  1
  O  O288  1  0.65488041  -0.00011952  0.83797969  1
  O  O289  1  0.64740257  0.24551588  0.08293691  1
  O  O290  1  0.65448567  0.23928626  0.39341722  1
  O  O291  1  0.60169758  0.24779061  0.62637054  1
  O  O292  1  0.60027956  0.24265424  0.86939418  1
  O  O293  1  0.62795485  0.48207613  0.12765195  1
  O  O294  1  0.61679632  0.49232183  0.35064044  1
  O  O295  1  0.61502742  0.49520677  0.64752891  1
  O  O296  1  0.63749859  0.49101241  0.85255776  1
  O  O297  1  0.62581310  0.75491846  0.08616503  1
  O  O298  1  0.66614951  0.74937143  0.37770760  1
  O  O299  1  0.64926015  0.75382883  0.63056561  1
  O  O300  1  0.62471399  0.76084665  0.91005007  1
  O  O301  1  0.87911901  0.00173234  0.11005512  1
  O  O302  1  0.90260897  -0.00853753  0.40781600  1
  O  O303  1  0.90275262  -0.00605388  0.60857339  1
  O  O304  1  0.86670513  0.00588461  0.90720767  1
  O  O305  1  0.89340657  0.25296966  0.13478198  1
  O  O306  1  0.87099846  0.24315413  0.34666300  1
  O  O307  1  0.84651270  0.23134784  0.65148136  1
  O  O308  1  0.89512879  0.25266022  0.82240187  1
  O  O309  1  0.86690115  0.50447582  0.09070328  1
  O  O310  1  0.88807427  0.50210844  0.40368260  1
  O  O311  1  0.90028158  0.51016961  0.60111123  1
  O  O312  1  0.86221588  0.50479914  0.90921596  1
  O  O313  1  0.88304750  0.75174710  0.14980445  1
  O  O314  1  0.85745640  0.75116119  0.35743528  1
  O  O315  1  0.84135639  0.75043415  0.64109652  1
  O  O316  1  0.89297764  0.76594253  0.86745290  1
