# generated using pymatgen
data_Mg32Ti42(Bi17O64)3
_symmetry_space_group_name_H-M   'P 1'
_cell_length_a   15.91610655
_cell_length_b   15.97267776
_cell_length_c   15.92286480
_cell_angle_alpha   89.89954778
_cell_angle_beta   90.20898550
_cell_angle_gamma   89.88120428
_symmetry_Int_Tables_number   1
_chemical_formula_structural   Mg32Ti42(Bi17O64)3
_chemical_formula_sum   'Mg32 Ti42 Bi51 O192'
_cell_volume   4047.91402470
_cell_formula_units_Z   1
loop_
 _symmetry_equiv_pos_site_id
 _symmetry_equiv_pos_as_xyz
  1  'x, y, z'
loop_
 _atom_site_type_symbol
 _atom_site_label
 _atom_site_symmetry_multiplicity
 _atom_site_fract_x
 _atom_site_fract_y
 _atom_site_fract_z
 _atom_site_occupancy
  Mg  Mg0  1  0.62174209  0.88378296  0.36728031  1
  Mg  Mg1  1  0.13105577  0.38207746  0.62767790  1
  Mg  Mg2  1  0.62666887  0.39400280  0.13233131  1
  Mg  Mg3  1  0.62441623  0.87189913  0.61865011  1
  Mg  Mg4  1  0.13674391  0.12970520  0.86730403  1
  Mg  Mg5  1  0.87976494  0.37681033  0.36413891  1
  Mg  Mg6  1  0.61828777  0.37605204  0.37516811  1
  Mg  Mg7  1  0.62576243  0.12605359  0.62758171  1
  Mg  Mg8  1  0.11906728  0.62151800  0.13299562  1
  Mg  Mg9  1  0.87480327  0.12479910  0.62726209  1
  Mg  Mg10  1  0.13979340  0.37122603  0.12070053  1
  Mg  Mg11  1  0.87507871  0.87830486  0.62284882  1
  Mg  Mg12  1  0.36499963  0.62358741  0.61515604  1
  Mg  Mg13  1  0.38348038  0.10804447  0.85649239  1
  Mg  Mg14  1  0.87571021  0.38672873  0.12837725  1
  Mg  Mg15  1  0.86564335  0.61740815  0.87463710  1
  Mg  Mg16  1  0.63078520  0.38503018  0.62427320  1
  Mg  Mg17  1  0.87537429  0.88490392  0.87981450  1
  Mg  Mg18  1  0.63271506  0.61522545  0.36767145  1
  Mg  Mg19  1  0.76716271  0.00466558  0.72804734  1
  Mg  Mg20  1  0.03127771  0.46932235  0.21760879  1
  Mg  Mg21  1  0.49918180  0.18078416  -0.04273489  1
  Mg  Mg22  1  0.48371062  0.54229442  0.27287092  1
  Mg  Mg23  1  0.21996757  0.53819397  0.48415060  1
  Mg  Mg24  1  0.00932594  0.05102940  -0.04226497  1
  Mg  Mg25  1  0.72598984  0.45101877  0.81601907  1
  Mg  Mg26  1  0.73758846  0.47334387  0.27232359  1
  Mg  Mg27  1  0.27190629  0.02761638  0.74354907  1
  Mg  Mg28  1  0.21216606  0.51885768  0.02916757  1
  Mg  Mg29  1  0.74551666  0.79172640  0.23318078  1
  Mg  Mg30  1  0.45000304  0.01459162  0.05012020  1
  Mg  Mg31  1  0.00676352  0.24961884  0.79724651  1
  Ti  Ti32  1  0.64590614  0.62957487  0.14625509  1
  Ti  Ti33  1  0.87598669  0.12857121  0.12364566  1
  Ti  Ti34  1  0.36861347  0.87498367  0.63136431  1
  Ti  Ti35  1  0.61857074  0.13032779  0.11571724  1
  Ti  Ti36  1  0.12660271  0.37536207  0.88227458  1
  Ti  Ti37  1  0.36998209  0.88119389  0.38267216  1
  Ti  Ti38  1  0.12351545  0.12765414  0.10720838  1
  Ti  Ti39  1  0.88609013  0.37195424  0.87905713  1
  Ti  Ti40  1  0.12254631  0.88207992  0.38862834  1
  Ti  Ti41  1  0.86300111  0.63466145  0.62899841  1
  Ti  Ti42  1  0.62468077  0.63877485  0.85961376  1
  Ti  Ti43  1  0.61854619  0.13295346  0.37530010  1
  Ti  Ti44  1  0.63280567  0.10875601  0.86284204  1
  Ti  Ti45  1  0.87100192  0.12922323  0.88169529  1
  Ti  Ti46  1  0.12023849  0.87262478  0.64061275  1
  Ti  Ti47  1  0.38799753  0.86877330  0.87459152  1
  Ti  Ti48  1  0.87241654  0.62019734  0.35901901  1
  Ti  Ti49  1  0.37387526  0.61754407  0.88535058  1
  Ti  Ti50  1  0.37847720  0.38099013  0.37106469  1
  Ti  Ti51  1  0.62194516  0.87402110  0.88932694  1
  Ti  Ti52  1  0.37650205  0.37940128  0.87423045  1
  Ti  Ti53  1  0.11850047  0.88122731  0.87391792  1
  Ti  Ti54  1  0.13281482  0.12381254  0.63667929  1
  Ti  Ti55  1  0.12950713  0.61396717  0.88133631  1
  Ti  Ti56  1  0.88548737  0.13115465  0.36911162  1
  Ti  Ti57  1  0.63164509  0.62079268  0.61603709  1
  Ti  Ti58  1  0.12351465  0.62481950  0.62807082  1
  Ti  Ti59  1  0.38026880  0.61820991  0.13056817  1
  Ti  Ti60  1  0.37100674  0.12969613  0.38126869  1
  Ti  Ti61  1  0.11678475  0.61831362  0.35543086  1
  Ti  Ti62  1  0.37873381  0.13444844  0.62715841  1
  Ti  Ti63  1  0.12755542  0.38698818  0.37186140  1
  Ti  Ti64  1  0.62090768  0.88080253  0.12157410  1
  Ti  Ti65  1  0.12863892  0.13119336  0.37620049  1
  Ti  Ti66  1  0.37615957  0.37561272  0.62226017  1
  Ti  Ti67  1  0.87906395  0.63352284  0.13447507  1
  Ti  Ti68  1  0.86775633  0.88082040  0.36475205  1
  Ti  Ti69  1  0.35794494  0.63484528  0.38248003  1
  Ti  Ti70  1  0.86472494  0.88414451  0.12384806  1
  Ti  Ti71  1  0.38610635  0.38882392  0.11480564  1
  Ti  Ti72  1  0.88315759  0.37981461  0.62853334  1
  Ti  Ti73  1  0.38294381  0.86627319  0.13518859  1
  Bi  Bi74  1  0.75912140  0.27529209  0.22527905  1
  Bi  Bi75  1  0.75543463  0.02529513  0.51373759  1
  Bi  Bi76  1  0.74639800  0.01577043  0.01303574  1
  Bi  Bi77  1  0.51843185  0.76042640  0.47959602  1
  Bi  Bi78  1  0.26428384  -0.01582358  -0.03130960  1
  Bi  Bi79  1  0.28055015  0.24130054  0.23163972  1
  Bi  Bi80  1  -0.02586453  0.75656543  0.48654056  1
  Bi  Bi81  1  -0.00033697  0.27133972  0.03288322  1
  Bi  Bi82  1  -0.02722422  0.51665773  0.75018305  1
  Bi  Bi83  1  0.01303614  0.01405135  0.52202573  1
  Bi  Bi84  1  0.26326174  0.49227425  0.23097438  1
  Bi  Bi85  1  0.77913959  0.25739723  0.51067343  1
  Bi  Bi86  1  0.49141328  0.73423403  0.71355707  1
  Bi  Bi87  1  0.26061168  0.01236757  0.51393098  1
  Bi  Bi88  1  -0.02437721  0.01646517  0.76022676  1
  Bi  Bi89  1  0.26185504  0.74033145  0.76243541  1
  Bi  Bi90  1  0.50429503  0.71794023  0.01637311  1
  Bi  Bi91  1  0.73349457  0.50981030  0.01125778  1
  Bi  Bi92  1  0.24953678  0.01925973  0.21196062  1
  Bi  Bi93  1  0.24072320  0.50389033  0.73691142  1
  Bi  Bi94  1  0.21721542  0.76490902  0.02258786  1
  Bi  Bi95  1  0.51424764  0.00727143  0.51873420  1
  Bi  Bi96  1  0.51995340  0.27400601  0.23303748  1
  Bi  Bi97  1  0.24511125  0.26397316  0.76991196  1
  Bi  Bi98  1  0.01715172  0.78043136  0.23775831  1
  Bi  Bi99  1  0.00537436  0.74281836  0.77051804  1
  Bi  Bi100  1  0.49805466  0.51095809  0.72253073  1
  Bi  Bi101  1  0.76488423  0.74256691  -0.01901340  1
  Bi  Bi102  1  0.74455553  0.78122430  0.48960920  1
  Bi  Bi103  1  0.23917852  0.75005992  0.51551866  1
  Bi  Bi104  1  0.47277497  0.02542003  0.24671803  1
  Bi  Bi105  1  -0.00727395  0.51660992  0.02114273  1
  Bi  Bi106  1  0.02906548  -0.00161760  0.22131248  1
  Bi  Bi107  1  0.53273653  0.28749610  0.76348565  1
  Bi  Bi108  1  0.01641694  0.25676101  0.53211295  1
  Bi  Bi109  1  0.30635846  0.22086310  -0.00905168  1
  Bi  Bi110  1  0.25240273  0.28004153  0.49449311  1
  Bi  Bi111  1  -0.01761779  0.76874904  0.00910841  1
  Bi  Bi112  1  -0.01120581  0.51863416  0.49535819  1
  Bi  Bi113  1  0.75136086  0.27180956  0.74835801  1
  Bi  Bi114  1  0.70080023  0.27672651  -0.01020808  1
  Bi  Bi115  1  0.73870895  0.03054921  0.26993168  1
  Bi  Bi116  1  0.74851607  0.79230754  0.74769576  1
  Bi  Bi117  1  0.52373484  0.48021470  -0.03652341  1
  Bi  Bi118  1  0.77245908  0.49358624  0.47710415  1
  Bi  Bi119  1  0.01484482  0.25927222  0.25448948  1
  Bi  Bi120  1  0.52726427  0.26432349  0.50765032  1
  Bi  Bi121  1  0.53346491  -0.01110529  0.74431080  1
  Bi  Bi122  1  0.52359556  0.75406899  0.25819362  1
  Bi  Bi123  1  0.51074571  0.51058336  0.47476585  1
  Bi  Bi124  1  0.23082699  0.78357699  0.24816667  1
  O  O125  1  0.09791471  0.13600852  -0.00366650  1
  O  O126  1  0.13936111  0.10337222  0.26093658  1
  O  O127  1  0.09296753  0.13576712  0.50025762  1
  O  O128  1  0.16528787  0.09615336  0.74212146  1
  O  O129  1  0.10888173  0.35143450  -0.00447703  1
  O  O130  1  0.14694530  0.40123280  0.25461995  1
  O  O131  1  0.12244604  0.34388057  0.49887810  1
  O  O132  1  0.16335228  0.39113864  0.75423817  1
  O  O133  1  0.14265586  0.63220322  -0.00368615  1
  O  O134  1  0.08950807  0.58021341  0.25273822  1
  O  O135  1  0.14076822  0.64370664  0.51017541  1
  O  O136  1  0.12510522  0.58665644  0.75042256  1
  O  O137  1  0.11068225  0.84240651  -0.01140116  1
  O  O138  1  0.12051182  0.87748040  0.26104579  1
  O  O139  1  0.11774162  0.83534429  0.49890567  1
  O  O140  1  0.14241037  0.89330394  0.75098379  1
  O  O141  1  0.39824699  0.11059836  -0.01431998  1
  O  O142  1  0.34984620  0.11931365  0.25685072  1
  O  O143  1  0.38681418  0.09922208  0.49826090  1
  O  O144  1  0.35157004  0.12992302  0.73770231  1
  O  O145  1  0.40093085  0.39866032  0.00260974  1
  O  O146  1  0.34030852  0.36851023  0.25675890  1
  O  O147  1  0.38607378  0.37000044  0.50259617  1
  O  O148  1  0.36147329  0.35514180  0.75790104  1
  O  O149  1  0.36343918  0.61735652  -0.00092397  1
  O  O150  1  0.39117031  0.63775534  0.25008745  1
  O  O151  1  0.32969300  0.60465887  0.49488791  1
  O  O152  1  0.37989918  0.65111142  0.75393923  1
  O  O153  1  0.38688056  0.91340856  -0.00777192  1
  O  O154  1  0.37238590  0.85471751  0.24980216  1
  O  O155  1  0.36771310  0.89314505  0.50040190  1
  O  O156  1  0.36647514  0.85370025  0.74946966  1
  O  O157  1  0.60717737  0.12876178  -0.00562409  1
  O  O158  1  0.64179595  0.13373606  0.24331139  1
  O  O159  1  0.58813077  0.12272709  0.49288281  1
  O  O160  1  0.66126106  0.08254928  0.74926964  1
  O  O161  1  0.62368809  0.39153489  0.00611835  1
  O  O162  1  0.64076378  0.35143495  0.25058910  1
  O  O163  1  0.59489040  0.38696744  0.50230170  1
  O  O164  1  0.65200833  0.36787828  0.75242574  1
  O  O165  1  0.65469306  0.62192220  0.02197732  1
  O  O166  1  0.58299917  0.62528101  0.24812896  1
  O  O167  1  0.62665625  0.59799147  0.50048227  1
  O  O168  1  0.60865731  0.63895738  0.74825902  1
  O  O169  1  0.61280029  0.86368224  0.00352083  1
  O  O170  1  0.62956394  0.85250784  0.24305904  1
  O  O171  1  0.62038809  0.86006915  0.49218011  1
  O  O172  1  0.64217300  0.88473099  0.75128070  1
  O  O173  1  0.90735065  0.12492178  0.00074743  1
  O  O174  1  0.84905455  0.11929366  0.24497598  1
  O  O175  1  0.88267411  0.11114235  0.48743322  1
  O  O176  1  0.85818365  0.10002078  0.75655738  1
  O  O177  1  0.90795051  0.37864243  -0.00383891  1
  O  O178  1  0.83139429  0.38884272  0.24638543  1
  O  O179  1  0.86840395  0.38249329  0.50234727  1
  O  O180  1  0.86635364  0.35285087  0.74697714  1
  O  O181  1  0.83924499  0.60752217  0.01654853  1
  O  O182  1  0.90156914  0.63456862  0.25086516  1
  O  O183  1  0.87511212  0.60797083  0.51261997  1
  O  O184  1  0.88789759  0.62685097  0.74867960  1
  O  O185  1  0.88542568  0.87549259  0.00748067  1
  O  O186  1  0.85907236  0.84883140  0.24925544  1
  O  O187  1  0.87135650  0.86223124  0.49125497  1
  O  O188  1  0.83933225  0.89432988  0.75385192  1
  O  O189  1  -0.00255384  0.11156609  0.14328778  1
  O  O190  1  -0.00134308  0.12155815  0.35307280  1
  O  O191  1  0.00394082  0.09419485  0.63855229  1
  O  O192  1  0.01072979  0.12459568  0.83795361  1
  O  O193  1  0.00424199  0.36113489  0.14911829  1
  O  O194  1  0.00886380  0.37815508  0.33508937  1
  O  O195  1  0.00116781  0.38297341  0.62208681  1
  O  O196  1  0.00854637  0.37789088  0.84779126  1
  O  O197  1  -0.00568448  0.63905214  0.09046012  1
  O  O198  1  0.00173794  0.62622544  0.40540427  1
  O  O199  1  0.00740634  0.59883531  0.62610933  1
  O  O200  1  0.00775713  0.60417107  0.87037079  1
  O  O201  1  -0.01242442  0.88494756  0.14635308  1
  O  O202  1  -0.00565765  0.85237257  0.37057822  1
  O  O203  1  0.00427882  0.89986401  0.62548085  1
  O  O204  1  0.00316791  0.86261383  0.84819825  1
  O  O205  1  0.24177131  0.12347402  0.11710825  1
  O  O206  1  0.24311492  0.11833548  0.40190623  1
  O  O207  1  0.24646233  0.13474725  0.59288812  1
  O  O208  1  0.26048305  0.15123412  0.88274536  1
  O  O209  1  0.25870641  0.41917212  0.10729187  1
  O  O210  1  0.24876133  0.38773267  0.40340140  1
  O  O211  1  0.25837712  0.34628967  0.61725251  1
  O  O212  1  0.26001544  0.34108767  0.89173478  1
  O  O213  1  0.25572016  0.59930696  0.12743874  1
  O  O214  1  0.23649872  0.60156574  0.36105123  1
  O  O215  1  0.24390810  0.66483837  0.64220379  1
  O  O216  1  0.25370687  0.63538059  0.85900935  1
  O  O217  1  0.26249033  0.85927821  0.11847274  1
  O  O218  1  0.24060595  0.87288297  0.37544509  1
  O  O219  1  0.24277254  0.84731542  0.61818023  1
  O  O220  1  0.24512128  0.86182287  0.90332482  1
  O  O221  1  0.50710016  0.09812008  0.13222109  1
  O  O222  1  0.49018125  0.13260226  0.34823781  1
  O  O223  1  0.49155931  0.08801776  0.63373379  1
  O  O224  1  0.51372419  0.10765785  0.84790412  1
  O  O225  1  0.50047585  0.38239134  0.15355671  1
  O  O226  1  0.48830119  0.34542290  0.35520621  1
  O  O227  1  0.49687610  0.38787389  0.65652846  1
  O  O228  1  0.49886853  0.39872371  0.85511307  1
  O  O229  1  0.49826333  0.60699130  0.09674611  1
  O  O230  1  0.47754970  0.63233019  0.40197005  1
  O  O231  1  0.49371156  0.61519160  0.62673489  1
  O  O232  1  0.50153967  0.61147997  0.88768375  1
  O  O233  1  0.50215725  0.90435541  0.12902306  1
  O  O234  1  0.48815663  0.85969422  0.37636982  1
  O  O235  1  0.49068289  0.90190368  0.63396484  1
  O  O236  1  0.50157796  0.89591374  0.85513653  1
  O  O237  1  0.75151896  0.13300891  0.09146509  1
  O  O238  1  0.74247864  0.11739876  0.38018106  1
  O  O239  1  0.74607161  0.14268287  0.58927918  1
  O  O240  1  0.75805478  0.12439128  0.90210487  1
  O  O241  1  0.75149400  0.34975792  0.10437735  1
  O  O242  1  0.74177936  0.40456156  0.38290219  1
  O  O243  1  0.75229944  0.34270968  0.61859963  1
  O  O244  1  0.76605700  0.34978299  0.88310607  1
  O  O245  1  0.74834308  0.67304339  0.17343814  1
  O  O246  1  0.75608127  0.58218563  0.35310915  1
  O  O247  1  0.74714083  0.64606739  0.62944622  1
  O  O248  1  0.74306260  0.65789402  0.87115904  1
  O  O249  1  0.74521401  0.85649519  0.12143011  1
  O  O250  1  0.74876531  0.86032701  0.37173595  1
  O  O251  1  0.74845619  0.84385609  0.61614431  1
  O  O252  1  0.74428912  0.84905390  0.88740271  1
  O  O253  1  0.12673685  0.00644557  0.12593792  1
  O  O254  1  0.11277810  -0.00641989  0.40527584  1
  O  O255  1  0.13736703  -0.00478201  0.59436497  1
  O  O256  1  0.11786885  -0.00647093  0.90227292  1
  O  O257  1  0.11748194  0.24333197  0.14324929  1
  O  O258  1  0.12642831  0.24856684  0.35441201  1
  O  O259  1  0.09654887  0.23716913  0.64797334  1
  O  O260  1  0.12199420  0.25739506  0.84371200  1
  O  O261  1  0.10330918  0.49690533  0.10278979  1
  O  O262  1  0.11609190  0.49709724  0.41338218  1
  O  O263  1  0.17077850  0.50924688  0.60719040  1
  O  O264  1  0.15569199  0.49291753  0.90688638  1
  O  O265  1  0.13439503  0.74344436  0.14965396  1
  O  O266  1  0.12373341  0.73420007  0.34054059  1
  O  O267  1  0.09676067  0.75050971  0.65903604  1
  O  O268  1  0.12034637  0.73590690  0.84696880  1
  O  O269  1  0.37005534  -0.00913842  0.14407994  1
  O  O270  1  0.37255159  -0.00476898  0.35909159  1
  O  O271  1  0.33221316  -0.00713434  0.63751072  1
  O  O272  1  0.33341816  -0.00868874  0.84887971  1
  O  O273  1  0.37108969  0.26878208  0.13104896  1
  O  O274  1  0.34948070  0.24361317  0.37111448  1
  O  O275  1  0.40043880  0.24434842  0.61559415  1
  O  O276  1  0.41276978  0.25855733  0.90470610  1
  O  O277  1  0.39315378  0.50282055  0.16516423  1
  O  O278  1  0.39564853  0.49462521  0.36067509  1
  O  O279  1  0.36654863  0.49197047  0.64282937  1
  O  O280  1  0.36476975  0.50035819  0.86370773  1
  O  O281  1  0.39954926  0.74827608  0.10962388  1
  O  O282  1  0.34866600  0.74742976  0.38943048  1
  O  O283  1  0.39403913  0.75717738  0.60900914  1
  O  O284  1  0.38875494  0.75707665  0.89264923  1
  O  O285  1  0.64976793  -0.00263361  0.11591100  1
  O  O286  1  0.61798366  0.00845125  0.36024362  1
  O  O287  1  0.63539206  -0.00107604  0.59893786  1
  O  O288  1  0.64475915  -0.00755956  0.89517331  1
  O  O289  1  0.60780006  0.24508589  0.11567418  1
  O  O290  1  0.62743892  0.24727281  0.40088442  1
  O  O291  1  0.59717323  0.24957704  0.63109846  1
  O  O292  1  0.62925312  0.23073380  0.85704770  1
  O  O293  1  0.68066848  0.51158283  0.15500585  1
  O  O294  1  0.57929776  0.49871794  0.35812246  1
  O  O295  1  0.62290991  0.50848022  0.65021048  1
  O  O296  1  0.64883205  0.51722133  0.88629268  1
  O  O297  1  0.59409057  0.74714756  0.12657266  1
  O  O298  1  0.61126798  0.73944138  0.37610167  1
  O  O299  1  0.59678901  0.74208103  0.61247325  1
  O  O300  1  0.60115211  0.75279117  0.87818938  1
  O  O301  1  0.84984581  -0.00062150  0.12368854  1
  O  O302  1  0.86384131  -0.00715310  0.35898378  1
  O  O303  1  0.83709596  0.00104115  0.62032971  1
  O  O304  1  0.90682465  0.00867324  0.88933473  1
  O  O305  1  0.88603034  0.24384412  0.13444519  1
  O  O306  1  0.87687798  0.24713364  0.36534364  1
  O  O307  1  0.88586198  0.24773754  0.60595114  1
  O  O308  1  0.90157600  0.24562222  0.87071442  1
  O  O309  1  0.91568587  0.50779371  0.13590708  1
  O  O310  1  0.89143878  0.50193989  0.39148200  1
  O  O311  1  0.86739026  0.49475899  0.64323453  1
  O  O312  1  0.85449726  0.48717106  0.85320759  1
  O  O313  1  0.88447044  0.74977624  0.11262237  1
  O  O314  1  0.86627749  0.73111136  0.39390148  1
  O  O315  1  0.89800741  0.74443015  0.61976540  1
  O  O316  1  0.88676948  0.74182819  0.90497397  1
