# generated using pymatgen
data_Mg32Ti42(Bi17O64)3
_symmetry_space_group_name_H-M   'P 1'
_cell_length_a   15.94065209
_cell_length_b   15.94661343
_cell_length_c   15.91427600
_cell_angle_alpha   90.09637994
_cell_angle_beta   89.93442847
_cell_angle_gamma   90.08891904
_symmetry_Int_Tables_number   1
_chemical_formula_structural   Mg32Ti42(Bi17O64)3
_chemical_formula_sum   'Mg32 Ti42 Bi51 O192'
_cell_volume   4045.38644381
_cell_formula_units_Z   1
loop_
 _symmetry_equiv_pos_site_id
 _symmetry_equiv_pos_as_xyz
  1  'x, y, z'
loop_
 _atom_site_type_symbol
 _atom_site_label
 _atom_site_symmetry_multiplicity
 _atom_site_fract_x
 _atom_site_fract_y
 _atom_site_fract_z
 _atom_site_occupancy
  Mg  Mg0  1  0.87152713  0.37072981  0.12983213  1
  Mg  Mg1  1  0.13421760  0.11238354  0.86947680  1
  Mg  Mg2  1  0.87968712  0.36481772  0.62592773  1
  Mg  Mg3  1  0.37914928  0.88305087  0.87207964  1
  Mg  Mg4  1  0.62337054  0.63442586  0.88095600  1
  Mg  Mg5  1  0.12384170  0.62886649  0.87135721  1
  Mg  Mg6  1  0.37924047  0.88916774  0.63735004  1
  Mg  Mg7  1  0.12204728  0.38246971  0.12486035  1
  Mg  Mg8  1  0.38646234  0.87371814  0.36840415  1
  Mg  Mg9  1  0.37346853  0.38190853  0.37113097  1
  Mg  Mg10  1  0.62248177  0.36750777  0.12923818  1
  Mg  Mg11  1  0.63370657  0.86471736  0.13464683  1
  Mg  Mg12  1  0.87902691  0.87186487  0.36711927  1
  Mg  Mg13  1  0.87519781  0.87591520  0.86609819  1
  Mg  Mg14  1  0.12382844  0.61382698  0.37883641  1
  Mg  Mg15  1  0.62954135  0.87821923  0.63406353  1
  Mg  Mg16  1  0.13267247  0.37274727  0.63008732  1
  Mg  Mg17  1  0.37577792  0.37484537  0.12105406  1
  Mg  Mg18  1  0.87674484  0.63589373  0.12741625  1
  Mg  Mg19  1  0.51320573  -0.01100858  0.23994160  1
  Mg  Mg20  1  0.25357689  0.24810837  0.72230504  1
  Mg  Mg21  1  0.69995757  0.24230105  0.47294263  1
  Mg  Mg22  1  0.52644365  0.76216959  0.75440709  1
  Mg  Mg23  1  0.00912028  0.76528454  -0.06364342  1
  Mg  Mg24  1  0.79670040  0.47362078  0.73043593  1
  Mg  Mg25  1  0.76931246  0.03612531  0.75552702  1
  Mg  Mg26  1  0.25776951  -0.04220885  0.26971287  1
  Mg  Mg27  1  0.46444266  0.78769994  0.21731589  1
  Mg  Mg28  1  0.02256063  0.71098220  0.26423060  1
  Mg  Mg29  1  0.28509502  0.05420404  0.75477461  1
  Mg  Mg30  1  0.19811504  0.24027544  0.19340545  1
  Mg  Mg31  1  0.76042528  0.75704620  0.26682946  1
  Ti  Ti32  1  0.37836885  0.11169155  0.37281800  1
  Ti  Ti33  1  0.62814417  0.12204182  0.61607480  1
  Ti  Ti34  1  0.87479604  0.36043222  0.87159612  1
  Ti  Ti35  1  0.87593150  0.63166717  0.87889087  1
  Ti  Ti36  1  0.37345747  0.63271992  0.12222604  1
  Ti  Ti37  1  0.62716308  0.11051875  0.13156820  1
  Ti  Ti38  1  0.87697700  0.12510110  0.87270149  1
  Ti  Ti39  1  0.13168713  0.88041252  0.61484680  1
  Ti  Ti40  1  0.61700997  0.62582677  0.63484857  1
  Ti  Ti41  1  0.11186798  0.85004181  0.12515914  1
  Ti  Ti42  1  0.61739322  0.11163278  0.36770116  1
  Ti  Ti43  1  0.62506035  0.87099591  0.87349755  1
  Ti  Ti44  1  0.36819189  0.37966307  0.87319619  1
  Ti  Ti45  1  0.13531559  0.86942313  0.84469605  1
  Ti  Ti46  1  0.14870997  0.12844986  0.37347888  1
  Ti  Ti47  1  0.61381175  0.61964079  0.37762701  1
  Ti  Ti48  1  0.14024577  0.36750997  0.36264260  1
  Ti  Ti49  1  0.86456563  0.88196081  0.61608559  1
  Ti  Ti50  1  0.61972418  0.38980444  0.63139156  1
  Ti  Ti51  1  0.37749392  0.36545675  0.64336247  1
  Ti  Ti52  1  0.61974844  0.37877377  0.37212995  1
  Ti  Ti53  1  0.87193930  0.12457489  0.61515694  1
  Ti  Ti54  1  0.38558299  0.13563880  0.13341325  1
  Ti  Ti55  1  0.13099491  0.63966119  0.62494211  1
  Ti  Ti56  1  0.12465622  0.86537557  0.37308774  1
  Ti  Ti57  1  0.88604775  0.86505130  0.13021644  1
  Ti  Ti58  1  0.13589882  0.12114314  0.61022536  1
  Ti  Ti59  1  0.38423138  0.13022235  0.62286424  1
  Ti  Ti60  1  0.12064757  0.61835010  0.12213195  1
  Ti  Ti61  1  0.63184486  0.64591327  0.14675581  1
  Ti  Ti62  1  0.87530523  0.11484072  0.12537799  1
  Ti  Ti63  1  0.63363980  0.38507933  0.87067841  1
  Ti  Ti64  1  0.88177375  0.36731693  0.37736909  1
  Ti  Ti65  1  0.87545042  0.62972207  0.36508289  1
  Ti  Ti66  1  0.61789558  0.85199180  0.36161405  1
  Ti  Ti67  1  0.86244113  0.12013175  0.37728722  1
  Ti  Ti68  1  0.37685277  0.11579890  0.89531789  1
  Ti  Ti69  1  0.35236726  0.88073868  0.11987482  1
  Ti  Ti70  1  0.63533458  0.11918205  0.89287881  1
  Ti  Ti71  1  0.38013650  0.63194821  0.36917981  1
  Ti  Ti72  1  0.37815121  0.63411342  0.89058288  1
  Ti  Ti73  1  0.12420088  0.36948287  0.86803947  1
  Bi  Bi74  1  0.50025420  -0.02208347  0.02444676  1
  Bi  Bi75  1  0.02068036  0.21153348  0.01671648  1
  Bi  Bi76  1  0.03802617  -0.00228803  0.24327284  1
  Bi  Bi77  1  0.25320400  0.74290158  0.25323107  1
  Bi  Bi78  1  -0.02231549  0.76371517  0.72169171  1
  Bi  Bi79  1  0.74154904  0.25982209  0.01684709  1
  Bi  Bi80  1  0.52039887  0.74850843  0.00982605  1
  Bi  Bi81  1  0.74403792  0.47171942  0.49594685  1
  Bi  Bi82  1  0.03556943  0.22805843  0.74944754  1
  Bi  Bi83  1  0.53224820  0.50707188  0.02581868  1
  Bi  Bi84  1  0.00603509  0.22237427  0.27120518  1
  Bi  Bi85  1  -0.01337724  0.51301142  0.76169826  1
  Bi  Bi86  1  0.27077582  0.75040937  0.50367059  1
  Bi  Bi87  1  0.52273588  0.24736618  0.76723361  1
  Bi  Bi88  1  0.76208351  0.49267593  0.02273783  1
  Bi  Bi89  1  0.49826541  0.53162253  0.77352415  1
  Bi  Bi90  1  0.74215636  -0.03525068  0.47519736  1
  Bi  Bi91  1  0.00254990  -0.00413552  0.47504328  1
  Bi  Bi92  1  0.51366650  -0.01326405  0.51833831  1
  Bi  Bi93  1  0.75087157  0.48559109  0.25260073  1
  Bi  Bi94  1  0.75704661  0.73529797  0.74699267  1
  Bi  Bi95  1  0.24619063  0.51560330  0.25128774  1
  Bi  Bi96  1  0.75287604  0.23555244  0.24831384  1
  Bi  Bi97  1  0.02276360  0.27150932  0.50741364  1
  Bi  Bi98  1  0.77424290  0.74309928  -0.00362481  1
  Bi  Bi99  1  0.22355473  0.49864519  -0.01308769  1
  Bi  Bi100  1  0.49809227  0.76046380  0.53433866  1
  Bi  Bi101  1  0.24442353  0.75774352  -0.02695555  1
  Bi  Bi102  1  0.23836716  0.25673129  0.00738566  1
  Bi  Bi103  1  0.23132209  0.50275829  0.50363281  1
  Bi  Bi104  1  0.75759319  0.71213242  0.50607605  1
  Bi  Bi105  1  0.47573614  0.48869139  0.24323194  1
  Bi  Bi106  1  0.75445308  -0.02887575  0.23234542  1
  Bi  Bi107  1  0.74731706  0.24604306  0.71082926  1
  Bi  Bi108  1  -0.00537703  0.48383273  0.00598113  1
  Bi  Bi109  1  0.47803787  0.24975005  0.25906484  1
  Bi  Bi110  1  0.23647601  0.53212928  0.74485568  1
  Bi  Bi111  1  0.77657810  -0.01763216  -0.00931293  1
  Bi  Bi112  1  -0.01083740  0.51043668  0.24110275  1
  Bi  Bi113  1  0.02590208  -0.01540655  -0.00524260  1
  Bi  Bi114  1  -0.02570802  0.50092199  0.53741927  1
  Bi  Bi115  1  0.49642191  0.27869445  -0.01571508  1
  Bi  Bi116  1  0.26601490  0.27047798  0.50116232  1
  Bi  Bi117  1  0.31210859  0.73834489  0.73036257  1
  Bi  Bi118  1  0.51074336  0.00226250  0.77300991  1
  Bi  Bi119  1  0.49282227  0.28475004  0.49248031  1
  Bi  Bi120  1  -0.01502593  0.71815592  0.49438109  1
  Bi  Bi121  1  0.45812638  0.51892837  0.52502221  1
  Bi  Bi122  1  -0.00402778  -0.00123505  0.73229683  1
  Bi  Bi123  1  0.28204403  -0.01072285  0.50050780  1
  Bi  Bi124  1  0.23277615  0.03196311  0.04337257  1
  O  O125  1  0.10691334  0.10903002  -0.00611126  1
  O  O126  1  0.13116436  0.15384958  0.25660747  1
  O  O127  1  0.10554882  0.12147651  0.49457479  1
  O  O128  1  0.15155415  0.14799602  0.74467329  1
  O  O129  1  0.11374509  0.40651157  -0.00538730  1
  O  O130  1  0.13284799  0.34617794  0.24672359  1
  O  O131  1  0.13601669  0.35557604  0.49696590  1
  O  O132  1  0.13927281  0.33917895  0.75505106  1
  O  O133  1  0.14422848  0.61932373  0.00504891  1
  O  O134  1  0.09800458  0.60106006  0.25173187  1
  O  O135  1  0.15836438  0.61954198  0.50269231  1
  O  O136  1  0.12198206  0.61790137  0.74406606  1
  O  O137  1  0.06953479  0.84759060  0.01530229  1
  O  O138  1  0.14758904  0.88919956  0.25038900  1
  O  O139  1  0.09739460  0.88960636  0.49282645  1
  O  O140  1  0.15464140  0.87079701  0.73441608  1
  O  O141  1  0.38720102  0.09061574  0.00865254  1
  O  O142  1  0.37263744  0.15241823  0.25028299  1
  O  O143  1  0.38455626  0.09671750  0.49169517  1
  O  O144  1  0.34799508  0.15912102  0.72987512  1
  O  O145  1  0.39328001  0.38026852  -0.00792972  1
  O  O146  1  0.40300842  0.36311465  0.24840454  1
  O  O147  1  0.37332751  0.37922549  0.50197298  1
  O  O148  1  0.35631022  0.33648819  0.75546823  1
  O  O149  1  0.34953365  0.60846772  0.01014804  1
  O  O150  1  0.38955578  0.67684772  0.25591985  1
  O  O151  1  0.34953889  0.59404835  0.48647160  1
  O  O152  1  0.40930572  0.65059290  0.76875143  1
  O  O153  1  0.37815766  0.90379291  0.00680302  1
  O  O154  1  0.34505017  0.85292509  0.24803551  1
  O  O155  1  0.39268609  0.91068539  0.49136723  1
  O  O156  1  0.41429495  0.83555806  0.75381357  1
  O  O157  1  0.61528351  0.09082370  0.00545834  1
  O  O158  1  0.63193176  0.14659418  0.25148343  1
  O  O159  1  0.62274309  0.12268513  0.49218793  1
  O  O160  1  0.63364424  0.15836244  0.73797524  1
  O  O161  1  0.60894572  0.38034470  -0.00886737  1
  O  O162  1  0.63662807  0.37472957  0.25667588  1
  O  O163  1  0.61499284  0.40107019  0.51489042  1
  O  O164  1  0.63055063  0.34429154  0.75248451  1
  O  O165  1  0.62633864  0.65614353  0.01460057  1
  O  O166  1  0.61336825  0.61235431  0.25918231  1
  O  O167  1  0.65131682  0.62054536  0.50084534  1
  O  O168  1  0.58760128  0.64142978  0.75176399  1
  O  O169  1  0.59801572  0.86743826  0.01222987  1
  O  O170  1  0.67140012  0.84759653  0.25573708  1
  O  O171  1  0.60811132  0.89198314  0.48049806  1
  O  O172  1  0.61970430  0.86038303  0.75875175  1
  O  O173  1  0.88451579  0.09920972  0.00547381  1
  O  O174  1  0.85809720  0.14818481  0.25472273  1
  O  O175  1  0.88358385  0.10611872  0.50133870  1
  O  O176  1  0.84458047  0.14216431  0.76205219  1
  O  O177  1  0.87924121  0.40527734  -0.00799470  1
  O  O178  1  0.83689806  0.36878537  0.25880520  1
  O  O179  1  0.87454755  0.40238418  0.49763611  1
  O  O180  1  0.85864711  0.36138337  0.75549156  1
  O  O181  1  0.84578182  0.61450404  -0.00091656  1
  O  O182  1  0.91524164  0.64210387  0.24950748  1
  O  O183  1  0.86571178  0.62521915  0.49262929  1
  O  O184  1  0.87548878  0.66914089  0.76111923  1
  O  O185  1  0.89002173  0.90787754  0.00399267  1
  O  O186  1  0.84527291  0.85107190  0.24395366  1
  O  O187  1  0.88897576  0.91411574  0.50213016  1
  O  O188  1  0.86252878  0.84244223  0.74092420  1
  O  O189  1  -0.01160694  0.14510009  0.14082562  1
  O  O190  1  -0.01280930  0.10723754  0.35164754  1
  O  O191  1  -0.00744343  0.11395554  0.65333303  1
  O  O192  1  -0.00706564  0.11846828  0.85020044  1
  O  O193  1  -0.00605904  0.41141314  0.12739260  1
  O  O194  1  -0.00792009  0.39129458  0.36121533  1
  O  O195  1  0.00605925  0.38074366  0.60814380  1
  O  O196  1  -0.00270485  0.39873089  0.85734541  1
  O  O197  1  0.00494219  0.58813884  0.11399268  1
  O  O198  1  -0.00312296  0.60766153  0.39757535  1
  O  O199  1  0.01478650  0.61921783  0.61092309  1
  O  O200  1  -0.00600696  0.62545081  0.88548336  1
  O  O201  1  -0.00058213  0.87834691  0.16775469  1
  O  O202  1  0.00387988  0.91692176  0.35627535  1
  O  O203  1  0.00297074  0.88972471  0.64372319  1
  O  O204  1  0.00437460  0.85358416  0.84016991  1
  O  O205  1  0.26133138  0.15265689  0.11119305  1
  O  O206  1  0.25878217  0.14831205  0.38843346  1
  O  O207  1  0.24507516  0.14738575  0.59758645  1
  O  O208  1  0.26097275  0.10748118  0.87904188  1
  O  O209  1  0.25617437  0.33790495  0.11514968  1
  O  O210  1  0.25248494  0.35059774  0.37066654  1
  O  O211  1  0.25701197  0.33655337  0.62638449  1
  O  O212  1  0.24796996  0.36580519  0.89682073  1
  O  O213  1  0.24960968  0.63728910  0.15936648  1
  O  O214  1  0.25360582  0.63342835  0.34532766  1
  O  O215  1  0.25522487  0.63607725  0.64776903  1
  O  O216  1  0.26058627  0.63107846  0.85726312  1
  O  O217  1  0.23211222  0.84063182  0.09889680  1
  O  O218  1  0.24027916  0.85951590  0.39830213  1
  O  O219  1  0.24717415  0.87403076  0.58559465  1
  O  O220  1  0.24906727  0.86450193  0.88599336  1
  O  O221  1  0.49437742  0.08811930  0.14774600  1
  O  O222  1  0.50244495  0.08585044  0.34965272  1
  O  O223  1  0.50065744  0.12394540  0.63311667  1
  O  O224  1  0.50398409  0.11111239  0.85772828  1
  O  O225  1  0.50457700  0.41188972  0.12476496  1
  O  O226  1  0.50458339  0.39598378  0.38648194  1
  O  O227  1  0.50159376  0.35019882  0.64238056  1
  O  O228  1  0.49654369  0.36223502  0.86067626  1
  O  O229  1  0.48931159  0.60265967  0.12199622  1
  O  O230  1  0.49910396  0.60397373  0.39472108  1
  O  O231  1  0.50050532  0.63031420  0.59070511  1
  O  O232  1  0.49409843  0.60203237  0.89970571  1
  O  O233  1  0.46916836  0.90335803  0.14847102  1
  O  O234  1  0.50961461  0.88149419  0.31908202  1
  O  O235  1  0.50238611  0.88858508  0.61276031  1
  O  O236  1  0.51234321  0.92196939  0.88515299  1
  O  O237  1  0.74423377  0.10135388  0.12888581  1
  O  O238  1  0.74699163  0.16274291  0.38060327  1
  O  O239  1  0.75140112  0.11303028  0.63285477  1
  O  O240  1  0.74792763  0.14088022  0.90211694  1
  O  O241  1  0.74449321  0.37494412  0.09955462  1
  O  O242  1  0.73976848  0.35567205  0.41460425  1
  O  O243  1  0.74241615  0.40736186  0.63432083  1
  O  O244  1  0.74937124  0.37081237  0.88715479  1
  O  O245  1  0.73999068  0.68135243  0.16028783  1
  O  O246  1  0.75900843  0.66565137  0.36013139  1
  O  O247  1  0.73514662  0.63972783  0.64346783  1
  O  O248  1  0.74656010  0.66333864  0.86939244  1
  O  O249  1  0.75955511  0.89331954  0.10595787  1
  O  O250  1  0.75061509  0.85387310  0.40108977  1
  O  O251  1  0.75106782  0.87275897  0.59938775  1
  O  O252  1  0.74202018  0.86693777  0.90438456  1
  O  O253  1  0.11869316  -0.01960904  0.10698329  1
  O  O254  1  0.14909815  0.01244841  0.35468488  1
  O  O255  1  0.12786829  0.00382470  0.62959862  1
  O  O256  1  0.11332704  -0.01913294  0.88038241  1
  O  O257  1  0.12149798  0.25871792  0.09020477  1
  O  O258  1  0.09652860  0.24781541  0.38446419  1
  O  O259  1  0.09776493  0.23956283  0.61923539  1
  O  O260  1  0.10667538  0.25507195  0.89693974  1
  O  O261  1  0.16209726  0.50330784  0.12364048  1
  O  O262  1  0.15021308  0.48633093  0.38053729  1
  O  O263  1  0.15438499  0.49845737  0.62601838  1
  O  O264  1  0.14471840  0.49756612  0.86039890  1
  O  O265  1  0.09836473  0.73574634  0.15808621  1
  O  O266  1  0.09887540  0.75426520  0.35828483  1
  O  O267  1  0.12018323  0.75636061  0.61113760  1
  O  O268  1  0.12710006  0.75336269  0.88632792  1
  O  O269  1  0.30915182  -0.00993128  0.15351668  1
  O  O270  1  0.34430498  0.00217831  0.34997269  1
  O  O271  1  0.34209764  0.01241086  0.63994321  1
  O  O272  1  0.37772727  0.00607992  0.82713617  1
  O  O273  1  0.41851917  0.24376860  0.11707032  1
  O  O274  1  0.41251943  0.24111741  0.38557118  1
  O  O275  1  0.38567130  0.24382772  0.58450366  1
  O  O276  1  0.38672793  0.23264351  0.90255550  1
  O  O277  1  0.36039030  0.50952813  0.16318795  1
  O  O278  1  0.36647993  0.50906669  0.33777123  1
  O  O279  1  0.38419319  0.48064004  0.64447830  1
  O  O280  1  0.36735310  0.49161791  0.85462675  1
  O  O281  1  0.38484201  0.75313819  0.11149915  1
  O  O282  1  0.37874776  0.74653793  0.41128044  1
  O  O283  1  0.37240860  0.76232046  0.60217861  1
  O  O284  1  0.37875744  0.74760535  0.91200155  1
  O  O285  1  0.62039847  -0.00850481  0.16625119  1
  O  O286  1  0.65305001  0.00343328  0.35786974  1
  O  O287  1  0.62183640  0.00665884  0.62256831  1
  O  O288  1  0.65312904  0.01374691  0.83465634  1
  O  O289  1  0.63134705  0.23598248  0.10620721  1
  O  O290  1  0.60261692  0.25851907  0.39105256  1
  O  O291  1  0.65798037  0.25313700  0.59523963  1
  O  O292  1  0.60624222  0.24012968  0.88803330  1
  O  O293  1  0.64565376  0.52192002  0.11283539  1
  O  O294  1  0.65414799  0.50121691  0.37801001  1
  O  O295  1  0.59910840  0.50413101  0.65262193  1
  O  O296  1  0.62356368  0.49774947  0.85688270  1
  O  O297  1  0.57066432  0.75184156  0.14896800  1
  O  O298  1  0.60229299  0.74234729  0.38365699  1
  O  O299  1  0.60034531  0.75053716  0.62940786  1
  O  O300  1  0.58312534  0.76071636  0.87751708  1
  O  O301  1  0.88674833  0.00389976  0.15978571  1
  O  O302  1  0.83926460  0.00724053  0.36522773  1
  O  O303  1  0.86866225  -0.00127352  0.66749425  1
  O  O304  1  0.85051396  0.00465730  0.85667692  1
  O  O305  1  0.84114936  0.24243786  0.11524713  1
  O  O306  1  0.89442725  0.25334546  0.38576775  1
  O  O307  1  0.86862111  0.23995467  0.61512198  1
  O  O308  1  0.88614838  0.25152892  0.89770721  1
  O  O309  1  0.83908272  0.51047323  0.13905842  1
  O  O310  1  0.84659318  0.50877101  0.35369490  1
  O  O311  1  0.89398501  0.49742878  0.65258094  1
  O  O312  1  0.86244720  0.51642211  0.83272671  1
  O  O313  1  0.88826710  0.75784823  0.09485206  1
  O  O314  1  0.90769136  0.75033914  0.38359254  1
  O  O315  1  0.89349574  0.76632746  0.59775103  1
  O  O316  1  0.88490881  0.75408260  0.91236659  1
