# generated using pymatgen
data_Mg32Ti42(Bi17O64)3
_symmetry_space_group_name_H-M   'P 1'
_cell_length_a   15.97581030
_cell_length_b   15.97176382
_cell_length_c   15.92033543
_cell_angle_alpha   90.07663075
_cell_angle_beta   90.06757247
_cell_angle_gamma   89.94677249
_symmetry_Int_Tables_number   1
_chemical_formula_structural   Mg32Ti42(Bi17O64)3
_chemical_formula_sum   'Mg32 Ti42 Bi51 O192'
_cell_volume   4062.25433724
_cell_formula_units_Z   1
loop_
 _symmetry_equiv_pos_site_id
 _symmetry_equiv_pos_as_xyz
  1  'x, y, z'
loop_
 _atom_site_type_symbol
 _atom_site_label
 _atom_site_symmetry_multiplicity
 _atom_site_fract_x
 _atom_site_fract_y
 _atom_site_fract_z
 _atom_site_occupancy
  Mg  Mg0  1  0.65505576  0.85611052  0.38064089  1
  Mg  Mg1  1  0.61805413  0.90011816  0.11789602  1
  Mg  Mg2  1  0.13199260  0.11646241  0.36782072  1
  Mg  Mg3  1  0.88344037  0.11627726  0.37271289  1
  Mg  Mg4  1  0.87217921  0.12414324  0.12699316  1
  Mg  Mg5  1  0.36928456  0.62689090  0.61875195  1
  Mg  Mg6  1  0.37995293  0.37050471  0.37311557  1
  Mg  Mg7  1  0.87853740  0.87506814  0.11897059  1
  Mg  Mg8  1  0.13207335  0.62313624  0.11734561  1
  Mg  Mg9  1  0.60888447  0.10973779  0.60707428  1
  Mg  Mg10  1  0.12433059  0.87672309  0.11412371  1
  Mg  Mg11  1  0.37862305  0.87838203  0.13120482  1
  Mg  Mg12  1  0.88040042  0.11883131  0.62528898  1
  Mg  Mg13  1  0.86920835  0.37144757  0.63161377  1
  Mg  Mg14  1  0.62726872  0.37456025  0.12859333  1
  Mg  Mg15  1  0.87267999  0.37738684  0.37921643  1
  Mg  Mg16  1  0.12301436  0.87227680  0.37679494  1
  Mg  Mg17  1  0.12909997  0.11810192  0.12203701  1
  Mg  Mg18  1  0.13130951  0.37590425  0.62563078  1
  Mg  Mg19  1  0.29375777  0.70965910  0.75205491  1
  Mg  Mg20  1  0.50778303  -0.04020751  0.75992725  1
  Mg  Mg21  1  0.53530904  -0.04307689  0.27016199  1
  Mg  Mg22  1  0.00445812  -0.01874991  0.45414475  1
  Mg  Mg23  1  0.52766059  -0.04514409  0.47228897  1
  Mg  Mg24  1  0.73089654  0.46891744  0.76946982  1
  Mg  Mg25  1  -0.00541411  -0.01240858  -0.02723994  1
  Mg  Mg26  1  0.80090315  0.73354063  0.48867881  1
  Mg  Mg27  1  0.74211859  0.80062485  0.18773430  1
  Mg  Mg28  1  0.21446502  -0.04503676  0.24052880  1
  Mg  Mg29  1  0.26866702  0.53962165  0.80516493  1
  Mg  Mg30  1  0.71790121  0.69312624  0.03144748  1
  Mg  Mg31  1  0.21789762  -0.01096857  0.45818547  1
  Ti  Ti32  1  0.87242111  0.63921382  0.11953057  1
  Ti  Ti33  1  0.63776019  0.62513373  0.85652483  1
  Ti  Ti34  1  0.61701330  0.88184655  0.61583062  1
  Ti  Ti35  1  0.12823268  0.87717485  0.87617532  1
  Ti  Ti36  1  0.38268650  0.87418670  0.87793608  1
  Ti  Ti37  1  0.87801280  0.86494151  0.87523230  1
  Ti  Ti38  1  0.11627844  0.12428899  0.87641319  1
  Ti  Ti39  1  0.87596578  0.12522192  0.86854306  1
  Ti  Ti40  1  0.37473188  0.88281252  0.62274206  1
  Ti  Ti41  1  0.88018713  0.61912732  0.36796789  1
  Ti  Ti42  1  0.63392228  0.38656577  0.38445698  1
  Ti  Ti43  1  0.38282316  0.11481883  0.36528040  1
  Ti  Ti44  1  0.12257941  0.37346421  0.37833918  1
  Ti  Ti45  1  0.88656880  0.88692118  0.61439447  1
  Ti  Ti46  1  0.12817412  0.61228709  0.36826978  1
  Ti  Ti47  1  0.13812671  0.11678866  0.61566924  1
  Ti  Ti48  1  0.64470517  0.62674745  0.38930458  1
  Ti  Ti49  1  0.87915373  0.62491160  0.62452070  1
  Ti  Ti50  1  0.38115291  0.36747888  0.12609218  1
  Ti  Ti51  1  0.36367673  0.63260499  0.12535655  1
  Ti  Ti52  1  0.38311062  0.12415447  0.12979239  1
  Ti  Ti53  1  0.37691815  0.36885535  0.63424202  1
  Ti  Ti54  1  0.62851345  0.62744268  0.62274991  1
  Ti  Ti55  1  0.63869105  0.87829378  0.87743837  1
  Ti  Ti56  1  0.87167010  0.36182794  0.86920308  1
  Ti  Ti57  1  0.37531712  0.11795144  0.61531375  1
  Ti  Ti58  1  0.11321010  0.36095084  0.87645405  1
  Ti  Ti59  1  0.61285454  0.10282002  0.37590607  1
  Ti  Ti60  1  0.13860553  0.88502154  0.61511666  1
  Ti  Ti61  1  0.87315860  0.86197888  0.36428345  1
  Ti  Ti62  1  0.64671272  0.11822452  0.88298849  1
  Ti  Ti63  1  0.62034022  0.37177052  0.63504493  1
  Ti  Ti64  1  0.87398669  0.37054372  0.13357130  1
  Ti  Ti65  1  0.36282201  0.89554150  0.38037165  1
  Ti  Ti66  1  0.39552891  0.37812555  0.87189773  1
  Ti  Ti67  1  0.86550183  0.63107471  0.86185650  1
  Ti  Ti68  1  0.13136581  0.61578096  0.62975975  1
  Ti  Ti69  1  0.62298531  0.36591369  0.87183390  1
  Ti  Ti70  1  0.12022502  0.62263243  0.86556335  1
  Ti  Ti71  1  0.62440178  0.12112498  0.14752668  1
  Ti  Ti72  1  0.12324408  0.37886101  0.11240845  1
  Ti  Ti73  1  0.37259814  0.61363480  0.37496199  1
  Bi  Bi74  1  0.49838390  0.24327176  0.49185701  1
  Bi  Bi75  1  0.26610701  0.23219771  0.75763250  1
  Bi  Bi76  1  -0.00588409  0.21219016  0.01396642  1
  Bi  Bi77  1  0.77207387  0.00386243  0.23153737  1
  Bi  Bi78  1  0.74054630  0.22406868  0.71709012  1
  Bi  Bi79  1  0.24296265  0.23320375  0.48896734  1
  Bi  Bi80  1  0.02601112  0.75922000  0.72983836  1
  Bi  Bi81  1  0.25979773  0.46485654  0.49831813  1
  Bi  Bi82  1  0.50444508  0.74829576  0.46565457  1
  Bi  Bi83  1  0.52296104  0.53839152  0.03076707  1
  Bi  Bi84  1  0.02209920  -0.00760395  0.74692458  1
  Bi  Bi85  1  0.77579399  -0.00381517  0.48320792  1
  Bi  Bi86  1  0.01757092  0.23305759  0.71969963  1
  Bi  Bi87  1  0.25553677  0.23775978  0.24840055  1
  Bi  Bi88  1  0.47078450  0.52917488  0.75001117  1
  Bi  Bi89  1  0.48705094  0.49056171  0.51665106  1
  Bi  Bi90  1  0.51927474  0.23994266  0.01936361  1
  Bi  Bi91  1  0.00103782  0.46787409  0.73916098  1
  Bi  Bi92  1  0.01308402  0.71778753  0.49439177  1
  Bi  Bi93  1  0.75520411  0.49928752  -0.02222423  1
  Bi  Bi94  1  0.75476338  0.75847568  0.70591417  1
  Bi  Bi95  1  0.77042698  0.25252373  0.27808722  1
  Bi  Bi96  1  0.76944462  0.22061694  0.50287860  1
  Bi  Bi97  1  0.00745559  -0.00847970  0.23342679  1
  Bi  Bi98  1  0.49743286  0.75241676  0.73499941  1
  Bi  Bi99  1  0.27456035  0.48686883  0.23992795  1
  Bi  Bi100  1  -0.00028916  0.50384137  0.22450615  1
  Bi  Bi101  1  0.52987639  0.52417900  0.24764755  1
  Bi  Bi102  1  0.76313504  -0.01052860  0.74394864  1
  Bi  Bi103  1  0.03780721  0.75557241  0.23529207  1
  Bi  Bi104  1  0.00431190  0.22722850  0.48739481  1
  Bi  Bi105  1  0.25664794  0.46390409  -0.01294476  1
  Bi  Bi106  1  0.47893416  0.02453984  -0.03206978  1
  Bi  Bi107  1  0.52348461  0.27684932  0.27394622  1
  Bi  Bi108  1  0.01996910  0.75262364  -0.00106777  1
  Bi  Bi109  1  0.49192071  0.18514647  0.76823621  1
  Bi  Bi110  1  0.74908019  0.48013526  0.52870578  1
  Bi  Bi111  1  0.02826091  0.24591921  0.22850020  1
  Bi  Bi112  1  0.28210445  0.01281343  0.77404579  1
  Bi  Bi113  1  0.26976918  0.75579741  0.25524956  1
  Bi  Bi114  1  0.24793969  0.74358173  0.48282046  1
  Bi  Bi115  1  0.77439019  -0.01382584  -0.00629902  1
  Bi  Bi116  1  0.74989706  0.27403229  0.01735466  1
  Bi  Bi117  1  0.54900604  0.75707723  0.22599916  1
  Bi  Bi118  1  -0.00975497  0.46950169  0.50436444  1
  Bi  Bi119  1  0.53484979  0.76203241  -0.00438965  1
  Bi  Bi120  1  0.29627379  0.73026041  -0.03196936  1
  Bi  Bi121  1  0.74875375  0.52658530  0.22247337  1
  Bi  Bi122  1  0.25746348  -0.00441985  0.02287311  1
  Bi  Bi123  1  -0.00660272  0.51439386  -0.01933225  1
  Bi  Bi124  1  0.29025760  0.22973633  -0.01816035  1
  O  O125  1  0.08756851  0.10079754  -0.01088868  1
  O  O126  1  0.13609293  0.16066260  0.24750100  1
  O  O127  1  0.16693271  0.10095180  0.50290900  1
  O  O128  1  0.13309412  0.16208866  0.74807051  1
  O  O129  1  0.11104049  0.40352512  -0.00038281  1
  O  O130  1  0.13108895  0.34684812  0.26199725  1
  O  O131  1  0.12737560  0.41116141  0.50028672  1
  O  O132  1  0.10136282  0.35864981  0.75561562  1
  O  O133  1  0.09240519  0.62243025  -0.01073523  1
  O  O134  1  0.13935546  0.64631787  0.25711294  1
  O  O135  1  0.10297874  0.61165604  0.50946639  1
  O  O136  1  0.11541550  0.65502740  0.74899195  1
  O  O137  1  0.08567872  0.89256674  -0.00785967  1
  O  O138  1  0.14629365  0.84396482  0.25360425  1
  O  O139  1  0.10873617  0.92339797  0.50669112  1
  O  O140  1  0.11845386  0.87031569  0.75098055  1
  O  O141  1  0.40483210  0.14468623  -0.00162660  1
  O  O142  1  0.35121673  0.12515527  0.24512007  1
  O  O143  1  0.38280967  0.14279776  0.49998446  1
  O  O144  1  0.35946955  0.12818747  0.75120817  1
  O  O145  1  0.36364107  0.36838403  0.00031524  1
  O  O146  1  0.35552994  0.36648094  0.24631262  1
  O  O147  1  0.38300274  0.38779165  0.50104782  1
  O  O148  1  0.38231745  0.38708193  0.75233528  1
  O  O149  1  0.40114254  0.64701783  0.00947193  1
  O  O150  1  0.33769959  0.61651315  0.25003326  1
  O  O151  1  0.39227666  0.61679812  0.49339568  1
  O  O152  1  0.35748306  0.60247146  0.74689892  1
  O  O153  1  0.38870939  0.84642652  -0.00529656  1
  O  O154  1  0.32689522  0.88932449  0.26820398  1
  O  O155  1  0.40837246  0.88296754  0.51251416  1
  O  O156  1  0.37270304  0.91415802  0.75547009  1
  O  O157  1  0.58900224  0.12001708  -0.00637576  1
  O  O158  1  0.62976730  0.15385650  0.26066535  1
  O  O159  1  0.57001673  0.12553685  0.48371706  1
  O  O160  1  0.64322775  0.13307580  0.76191415  1
  O  O161  1  0.65467409  0.38339485  -0.01093704  1
  O  O162  1  0.62426210  0.37286680  0.25675635  1
  O  O163  1  0.65324420  0.37877748  0.50818241  1
  O  O164  1  0.61801358  0.39348621  0.75332701  1
  O  O165  1  0.60935961  0.63415873  -0.00978420  1
  O  O166  1  0.64142708  0.60941583  0.26567004  1
  O  O167  1  0.59663020  0.64638207  0.50378594  1
  O  O168  1  0.66998452  0.61454075  0.74403942  1
  O  O169  1  0.59689076  0.88880842  -0.00667829  1
  O  O170  1  0.64518442  0.85311433  0.25344104  1
  O  O171  1  0.59418659  0.84814280  0.50160529  1
  O  O172  1  0.62868512  0.90465577  0.75928444  1
  O  O173  1  0.91000302  0.09690116  -0.01144079  1
  O  O174  1  0.84487335  0.13527605  0.25341525  1
  O  O175  1  0.85993381  0.11246850  0.50026576  1
  O  O176  1  0.84361327  0.13577670  0.75285488  1
  O  O177  1  0.85957735  0.39469145  -0.00889230  1
  O  O178  1  0.87337319  0.34440786  0.24846758  1
  O  O179  1  0.86241728  0.40032010  0.50662004  1
  O  O180  1  0.89916740  0.36903180  0.75418992  1
  O  O181  1  0.89443308  0.61599561  0.00626547  1
  O  O182  1  0.84296683  0.62911887  0.25369601  1
  O  O183  1  0.88907279  0.62612317  0.50342973  1
  O  O184  1  0.85792794  0.65635943  0.74859285  1
  O  O185  1  0.89429289  0.90636556  -0.00494970  1
  O  O186  1  0.83535776  0.85576471  0.25618265  1
  O  O187  1  0.90298573  0.91961131  0.50485226  1
  O  O188  1  0.84569462  0.86896753  0.75666763  1
  O  O189  1  -0.00050138  0.13897307  0.13935588  1
  O  O190  1  0.00781983  0.10274635  0.40553127  1
  O  O191  1  0.01058383  0.11946987  0.63035539  1
  O  O192  1  -0.00593136  0.12093177  0.83446312  1
  O  O193  1  -0.00111353  0.37746405  0.14432153  1
  O  O194  1  0.00150326  0.36641398  0.40318992  1
  O  O195  1  -0.00058970  0.38949291  0.61785015  1
  O  O196  1  -0.00561940  0.41032884  0.87941107  1
  O  O197  1  -0.01128024  0.62904510  0.15453795  1
  O  O198  1  0.00219058  0.62948735  0.36832214  1
  O  O199  1  -0.00620050  0.64802664  0.63572570  1
  O  O200  1  -0.01220829  0.59628966  0.86403087  1
  O  O201  1  -0.00192665  0.87114919  0.16120029  1
  O  O202  1  -0.00641308  0.89471930  0.35821231  1
  O  O203  1  -0.00462983  0.88462252  0.64710140  1
  O  O204  1  -0.01162059  0.90978003  0.85864802  1
  O  O205  1  0.25425870  0.11883333  0.08956440  1
  O  O206  1  0.26110297  0.16557368  0.37135175  1
  O  O207  1  0.25230601  0.15383472  0.63371445  1
  O  O208  1  0.23373419  0.14611776  0.87609664  1
  O  O209  1  0.23903861  0.38214241  0.11729421  1
  O  O210  1  0.24665911  0.35916222  0.40002131  1
  O  O211  1  0.25899907  0.37443453  0.61195133  1
  O  O212  1  0.23040109  0.35975939  0.89150876  1
  O  O213  1  0.25404082  0.61638696  0.09208694  1
  O  O214  1  0.24122863  0.62226994  0.40246861  1
  O  O215  1  0.24237672  0.64234907  0.63069996  1
  O  O216  1  0.23604411  0.65131119  0.86146195  1
  O  O217  1  0.25087923  0.89792603  0.11686627  1
  O  O218  1  0.25060773  0.86865060  0.42410025  1
  O  O219  1  0.25069497  0.87023831  0.61033311  1
  O  O220  1  0.23833525  0.87070776  0.89223703  1
  O  O221  1  0.49799887  0.15502616  0.13618724  1
  O  O222  1  0.48786099  0.07735494  0.33814504  1
  O  O223  1  0.49076139  0.11661555  0.64929445  1
  O  O224  1  0.51048683  0.06819343  0.83631083  1
  O  O225  1  0.49468595  0.35700047  0.12360726  1
  O  O226  1  0.50502916  0.38832102  0.36625517  1
  O  O227  1  0.50604255  0.38237018  0.61013172  1
  O  O228  1  0.50651970  0.39519782  0.88959694  1
  O  O229  1  0.48955835  0.61242291  0.14520317  1
  O  O230  1  0.48617566  0.62056153  0.35006537  1
  O  O231  1  0.50516550  0.63244554  0.65889481  1
  O  O232  1  0.52343114  0.62434898  0.83985704  1
  O  O233  1  0.49908375  0.87292144  0.17175162  1
  O  O234  1  0.47944493  0.88782316  0.36547302  1
  O  O235  1  0.49715967  0.88118978  0.65860069  1
  O  O236  1  0.49664960  0.88762743  0.86287718  1
  O  O237  1  0.73749303  0.10228387  0.11830266  1
  O  O238  1  0.72502877  0.11608641  0.40336704  1
  O  O239  1  0.73382359  0.13010845  0.61425370  1
  O  O240  1  0.75457596  0.14698494  0.90777084  1
  O  O241  1  0.75577436  0.37043670  0.12597683  1
  O  O242  1  0.74597723  0.37321816  0.36610109  1
  O  O243  1  0.74457755  0.40795753  0.64947496  1
  O  O244  1  0.75254939  0.36196013  0.84892472  1
  O  O245  1  0.75701776  0.60020230  0.10766184  1
  O  O246  1  0.75453600  0.64402618  0.40645789  1
  O  O247  1  0.74775598  0.65234998  0.59973812  1
  O  O248  1  0.75564206  0.65157968  0.91194066  1
  O  O249  1  0.74819988  0.90794032  0.11454075  1
  O  O250  1  0.76798083  0.85029592  0.42842311  1
  O  O251  1  0.73635444  0.88289217  0.62645057  1
  O  O252  1  0.75344861  0.86981065  0.90524753  1
  O  O253  1  0.12283110  -0.00187745  0.15721219  1
  O  O254  1  0.15542837  -0.00490835  0.34702977  1
  O  O255  1  0.14089681  0.00667777  0.65651082  1
  O  O256  1  0.12630337  0.00745050  0.85151119  1
  O  O257  1  0.10869042  0.25813148  0.11025984  1
  O  O258  1  0.11870766  0.24848366  0.41369009  1
  O  O259  1  0.10421457  0.24631035  0.59847172  1
  O  O260  1  0.09341354  0.25105586  0.89620546  1
  O  O261  1  0.11175865  0.49903227  0.14534445  1
  O  O262  1  0.12600578  0.49572053  0.35212079  1
  O  O263  1  0.12573126  0.50662987  0.65357221  1
  O  O264  1  0.15169836  0.51180263  0.85546172  1
  O  O265  1  0.10719745  0.74898583  0.11145514  1
  O  O266  1  0.12592616  0.74667056  0.40857610  1
  O  O267  1  0.10730276  0.76768393  0.61163876  1
  O  O268  1  0.09547262  0.75907137  0.88406965  1
  O  O269  1  0.38205516  0.00851270  0.09582734  1
  O  O270  1  0.33771815  0.00833867  0.40044717  1
  O  O271  1  0.35260240  0.00704455  0.62420032  1
  O  O272  1  0.35207401  -0.00549960  0.89890311  1
  O  O273  1  0.35329704  0.24761916  0.12250948  1
  O  O274  1  0.41849068  0.23802524  0.37419564  1
  O  O275  1  0.38637347  0.25433677  0.63894107  1
  O  O276  1  0.37367459  0.26071283  0.86689266  1
  O  O277  1  0.37003670  0.49129643  0.13401900  1
  O  O278  1  0.35035558  0.49700851  0.36411773  1
  O  O279  1  0.39633969  0.50050300  0.61934389  1
  O  O280  1  0.34750464  0.48677502  0.88388809  1
  O  O281  1  0.36309401  0.74853799  0.14900328  1
  O  O282  1  0.35213208  0.74622844  0.37728856  1
  O  O283  1  0.37566362  0.76057266  0.65824561  1
  O  O284  1  0.36255052  0.76194856  0.84712167  1
  O  O285  1  0.59749107  0.01282420  0.16970620  1
  O  O286  1  0.61878098  -0.01477466  0.37789764  1
  O  O287  1  0.60291759  -0.01159851  0.57819638  1
  O  O288  1  0.66318438  0.00527622  0.88838770  1
  O  O289  1  0.63653618  0.24614542  0.10162231  1
  O  O290  1  0.60112379  0.25945558  0.39031079  1
  O  O291  1  0.62286470  0.25763140  0.63109194  1
  O  O292  1  0.60568542  0.25226966  0.88238119  1
  O  O293  1  0.61076941  0.49816484  0.12797265  1
  O  O294  1  0.63002499  0.50713882  0.39808087  1
  O  O295  1  0.61630090  0.51338820  0.60736684  1
  O  O296  1  0.65664239  0.50763299  0.87327697  1
  O  O297  1  0.63847303  0.76059769  0.10860032  1
  O  O298  1  0.60455067  0.74035265  0.36962521  1
  O  O299  1  0.61404139  0.75487214  0.64998664  1
  O  O300  1  0.61816838  0.76032342  0.87631824  1
  O  O301  1  0.88672529  0.00004188  0.15660342  1
  O  O302  1  0.84775418  -0.00777159  0.36456379  1
  O  O303  1  0.86401950  -0.00188848  0.64893354  1
  O  O304  1  0.84874741  0.00787085  0.85953874  1
  O  O305  1  0.87267906  0.25167055  0.09686115  1
  O  O306  1  0.85846667  0.24411580  0.38914328  1
  O  O307  1  0.86067531  0.24672726  0.61182789  1
  O  O308  1  0.88947590  0.25078412  0.89070475  1
  O  O309  1  0.88203831  0.49396107  0.14537788  1
  O  O310  1  0.88094960  0.50640966  0.36627746  1
  O  O311  1  0.87991116  0.51461314  0.64078856  1
  O  O312  1  0.83500571  0.51306348  0.85523450  1
  O  O313  1  0.83387108  0.74843663  0.10918255  1
  O  O314  1  0.89281686  0.75070289  0.39500153  1
  O  O315  1  0.85986667  0.76881724  0.60334497  1
  O  O316  1  0.90098036  0.75464991  0.88542878  1
