# generated using pymatgen
data_Mg32Ti42(Bi17O64)3
_symmetry_space_group_name_H-M   'P 1'
_cell_length_a   15.94464162
_cell_length_b   15.92965786
_cell_length_c   15.94045504
_cell_angle_alpha   90.11900197
_cell_angle_beta   90.02850391
_cell_angle_gamma   90.10655008
_symmetry_Int_Tables_number   1
_chemical_formula_structural   Mg32Ti42(Bi17O64)3
_chemical_formula_sum   'Mg32 Ti42 Bi51 O192'
_cell_volume   4048.74274263
_cell_formula_units_Z   1
loop_
 _symmetry_equiv_pos_site_id
 _symmetry_equiv_pos_as_xyz
  1  'x, y, z'
loop_
 _atom_site_type_symbol
 _atom_site_label
 _atom_site_symmetry_multiplicity
 _atom_site_fract_x
 _atom_site_fract_y
 _atom_site_fract_z
 _atom_site_occupancy
  Mg  Mg0  1  0.12229858  0.35699323  0.11702696  1
  Mg  Mg1  1  0.62133690  0.86881440  0.88156694  1
  Mg  Mg2  1  0.13551775  0.62408421  0.12566170  1
  Mg  Mg3  1  0.38113811  0.13396943  0.36552131  1
  Mg  Mg4  1  0.11494064  0.13710877  0.88301403  1
  Mg  Mg5  1  0.63359162  0.37610381  0.11523482  1
  Mg  Mg6  1  0.36536199  0.89309743  0.62558769  1
  Mg  Mg7  1  0.12591450  0.12665434  0.61435016  1
  Mg  Mg8  1  0.87278864  0.37913306  0.12713511  1
  Mg  Mg9  1  0.61974748  0.37182696  0.62273823  1
  Mg  Mg10  1  0.62715181  0.38162318  0.37615244  1
  Mg  Mg11  1  0.12681661  0.87819253  0.62841280  1
  Mg  Mg12  1  0.62040218  0.63044277  0.11921921  1
  Mg  Mg13  1  0.87613331  0.86665632  0.63635854  1
  Mg  Mg14  1  0.62643916  0.12869264  0.11923722  1
  Mg  Mg15  1  0.37617132  0.88213999  0.12238408  1
  Mg  Mg16  1  0.87185160  0.62408088  0.88063770  1
  Mg  Mg17  1  0.36814109  0.61907895  0.63910566  1
  Mg  Mg18  1  0.36892462  0.37647084  0.62427014  1
  Mg  Mg19  1  0.52805468  0.70916938  0.26403715  1
  Mg  Mg20  1  0.58284173  0.69475716  0.71894651  1
  Mg  Mg21  1  -0.07626427  0.23572517  -0.00103727  1
  Mg  Mg22  1  0.28551028  0.25080098  0.04976419  1
  Mg  Mg23  1  0.03155172  0.20996230  0.73417223  1
  Mg  Mg24  1  0.71120685  0.51299389  0.22492952  1
  Mg  Mg25  1  0.29799416  0.28057014  0.22086565  1
  Mg  Mg26  1  -0.01115260  0.74629751  0.81779701  1
  Mg  Mg27  1  0.72820978  0.24076428  -0.04298988  1
  Mg  Mg28  1  0.21410975  0.49772175  0.74095328  1
  Mg  Mg29  1  0.29586490  0.01117411  0.46789042  1
  Mg  Mg30  1  0.75721590  0.78602084  0.79867533  1
  Mg  Mg31  1  0.21259433  0.02752501  0.75041893  1
  Ti  Ti32  1  0.87128917  0.38047746  0.37012780  1
  Ti  Ti33  1  0.13954820  0.62111207  0.38460419  1
  Ti  Ti34  1  0.37403453  0.62885688  0.13266311  1
  Ti  Ti35  1  0.86961106  0.11820399  0.12660576  1
  Ti  Ti36  1  0.88647181  0.61981241  0.12252417  1
  Ti  Ti37  1  0.37664511  0.10969423  0.85220936  1
  Ti  Ti38  1  0.12154759  0.11780065  0.37796361  1
  Ti  Ti39  1  0.38433521  0.11616365  0.12621743  1
  Ti  Ti40  1  0.62723903  0.62919643  0.88227511  1
  Ti  Ti41  1  0.35570092  0.38660025  0.86630967  1
  Ti  Ti42  1  0.62314896  0.38313899  0.88943910  1
  Ti  Ti43  1  0.38693477  0.62902185  0.38014584  1
  Ti  Ti44  1  0.38414835  0.88100345  0.87026222  1
  Ti  Ti45  1  0.37899787  0.37386032  0.37517290  1
  Ti  Ti46  1  0.87783784  0.61603270  0.38010262  1
  Ti  Ti47  1  0.12548471  0.36961086  0.37734976  1
  Ti  Ti48  1  0.87423235  0.12737548  0.86309877  1
  Ti  Ti49  1  0.62028788  0.11918795  0.86527690  1
  Ti  Ti50  1  0.35948239  0.62263675  0.87190242  1
  Ti  Ti51  1  0.12764212  0.62275119  0.63046934  1
  Ti  Ti52  1  0.87260132  0.12379627  0.36858279  1
  Ti  Ti53  1  0.63682291  0.86229186  0.36670945  1
  Ti  Ti54  1  0.63178249  0.61650019  0.37246034  1
  Ti  Ti55  1  0.12937403  0.88472367  0.12637009  1
  Ti  Ti56  1  0.13589619  0.13341252  0.13422929  1
  Ti  Ti57  1  0.87898293  0.88600641  0.88017387  1
  Ti  Ti58  1  0.12603517  0.62656757  0.88279102  1
  Ti  Ti59  1  0.11930207  0.36407824  0.87034882  1
  Ti  Ti60  1  0.36587746  0.11842009  0.61473037  1
  Ti  Ti61  1  0.62491423  0.13099845  0.36764988  1
  Ti  Ti62  1  0.12529776  0.87404559  0.88337916  1
  Ti  Ti63  1  0.39191359  0.86406885  0.37158950  1
  Ti  Ti64  1  0.86928627  0.37372971  0.87623602  1
  Ti  Ti65  1  0.88092997  0.37436367  0.63292040  1
  Ti  Ti66  1  0.13022006  0.87374832  0.38168968  1
  Ti  Ti67  1  0.62052517  0.85861698  0.12637824  1
  Ti  Ti68  1  0.88566971  0.13869754  0.62079076  1
  Ti  Ti69  1  0.11955798  0.36983822  0.63343192  1
  Ti  Ti70  1  0.87692938  0.62211292  0.63564547  1
  Ti  Ti71  1  0.87680251  0.86871922  0.36892548  1
  Ti  Ti72  1  0.63853692  0.12606089  0.62447539  1
  Ti  Ti73  1  0.88004827  0.88172635  0.13177750  1
  Bi  Bi74  1  0.77682782  0.76534741  0.00235737  1
  Bi  Bi75  1  0.27021410  0.76037854  0.23303654  1
  Bi  Bi76  1  0.25443871  0.02871306  -0.00843798  1
  Bi  Bi77  1  0.49944907  0.72613829  -0.00187116  1
  Bi  Bi78  1  0.73056580  0.52170168  0.52508338  1
  Bi  Bi79  1  0.22978560  0.48736006  0.52031365  1
  Bi  Bi80  1  0.73044757  0.76046100  0.53824186  1
  Bi  Bi81  1  0.49342930  0.49045656  0.02423417  1
  Bi  Bi82  1  0.01716898  0.02873322  0.00158997  1
  Bi  Bi83  1  0.75461560  0.28371508  0.50271878  1
  Bi  Bi84  1  0.74587860  -0.02071671  0.72351977  1
  Bi  Bi85  1  0.25997321  0.78379499  0.74051833  1
  Bi  Bi86  1  0.01584462  0.74114474  0.03044409  1
  Bi  Bi87  1  0.73659592  0.52042362  0.75486695  1
  Bi  Bi88  1  0.00629209  0.75159865  0.53995966  1
  Bi  Bi89  1  0.24740738  0.24250891  0.46638201  1
  Bi  Bi90  1  0.00333277  -0.02352856  0.52203952  1
  Bi  Bi91  1  0.49927727  0.26422283  0.50304985  1
  Bi  Bi92  1  0.26026122  0.45208982  0.03475229  1
  Bi  Bi93  1  0.51358251  -0.01319859  0.26213908  1
  Bi  Bi94  1  0.73955180  0.02411212  -0.01278452  1
  Bi  Bi95  1  0.78396695  -0.01352320  0.50063598  1
  Bi  Bi96  1  0.00203935  0.50790882  0.78235074  1
  Bi  Bi97  1  0.47889932  0.24918072  0.72508831  1
  Bi  Bi98  1  0.50941386  0.48331485  0.25146684  1
  Bi  Bi99  1  -0.00646534  0.50128086  0.50841034  1
  Bi  Bi100  1  0.46404646  0.24736914  -0.03242607  1
  Bi  Bi101  1  0.74545952  0.00692645  0.24776494  1
  Bi  Bi102  1  0.75073478  0.50527092  0.02952216  1
  Bi  Bi103  1  0.26635843  0.48910222  0.26968897  1
  Bi  Bi104  1  0.03407445  0.49287317  0.22435102  1
  Bi  Bi105  1  0.27662894  0.76079171  0.51813395  1
  Bi  Bi106  1  0.50828326  0.54404774  0.53099856  1
  Bi  Bi107  1  -0.01559821  0.26273410  0.22934314  1
  Bi  Bi108  1  0.48794399  0.49831353  0.74774528  1
  Bi  Bi109  1  0.52931905  -0.03720567  0.72639380  1
  Bi  Bi110  1  -0.00534550  0.46530784  -0.00399053  1
  Bi  Bi111  1  0.76950390  0.72263675  0.25036088  1
  Bi  Bi112  1  -0.01790902  0.24844983  0.48034015  1
  Bi  Bi113  1  0.52200858  0.02625376  0.49537810  1
  Bi  Bi114  1  0.27070666  0.00212109  0.27122134  1
  Bi  Bi115  1  0.52157310  -0.01444436  0.01588388  1
  Bi  Bi116  1  0.27494732  0.76615004  -0.00686508  1
  Bi  Bi117  1  0.02498585  -0.00843657  0.75219934  1
  Bi  Bi118  1  0.49702726  0.27663421  0.22096910  1
  Bi  Bi119  1  0.73661357  0.25858486  0.23615028  1
  Bi  Bi120  1  0.01561144  -0.00761224  0.26154652  1
  Bi  Bi121  1  0.24629661  0.23113962  0.74618777  1
  Bi  Bi122  1  0.01674934  0.72734112  0.26913999  1
  Bi  Bi123  1  0.72979771  0.28035914  0.74992541  1
  Bi  Bi124  1  0.51915975  0.77004774  0.55086164  1
  O  O125  1  0.13660756  0.12373981  0.00763091  1
  O  O126  1  0.11896479  0.09875111  0.25098964  1
  O  O127  1  0.14053402  0.14859581  0.49228025  1
  O  O128  1  0.10301220  0.10574239  0.75543836  1
  O  O129  1  0.13311461  0.36098423  -0.01510429  1
  O  O130  1  0.13440021  0.40473413  0.26193462  1
  O  O131  1  0.14662350  0.36114422  0.50374601  1
  O  O132  1  0.11435196  0.41322720  0.74335321  1
  O  O133  1  0.12955771  0.65475330  -0.00428378  1
  O  O134  1  0.10643680  0.61818368  0.25938823  1
  O  O135  1  0.14493414  0.64372402  0.49968627  1
  O  O136  1  0.11429514  0.59277058  0.74263234  1
  O  O137  1  0.09937436  0.86042374  0.00154998  1
  O  O138  1  0.12913958  0.90428772  0.24812828  1
  O  O139  1  0.10129788  0.86492555  0.49360737  1
  O  O140  1  0.14346923  0.91497616  0.75529227  1
  O  O141  1  0.34194740  0.14464685  0.00282491  1
  O  O142  1  0.38044454  0.09620101  0.24291886  1
  O  O143  1  0.35364883  0.14627598  0.50011119  1
  O  O144  1  0.40080576  0.09659478  0.74354987  1
  O  O145  1  0.34527611  0.34282154  -0.01891632  1
  O  O146  1  0.36273766  0.38723395  0.25242947  1
  O  O147  1  0.37756679  0.35321153  0.49332946  1
  O  O148  1  0.39991648  0.38116044  0.75598997  1
  O  O149  1  0.36177759  0.65201134  -0.00575521  1
  O  O150  1  0.41417762  0.62884588  0.24183929  1
  O  O151  1  0.37064083  0.63780924  0.49429740  1
  O  O152  1  0.39322094  0.59736066  0.76236889  1
  O  O153  1  0.38186582  0.85233643  -0.00669324  1
  O  O154  1  0.34973527  0.88249147  0.25299233  1
  O  O155  1  0.38156901  0.84865557  0.49083760  1
  O  O156  1  0.34203539  0.89362983  0.75670377  1
  O  O157  1  0.65997838  0.14097390  -0.00806900  1
  O  O158  1  0.61525333  0.08856493  0.25445941  1
  O  O159  1  0.62505806  0.12997660  0.49993352  1
  O  O160  1  0.61517567  0.09977449  0.74931111  1
  O  O161  1  0.65241110  0.33988635  -0.00650911  1
  O  O162  1  0.63160850  0.41735716  0.25302653  1
  O  O163  1  0.62008817  0.33568471  0.49651808  1
  O  O164  1  0.63413394  0.38508548  0.75796220  1
  O  O165  1  0.63546210  0.66848681  -0.00528699  1
  O  O166  1  0.60463357  0.59743588  0.24636572  1
  O  O167  1  0.66099722  0.64732785  0.48374957  1
  O  O168  1  0.61478894  0.58450517  0.76261720  1
  O  O169  1  0.59435820  0.85671773  0.00790194  1
  O  O170  1  0.63252178  0.90946878  0.24378312  1
  O  O171  1  0.62924986  0.83919123  0.48076421  1
  O  O172  1  0.64397287  0.89695755  0.75786190  1
  O  O173  1  0.83846913  0.13903863  0.01458984  1
  O  O174  1  0.88900438  0.11469501  0.25497935  1
  O  O175  1  0.87606309  0.14550608  0.50194690  1
  O  O176  1  0.91377690  0.13887858  0.75664291  1
  O  O177  1  0.89615901  0.36032907  -0.00165416  1
  O  O178  1  0.87818125  0.37144193  0.25688090  1
  O  O179  1  0.88304850  0.35572458  0.50063454  1
  O  O180  1  0.87497015  0.38564215  0.75056902  1
  O  O181  1  0.86524609  0.64674680  0.00754862  1
  O  O182  1  0.89027363  0.63291027  0.24624296  1
  O  O183  1  0.84964438  0.62489779  0.49137341  1
  O  O184  1  0.88269512  0.60334268  0.74696588  1
  O  O185  1  0.88281076  0.86490581  0.00074427  1
  O  O186  1  0.85661523  0.89089245  0.24837508  1
  O  O187  1  0.87544103  0.87589754  0.49150253  1
  O  O188  1  0.83835259  0.88081047  0.75704811  1
  O  O189  1  -0.01229405  0.10170288  0.11808631  1
  O  O190  1  0.00420318  0.14502848  0.38088797  1
  O  O191  1  -0.00081962  0.16193227  0.61777095  1
  O  O192  1  -0.01549749  0.14622136  0.92525157  1
  O  O193  1  0.00205513  0.37737696  0.14560591  1
  O  O194  1  0.00748204  0.36225984  0.38275437  1
  O  O195  1  0.00088362  0.36052087  0.61985842  1
  O  O196  1  0.00141233  0.37722450  0.87071234  1
  O  O197  1  0.00381052  0.62422876  0.11470256  1
  O  O198  1  -0.00709945  0.64633932  0.38935791  1
  O  O199  1  -0.00075852  0.61643453  0.59620401  1
  O  O200  1  0.00333044  0.63416851  0.86721743  1
  O  O201  1  -0.00713164  0.90422909  0.13840997  1
  O  O202  1  -0.00639847  0.86761433  0.34976367  1
  O  O203  1  -0.00170485  0.87141446  0.62142242  1
  O  O204  1  -0.00769912  0.86648553  0.84885080  1
  O  O205  1  0.24512159  0.16682969  0.14538206  1
  O  O206  1  0.24889910  0.09701749  0.37802149  1
  O  O207  1  0.24865549  0.11528001  0.66102849  1
  O  O208  1  0.25524981  0.10477597  0.84535016  1
  O  O209  1  0.24538570  0.34743326  0.12249914  1
  O  O210  1  0.25195452  0.40544806  0.38007006  1
  O  O211  1  0.24386401  0.40838684  0.63751413  1
  O  O212  1  0.24467312  0.39310680  0.83941589  1
  O  O213  1  0.25736059  0.63283554  0.15225883  1
  O  O214  1  0.25251941  0.61081157  0.35963365  1
  O  O215  1  0.24164673  0.58586187  0.63845071  1
  O  O216  1  0.24430568  0.60796569  0.85483071  1
  O  O217  1  0.24030629  0.85374590  0.11728822  1
  O  O218  1  0.24061397  0.90817650  0.39341012  1
  O  O219  1  0.24549403  0.86219946  0.61054853  1
  O  O220  1  0.23875801  0.88019894  0.90240132  1
  O  O221  1  0.49664913  0.10803497  0.10257612  1
  O  O222  1  0.50674536  0.13271237  0.38612735  1
  O  O223  1  0.48842683  0.15268628  0.61054902  1
  O  O224  1  0.50323715  0.13326742  0.88873370  1
  O  O225  1  0.50646826  0.38731722  0.13747871  1
  O  O226  1  0.49636881  0.36632167  0.35683259  1
  O  O227  1  0.49628997  0.33837075  0.62039259  1
  O  O228  1  0.50448829  0.35841991  0.89406058  1
  O  O229  1  0.49449262  0.61601834  0.08886360  1
  O  O230  1  0.50714102  0.64860637  0.37955539  1
  O  O231  1  0.50095875  0.64706168  0.62686846  1
  O  O232  1  0.50252529  0.63644152  0.89169050  1
  O  O233  1  0.49980452  0.91283931  0.13773078  1
  O  O234  1  0.50244840  0.85205154  0.34350186  1
  O  O235  1  0.48579456  0.86623356  0.63962579  1
  O  O236  1  0.49398356  0.87212813  0.85273255  1
  O  O237  1  0.74940020  0.13803931  0.16955530  1
  O  O238  1  0.75072602  0.10644212  0.36570918  1
  O  O239  1  0.75084366  0.11093810  0.62742101  1
  O  O240  1  0.75820469  0.10362094  0.85675809  1
  O  O241  1  0.75272855  0.41353850  0.13294290  1
  O  O242  1  0.75608305  0.37663583  0.39314603  1
  O  O243  1  0.75190357  0.38233398  0.60789418  1
  O  O244  1  0.75512460  0.38858645  0.87254244  1
  O  O245  1  0.75181072  0.60418447  0.13862118  1
  O  O246  1  0.74977018  0.60635805  0.33007133  1
  O  O247  1  0.75616562  0.60315729  0.63693871  1
  O  O248  1  0.74547810  0.60078122  0.86892511  1
  O  O249  1  0.73759421  0.84763493  0.11728506  1
  O  O250  1  0.74869567  0.89945016  0.37641218  1
  O  O251  1  0.75646132  0.89953996  0.60778464  1
  O  O252  1  0.75049074  0.86732042  0.89914780  1
  O  O253  1  0.14014503  0.00003127  0.10427295  1
  O  O254  1  0.09502011  0.00229587  0.38704404  1
  O  O255  1  0.09711094  0.00444324  0.61867137  1
  O  O256  1  0.09944583  -0.00161750  0.88730110  1
  O  O257  1  0.09109177  0.23814908  0.14191314  1
  O  O258  1  0.14791229  0.25510258  0.36047055  1
  O  O259  1  0.13638746  0.25533797  0.65813540  1
  O  O260  1  0.11340778  0.25362195  0.83436368  1
  O  O261  1  0.12649738  0.49599063  0.11900705  1
  O  O262  1  0.11522423  0.50691635  0.40305868  1
  O  O263  1  0.10746352  0.49666386  0.59070633  1
  O  O264  1  0.10327778  0.50810404  0.88910141  1
  O  O265  1  0.09788680  0.76032960  0.14069053  1
  O  O266  1  0.13278376  0.75710311  0.35486716  1
  O  O267  1  0.11178474  0.73968173  0.63665968  1
  O  O268  1  0.11690998  0.75538756  0.85083187  1
  O  O269  1  0.33933314  0.00638538  0.10361533  1
  O  O270  1  0.38473310  -0.01059149  0.37994375  1
  O  O271  1  0.35989164  0.00781862  0.58034848  1
  O  O272  1  0.37900223  -0.00091363  0.89962257  1
  O  O273  1  0.38955102  0.24105272  0.13771282  1
  O  O274  1  0.34543104  0.25667997  0.34672740  1
  O  O275  1  0.35432024  0.24637238  0.65520726  1
  O  O276  1  0.37993782  0.23696438  0.85445773  1
  O  O277  1  0.36804880  0.50699086  0.10441222  1
  O  O278  1  0.38562106  0.50753265  0.36820432  1
  O  O279  1  0.41685896  0.49774833  0.62294330  1
  O  O280  1  0.37589644  0.49612848  0.89930969  1
  O  O281  1  0.37148778  0.75255869  0.13484309  1
  O  O282  1  0.35429321  0.74834103  0.35445822  1
  O  O283  1  0.34345487  0.74048135  0.63919813  1
  O  O284  1  0.34765175  0.74941048  0.85834463  1
  O  O285  1  0.63809320  0.00133669  0.08924147  1
  O  O286  1  0.60294153  -0.01149373  0.39186520  1
  O  O287  1  0.60182124  0.00864472  0.61210626  1
  O  O288  1  0.62088030  0.00292064  0.90280883  1
  O  O289  1  0.62212362  0.25373490  0.15683910  1
  O  O290  1  0.64094057  0.24196802  0.33881161  1
  O  O291  1  0.63604429  0.24297986  0.65371230  1
  O  O292  1  0.64781750  0.24067319  0.85481595  1
  O  O293  1  0.62068411  0.50414485  0.08700703  1
  O  O294  1  0.61961957  0.50813580  0.40605145  1
  O  O295  1  0.61357834  0.49517682  0.59950140  1
  O  O296  1  0.61190725  0.49573884  0.90859161  1
  O  O297  1  0.58525378  0.75262773  0.15558356  1
  O  O298  1  0.64275303  0.74903514  0.32952230  1
  O  O299  1  0.63403403  0.75686815  0.62892229  1
  O  O300  1  0.64232326  0.73649525  0.82739127  1
  O  O301  1  0.83881586  -0.00098689  0.11999536  1
  O  O302  1  0.88761196  0.00540625  0.38988333  1
  O  O303  1  0.88937714  0.01242211  0.61102295  1
  O  O304  1  0.89273325  0.00389778  0.88447388  1
  O  O305  1  0.88954022  0.24480538  0.13014073  1
  O  O306  1  0.87309927  0.24847257  0.37463612  1
  O  O307  1  0.85136441  0.25326691  0.63525472  1
  O  O308  1  0.84852039  0.24860844  0.88850481  1
  O  O309  1  0.88763900  0.50503313  0.09779691  1
  O  O310  1  0.89128721  0.49895997  0.38055270  1
  O  O311  1  0.88715464  0.49346386  0.60642345  1
  O  O312  1  0.89550800  0.49495377  0.89736128  1
  O  O313  1  0.88384084  0.75946692  0.12974631  1
  O  O314  1  0.85245406  0.75323434  0.36119161  1
  O  O315  1  0.88568391  0.73899443  0.62709125  1
  O  O316  1  0.86578104  0.75179782  0.85942320  1
