# generated using pymatgen
data_Mg32Ti42(Bi17O64)3
_symmetry_space_group_name_H-M   'P 1'
_cell_length_a   15.95560360
_cell_length_b   15.95938854
_cell_length_c   15.91218710
_cell_angle_alpha   90.03075890
_cell_angle_beta   89.99383769
_cell_angle_gamma   90.09248787
_symmetry_Int_Tables_number   1
_chemical_formula_structural   Mg32Ti42(Bi17O64)3
_chemical_formula_sum   'Mg32 Ti42 Bi51 O192'
_cell_volume   4051.90012509
_cell_formula_units_Z   1
loop_
 _symmetry_equiv_pos_site_id
 _symmetry_equiv_pos_as_xyz
  1  'x, y, z'
loop_
 _atom_site_type_symbol
 _atom_site_label
 _atom_site_symmetry_multiplicity
 _atom_site_fract_x
 _atom_site_fract_y
 _atom_site_fract_z
 _atom_site_occupancy
  Mg  Mg0  1  0.37556799  0.87342641  0.38255931  1
  Mg  Mg1  1  0.87286592  0.88065524  0.87287474  1
  Mg  Mg2  1  0.62457139  0.61288383  0.87948224  1
  Mg  Mg3  1  0.12133956  0.38321479  0.87183061  1
  Mg  Mg4  1  0.62757980  0.12762008  0.36562167  1
  Mg  Mg5  1  0.87241178  0.63078903  0.37390972  1
  Mg  Mg6  1  0.37573095  0.11656851  0.87519926  1
  Mg  Mg7  1  0.62474375  0.38091602  0.36988296  1
  Mg  Mg8  1  0.37170751  0.37883894  0.62611714  1
  Mg  Mg9  1  0.37311704  0.87219571  0.11674934  1
  Mg  Mg10  1  0.86677432  0.36329772  0.13223908  1
  Mg  Mg11  1  0.12049423  0.87555997  0.61936085  1
  Mg  Mg12  1  0.87047439  0.13067005  0.38431807  1
  Mg  Mg13  1  0.86909298  0.88670446  0.62045423  1
  Mg  Mg14  1  0.87878241  0.61003921  0.87273084  1
  Mg  Mg15  1  0.11825555  0.11283397  0.87147447  1
  Mg  Mg16  1  0.11872722  0.11935650  0.12818868  1
  Mg  Mg17  1  0.87653110  0.61379783  0.62325574  1
  Mg  Mg18  1  0.61858562  0.86893905  0.38485761  1
  Mg  Mg19  1  0.74773857  -0.00885623  0.75943290  1
  Mg  Mg20  1  0.71663812  0.23466461  -0.02968911  1
  Mg  Mg21  1  0.25292578  0.56030842  0.78429579  1
  Mg  Mg22  1  0.74270067  0.26796141  0.28597696  1
  Mg  Mg23  1  0.49182593  0.44618898  0.22461374  1
  Mg  Mg24  1  -0.01524278  0.04240947  0.52583847  1
  Mg  Mg25  1  -0.03167862  0.56803442  0.21891833  1
  Mg  Mg26  1  0.31403080  0.75954734  0.75716454  1
  Mg  Mg27  1  0.54035330  0.74045514  0.53562184  1
  Mg  Mg28  1  0.73931589  0.53562408  0.45993858  1
  Mg  Mg29  1  0.54026860  0.78603865  0.19596999  1
  Mg  Mg30  1  -0.00629762  0.46454570  0.06519116  1
  Mg  Mg31  1  0.06321727  0.71182806  0.28118819  1
  Ti  Ti32  1  0.37747901  0.11342882  0.12169206  1
  Ti  Ti33  1  0.37707377  0.87308475  0.88418050  1
  Ti  Ti34  1  0.61079741  0.12042947  0.63266259  1
  Ti  Ti35  1  0.63043018  0.61070211  0.62405223  1
  Ti  Ti36  1  0.11014989  0.86717148  0.86875095  1
  Ti  Ti37  1  0.86058065  0.37215357  0.62137328  1
  Ti  Ti38  1  0.88708420  0.88148309  0.13213585  1
  Ti  Ti39  1  0.61463746  0.11784516  0.87475862  1
  Ti  Ti40  1  0.37750929  0.63000836  0.12855800  1
  Ti  Ti41  1  0.63730596  0.35575224  0.12746957  1
  Ti  Ti42  1  0.61404129  0.65045230  0.37070613  1
  Ti  Ti43  1  0.63994932  0.87637062  0.63090907  1
  Ti  Ti44  1  0.86319985  0.12573536  0.62598058  1
  Ti  Ti45  1  0.87494402  0.13068565  0.13127830  1
  Ti  Ti46  1  0.12059165  0.12140495  0.61915078  1
  Ti  Ti47  1  0.11467488  0.12570608  0.38190935  1
  Ti  Ti48  1  0.14185588  0.36190532  0.37127385  1
  Ti  Ti49  1  0.13166269  0.62024395  0.13018875  1
  Ti  Ti50  1  0.38130167  0.62569034  0.88944268  1
  Ti  Ti51  1  0.13330185  0.37863753  0.62755616  1
  Ti  Ti52  1  0.60906512  0.62277908  0.13257339  1
  Ti  Ti53  1  0.38169459  0.37859920  0.36833844  1
  Ti  Ti54  1  0.38176307  0.63682430  0.38185168  1
  Ti  Ti55  1  0.12965397  0.62750035  0.63527744  1
  Ti  Ti56  1  0.37454947  0.12107209  0.63124084  1
  Ti  Ti57  1  0.87210720  0.12608704  0.87465867  1
  Ti  Ti58  1  0.86063128  0.87357831  0.37640423  1
  Ti  Ti59  1  0.37366442  0.62210424  0.62983148  1
  Ti  Ti60  1  0.86554309  0.38637070  0.38447461  1
  Ti  Ti61  1  0.35857274  0.38167307  0.87715643  1
  Ti  Ti62  1  0.88506756  0.37138093  0.88856226  1
  Ti  Ti63  1  0.37864507  0.12065106  0.37791258  1
  Ti  Ti64  1  0.10837815  0.62696310  0.86966463  1
  Ti  Ti65  1  0.35391238  0.38235636  0.12591884  1
  Ti  Ti66  1  0.63765512  0.13308345  0.12729199  1
  Ti  Ti67  1  0.37153780  0.86194409  0.61816468  1
  Ti  Ti68  1  0.11916123  0.86530534  0.13711641  1
  Ti  Ti69  1  0.62094042  0.36715810  0.87485047  1
  Ti  Ti70  1  0.11555828  0.88012514  0.37650995  1
  Ti  Ti71  1  0.63645506  0.87984078  0.86593239  1
  Ti  Ti72  1  0.62101752  0.37018953  0.62752159  1
  Ti  Ti73  1  0.12493260  0.36490449  0.13129628  1
  Bi  Bi74  1  0.71218140  -0.03673102  0.24574048  1
  Bi  Bi75  1  0.77133527  0.73087925  0.51157602  1
  Bi  Bi76  1  0.46669240  0.25078257  0.01374319  1
  Bi  Bi77  1  0.48950484  -0.02826504  0.26590949  1
  Bi  Bi78  1  0.28661439  0.77214549  0.24853960  1
  Bi  Bi79  1  -0.01530016  0.00630146  0.00186085  1
  Bi  Bi80  1  0.25201442  0.52196136  0.49483705  1
  Bi  Bi81  1  -0.00485536  0.27403389  0.50897295  1
  Bi  Bi82  1  0.24515023  0.53643526  0.27191960  1
  Bi  Bi83  1  0.21408669  0.50493884  -0.01121967  1
  Bi  Bi84  1  -0.01425610  0.76892321  0.71762941  1
  Bi  Bi85  1  -0.00920288  0.25415549  0.02075711  1
  Bi  Bi86  1  0.76707666  0.72960842  0.76554794  1
  Bi  Bi87  1  0.75374619  -0.01043256  0.02109035  1
  Bi  Bi88  1  0.24561107  0.21726336  0.24149405  1
  Bi  Bi89  1  0.22048242  -0.00397214  0.00932180  1
  Bi  Bi90  1  -0.00915847  0.75908546  0.48190306  1
  Bi  Bi91  1  0.77825818  0.72153016  -0.01267664  1
  Bi  Bi92  1  0.75773999  0.49140349  0.75489503  1
  Bi  Bi93  1  -0.02435338  0.00009533  0.75589263  1
  Bi  Bi94  1  0.49429318  -0.02625713  0.51435140  1
  Bi  Bi95  1  0.52642580  -0.02413155  0.02785325  1
  Bi  Bi96  1  0.21982607  0.23553276  0.76028075  1
  Bi  Bi97  1  0.49126080  -0.02257534  0.75508708  1
  Bi  Bi98  1  0.24502109  -0.02294228  0.76617367  1
  Bi  Bi99  1  0.47040292  0.26060214  0.76776152  1
  Bi  Bi100  1  0.24289335  -0.00814525  0.26237722  1
  Bi  Bi101  1  0.74600606  0.47468585  -0.01571667  1
  Bi  Bi102  1  0.48816961  0.49218600  0.75006543  1
  Bi  Bi103  1  -0.01559976  0.72028616  0.04003664  1
  Bi  Bi104  1  0.00228716  0.50094850  0.72828030  1
  Bi  Bi105  1  0.72555641  0.24339277  0.48262992  1
  Bi  Bi106  1  0.03009851  0.52087865  0.43787533  1
  Bi  Bi107  1  0.25218501  0.25574617  0.51561923  1
  Bi  Bi108  1  -0.02081359  0.27485768  0.27663717  1
  Bi  Bi109  1  0.21349325  0.73547193  0.48593593  1
  Bi  Bi110  1  0.77838314  0.50865732  0.22046378  1
  Bi  Bi111  1  0.23775349  0.75701730  -0.00389431  1
  Bi  Bi112  1  0.24021943  -0.00783391  0.51994386  1
  Bi  Bi113  1  0.76687728  0.72781312  0.21267840  1
  Bi  Bi114  1  0.53532332  0.75035090  0.00584659  1
  Bi  Bi115  1  0.73675469  0.00415707  0.48462811  1
  Bi  Bi116  1  0.50035177  0.22688191  0.25726729  1
  Bi  Bi117  1  -0.03151509  0.00693790  0.27180053  1
  Bi  Bi118  1  0.73692965  0.23408653  0.74195981  1
  Bi  Bi119  1  0.22879247  0.22551828  -0.02253584  1
  Bi  Bi120  1  -0.01499022  0.26702250  0.75758146  1
  Bi  Bi121  1  0.50132278  0.48707469  0.02922859  1
  Bi  Bi122  1  0.49221137  0.26505297  0.49988676  1
  Bi  Bi123  1  0.51552212  0.50548603  0.46688871  1
  Bi  Bi124  1  0.52026626  0.73055349  0.76310947  1
  O  O125  1  0.14375183  0.11500131  0.00024032  1
  O  O126  1  0.12540832  0.13655909  0.25579965  1
  O  O127  1  0.15555310  0.13069240  0.49265119  1
  O  O128  1  0.12381708  0.12919034  0.73993753  1
  O  O129  1  0.10479165  0.41088661  0.01325344  1
  O  O130  1  0.13182261  0.35856206  0.25133372  1
  O  O131  1  0.10525749  0.37142188  0.49466728  1
  O  O132  1  0.14357143  0.35714780  0.74290619  1
  O  O133  1  0.11239032  0.60893751  -0.00349769  1
  O  O134  1  0.16106635  0.64415976  0.24235158  1
  O  O135  1  0.13066777  0.60716669  0.50543927  1
  O  O136  1  0.15353842  0.63481599  0.75228186  1
  O  O137  1  0.15570839  0.87340184  -0.00581794  1
  O  O138  1  0.09767310  0.84357749  0.25066153  1
  O  O139  1  0.15783619  0.87187170  0.49009390  1
  O  O140  1  0.09979362  0.87572839  0.74972316  1
  O  O141  1  0.38106472  0.13008321  0.00508744  1
  O  O142  1  0.37882837  0.15768957  0.23913251  1
  O  O143  1  0.37854204  0.10067527  0.48986204  1
  O  O144  1  0.38132571  0.14595879  0.74403799  1
  O  O145  1  0.39372779  0.39391373  -0.00092321  1
  O  O146  1  0.37583074  0.36657693  0.24156929  1
  O  O147  1  0.40286332  0.37610292  0.48987690  1
  O  O148  1  0.36282750  0.34934556  0.75673266  1
  O  O149  1  0.40176656  0.60834564  0.00225147  1
  O  O150  1  0.35628164  0.62753633  0.24918275  1
  O  O151  1  0.37757008  0.60932124  0.50147912  1
  O  O152  1  0.34908163  0.63937907  0.74788795  1
  O  O153  1  0.33843162  0.87401751  -0.00830462  1
  O  O154  1  0.40930222  0.84604620  0.24226304  1
  O  O155  1  0.36090487  0.90656186  0.50375889  1
  O  O156  1  0.40374967  0.85854878  0.73806604  1
  O  O157  1  0.64142361  0.11253355  -0.00739724  1
  O  O158  1  0.63629424  0.16493765  0.23864260  1
  O  O159  1  0.65050447  0.11345970  0.51666331  1
  O  O160  1  0.62010385  0.15612913  0.75283129  1
  O  O161  1  0.62198855  0.40464719  0.00036505  1
  O  O162  1  0.64782714  0.34685666  0.24278830  1
  O  O163  1  0.59277483  0.38246797  0.51562489  1
  O  O164  1  0.65595808  0.35527399  0.76085669  1
  O  O165  1  0.59807204  0.61144910  0.01193988  1
  O  O166  1  0.62364877  0.67521513  0.25640749  1
  O  O167  1  0.58752555  0.62018340  0.51471493  1
  O  O168  1  0.63584120  0.64806228  0.74142027  1
  O  O169  1  0.63668475  0.90234669  -0.01673884  1
  O  O170  1  0.60352035  0.87745510  0.25532991  1
  O  O171  1  0.63706335  0.90735668  0.51241809  1
  O  O172  1  0.59145773  0.86667376  0.74578080  1
  O  O173  1  0.86616310  0.09069830  -0.00858024  1
  O  O174  1  0.90047615  0.13775015  0.24637590  1
  O  O175  1  0.86243151  0.10324780  0.50994962  1
  O  O176  1  0.90193503  0.14725624  0.74761567  1
  O  O177  1  0.90633146  0.39630894  -0.00013662  1
  O  O178  1  0.85052369  0.33793141  0.25932175  1
  O  O179  1  0.89223179  0.37920247  0.50352846  1
  O  O180  1  0.86665348  0.34504914  0.74697264  1
  O  O181  1  0.88075545  0.63116422  0.00033736  1
  O  O182  1  0.84916284  0.62628482  0.25127190  1
  O  O183  1  0.88693737  0.64594101  0.50133865  1
  O  O184  1  0.83640940  0.61281155  0.74761513  1
  O  O185  1  0.87012557  0.91210547  -0.00085611  1
  O  O186  1  0.90148032  0.87883635  0.24798821  1
  O  O187  1  0.84119294  0.87892458  0.49335620  1
  O  O188  1  0.90762545  0.87781267  0.74743246  1
  O  O189  1  -0.00343117  0.13769637  0.09696664  1
  O  O190  1  0.00609091  0.09368348  0.40591000  1
  O  O191  1  0.01015527  0.14616992  0.59817472  1
  O  O192  1  -0.00529168  0.09417218  0.88670273  1
  O  O193  1  0.00297789  0.34967012  0.13184187  1
  O  O194  1  -0.01536239  0.39937084  0.35381878  1
  O  O195  1  0.00619428  0.35242358  0.63801600  1
  O  O196  1  -0.00387589  0.38486437  0.84876667  1
  O  O197  1  0.01625530  0.67046256  0.16356073  1
  O  O198  1  -0.00159442  0.60901643  0.33762967  1
  O  O199  1  0.00785364  0.62335153  0.65073049  1
  O  O200  1  0.00113275  0.60908966  0.84384166  1
  O  O201  1  0.00590575  0.85954770  0.09897176  1
  O  O202  1  0.00252879  0.88807613  0.40297203  1
  O  O203  1  -0.00453018  0.84255645  0.60290198  1
  O  O204  1  0.00375171  0.90046143  0.89104182  1
  O  O205  1  0.25814815  0.11559393  0.13877524  1
  O  O206  1  0.25959129  0.14187467  0.35776489  1
  O  O207  1  0.25872244  0.09561156  0.62640412  1
  O  O208  1  0.25108088  0.13852885  0.86823530  1
  O  O209  1  0.24321328  0.40520660  0.12058077  1
  O  O210  1  0.25425568  0.34327534  0.37898890  1
  O  O211  1  0.24846038  0.38111552  0.59063965  1
  O  O212  1  0.25006168  0.37113786  0.90195582  1
  O  O213  1  0.24808332  0.59355889  0.10876185  1
  O  O214  1  0.25734929  0.61713511  0.38624024  1
  O  O215  1  0.25165821  0.59893666  0.61520030  1
  O  O216  1  0.26362549  0.62616160  0.89732341  1
  O  O217  1  0.24838892  0.88106545  0.16081156  1
  O  O218  1  0.24816067  0.87469158  0.34152557  1
  O  O219  1  0.25357472  0.90469088  0.63357430  1
  O  O220  1  0.25882770  0.85167265  0.82748498  1
  O  O221  1  0.50534188  0.15739169  0.12615431  1
  O  O222  1  0.50060618  0.11134942  0.34327640  1
  O  O223  1  0.50215332  0.14509201  0.61390501  1
  O  O224  1  0.50389196  0.10603093  0.87545667  1
  O  O225  1  0.51553500  0.36205490  0.12577692  1
  O  O226  1  0.49934482  0.40339249  0.34509523  1
  O  O227  1  0.50525884  0.36485675  0.66472840  1
  O  O228  1  0.50688546  0.38630793  0.85436452  1
  O  O229  1  0.49065124  0.67018121  0.14066387  1
  O  O230  1  0.49676224  0.60798753  0.36647780  1
  O  O231  1  0.49254463  0.65936355  0.63937489  1
  O  O232  1  0.50015144  0.61402235  0.84805577  1
  O  O233  1  0.49748551  0.85952578  0.09297104  1
  O  O234  1  0.49682860  0.90919070  0.38949937  1
  O  O235  1  0.49314112  0.85057647  0.58438869  1
  O  O236  1  0.49327154  0.89288524  0.89424174  1
  O  O237  1  0.75706993  0.10056813  0.12886772  1
  O  O238  1  0.75065018  0.16970721  0.36946693  1
  O  O239  1  0.75600314  0.10063072  0.66602901  1
  O  O240  1  0.75621863  0.16055667  0.87039672  1
  O  O241  1  0.74679676  0.40940382  0.11327869  1
  O  O242  1  0.74812402  0.34923901  0.39099729  1
  O  O243  1  0.74776944  0.38917089  0.61569027  1
  O  O244  1  0.75817024  0.34949605  0.91913850  1
  O  O245  1  0.73121407  0.61206676  0.13513321  1
  O  O246  1  0.73403385  0.64781377  0.40055047  1
  O  O247  1  0.74091021  0.60127111  0.58034166  1
  O  O248  1  0.74659092  0.63410907  0.88880533  1
  O  O249  1  0.76630007  0.89553378  0.12982213  1
  O  O250  1  0.75030529  0.85894611  0.34137352  1
  O  O251  1  0.74468423  0.90913014  0.65876913  1
  O  O252  1  0.74574519  0.87871286  0.84319195  1
  O  O253  1  0.12434750  -0.01330969  0.11980634  1
  O  O254  1  0.13944372  -0.00118858  0.36348430  1
  O  O255  1  0.10346639  0.00541243  0.59233078  1
  O  O256  1  0.15572702  -0.01315004  0.87794055  1
  O  O257  1  0.14440168  0.25546752  0.10642456  1
  O  O258  1  0.09344174  0.24767928  0.38169441  1
  O  O259  1  0.15706770  0.24401036  0.61815557  1
  O  O260  1  0.12858518  0.24994239  0.87968036  1
  O  O261  1  0.07697536  0.51768437  0.14845455  1
  O  O262  1  0.14581611  0.48331479  0.37509987  1
  O  O263  1  0.11380063  0.49360905  0.63899320  1
  O  O264  1  0.15106213  0.50986765  0.85808900  1
  O  O265  1  0.14705754  0.74902594  0.10192051  1
  O  O266  1  0.11114125  0.75301737  0.39114729  1
  O  O267  1  0.13702405  0.74143926  0.60569659  1
  O  O268  1  0.11434821  0.74796189  0.88716668  1
  O  O269  1  0.39784233  0.00202832  0.12830193  1
  O  O270  1  0.36318787  0.00474412  0.33686795  1
  O  O271  1  0.40701518  0.00128552  0.64150175  1
  O  O272  1  0.35925020  -0.01104687  0.85032631  1
  O  O273  1  0.35915807  0.26644101  0.10038197  1
  O  O274  1  0.40798241  0.24648816  0.38443073  1
  O  O275  1  0.36263111  0.24159096  0.59938233  1
  O  O276  1  0.39135746  0.25892225  0.88984989  1
  O  O277  1  0.40557183  0.49851183  0.13861935  1
  O  O278  1  0.35204278  0.49006563  0.36928433  1
  O  O279  1  0.39598424  0.50620541  0.64282612  1
  O  O280  1  0.36563954  0.50051705  0.84592416  1
  O  O281  1  0.33890507  0.73917857  0.10886072  1
  O  O282  1  0.36980711  0.74747939  0.38622854  1
  O  O283  1  0.33856440  0.75276977  0.62248869  1
  O  O284  1  0.38814891  0.74686935  0.87405249  1
  O  O285  1  0.60899352  0.01728407  0.13715101  1
  O  O286  1  0.65519349  0.00523393  0.37253407  1
  O  O287  1  0.59388916  0.00391996  0.64705479  1
  O  O288  1  0.64439390  0.00807163  0.83773452  1
  O  O289  1  0.66304503  0.25190550  0.08603442  1
  O  O290  1  0.60427070  0.25154256  0.40708879  1
  O  O291  1  0.64171953  0.25271022  0.62145377  1
  O  O292  1  0.61170704  0.25275718  0.89868037  1
  O  O293  1  0.58215985  0.51268850  0.16021031  1
  O  O294  1  0.63470932  0.50925557  0.39524558  1
  O  O295  1  0.61170272  0.50050167  0.65202411  1
  O  O296  1  0.65876939  0.49007448  0.86234544  1
  O  O297  1  0.63236642  0.74775881  0.10274557  1
  O  O298  1  0.59118447  0.75156894  0.41685624  1
  O  O299  1  0.64646988  0.76034513  0.60807329  1
  O  O300  1  0.61642334  0.75942470  0.88143033  1
  O  O301  1  0.90751800  0.00530813  0.14006353  1
  O  O302  1  0.86002864  0.00005034  0.35571962  1
  O  O303  1  0.91219900  0.00928172  0.63065753  1
  O  O304  1  0.85315855  0.01296333  0.82908925  1
  O  O305  1  0.86793077  0.24169600  0.09082335  1
  O  O306  1  0.90713474  0.25296974  0.39335409  1
  O  O307  1  0.86127961  0.24599943  0.60753595  1
  O  O308  1  0.90539724  0.24752585  0.89063728  1
  O  O309  1  0.89679354  0.48890038  0.15506782  1
  O  O310  1  0.83787381  0.49976814  0.38651435  1
  O  O311  1  0.88936130  0.48703683  0.64555592  1
  O  O312  1  0.84765138  0.48404883  0.86098307  1
  O  O313  1  0.86716304  0.76276476  0.11104342  1
  O  O314  1  0.88980514  0.75946780  0.38020240  1
  O  O315  1  0.85635739  0.74760474  0.64735296  1
  O  O316  1  0.86197995  0.75281027  0.87678154  1
