# generated using pymatgen
data_Mg32Ti42(Bi17O64)3
_symmetry_space_group_name_H-M   'P 1'
_cell_length_a   15.94212220
_cell_length_b   15.93985353
_cell_length_c   15.94375425
_cell_angle_alpha   90.07519468
_cell_angle_beta   89.97721021
_cell_angle_gamma   90.07068556
_symmetry_Int_Tables_number   1
_chemical_formula_structural   Mg32Ti42(Bi17O64)3
_chemical_formula_sum   'Mg32 Ti42 Bi51 O192'
_cell_volume   4051.54170077
_cell_formula_units_Z   1
loop_
 _symmetry_equiv_pos_site_id
 _symmetry_equiv_pos_as_xyz
  1  'x, y, z'
loop_
 _atom_site_type_symbol
 _atom_site_label
 _atom_site_symmetry_multiplicity
 _atom_site_fract_x
 _atom_site_fract_y
 _atom_site_fract_z
 _atom_site_occupancy
  Mg  Mg0  1  0.37844879  0.62238487  0.88101553  1
  Mg  Mg1  1  0.13024725  0.63247571  0.63573232  1
  Mg  Mg2  1  0.61549947  0.12887686  0.63716084  1
  Mg  Mg3  1  0.87280637  0.36594197  0.87918758  1
  Mg  Mg4  1  0.62182119  0.36458686  0.12657114  1
  Mg  Mg5  1  0.86960706  0.61567666  0.88188400  1
  Mg  Mg6  1  0.38451881  0.87421156  0.37235657  1
  Mg  Mg7  1  0.87639344  0.37548316  0.12306082  1
  Mg  Mg8  1  0.62838169  0.11951006  0.36587732  1
  Mg  Mg9  1  0.61970872  0.37633931  0.86462782  1
  Mg  Mg10  1  0.38053279  0.35492712  0.88525876  1
  Mg  Mg11  1  0.38629980  0.62492085  0.37445642  1
  Mg  Mg12  1  0.88569480  0.38382254  0.61431584  1
  Mg  Mg13  1  0.62534608  0.61830421  0.63492212  1
  Mg  Mg14  1  0.37760747  0.87319230  0.87732018  1
  Mg  Mg15  1  0.86924193  0.62418441  0.63266218  1
  Mg  Mg16  1  0.87164119  0.87873316  0.63213979  1
  Mg  Mg17  1  0.61486512  0.61514904  0.11155563  1
  Mg  Mg18  1  0.12408252  0.12215402  0.12586246  1
  Mg  Mg19  1  0.52746515  -0.03390585  0.25656507  1
  Mg  Mg20  1  0.51628457  0.45318556  0.01469183  1
  Mg  Mg21  1  0.48316824  0.47680041  0.80945936  1
  Mg  Mg22  1  0.72506153  0.70589049  0.23095751  1
  Mg  Mg23  1  0.50886121  0.75744941  -0.02118795  1
  Mg  Mg24  1  0.18735906  -0.01344181  0.01893236  1
  Mg  Mg25  1  0.07586756  0.48019825  -0.01658687  1
  Mg  Mg26  1  0.19619498  0.25095246  0.78466102  1
  Mg  Mg27  1  -0.00531215  -0.05681869  0.02988008  1
  Mg  Mg28  1  0.24631971  0.53031584  0.30580812  1
  Mg  Mg29  1  0.22485769  0.29638700  -0.04482464  1
  Mg  Mg30  1  0.52402877  0.27137794  -0.03009092  1
  Mg  Mg31  1  0.79306687  0.45459300  0.74976706  1
  Ti  Ti32  1  0.13704471  0.12022576  0.89847548  1
  Ti  Ti33  1  0.87016244  0.85882515  0.12940155  1
  Ti  Ti34  1  0.63125791  0.87644812  0.87810096  1
  Ti  Ti35  1  0.14139062  0.61865864  0.11341518  1
  Ti  Ti36  1  0.37042168  0.12203856  0.62605845  1
  Ti  Ti37  1  0.13082282  0.86498759  0.12875207  1
  Ti  Ti38  1  0.89573348  0.12574320  0.12493809  1
  Ti  Ti39  1  0.14265375  0.11906726  0.61550911  1
  Ti  Ti40  1  0.37630590  0.11659007  0.11489499  1
  Ti  Ti41  1  0.90394793  0.12682766  0.88689359  1
  Ti  Ti42  1  0.38240357  0.12604899  0.37639883  1
  Ti  Ti43  1  0.86564269  0.63249379  0.37334984  1
  Ti  Ti44  1  0.61715657  0.38387678  0.64689458  1
  Ti  Ti45  1  0.62274763  0.88149186  0.64107059  1
  Ti  Ti46  1  0.88547274  0.38223096  0.37284935  1
  Ti  Ti47  1  0.36558686  0.12745671  0.89012563  1
  Ti  Ti48  1  0.38098721  0.37969627  0.62536918  1
  Ti  Ti49  1  0.39012893  0.88445557  0.12998442  1
  Ti  Ti50  1  0.62996083  0.87470995  0.38275005  1
  Ti  Ti51  1  0.87501743  0.87570547  0.38218430  1
  Ti  Ti52  1  0.37861157  0.38461857  0.36325924  1
  Ti  Ti53  1  0.38784226  0.61722303  0.11922432  1
  Ti  Ti54  1  0.63186678  0.87317007  0.12470592  1
  Ti  Ti55  1  0.37598067  0.86549711  0.63209667  1
  Ti  Ti56  1  0.11813240  0.86936989  0.88059919  1
  Ti  Ti57  1  0.87025140  0.61633884  0.12624644  1
  Ti  Ti58  1  0.88664427  0.88329403  0.88264624  1
  Ti  Ti59  1  0.37882057  0.35160720  0.12374315  1
  Ti  Ti60  1  0.12170152  0.11401155  0.37587484  1
  Ti  Ti61  1  0.61617203  0.13385654  0.88284168  1
  Ti  Ti62  1  0.11893074  0.38017321  0.61726937  1
  Ti  Ti63  1  0.63086850  0.37469231  0.37545356  1
  Ti  Ti64  1  0.61580419  0.61768681  0.88241109  1
  Ti  Ti65  1  0.87090410  0.11798471  0.36613599  1
  Ti  Ti66  1  0.14525450  0.38296475  0.13361635  1
  Ti  Ti67  1  0.62954525  0.63009151  0.37372234  1
  Ti  Ti68  1  0.13185217  0.88064278  0.63856880  1
  Ti  Ti69  1  0.12981753  0.87438369  0.38190311  1
  Ti  Ti70  1  0.37314234  0.62043357  0.62597482  1
  Ti  Ti71  1  0.61112824  0.11490404  0.13096028  1
  Ti  Ti72  1  0.14022445  0.37861224  0.36928454  1
  Ti  Ti73  1  0.13629199  0.62666996  0.87257857  1
  Bi  Bi74  1  0.28089621  -0.02435348  0.49905920  1
  Bi  Bi75  1  0.76607606  0.26707731  0.24453444  1
  Bi  Bi76  1  0.78330809  0.24802506  0.49888449  1
  Bi  Bi77  1  0.75730170  -0.01563384  0.25902169  1
  Bi  Bi78  1  0.25146777  -0.01754690  0.78214457  1
  Bi  Bi79  1  0.76493116  0.49689847  0.24550971  1
  Bi  Bi80  1  0.01385268  0.26550003  0.22263407  1
  Bi  Bi81  1  0.27651135  0.00538096  0.25708952  1
  Bi  Bi82  1  0.02070048  0.53926941  0.51330693  1
  Bi  Bi83  1  0.01877911  0.25300446  0.47285773  1
  Bi  Bi84  1  0.49422222  0.23448019  0.75483285  1
  Bi  Bi85  1  0.52340275  0.02654364  0.49921568  1
  Bi  Bi86  1  0.51503147  -0.01766708  -0.01172401  1
  Bi  Bi87  1  0.29024686  0.75506581  0.01513224  1
  Bi  Bi88  1  0.76909996  0.00779752  0.01909279  1
  Bi  Bi89  1  0.73746158  0.72643879  0.01566171  1
  Bi  Bi90  1  0.02146225  -0.00667390  0.24703325  1
  Bi  Bi91  1  0.75595371  0.02758689  0.54749660  1
  Bi  Bi92  1  0.76469130  0.02702807  0.77402966  1
  Bi  Bi93  1  0.26801820  0.73436885  0.76799400  1
  Bi  Bi94  1  0.48586980  0.00471556  0.76752236  1
  Bi  Bi95  1  0.74697601  0.72886330  0.77254195  1
  Bi  Bi96  1  0.26345031  0.72336686  0.25954881  1
  Bi  Bi97  1  0.01584817  0.75780072  0.53073329  1
  Bi  Bi98  1  0.25133689  0.22459349  0.24357942  1
  Bi  Bi99  1  0.79219990  0.25277226  0.72962211  1
  Bi  Bi100  1  -0.02561805  0.01323831  0.52054740  1
  Bi  Bi101  1  0.74929888  0.76032963  0.53978579  1
  Bi  Bi102  1  0.76245349  0.51385772  0.52061197  1
  Bi  Bi103  1  -0.01734132  0.00479724  0.72996356  1
  Bi  Bi104  1  0.50366624  0.75020312  0.26410244  1
  Bi  Bi105  1  0.73998375  0.45838291  -0.01890673  1
  Bi  Bi106  1  0.52111068  0.25196149  0.25179705  1
  Bi  Bi107  1  0.00744704  0.75071567  0.27840197  1
  Bi  Bi108  1  0.28108150  0.48308236  0.00654875  1
  Bi  Bi109  1  0.03702769  0.52457614  0.26467065  1
  Bi  Bi110  1  0.52622057  0.50706573  0.23968022  1
  Bi  Bi111  1  0.75792501  0.23621056  0.02019791  1
  Bi  Bi112  1  0.27675518  0.25202954  0.49985835  1
  Bi  Bi113  1  0.50186774  0.72869156  0.76094215  1
  Bi  Bi114  1  -0.00178433  0.47887200  0.79257940  1
  Bi  Bi115  1  0.53622275  0.25077712  0.51025762  1
  Bi  Bi116  1  0.26075777  0.46368955  0.77659392  1
  Bi  Bi117  1  0.24483349  0.71922472  0.48601379  1
  Bi  Bi118  1  -0.00103089  0.72463892  0.01924412  1
  Bi  Bi119  1  0.02045703  0.28603565  -0.01632941  1
  Bi  Bi120  1  -0.01767308  0.72482247  0.76799777  1
  Bi  Bi121  1  0.25074612  0.48814154  0.51772097  1
  Bi  Bi122  1  0.51503140  0.49244268  0.49753487  1
  Bi  Bi123  1  0.50278437  0.74011435  0.52708283  1
  Bi  Bi124  1  0.01686842  0.23626050  0.70866666  1
  O  O125  1  0.15984662  0.11100543  0.00691383  1
  O  O126  1  0.09686251  0.11095736  0.25417381  1
  O  O127  1  0.13864885  0.12807935  0.49661287  1
  O  O128  1  0.11947311  0.15587863  0.74344315  1
  O  O129  1  0.13777141  0.36649565  0.01195163  1
  O  O130  1  0.09782197  0.38587646  0.24793785  1
  O  O131  1  0.15366311  0.37681460  0.48995787  1
  O  O132  1  0.11288699  0.34749931  0.73245586  1
  O  O133  1  0.09233808  0.62060699  -0.00430953  1
  O  O134  1  0.15120109  0.59924659  0.23064426  1
  O  O135  1  0.10693804  0.65665314  0.50197742  1
  O  O136  1  0.15364948  0.63608871  0.75762770  1
  O  O137  1  0.11277086  0.87695223  0.00016612  1
  O  O138  1  0.12627028  0.89492709  0.24361730  1
  O  O139  1  0.11584957  0.85687255  0.49743984  1
  O  O140  1  0.11837674  0.89268705  0.75448660  1
  O  O141  1  0.35072657  0.13466009  0.00215383  1
  O  O142  1  0.37879265  0.10542040  0.25660826  1
  O  O143  1  0.34739324  0.13087257  0.49755342  1
  O  O144  1  0.39689634  0.12413174  0.74434940  1
  O  O145  1  0.32867293  0.35185407  0.00458323  1
  O  O146  1  0.40494811  0.37481096  0.24058658  1
  O  O147  1  0.34361362  0.37653951  0.48766499  1
  O  O148  1  0.39378289  0.40597316  0.73967445  1
  O  O149  1  0.39935334  0.66694134  0.00381159  1
  O  O150  1  0.33676222  0.60601419  0.22858257  1
  O  O151  1  0.38630470  0.66188172  0.49817442  1
  O  O152  1  0.34246145  0.61090978  0.73992871  1
  O  O153  1  0.40216118  0.84483043  0.00373278  1
  O  O154  1  0.38014620  0.90748901  0.24516401  1
  O  O155  1  0.37345935  0.87060059  0.50575721  1
  O  O156  1  0.36455872  0.89566271  0.74615892  1
  O  O157  1  0.60553456  0.16420550  -0.00460881  1
  O  O158  1  0.59053216  0.08451219  0.24143363  1
  O  O159  1  0.62668460  0.13202846  0.50060712  1
  O  O160  1  0.57991166  0.11835763  0.75782352  1
  O  O161  1  0.64435720  0.36089129  0.00089557  1
  O  O162  1  0.58707066  0.37881539  0.25269082  1
  O  O163  1  0.63935807  0.35199315  0.49023877  1
  O  O164  1  0.57887004  0.41349284  0.74847467  1
  O  O165  1  0.60032112  0.66381810  -0.00520661  1
  O  O166  1  0.64427537  0.59652848  0.24582284  1
  O  O167  1  0.59545005  0.64212983  0.48646557  1
  O  O168  1  0.64571051  0.63208355  0.76043704  1
  O  O169  1  0.59953008  0.85504805  0.00157219  1
  O  O170  1  0.63904580  0.90591570  0.24097356  1
  O  O171  1  0.61904365  0.85020480  0.49173500  1
  O  O172  1  0.63122539  0.89778026  0.75441395  1
  O  O173  1  0.85727852  0.13575356  -0.00014092  1
  O  O174  1  0.89532592  0.12059735  0.24306213  1
  O  O175  1  0.85209041  0.12003942  0.48989372  1
  O  O176  1  0.88198018  0.10645076  0.76612479  1
  O  O177  1  0.83785444  0.35840904  0.00158401  1
  O  O178  1  0.88838372  0.34723915  0.25438158  1
  O  O179  1  0.84649851  0.37929004  0.48966377  1
  O  O180  1  0.88619115  0.35995400  0.74545394  1
  O  O181  1  0.88588796  0.64016557  0.00592310  1
  O  O182  1  0.82924411  0.63127206  0.24629289  1
  O  O183  1  0.88491949  0.60257489  0.48708666  1
  O  O184  1  0.85923879  0.64970144  0.75708727  1
  O  O185  1  0.88045140  0.87587235  0.00355207  1
  O  O186  1  0.86645864  0.89123940  0.24263514  1
  O  O187  1  0.88306576  0.88256029  0.49422783  1
  O  O188  1  0.88113198  0.90470862  0.75917949  1
  O  O189  1  0.00182944  0.16195404  0.10948888  1
  O  O190  1  -0.00241377  0.13749039  0.39608856  1
  O  O191  1  0.01423358  0.10881709  0.62284143  1
  O  O192  1  0.01484130  0.10660653  0.89467019  1
  O  O193  1  0.00125742  0.34866908  0.11301177  1
  O  O194  1  -0.00077509  0.37507754  0.39206017  1
  O  O195  1  0.00740806  0.39525757  0.59547662  1
  O  O196  1  -0.00209958  0.40699729  0.91410379  1
  O  O197  1  -0.01219386  0.64485289  0.13889456  1
  O  O198  1  -0.01288086  0.63060425  0.34544933  1
  O  O199  1  -0.00286499  0.61997535  0.62215525  1
  O  O200  1  0.00582943  0.60986671  0.84535380  1
  O  O201  1  -0.00841846  0.84968239  0.12330762  1
  O  O202  1  -0.00416557  0.86472385  0.35897496  1
  O  O203  1  0.00677910  0.90944305  0.61920568  1
  O  O204  1  -0.00004740  0.91297935  0.88945065  1
  O  O205  1  0.24922645  0.11018399  0.16084088  1
  O  O206  1  0.23869172  0.11506334  0.35247588  1
  O  O207  1  0.25372123  0.15092773  0.63677431  1
  O  O208  1  0.25368754  0.14686208  0.85228004  1
  O  O209  1  0.25645378  0.40668071  0.14150333  1
  O  O210  1  0.24903185  0.38500041  0.33688210  1
  O  O211  1  0.25463767  0.39940303  0.63012213  1
  O  O212  1  0.26275757  0.34136329  0.84177778  1
  O  O213  1  0.25153639  0.62040997  0.08274024  1
  O  O214  1  0.25812179  0.63635294  0.37746408  1
  O  O215  1  0.25306999  0.63099677  0.59177072  1
  O  O216  1  0.24950102  0.66156958  0.89249657  1
  O  O217  1  0.23987249  0.89706572  0.10451385  1
  O  O218  1  0.24554147  0.88487192  0.38228176  1
  O  O219  1  0.24694387  0.86677154  0.62154620  1
  O  O220  1  0.24232219  0.85756970  0.86639149  1
  O  O221  1  0.48900810  0.13265668  0.11467650  1
  O  O222  1  0.49437910  0.13098339  0.39362424  1
  O  O223  1  0.48841054  0.13388073  0.59781845  1
  O  O224  1  0.49223187  0.08351249  0.88692322  1
  O  O225  1  0.48704707  0.34134646  0.08030772  1
  O  O226  1  0.49156346  0.37885499  0.39931709  1
  O  O227  1  0.49734920  0.38339573  0.58804545  1
  O  O228  1  0.49669247  0.39266384  0.90649138  1
  O  O229  1  0.49357149  0.63410012  0.15324303  1
  O  O230  1  0.50723499  0.63424921  0.34187527  1
  O  O231  1  0.49659443  0.63818667  0.62915059  1
  O  O232  1  0.49944289  0.60514224  0.83830157  1
  O  O233  1  0.50611068  0.88470882  0.14612517  1
  O  O234  1  0.51198918  0.86696919  0.34782150  1
  O  O235  1  0.49836791  0.86459087  0.63557806  1
  O  O236  1  0.50135526  0.90449956  0.86822847  1
  O  O237  1  0.73621271  0.11357097  0.11636866  1
  O  O238  1  0.75449133  0.11275698  0.34546464  1
  O  O239  1  0.73883669  0.11186746  0.65525760  1
  O  O240  1  0.73122618  0.13537127  0.85785322  1
  O  O241  1  0.74570699  0.37488971  0.16021118  1
  O  O242  1  0.74343103  0.37738041  0.34521915  1
  O  O243  1  0.73107121  0.36827347  0.67126513  1
  O  O244  1  0.74464216  0.39413028  0.85732306  1
  O  O245  1  0.74325621  0.61444146  0.09414054  1
  O  O246  1  0.74538207  0.61709221  0.39405512  1
  O  O247  1  0.74440607  0.63080765  0.59344334  1
  O  O248  1  0.74168238  0.65018503  0.89207067  1
  O  O249  1  0.75026771  0.89944763  0.11344379  1
  O  O250  1  0.75230501  0.89330328  0.36868447  1
  O  O251  1  0.74261151  0.88975302  0.61479214  1
  O  O252  1  0.74472127  0.85388477  0.88134169  1
  O  O253  1  0.08755226  -0.00852977  0.11111772  1
  O  O254  1  0.10077492  -0.00243860  0.37872074  1
  O  O255  1  0.15261984  0.00543829  0.62579902  1
  O  O256  1  0.15912817  -0.00177591  0.88909241  1
  O  O257  1  0.14666994  0.25846661  0.15120247  1
  O  O258  1  0.12079536  0.25302086  0.37266002  1
  O  O259  1  0.10563693  0.25469090  0.59987867  1
  O  O260  1  0.12804281  0.24138057  0.89669193  1
  O  O261  1  0.10849339  0.49919656  0.10546448  1
  O  O262  1  0.12729540  0.49951306  0.36747110  1
  O  O263  1  0.13067657  0.50482734  0.60465235  1
  O  O264  1  0.14791049  0.50973148  0.88037475  1
  O  O265  1  0.13464365  0.74461117  0.12357558  1
  O  O266  1  0.12530259  0.76075874  0.34708822  1
  O  O267  1  0.10144617  0.76327690  0.63839130  1
  O  O268  1  0.09052505  0.75521503  0.87223274  1
  O  O269  1  0.37515489  -0.00103257  0.10524239  1
  O  O270  1  0.37031136  0.00340073  0.39342862  1
  O  O271  1  0.36769615  0.00570234  0.61345143  1
  O  O272  1  0.35266576  0.00460164  0.87237093  1
  O  O273  1  0.35349566  0.24225416  0.14496872  1
  O  O274  1  0.35710580  0.24880974  0.37498950  1
  O  O275  1  0.37407758  0.26414337  0.61365756  1
  O  O276  1  0.42096131  0.23538258  0.88111636  1
  O  O277  1  0.39978587  0.50358407  0.07617366  1
  O  O278  1  0.36499910  0.49941263  0.36807742  1
  O  O279  1  0.37982252  0.50804786  0.59125936  1
  O  O280  1  0.35289494  0.49544006  0.88271128  1
  O  O281  1  0.35410618  0.76081325  0.14339400  1
  O  O282  1  0.37884825  0.75104929  0.33324305  1
  O  O283  1  0.37235752  0.75051080  0.64801741  1
  O  O284  1  0.39211579  0.74752251  0.84487949  1
  O  O285  1  0.61832474  0.00138713  0.08990884  1
  O  O286  1  0.61219878  -0.00727000  0.39154833  1
  O  O287  1  0.60941595  -0.00293372  0.60694792  1
  O  O288  1  0.63532604  -0.00166060  0.90715655  1
  O  O289  1  0.62562029  0.23752774  0.16160755  1
  O  O290  1  0.61545136  0.25007276  0.35284323  1
  O  O291  1  0.60201424  0.26054189  0.63603236  1
  O  O292  1  0.59267721  0.24990234  0.85727735  1
  O  O293  1  0.58642275  0.49039365  0.11395070  1
  O  O294  1  0.61331121  0.49721885  0.38499616  1
  O  O295  1  0.62639054  0.49522811  0.59247136  1
  O  O296  1  0.61914646  0.50916740  0.91159673  1
  O  O297  1  0.64947295  0.75758924  0.14147181  1
  O  O298  1  0.64155155  0.74541303  0.33350424  1
  O  O299  1  0.63835849  0.75778610  0.63246110  1
  O  O300  1  0.58729267  0.75987011  0.86599536  1
  O  O301  1  0.89423269  0.00778372  0.10012900  1
  O  O302  1  0.88769194  0.00091585  0.36920219  1
  O  O303  1  0.87717433  0.00558121  0.61755722  1
  O  O304  1  0.85028965  0.00596545  0.89256732  1
  O  O305  1  0.84671924  0.24176347  0.12785202  1
  O  O306  1  0.86616772  0.24875160  0.38674687  1
  O  O307  1  0.86319108  0.25570480  0.61147706  1
  O  O308  1  0.90088365  0.24106658  0.87186005  1
  O  O309  1  0.87147708  0.50224021  0.14163313  1
  O  O310  1  0.87241391  0.49690295  0.34690247  1
  O  O311  1  0.84016328  0.49895997  0.63547883  1
  O  O312  1  0.87398127  0.49742120  0.84129226  1
  O  O313  1  0.83753862  0.75044097  0.13403794  1
  O  O314  1  0.87189638  0.75068313  0.36954337  1
  O  O315  1  0.86261446  0.75504396  0.62162207  1
  O  O316  1  0.90252979  0.76413475  0.87226853  1
