# generated using pymatgen
data_Mg32Ti42(Bi17O64)3
_symmetry_space_group_name_H-M   'P 1'
_cell_length_a   15.94380589
_cell_length_b   15.96377260
_cell_length_c   15.93742682
_cell_angle_alpha   90.05180372
_cell_angle_beta   89.94609405
_cell_angle_gamma   90.11801220
_symmetry_Int_Tables_number   1
_chemical_formula_structural   Mg32Ti42(Bi17O64)3
_chemical_formula_sum   'Mg32 Ti42 Bi51 O192'
_cell_volume   4056.43428238
_cell_formula_units_Z   1
loop_
 _symmetry_equiv_pos_site_id
 _symmetry_equiv_pos_as_xyz
  1  'x, y, z'
loop_
 _atom_site_type_symbol
 _atom_site_label
 _atom_site_symmetry_multiplicity
 _atom_site_fract_x
 _atom_site_fract_y
 _atom_site_fract_z
 _atom_site_occupancy
  Mg  Mg0  1  0.87399558  0.86120377  0.37854215  1
  Mg  Mg1  1  0.86830879  0.12854402  0.36933128  1
  Mg  Mg2  1  0.12340316  0.62597037  0.38371926  1
  Mg  Mg3  1  0.87985248  0.37823662  0.37213628  1
  Mg  Mg4  1  0.12209868  0.12737436  0.12768176  1
  Mg  Mg5  1  0.86552416  0.89021105  0.12856079  1
  Mg  Mg6  1  0.37638777  0.36916084  0.87413991  1
  Mg  Mg7  1  0.61420225  0.87443230  0.12503792  1
  Mg  Mg8  1  0.38659882  0.63133320  0.88937847  1
  Mg  Mg9  1  0.13313293  0.37583211  0.11261581  1
  Mg  Mg10  1  0.62098681  0.38131396  0.11813965  1
  Mg  Mg11  1  0.37840222  0.12106365  0.12382308  1
  Mg  Mg12  1  0.62383366  0.62921466  0.62677416  1
  Mg  Mg13  1  0.87471072  0.62223067  0.12487701  1
  Mg  Mg14  1  0.36928260  0.37550931  0.38018795  1
  Mg  Mg15  1  0.12383676  0.87592313  0.38764546  1
  Mg  Mg16  1  0.10897228  0.62500088  0.87397826  1
  Mg  Mg17  1  0.12470425  0.12309270  0.38154550  1
  Mg  Mg18  1  0.62396212  0.38945479  0.37431502  1
  Mg  Mg19  1  0.48986575  0.73577796  0.05876634  1
  Mg  Mg20  1  0.72032887  0.00133433  0.06600722  1
  Mg  Mg21  1  0.20815701  0.55307945  -0.00782347  1
  Mg  Mg22  1  0.78827123  0.71949136  0.68346024  1
  Mg  Mg23  1  0.79285033  -0.01773990  0.27787233  1
  Mg  Mg24  1  -0.03358132  0.00548164  0.45893933  1
  Mg  Mg25  1  0.24856426  0.51197285  0.50291191  1
  Mg  Mg26  1  0.45209575  0.71404359  0.74238622  1
  Mg  Mg27  1  0.79870624  0.70806098  0.49676116  1
  Mg  Mg28  1  -0.03086625  0.68231689  0.55253812  1
  Mg  Mg29  1  0.52182561  0.28565087  0.71651643  1
  Mg  Mg30  1  0.81234091  0.49720976  0.25066087  1
  Mg  Mg31  1  0.24683112  0.21099597  0.03279127  1
  Ti  Ti32  1  0.61885009  0.36797037  0.86892022  1
  Ti  Ti33  1  0.39021998  0.13445522  0.87713293  1
  Ti  Ti34  1  0.62581302  0.87023721  0.37776375  1
  Ti  Ti35  1  0.11334387  0.61106118  0.13069042  1
  Ti  Ti36  1  0.88808376  0.12213939  0.62259944  1
  Ti  Ti37  1  0.13407943  0.37141602  0.38941515  1
  Ti  Ti38  1  0.86975709  0.63621016  0.87893133  1
  Ti  Ti39  1  0.38936655  0.13697790  0.63541219  1
  Ti  Ti40  1  0.11354764  0.37825673  0.87810210  1
  Ti  Ti41  1  0.62782022  0.88775381  0.86704781  1
  Ti  Ti42  1  0.62976840  0.13071129  0.62022317  1
  Ti  Ti43  1  0.87015348  0.87880126  0.86405464  1
  Ti  Ti44  1  0.63587760  0.62386182  0.38452360  1
  Ti  Ti45  1  0.62902565  0.38851492  0.62258712  1
  Ti  Ti46  1  0.36720442  0.87024394  0.62438252  1
  Ti  Ti47  1  0.36758590  0.62316239  0.12444641  1
  Ti  Ti48  1  0.38114472  0.12492223  0.36412433  1
  Ti  Ti49  1  0.62549374  0.12380201  0.36045226  1
  Ti  Ti50  1  0.88526295  0.63024422  0.36258552  1
  Ti  Ti51  1  0.63000583  0.86544459  0.62503439  1
  Ti  Ti52  1  0.13259827  0.86388488  0.87180450  1
  Ti  Ti53  1  0.37942451  0.87311536  0.10615319  1
  Ti  Ti54  1  0.86517873  0.11443801  0.87373480  1
  Ti  Ti55  1  0.36534217  0.62418284  0.36627839  1
  Ti  Ti56  1  0.36658516  0.36950663  0.62994258  1
  Ti  Ti57  1  0.13323820  0.87921767  0.62026718  1
  Ti  Ti58  1  0.62051467  0.65375444  0.86807966  1
  Ti  Ti59  1  0.12235837  0.13656488  0.63128444  1
  Ti  Ti60  1  0.38849529  0.87031262  0.86643144  1
  Ti  Ti61  1  0.37573792  0.87975676  0.37657693  1
  Ti  Ti62  1  0.36586912  0.36963766  0.11558998  1
  Ti  Ti63  1  0.86138269  0.37549987  0.87302400  1
  Ti  Ti64  1  0.13322823  0.37302284  0.63200974  1
  Ti  Ti65  1  0.86576106  0.12362420  0.13363380  1
  Ti  Ti66  1  0.89046447  0.87783961  0.60725794  1
  Ti  Ti67  1  0.63019340  0.12940894  0.86447767  1
  Ti  Ti68  1  0.88783568  0.36961031  0.62460383  1
  Ti  Ti69  1  0.62718132  0.62514316  0.10272202  1
  Ti  Ti70  1  0.13049200  0.63185428  0.63086226  1
  Ti  Ti71  1  0.36417816  0.61555643  0.62130546  1
  Ti  Ti72  1  0.87530459  0.37305684  0.12175140  1
  Ti  Ti73  1  0.61403404  0.12895255  0.12524606  1
  Bi  Bi74  1  0.50338748  -0.01822036  0.24820190  1
  Bi  Bi75  1  0.48066130  0.50232491  0.00347901  1
  Bi  Bi76  1  -0.02486681  0.78384115  0.00667130  1
  Bi  Bi77  1  0.74104844  0.79657700  0.00105045  1
  Bi  Bi78  1  0.47352923  0.49744329  0.49534175  1
  Bi  Bi79  1  0.74528964  0.24853855  0.01805709  1
  Bi  Bi80  1  0.04449024  -0.00661984  0.01637874  1
  Bi  Bi81  1  0.76878784  0.75956293  0.22187255  1
  Bi  Bi82  1  0.50671720  -0.01754761  0.72573260  1
  Bi  Bi83  1  -0.04001937  0.52836161  0.74536615  1
  Bi  Bi84  1  0.49797709  0.72722776  0.52342928  1
  Bi  Bi85  1  0.25119916  0.72654105  0.78415264  1
  Bi  Bi86  1  0.75046578  0.25227942  0.72953629  1
  Bi  Bi87  1  0.75392491  -0.02310531  0.73128685  1
  Bi  Bi88  1  0.51668092  0.01019442  -0.00950864  1
  Bi  Bi89  1  0.21282050  0.75468227  0.03318957  1
  Bi  Bi90  1  0.52525897  0.73698619  0.25550940  1
  Bi  Bi91  1  0.01216439  -0.01807862  0.27242252  1
  Bi  Bi92  1  0.24344037  0.49674659  0.79003221  1
  Bi  Bi93  1  0.26127931  0.22948495  0.48308036  1
  Bi  Bi94  1  0.24772285  0.74436816  0.48204516  1
  Bi  Bi95  1  0.02720149  0.49528572  0.51357522  1
  Bi  Bi96  1  0.26880054  0.01539687  -0.02240838  1
  Bi  Bi97  1  0.22843432  0.23274433  0.80450005  1
  Bi  Bi98  1  0.48880699  0.49150825  0.76649518  1
  Bi  Bi99  1  0.50293310  0.26762706  0.00916436  1
  Bi  Bi100  1  -0.01897039  0.25024626  0.77365483  1
  Bi  Bi101  1  0.03470777  0.02617195  0.78096731  1
  Bi  Bi102  1  0.01563503  0.50555842  0.27042771  1
  Bi  Bi103  1  0.52466343  0.52534086  0.24613540  1
  Bi  Bi104  1  0.24066241  0.78171716  0.25714755  1
  Bi  Bi105  1  0.49336328  0.28101009  0.25064054  1
  Bi  Bi106  1  -0.00097253  0.22842765  0.24967055  1
  Bi  Bi107  1  0.73998948  0.28477162  0.25484732  1
  Bi  Bi108  1  0.78025008  0.52538910  0.53186418  1
  Bi  Bi109  1  0.26625502  0.01161076  0.74121436  1
  Bi  Bi110  1  0.24569844  0.02680968  0.51899244  1
  Bi  Bi111  1  0.25589590  0.47886166  0.24965525  1
  Bi  Bi112  1  -0.00594406  0.20810660  -0.00462347  1
  Bi  Bi113  1  0.24222119  -0.00511847  0.20238894  1
  Bi  Bi114  1  -0.02028160  0.25469508  0.47572685  1
  Bi  Bi115  1  0.74289778  0.00502955  0.48642922  1
  Bi  Bi116  1  0.74764961  0.27876373  0.48300298  1
  Bi  Bi117  1  0.73514710  0.52981417  0.76734873  1
  Bi  Bi118  1  0.00416074  0.47586708  0.00770071  1
  Bi  Bi119  1  0.51158886  0.26518954  0.48137019  1
  Bi  Bi120  1  0.50976833  -0.00993508  0.48881966  1
  Bi  Bi121  1  0.02261347  0.78154852  0.23130247  1
  Bi  Bi122  1  0.22774968  0.24853372  0.24163463  1
  Bi  Bi123  1  0.01057909  0.77798945  0.74712810  1
  Bi  Bi124  1  0.76893210  0.51519746  0.00551834  1
  O  O125  1  0.09953273  0.11715147  0.00394222  1
  O  O126  1  0.12856340  0.14941913  0.25359927  1
  O  O127  1  0.13938080  0.12913707  0.51213416  1
  O  O128  1  0.14257571  0.10750723  0.75147783  1
  O  O129  1  0.09165142  0.36470700  -0.00954958  1
  O  O130  1  0.15346719  0.37638700  0.25775683  1
  O  O131  1  0.10028881  0.36024359  0.50327088  1
  O  O132  1  0.14259851  0.40587077  0.74248449  1
  O  O133  1  0.11857365  0.65240090  0.00467141  1
  O  O134  1  0.14533977  0.57467901  0.24188943  1
  O  O135  1  0.08035838  0.63333971  0.50896141  1
  O  O136  1  0.15542562  0.60087507  0.74330073  1
  O  O137  1  0.11582885  0.84670345  -0.00656517  1
  O  O138  1  0.12920932  0.86556409  0.25597490  1
  O  O139  1  0.15099454  0.86254202  0.50919589  1
  O  O140  1  0.10229214  0.88481034  0.75347219  1
  O  O141  1  0.38689085  0.08674768  -0.00597897  1
  O  O142  1  0.36839278  0.13019197  0.25352160  1
  O  O143  1  0.37539681  0.13531940  0.51939432  1
  O  O144  1  0.35581962  0.12426138  0.76096720  1
  O  O145  1  0.40004773  0.38292719  0.00002409  1
  O  O146  1  0.37102326  0.36270282  0.24569462  1
  O  O147  1  0.40662860  0.36559188  0.51006047  1
  O  O148  1  0.36506477  0.40799735  0.74039465  1
  O  O149  1  0.41672478  0.63649670  0.01113740  1
  O  O150  1  0.34020450  0.61925284  0.25189810  1
  O  O151  1  0.40239697  0.62673666  0.49763237  1
  O  O152  1  0.35551719  0.61823682  0.73745569  1
  O  O153  1  0.35404497  0.88539785  -0.00628373  1
  O  O154  1  0.41319819  0.87061821  0.26531456  1
  O  O155  1  0.35530794  0.87836151  0.50826621  1
  O  O156  1  0.40697094  0.87300299  0.74902473  1
  O  O157  1  0.63129491  0.09213856  0.00243821  1
  O  O158  1  0.62412396  0.14922106  0.24713327  1
  O  O159  1  0.62874972  0.09657228  0.50304082  1
  O  O160  1  0.62728757  0.15299507  0.75135932  1
  O  O161  1  0.58987516  0.38430412  -0.01606052  1
  O  O162  1  0.62104849  0.35501143  0.24742879  1
  O  O163  1  0.61558288  0.37308349  0.50358835  1
  O  O164  1  0.63987903  0.34238600  0.74119136  1
  O  O165  1  0.59978208  0.61594815  -0.01010320  1
  O  O166  1  0.62700723  0.63835454  0.25491751  1
  O  O167  1  0.58793518  0.62431930  0.49357609  1
  O  O168  1  0.66722662  0.64985050  0.75126252  1
  O  O169  1  0.65143937  0.90573775  -0.00689975  1
  O  O170  1  0.60031165  0.87576228  0.25897545  1
  O  O171  1  0.63695917  0.90996600  0.50567473  1
  O  O172  1  0.60942094  0.87237040  0.74785844  1
  O  O173  1  0.88968237  0.11321750  -0.00429814  1
  O  O174  1  0.86774307  0.16314294  0.24420013  1
  O  O175  1  0.89824625  0.10253614  0.50511904  1
  O  O176  1  0.86986334  0.14032474  0.74913005  1
  O  O177  1  0.87791783  0.39578624  -0.00670365  1
  O  O178  1  0.85384435  0.37026207  0.24199792  1
  O  O179  1  0.88803747  0.37789294  0.50473580  1
  O  O180  1  0.86652810  0.34613130  0.74835771  1
  O  O181  1  0.88041033  0.59565968  -0.00545022  1
  O  O182  1  0.83645972  0.62534442  0.25311660  1
  O  O183  1  0.89079870  0.60702156  0.48946358  1
  O  O184  1  0.85209570  0.63132083  0.75542397  1
  O  O185  1  0.86847341  0.87739757  -0.00326614  1
  O  O186  1  0.84777723  0.86523456  0.25377392  1
  O  O187  1  0.89121975  0.90871298  0.49680836  1
  O  O188  1  0.88456573  0.85528738  0.74820640  1
  O  O189  1  -0.01050814  0.13281614  0.13535315  1
  O  O190  1  0.00050384  0.15940299  0.36744112  1
  O  O191  1  0.00587788  0.11043300  0.64571938  1
  O  O192  1  -0.00855676  0.13041274  0.86151911  1
  O  O193  1  -0.00670871  0.39421049  0.12640382  1
  O  O194  1  0.00737885  0.34286930  0.36292320  1
  O  O195  1  0.00402042  0.38909808  0.63868973  1
  O  O196  1  -0.00192373  0.38814866  0.85046931  1
  O  O197  1  0.00132276  0.60891439  0.14894977  1
  O  O198  1  -0.00003341  0.63140725  0.33434299  1
  O  O199  1  0.00972928  0.62108570  0.65371491  1
  O  O200  1  -0.01420595  0.61664789  0.85524817  1
  O  O201  1  -0.01022157  0.86656678  0.12670509  1
  O  O202  1  -0.00262693  0.86247894  0.34410461  1
  O  O203  1  0.00486478  0.86753029  0.62322624  1
  O  O204  1  -0.00696511  0.85568341  0.88054722  1
  O  O205  1  0.25275377  0.10202412  0.10430935  1
  O  O206  1  0.25792060  0.11004633  0.40102090  1
  O  O207  1  0.25462480  0.11992003  0.62780949  1
  O  O208  1  0.26124918  0.15300133  0.91581344  1
  O  O209  1  0.25649779  0.40892428  0.12495266  1
  O  O210  1  0.24413321  0.41410455  0.40851333  1
  O  O211  1  0.25389612  0.35444930  0.61372578  1
  O  O212  1  0.24396873  0.35872544  0.87149610  1
  O  O213  1  0.25793155  0.61243687  0.09075169  1
  O  O214  1  0.25199934  0.60812569  0.41546077  1
  O  O215  1  0.24980418  0.63059974  0.59145713  1
  O  O216  1  0.25570286  0.62873974  0.88900057  1
  O  O217  1  0.25843845  0.87265178  0.14121180  1
  O  O218  1  0.26239497  0.89376733  0.35325612  1
  O  O219  1  0.25310776  0.87135714  0.65512881  1
  O  O220  1  0.24704952  0.85364994  0.86061479  1
  O  O221  1  0.50087719  0.13934071  0.11479912  1
  O  O222  1  0.49877855  0.14838655  0.37831981  1
  O  O223  1  0.50082199  0.10256632  0.63703137  1
  O  O224  1  0.50505777  0.10056926  0.87900405  1
  O  O225  1  0.49389768  0.35267137  0.13125079  1
  O  O226  1  0.50010610  0.35326208  0.36989593  1
  O  O227  1  0.51139976  0.39572328  0.64563582  1
  O  O228  1  0.50445776  0.36389280  0.82601816  1
  O  O229  1  0.49672651  0.63870555  0.15507982  1
  O  O230  1  0.48657972  0.63963585  0.34566477  1
  O  O231  1  0.49209845  0.63437250  0.63893616  1
  O  O232  1  0.51135930  0.64221904  0.83155104  1
  O  O233  1  0.49446455  0.86087666  0.09430278  1
  O  O234  1  0.50378368  0.87005067  0.41401767  1
  O  O235  1  0.50410899  0.89964946  0.61246926  1
  O  O236  1  0.50116162  0.89399279  0.89070452  1
  O  O237  1  0.74712415  0.14083127  0.10868073  1
  O  O238  1  0.74244227  0.08666759  0.36538919  1
  O  O239  1  0.74832168  0.14832806  0.61947852  1
  O  O240  1  0.75054985  0.13579137  0.87591932  1
  O  O241  1  0.74628030  0.35414753  0.11430471  1
  O  O242  1  0.74884163  0.37168906  0.37487121  1
  O  O243  1  0.75253085  0.34876122  0.61910969  1
  O  O244  1  0.74505732  0.36221808  0.87930056  1
  O  O245  1  0.74060226  0.62180975  0.09411941  1
  O  O246  1  0.74531097  0.61599657  0.41063819  1
  O  O247  1  0.74691821  0.64277184  0.59069936  1
  O  O248  1  0.74337561  0.60689385  0.89156428  1
  O  O249  1  0.73928517  0.86897255  0.12368674  1
  O  O250  1  0.74068315  0.91110661  0.37659002  1
  O  O251  1  0.74976521  0.86204204  0.64404041  1
  O  O252  1  0.75086211  0.87261358  0.86127731  1
  O  O253  1  0.12191001  -0.00060014  0.12885156  1
  O  O254  1  0.07852340  0.00175201  0.39193712  1
  O  O255  1  0.13995329  -0.00477182  0.61864623  1
  O  O256  1  0.11716226  -0.01575116  0.89129085  1
  O  O257  1  0.15962595  0.25207878  0.11768675  1
  O  O258  1  0.16673249  0.25587721  0.37941893  1
  O  O259  1  0.11880893  0.25068821  0.64739251  1
  O  O260  1  0.10643232  0.26020487  0.85249262  1
  O  O261  1  0.12470959  0.50327224  0.08104568  1
  O  O262  1  0.09371606  0.49483296  0.38896029  1
  O  O263  1  0.14630113  0.49376237  0.58628384  1
  O  O264  1  0.14203552  0.50055899  0.89512156  1
  O  O265  1  0.14344229  0.72988345  0.15238555  1
  O  O266  1  0.15889851  0.74760643  0.37410119  1
  O  O267  1  0.12691255  0.74619857  0.64729154  1
  O  O268  1  0.11940904  0.74520575  0.84410331  1
  O  O269  1  0.37931696  -0.01136139  0.14329061  1
  O  O270  1  0.40142442  0.00258428  0.38042251  1
  O  O271  1  0.36920118  -0.00007864  0.64514973  1
  O  O272  1  0.34819238  -0.00846656  0.86032294  1
  O  O273  1  0.34836278  0.25352203  0.09663598  1
  O  O274  1  0.35545885  0.24589072  0.38510466  1
  O  O275  1  0.40717343  0.25525002  0.65472199  1
  O  O276  1  0.40041198  0.24387212  0.88566226  1
  O  O277  1  0.39818959  0.50471392  0.12508625  1
  O  O278  1  0.39339074  0.50384797  0.38150664  1
  O  O279  1  0.35839099  0.49919200  0.58877322  1
  O  O280  1  0.40454842  0.50343298  0.88162672  1
  O  O281  1  0.37248472  0.74982983  0.12393990  1
  O  O282  1  0.35379134  0.75053563  0.38400570  1
  O  O283  1  0.38358775  0.75188141  0.63012872  1
  O  O284  1  0.38123268  0.75170021  0.85057809  1
  O  O285  1  0.61621884  0.00701038  0.14221327  1
  O  O286  1  0.58794109  0.00559347  0.36497783  1
  O  O287  1  0.64220997  0.00595785  0.65193071  1
  O  O288  1  0.63346338  0.00338773  0.85048913  1
  O  O289  1  0.62269654  0.24770921  0.08837364  1
  O  O290  1  0.64092329  0.23779070  0.39598570  1
  O  O291  1  0.59539181  0.24287664  0.61127603  1
  O  O292  1  0.61247005  0.24352749  0.89903000  1
  O  O293  1  0.60988274  0.50756910  0.13398253  1
  O  O294  1  0.60828175  0.51099556  0.36318009  1
  O  O295  1  0.65307801  0.50040430  0.63083192  1
  O  O296  1  0.61807457  0.48852252  0.84220574  1
  O  O297  1  0.61288904  0.74458364  0.10749391  1
  O  O298  1  0.63171941  0.75591141  0.37808001  1
  O  O299  1  0.61201028  0.75735561  0.60839568  1
  O  O300  1  0.62718399  0.76222240  0.89424752  1
  O  O301  1  0.83232437  0.01162510  0.15190310  1
  O  O302  1  0.89836383  0.00667122  0.34773240  1
  O  O303  1  0.85683826  -0.00150300  0.63808930  1
  O  O304  1  0.87538766  -0.00252916  0.85671423  1
  O  O305  1  0.87606007  0.25439027  0.09433140  1
  O  O306  1  0.85953324  0.24928567  0.40144978  1
  O  O307  1  0.89617008  0.24278826  0.61112651  1
  O  O308  1  0.89178991  0.25212445  0.88486123  1
  O  O309  1  0.84763898  0.49376621  0.13071288  1
  O  O310  1  0.88988542  0.50132688  0.34802655  1
  O  O311  1  0.86003613  0.48652324  0.64161941  1
  O  O312  1  0.85916527  0.49194208  0.85268864  1
  O  O313  1  0.86068373  0.74689659  0.12055470  1
  O  O314  1  0.85981909  0.73969151  0.39284506  1
  O  O315  1  0.87474979  0.75810733  0.59146384  1
  O  O316  1  0.86625531  0.74741655  0.89615134  1
