# generated using pymatgen
data_Mg32Ti42(Bi17O64)3
_symmetry_space_group_name_H-M   'P 1'
_cell_length_a   15.95547654
_cell_length_b   15.90825219
_cell_length_c   15.92251954
_cell_angle_alpha   90.11967992
_cell_angle_beta   90.07575241
_cell_angle_gamma   90.09144546
_symmetry_Int_Tables_number   1
_chemical_formula_structural   Mg32Ti42(Bi17O64)3
_chemical_formula_sum   'Mg32 Ti42 Bi51 O192'
_cell_volume   4041.49601748
_cell_formula_units_Z   1
loop_
 _symmetry_equiv_pos_site_id
 _symmetry_equiv_pos_as_xyz
  1  'x, y, z'
loop_
 _atom_site_type_symbol
 _atom_site_label
 _atom_site_symmetry_multiplicity
 _atom_site_fract_x
 _atom_site_fract_y
 _atom_site_fract_z
 _atom_site_occupancy
  Mg  Mg0  1  0.62685709  0.62314722  0.36736601  1
  Mg  Mg1  1  0.36701217  0.36565384  0.86729342  1
  Mg  Mg2  1  0.88101021  0.62549181  0.62816602  1
  Mg  Mg3  1  0.36722703  0.12399285  0.63188833  1
  Mg  Mg4  1  0.87748922  0.88321488  0.63081516  1
  Mg  Mg5  1  0.87434820  0.37982327  0.87374371  1
  Mg  Mg6  1  0.38362312  0.61899872  0.12689262  1
  Mg  Mg7  1  0.86979353  0.12463456  0.88020482  1
  Mg  Mg8  1  0.87036179  0.13633324  0.37737278  1
  Mg  Mg9  1  0.61399603  0.11616667  0.36904152  1
  Mg  Mg10  1  0.62879329  0.37145105  0.37633932  1
  Mg  Mg11  1  0.63006329  0.85988951  0.13295008  1
  Mg  Mg12  1  0.88490806  0.61721105  0.37246556  1
  Mg  Mg13  1  0.87048884  0.37823327  0.12936813  1
  Mg  Mg14  1  0.13071368  0.37269750  0.87008787  1
  Mg  Mg15  1  0.62294345  0.61856271  0.63028459  1
  Mg  Mg16  1  0.61778405  0.87300913  0.63300946  1
  Mg  Mg17  1  0.12762294  0.38063560  0.12953040  1
  Mg  Mg18  1  0.11888540  0.86850890  0.86729293  1
  Mg  Mg19  1  0.45473515  0.75620722  0.20574574  1
  Mg  Mg20  1  0.52246106  -0.01709676  0.20104657  1
  Mg  Mg21  1  0.23647504  0.03716126  -0.00088652  1
  Mg  Mg22  1  0.77282420  0.53476133  0.75001187  1
  Mg  Mg23  1  0.22320667  0.72709620  0.52763925  1
  Mg  Mg24  1  0.45117898  -0.01013902  -0.04207675  1
  Mg  Mg25  1  0.25203034  0.70275686  0.23847831  1
  Mg  Mg26  1  0.24907444  0.28199967  0.69893073  1
  Mg  Mg27  1  0.05994717  0.22600087  0.44254780  1
  Mg  Mg28  1  0.18401199  0.02780127  0.46178498  1
  Mg  Mg29  1  0.26112111  0.70582074  0.03623105  1
  Mg  Mg30  1  0.24947806  0.51406764  0.52177073  1
  Mg  Mg31  1  0.27172448  0.72114357  0.73911124  1
  Ti  Ti32  1  0.37562107  0.86866875  0.36745151  1
  Ti  Ti33  1  0.34680034  0.86293147  0.86364435  1
  Ti  Ti34  1  0.38147713  0.11303215  0.38288558  1
  Ti  Ti35  1  0.14039868  0.38809653  0.39049289  1
  Ti  Ti36  1  0.88800598  0.13379099  0.12020272  1
  Ti  Ti37  1  0.87549027  0.37981742  0.63413016  1
  Ti  Ti38  1  0.87445212  0.62773527  0.87517643  1
  Ti  Ti39  1  0.37949448  0.38150900  0.37933412  1
  Ti  Ti40  1  0.37129611  0.64405946  0.37414209  1
  Ti  Ti41  1  0.13311372  0.88724878  0.60331501  1
  Ti  Ti42  1  0.37300990  0.62377213  0.61225490  1
  Ti  Ti43  1  0.38409295  0.62812318  0.87237089  1
  Ti  Ti44  1  0.12297582  0.14379316  0.63186956  1
  Ti  Ti45  1  0.86734626  0.13221112  0.63920920  1
  Ti  Ti46  1  0.86552589  0.61989693  0.12738595  1
  Ti  Ti47  1  0.37310989  0.87958574  0.11830497  1
  Ti  Ti48  1  0.61646352  0.62987586  0.12635592  1
  Ti  Ti49  1  0.61887386  0.11738982  0.12900540  1
  Ti  Ti50  1  0.62749285  0.37240345  0.61379627  1
  Ti  Ti51  1  0.12108504  0.62596789  0.62857923  1
  Ti  Ti52  1  0.61754140  0.87672077  0.35908153  1
  Ti  Ti53  1  0.37814440  0.11250913  0.11940939  1
  Ti  Ti54  1  0.14574804  0.63772694  0.87717986  1
  Ti  Ti55  1  0.87433020  0.87981074  0.87511390  1
  Ti  Ti56  1  0.63475657  0.87720761  0.87285897  1
  Ti  Ti57  1  0.63282811  0.37027092  0.12901265  1
  Ti  Ti58  1  0.12956813  0.61948979  0.12391686  1
  Ti  Ti59  1  0.37989959  0.38047167  0.61694738  1
  Ti  Ti60  1  0.15179609  0.87853466  0.12223149  1
  Ti  Ti61  1  0.36394373  0.12429972  0.87443206  1
  Ti  Ti62  1  0.61992537  0.10908309  0.87014631  1
  Ti  Ti63  1  0.13586658  0.62646444  0.38370944  1
  Ti  Ti64  1  0.35884698  0.87302615  0.61047378  1
  Ti  Ti65  1  0.62540600  0.63545796  0.88281520  1
  Ti  Ti66  1  0.37865065  0.36751663  0.12961946  1
  Ti  Ti67  1  0.13100141  0.13015782  0.12617090  1
  Ti  Ti68  1  0.12324590  0.12949040  0.87399453  1
  Ti  Ti69  1  0.61987393  0.11378339  0.62489511  1
  Ti  Ti70  1  0.87335136  0.37018150  0.38496667  1
  Ti  Ti71  1  0.12183638  0.37992389  0.61951332  1
  Ti  Ti72  1  0.14794541  0.86013948  0.37272951  1
  Ti  Ti73  1  0.88462364  0.88108707  0.12346077  1
  Bi  Bi74  1  0.50742387  0.27529617  0.75546650  1
  Bi  Bi75  1  -0.00676471  0.28269831  0.01315665  1
  Bi  Bi76  1  0.02945637  -0.01088287  0.00213435  1
  Bi  Bi77  1  0.47368932  0.00373136  0.73503107  1
  Bi  Bi78  1  0.27350584  0.49684805  0.25232155  1
  Bi  Bi79  1  0.74745583  0.23277826  0.26346105  1
  Bi  Bi80  1  0.02248775  0.76009275  0.24568576  1
  Bi  Bi81  1  0.51315141  0.23667440  0.25496430  1
  Bi  Bi82  1  0.23797075  0.01660478  0.26726924  1
  Bi  Bi83  1  0.28035111  0.48899232  -0.00766177  1
  Bi  Bi84  1  0.75447068  0.23567584  -0.00558293  1
  Bi  Bi85  1  0.75325062  0.77921096  0.48497465  1
  Bi  Bi86  1  0.73018738  0.27031827  0.78102639  1
  Bi  Bi87  1  0.25422172  0.48661518  0.74532286  1
  Bi  Bi88  1  0.26011191  0.23938439  0.26940577  1
  Bi  Bi89  1  -0.00259833  0.01260901  0.76825145  1
  Bi  Bi90  1  0.02347141  0.50784135  0.77438060  1
  Bi  Bi91  1  -0.01990085  0.25508546  0.78003497  1
  Bi  Bi92  1  0.00565790  0.75465888  -0.00543775  1
  Bi  Bi93  1  0.47688432  0.75796621  0.72586727  1
  Bi  Bi94  1  0.73969692  -0.01711654  0.73168541  1
  Bi  Bi95  1  0.50089305  -0.02281719  0.48610444  1
  Bi  Bi96  1  0.79020317  0.76404651  0.26649065  1
  Bi  Bi97  1  0.26856162  0.23402206  0.50618609  1
  Bi  Bi98  1  0.51914500  0.52164095  0.49603347  1
  Bi  Bi99  1  0.51853458  0.48626714  0.25821940  1
  Bi  Bi100  1  0.74561102  0.50314772  0.26489037  1
  Bi  Bi101  1  0.50994750  0.23352285  0.51262470  1
  Bi  Bi102  1  -0.01033254  0.50923797  0.01711908  1
  Bi  Bi103  1  0.78705242  0.01363589  0.25138042  1
  Bi  Bi104  1  0.02239567  0.03466674  0.26742044  1
  Bi  Bi105  1  0.77299703  -0.01072264  0.46680941  1
  Bi  Bi106  1  0.52336113  0.47646516  -0.00900929  1
  Bi  Bi107  1  0.75971218  0.52804068  0.50700974  1
  Bi  Bi108  1  -0.01264860  0.49928138  0.50508705  1
  Bi  Bi109  1  0.49492644  0.78226507  -0.00815202  1
  Bi  Bi110  1  0.00537922  0.48620423  0.25456189  1
  Bi  Bi111  1  -0.01148434  0.04047615  0.50035794  1
  Bi  Bi112  1  0.73583515  -0.01976378  0.02540336  1
  Bi  Bi113  1  0.51311444  0.23439316  -0.01642370  1
  Bi  Bi114  1  0.75529274  0.75316735  0.01193099  1
  Bi  Bi115  1  0.53406074  0.74543066  0.48476872  1
  Bi  Bi116  1  0.74128234  0.73895462  0.71772533  1
  Bi  Bi117  1  0.22645115  -0.00737348  0.74361993  1
  Bi  Bi118  1  0.00281075  0.27437551  0.25332091  1
  Bi  Bi119  1  0.75138939  0.49912353  -0.02907485  1
  Bi  Bi120  1  0.23496144  0.27594993  0.01289320  1
  Bi  Bi121  1  0.75881473  0.23934352  0.52251707  1
  Bi  Bi122  1  -0.02364150  0.77168683  0.46763280  1
  Bi  Bi123  1  0.54653344  0.48709867  0.77290124  1
  Bi  Bi124  1  0.00602566  0.77418934  0.70811554  1
  O  O125  1  0.12445741  0.11067863  -0.00364141  1
  O  O126  1  0.12378753  0.13157319  0.24669673  1
  O  O127  1  0.11788711  0.12666274  0.51017371  1
  O  O128  1  0.12380424  0.09942013  0.74698372  1
  O  O129  1  0.10771466  0.36204046  -0.00148253  1
  O  O130  1  0.10686097  0.37585444  0.26633929  1
  O  O131  1  0.09780920  0.38350995  0.50040549  1
  O  O132  1  0.16187313  0.37410814  0.73889239  1
  O  O133  1  0.15802063  0.62347290  -0.00494809  1
  O  O134  1  0.12592755  0.65917961  0.23975923  1
  O  O135  1  0.16049693  0.60813110  0.49513707  1
  O  O136  1  0.11891071  0.63707678  0.74383248  1
  O  O137  1  0.15268924  0.93324761  0.01448700  1
  O  O138  1  0.14242170  0.83593225  0.24732214  1
  O  O139  1  0.13308148  0.90959473  0.48524799  1
  O  O140  1  0.12730328  0.88751805  0.73427718  1
  O  O141  1  0.36411137  0.07836021  -0.00040770  1
  O  O142  1  0.36211075  0.13814090  0.24970639  1
  O  O143  1  0.36960608  0.12640203  0.50074389  1
  O  O144  1  0.38905402  0.12510778  0.76066226  1
  O  O145  1  0.39202091  0.39932101  0.01102987  1
  O  O146  1  0.33005051  0.36214686  0.25317048  1
  O  O147  1  0.39529217  0.38506805  0.49453963  1
  O  O148  1  0.33743627  0.36755983  0.73816334  1
  O  O149  1  0.36122309  0.62803196  -0.00656038  1
  O  O150  1  0.37851648  0.66720016  0.25750242  1
  O  O151  1  0.34117366  0.61067363  0.49725045  1
  O  O152  1  0.37714952  0.64635546  0.74508380  1
  O  O153  1  0.38399896  0.88602954  0.00064504  1
  O  O154  1  0.39695428  0.85822712  0.25703129  1
  O  O155  1  0.37610931  0.89999753  0.50340224  1
  O  O156  1  0.34532014  0.82908898  0.74666864  1
  O  O157  1  0.62932948  0.15753480  0.00608532  1
  O  O158  1  0.57625976  0.09850327  0.23920284  1
  O  O159  1  0.61724514  0.14089321  0.50601603  1
  O  O160  1  0.61589981  0.09572104  0.75559199  1
  O  O161  1  0.58682267  0.35456384  0.01629505  1
  O  O162  1  0.63652851  0.40753090  0.24731623  1
  O  O163  1  0.60507634  0.33902139  0.49888216  1
  O  O164  1  0.62286565  0.36925214  0.74013925  1
  O  O165  1  0.60790003  0.63391845  0.00032744  1
  O  O166  1  0.63059383  0.59146333  0.24359194  1
  O  O167  1  0.61663143  0.62283467  0.49975369  1
  O  O168  1  0.65814259  0.59554979  0.75969444  1
  O  O169  1  0.66381581  0.86326425  0.00326431  1
  O  O170  1  0.60138890  0.89631894  0.25048313  1
  O  O171  1  0.62918051  0.85402718  0.50843282  1
  O  O172  1  0.61436701  0.89967379  0.76217054  1
  O  O173  1  0.85343405  0.11785354  0.00763074  1
  O  O174  1  0.87444980  0.13083834  0.24551010  1
  O  O175  1  0.85847626  0.10269777  0.50577276  1
  O  O176  1  0.87394145  0.15655418  0.75085115  1
  O  O177  1  0.90616701  0.39350930  0.00028189  1
  O  O178  1  0.89368173  0.36542229  0.25944558  1
  O  O179  1  0.87678246  0.40576222  0.50340138  1
  O  O180  1  0.86222928  0.34394629  0.74560567  1
  O  O181  1  0.87673076  0.58767777  0.00009113  1
  O  O182  1  0.87565963  0.64584670  0.24518069  1
  O  O183  1  0.88137498  0.59467942  0.50122388  1
  O  O184  1  0.85861199  0.63024331  0.76000224  1
  O  O185  1  0.84442386  0.88066178  0.00216453  1
  O  O186  1  0.89153116  0.84820082  0.23827032  1
  O  O187  1  0.84987053  0.88104035  0.50677458  1
  O  O188  1  0.91568334  0.86644117  0.76316524  1
  O  O189  1  0.00340087  0.13799894  0.11866061  1
  O  O190  1  -0.00504432  0.13002465  0.39454099  1
  O  O191  1  -0.00691516  0.10869841  0.62349670  1
  O  O192  1  0.00045871  0.12467124  0.85585638  1
  O  O193  1  0.00323872  0.35576087  0.13682448  1
  O  O194  1  -0.00771141  0.32004257  0.38611305  1
  O  O195  1  -0.00649746  0.40314030  0.63449630  1
  O  O196  1  0.00426727  0.39114707  0.84368664  1
  O  O197  1  0.01225450  0.63785475  0.10464785  1
  O  O198  1  0.01754010  0.66738659  0.38083944  1
  O  O199  1  0.00729950  0.59678607  0.61647918  1
  O  O200  1  -0.01010516  0.59020482  0.88129313  1
  O  O201  1  0.00394300  0.85996013  0.10282454  1
  O  O202  1  0.02467141  0.84410972  0.36354763  1
  O  O203  1  0.01158647  0.88303509  0.61288950  1
  O  O204  1  -0.00420611  0.87442312  0.92166301  1
  O  O205  1  0.24609032  0.09926497  0.11411007  1
  O  O206  1  0.25794366  0.09730176  0.38091688  1
  O  O207  1  0.24105390  0.16456264  0.64210158  1
  O  O208  1  0.24606551  0.09838560  0.87976860  1
  O  O209  1  0.24981222  0.38643193  0.09692954  1
  O  O210  1  0.24554662  0.42795906  0.40902193  1
  O  O211  1  0.23763184  0.35240207  0.59136281  1
  O  O212  1  0.25153373  0.37888921  0.91068611  1
  O  O213  1  0.25256735  0.62602566  0.13721470  1
  O  O214  1  0.24897112  0.61870066  0.34116916  1
  O  O215  1  0.25026870  0.65521815  0.63381746  1
  O  O216  1  0.25305685  0.66581516  0.85377822  1
  O  O217  1  0.26146830  0.90991256  0.14218095  1
  O  O218  1  0.26199915  0.90768868  0.36060136  1
  O  O219  1  0.24492123  0.83595554  0.59929468  1
  O  O220  1  0.24046058  0.86603514  0.87897085  1
  O  O221  1  0.48857707  0.15329793  0.10581678  1
  O  O222  1  0.49170478  0.15949836  0.38279982  1
  O  O223  1  0.49831483  0.09368085  0.62477747  1
  O  O224  1  0.50162648  0.09637089  0.90129756  1
  O  O225  1  0.48920182  0.36213270  0.16322812  1
  O  O226  1  0.48784100  0.36250958  0.34446423  1
  O  O227  1  0.49016684  0.38808990  0.64312588  1
  O  O228  1  0.48843503  0.38586015  0.84925029  1
  O  O229  1  0.50562254  0.65912652  0.13912999  1
  O  O230  1  0.48597299  0.63067317  0.39743192  1
  O  O231  1  0.48838293  0.60178852  0.61824622  1
  O  O232  1  0.50102501  0.60902015  0.86296320  1
  O  O233  1  0.49893437  0.85085124  0.12312495  1
  O  O234  1  0.49925329  0.86303981  0.40115602  1
  O  O235  1  0.48471817  0.88424065  0.64511753  1
  O  O236  1  0.52524821  0.89373950  0.91615685  1
  O  O237  1  0.73590778  0.11644282  0.14983041  1
  O  O238  1  0.73862856  0.11528448  0.34337863  1
  O  O239  1  0.74199717  0.14994533  0.63440206  1
  O  O240  1  0.74086424  0.15697955  0.87598988  1
  O  O241  1  0.74363042  0.38148632  0.10951290  1
  O  O242  1  0.75816066  0.40894861  0.37370322  1
  O  O243  1  0.74154912  0.35104818  0.60969940  1
  O  O244  1  0.75054919  0.34071723  0.89572753  1
  O  O245  1  0.75529379  0.59554819  0.11698444  1
  O  O246  1  0.75398015  0.59257331  0.37549907  1
  O  O247  1  0.75158560  0.64396804  0.61201338  1
  O  O248  1  0.74617168  0.63078227  0.90638891  1
  O  O249  1  0.75799077  0.89378532  0.14348802  1
  O  O250  1  0.73877503  0.86919476  0.37087005  1
  O  O251  1  0.75089222  0.86433224  0.65672603  1
  O  O252  1  0.75994943  0.85891945  0.85122994  1
  O  O253  1  0.10207054  -0.00330343  0.15702164  1
  O  O254  1  0.12361303  -0.00922447  0.34770756  1
  O  O255  1  0.16649021  0.00046219  0.61583557  1
  O  O256  1  0.09270383  -0.00460887  0.87076257  1
  O  O257  1  0.14752667  0.24554470  0.12457552  1
  O  O258  1  0.16452754  0.27164027  0.38802331  1
  O  O259  1  0.09972610  0.25532824  0.63682756  1
  O  O260  1  0.12305284  0.24164314  0.86386431  1
  O  O261  1  0.11971184  0.50742672  0.13983325  1
  O  O262  1  0.10143447  0.51286787  0.36469516  1
  O  O263  1  0.15454972  0.49960215  0.62350511  1
  O  O264  1  0.13917013  0.51204691  0.85186261  1
  O  O265  1  0.15693813  0.76873209  0.08449113  1
  O  O266  1  0.16986063  0.75376801  0.41056780  1
  O  O267  1  0.10545712  0.74084817  0.59379338  1
  O  O268  1  0.09406806  0.74322430  0.88081740  1
  O  O269  1  0.40989209  0.00305948  0.14814025  1
  O  O270  1  0.41404897  0.00297221  0.37511565  1
  O  O271  1  0.35023952  -0.01265689  0.65732387  1
  O  O272  1  0.37947011  -0.02398939  0.85068776  1
  O  O273  1  0.34766563  0.25113665  0.11257322  1
  O  O274  1  0.34385693  0.26001110  0.38139819  1
  O  O275  1  0.37463552  0.25862736  0.61071900  1
  O  O276  1  0.37148142  0.23555495  0.89481477  1
  O  O277  1  0.37550079  0.49526966  0.15546411  1
  O  O278  1  0.38143481  0.50048793  0.34230268  1
  O  O279  1  0.33782829  0.49850656  0.62071718  1
  O  O280  1  0.35033260  0.51279803  0.86556189  1
  O  O281  1  0.35160876  0.76377592  0.11677720  1
  O  O282  1  0.35842162  0.75727599  0.40056955  1
  O  O283  1  0.39990863  0.74653842  0.60770152  1
  O  O284  1  0.40496751  0.75648791  0.88435535  1
  O  O285  1  0.60802417  0.00390626  0.10262144  1
  O  O286  1  0.60939735  -0.00864310  0.39728746  1
  O  O287  1  0.65243644  0.00105118  0.61837556  1
  O  O288  1  0.66126601  -0.00009585  0.89745894  1
  O  O289  1  0.62784721  0.25234280  0.15893645  1
  O  O290  1  0.63105008  0.24823489  0.33721396  1
  O  O291  1  0.59053338  0.24223074  0.63992235  1
  O  O292  1  0.59489777  0.23471643  0.85511305  1
  O  O293  1  0.59794530  0.49596898  0.10638459  1
  O  O294  1  0.59462687  0.49538361  0.38275697  1
  O  O295  1  0.62609664  0.48750089  0.59971599  1
  O  O296  1  0.62616606  0.49964761  0.89324902  1
  O  O297  1  0.66458337  0.73735341  0.13160779  1
  O  O298  1  0.62320207  0.74954287  0.37641097  1
  O  O299  1  0.61169220  0.74460276  0.65702556  1
  O  O300  1  0.61490474  0.75172167  0.86873063  1
  O  O301  1  0.89234749  -0.00212263  0.14022511  1
  O  O302  1  0.86869512  0.00343516  0.36929409  1
  O  O303  1  0.85428160  0.00975712  0.65200725  1
  O  O304  1  0.87881195  -0.00389644  0.86094683  1
  O  O305  1  0.86744132  0.24839729  0.11364969  1
  O  O306  1  0.83231118  0.25704190  0.38748309  1
  O  O307  1  0.87537908  0.25016992  0.59581920  1
  O  O308  1  0.90301907  0.25471996  0.89259415  1
  O  O309  1  0.90599572  0.50447329  0.13976181  1
  O  O310  1  0.92060675  0.49249537  0.36625072  1
  O  O311  1  0.83621370  0.49066496  0.64878684  1
  O  O312  1  0.82973501  0.49750196  0.85751254  1
  O  O313  1  0.86460558  0.74256516  0.10290116  1
  O  O314  1  0.85970226  0.74279954  0.39083445  1
  O  O315  1  0.89565347  0.75266354  0.63060630  1
  O  O316  1  0.88773267  0.74064907  0.90380622  1
