# generated using pymatgen
data_Mg32Ti42(Bi17O64)3
_symmetry_space_group_name_H-M   'P 1'
_cell_length_a   15.93548515
_cell_length_b   15.90840499
_cell_length_c   15.93493770
_cell_angle_alpha   90.03935527
_cell_angle_beta   89.99405809
_cell_angle_gamma   90.16106185
_symmetry_Int_Tables_number   1
_chemical_formula_structural   Mg32Ti42(Bi17O64)3
_chemical_formula_sum   'Mg32 Ti42 Bi51 O192'
_cell_volume   4039.61966678
_cell_formula_units_Z   1
loop_
 _symmetry_equiv_pos_site_id
 _symmetry_equiv_pos_as_xyz
  1  'x, y, z'
loop_
 _atom_site_type_symbol
 _atom_site_label
 _atom_site_symmetry_multiplicity
 _atom_site_fract_x
 _atom_site_fract_y
 _atom_site_fract_z
 _atom_site_occupancy
  Mg  Mg0  1  0.38486091  0.37609763  0.88230411  1
  Mg  Mg1  1  0.13375212  0.63071994  0.87013446  1
  Mg  Mg2  1  0.14205086  0.62026733  0.38928620  1
  Mg  Mg3  1  0.37838515  0.62174909  0.12478355  1
  Mg  Mg4  1  0.12746569  0.37610745  0.61376051  1
  Mg  Mg5  1  0.87231177  0.62817129  0.36541740  1
  Mg  Mg6  1  0.62040186  0.87582904  0.63371027  1
  Mg  Mg7  1  0.12007535  0.87410282  0.87863665  1
  Mg  Mg8  1  0.12490780  0.36485036  0.13069640  1
  Mg  Mg9  1  0.37661185  0.12058094  0.63321671  1
  Mg  Mg10  1  0.87501725  0.12395174  0.38062966  1
  Mg  Mg11  1  0.13071268  0.12457824  0.11942405  1
  Mg  Mg12  1  0.12216365  0.37606763  0.88058927  1
  Mg  Mg13  1  0.12540881  0.88170488  0.37756479  1
  Mg  Mg14  1  0.62820991  0.12243312  0.88220554  1
  Mg  Mg15  1  0.62447474  0.62796506  0.38142031  1
  Mg  Mg16  1  0.63008267  0.62056820  0.11322971  1
  Mg  Mg17  1  0.38363816  0.12242455  0.37127648  1
  Mg  Mg18  1  0.88258939  0.87188515  0.62737210  1
  Mg  Mg19  1  -0.00506933  0.45768032  0.45582348  1
  Mg  Mg20  1  0.49426201  0.50176061  0.06597403  1
  Mg  Mg21  1  0.43341369  -0.03406109  0.79313056  1
  Mg  Mg22  1  0.51740792  0.77511055  0.74966633  1
  Mg  Mg23  1  0.45997871  0.79896335  -0.06474879  1
  Mg  Mg24  1  0.75952865  0.75573829  0.70053900  1
  Mg  Mg25  1  0.30036772  0.72608637  0.50977248  1
  Mg  Mg26  1  0.48204738  0.24207469  0.00508177  1
  Mg  Mg27  1  0.77444426  0.23061777  -0.01659642  1
  Mg  Mg28  1  0.67164203  0.79352993  0.03629432  1
  Mg  Mg29  1  0.22953216  0.54725218  0.19954529  1
  Mg  Mg30  1  0.01259314  0.21726282  0.21050584  1
  Mg  Mg31  1  0.71865103  -0.02310750  0.18529191  1
  Ti  Ti32  1  0.61960202  0.87558383  0.86746409  1
  Ti  Ti33  1  0.37660173  0.62365174  0.64197295  1
  Ti  Ti34  1  0.86345192  0.64020768  0.12535072  1
  Ti  Ti35  1  0.13437328  0.86866397  0.62095822  1
  Ti  Ti36  1  0.38245529  0.36732370  0.62853605  1
  Ti  Ti37  1  0.87836583  0.62605845  0.87614971  1
  Ti  Ti38  1  0.39481262  0.62799935  0.88336293  1
  Ti  Ti39  1  0.62360773  0.87365594  0.38066194  1
  Ti  Ti40  1  0.87206658  0.36110557  0.12553612  1
  Ti  Ti41  1  0.12996655  0.37287616  0.37222536  1
  Ti  Ti42  1  0.62370422  0.11878861  0.63848013  1
  Ti  Ti43  1  0.14067763  0.62334303  0.61648959  1
  Ti  Ti44  1  0.12502580  0.12226712  0.88244689  1
  Ti  Ti45  1  0.63020605  0.37386019  0.37616793  1
  Ti  Ti46  1  0.37957855  0.37822320  0.12840198  1
  Ti  Ti47  1  0.11155614  0.12912607  0.37612613  1
  Ti  Ti48  1  0.87129468  0.12487605  0.11282640  1
  Ti  Ti49  1  0.63037121  0.12230651  0.38249458  1
  Ti  Ti50  1  0.62646469  0.13904708  0.10914908  1
  Ti  Ti51  1  0.62762623  0.37322662  0.12623048  1
  Ti  Ti52  1  0.87021981  0.88265117  0.36585017  1
  Ti  Ti53  1  0.88638501  0.12131309  0.62465454  1
  Ti  Ti54  1  0.62465675  0.35784625  0.90532836  1
  Ti  Ti55  1  0.63310126  0.37515029  0.62743709  1
  Ti  Ti56  1  0.87138879  0.36685680  0.35779924  1
  Ti  Ti57  1  0.12485931  0.88532122  0.12557687  1
  Ti  Ti58  1  0.38107655  0.37534808  0.35961177  1
  Ti  Ti59  1  0.87886891  0.11876013  0.86800835  1
  Ti  Ti60  1  0.13232867  0.13128899  0.62041183  1
  Ti  Ti61  1  0.87499585  0.85297421  0.87727600  1
  Ti  Ti62  1  0.88141039  0.62488789  0.62875436  1
  Ti  Ti63  1  0.38018925  0.12544334  0.12515773  1
  Ti  Ti64  1  0.62770775  0.64513595  0.88589432  1
  Ti  Ti65  1  0.87393131  0.87211795  0.12242675  1
  Ti  Ti66  1  0.36916108  0.86995330  0.62715766  1
  Ti  Ti67  1  0.38075683  0.62064711  0.37209587  1
  Ti  Ti68  1  0.87504449  0.38240152  0.63298353  1
  Ti  Ti69  1  0.37837473  0.87906226  0.13621316  1
  Ti  Ti70  1  0.63030519  0.62940041  0.63079325  1
  Ti  Ti71  1  0.38867917  0.12816355  0.87573446  1
  Ti  Ti72  1  0.87439690  0.37454156  0.87365229  1
  Ti  Ti73  1  0.38440619  0.87297539  0.37631213  1
  Bi  Bi74  1  -0.02011989  0.01430285  0.24589064  1
  Bi  Bi75  1  0.04094608  0.51691368  0.25756951  1
  Bi  Bi76  1  0.75420254  0.51909499  0.24778680  1
  Bi  Bi77  1  0.03767392  0.72530485  0.03516766  1
  Bi  Bi78  1  0.01699162  -0.01345625  0.51558886  1
  Bi  Bi79  1  0.74906411  0.21701277  0.25004371  1
  Bi  Bi80  1  0.50992324  0.73909709  0.21847143  1
  Bi  Bi81  1  0.52557002  -0.00113431  0.24958380  1
  Bi  Bi82  1  0.04447335  0.50255719  0.74608482  1
  Bi  Bi83  1  0.26119407  0.23649050  0.46899925  1
  Bi  Bi84  1  0.51491744  0.48247135  0.51249244  1
  Bi  Bi85  1  0.75956362  0.52477423  0.76013657  1
  Bi  Bi86  1  0.25128783  0.25132183  0.22488975  1
  Bi  Bi87  1  0.50431646  0.74031913  0.53206408  1
  Bi  Bi88  1  -0.01915871  0.50219613  0.03048001  1
  Bi  Bi89  1  0.27892613  0.47505782  0.50551637  1
  Bi  Bi90  1  0.00896109  0.25518566  0.00271673  1
  Bi  Bi91  1  0.00786486  -0.01038905  0.00053680  1
  Bi  Bi92  1  0.27192361  0.73973266  0.01857296  1
  Bi  Bi93  1  0.24135430  -0.01458839  0.25273876  1
  Bi  Bi94  1  0.24921251  0.27736307  0.76092256  1
  Bi  Bi95  1  0.21509669  0.52149131  0.01144666  1
  Bi  Bi96  1  0.78220975  0.50305419  0.48180837  1
  Bi  Bi97  1  0.76136183  0.23178783  0.52017107  1
  Bi  Bi98  1  0.52232211  -0.02783462  0.01863467  1
  Bi  Bi99  1  0.52120377  0.24211879  0.76590493  1
  Bi  Bi100  1  0.26595136  0.49303741  0.78400315  1
  Bi  Bi101  1  0.02796278  0.73187965  0.75237934  1
  Bi  Bi102  1  0.01441765  -0.01729500  0.75561042  1
  Bi  Bi103  1  0.26714881  0.26571756  -0.00898631  1
  Bi  Bi104  1  0.74799171  -0.02915269  0.51555991  1
  Bi  Bi105  1  0.73080090  0.77588093  0.24876840  1
  Bi  Bi106  1  0.50544983  0.23148154  0.26214298  1
  Bi  Bi107  1  0.02957827  0.74614449  0.26429621  1
  Bi  Bi108  1  0.01694262  0.74238178  0.47181413  1
  Bi  Bi109  1  0.23849867  0.01926589  0.74678655  1
  Bi  Bi110  1  -0.01523403  0.26755702  0.48989613  1
  Bi  Bi111  1  0.76356644  0.23294835  0.76431023  1
  Bi  Bi112  1  0.76125164  -0.01984381  -0.01799437  1
  Bi  Bi113  1  0.26167545  0.73063926  0.26708635  1
  Bi  Bi114  1  0.53505318  0.48842184  0.78229659  1
  Bi  Bi115  1  0.28877608  -0.02854234  -0.02090121  1
  Bi  Bi116  1  0.02257427  0.27144268  0.74759045  1
  Bi  Bi117  1  0.78428106  0.75166261  0.49794366  1
  Bi  Bi118  1  0.27242112  0.77076515  0.79426524  1
  Bi  Bi119  1  0.49300264  -0.00382036  0.51336668  1
  Bi  Bi120  1  0.74036791  0.49502326  0.00133841  1
  Bi  Bi121  1  0.49557273  0.22949776  0.51571826  1
  Bi  Bi122  1  0.76279983  -0.02383641  0.74128233  1
  Bi  Bi123  1  0.25600689  0.00982912  0.47737219  1
  Bi  Bi124  1  0.52530822  0.50791905  0.26476751  1
  O  O125  1  0.12693253  0.15340043  -0.00608422  1
  O  O126  1  0.08940352  0.11244952  0.26108478  1
  O  O127  1  0.15291465  0.14602431  0.50426845  1
  O  O128  1  0.11600137  0.09260061  0.74554220  1
  O  O129  1  0.11099633  0.34998248  0.00331505  1
  O  O130  1  0.12347834  0.40098796  0.25775805  1
  O  O131  1  0.08901598  0.37132203  0.49334622  1
  O  O132  1  0.12641105  0.37373485  0.74710291  1
  O  O133  1  0.11510252  0.62168915  -0.00723830  1
  O  O134  1  0.14198924  0.61028085  0.26124963  1
  O  O135  1  0.10457573  0.64273283  0.50655818  1
  O  O136  1  0.12658578  0.62337307  0.74194450  1
  O  O137  1  0.09230010  0.87639152  0.00500424  1
  O  O138  1  0.12938030  0.89599560  0.24801400  1
  O  O139  1  0.09399520  0.86258015  0.50246338  1
  O  O140  1  0.13340029  0.90836336  0.74269333  1
  O  O141  1  0.36264879  0.15722191  0.00565717  1
  O  O142  1  0.42013749  0.10825549  0.24495444  1
  O  O143  1  0.36699847  0.15120751  0.50161254  1
  O  O144  1  0.39530484  0.08706810  0.76299531  1
  O  O145  1  0.38919467  0.33397713  0.00413246  1
  O  O146  1  0.35606896  0.39593410  0.24715481  1
  O  O147  1  0.38565404  0.37918105  0.49411760  1
  O  O148  1  0.35859662  0.38935559  0.74394074  1
  O  O149  1  0.39783964  0.67839445  -0.00761419  1
  O  O150  1  0.33092379  0.61109205  0.24926624  1
  O  O151  1  0.40477241  0.65156982  0.48679988  1
  O  O152  1  0.35869535  0.60547763  0.75238175  1
  O  O153  1  0.37670375  0.86344590  0.01102757  1
  O  O154  1  0.35975151  0.91428553  0.25110361  1
  O  O155  1  0.37535555  0.83660071  0.48659457  1
  O  O156  1  0.34653917  0.89554492  0.73736434  1
  O  O157  1  0.66913695  0.15529864  0.00548348  1
  O  O158  1  0.60123106  0.12100783  0.25314521  1
  O  O159  1  0.63601102  0.14764016  0.49830528  1
  O  O160  1  0.59739457  0.11766151  0.74994648  1
  O  O161  1  0.58731723  0.32603987  0.00833050  1
  O  O162  1  0.63379145  0.40760886  0.24182473  1
  O  O163  1  0.60006820  0.36363446  0.48942913  1
  O  O164  1  0.63881576  0.39838282  0.73881358  1
  O  O165  1  0.63771910  0.67138830  -0.00485485  1
  O  O166  1  0.63772747  0.59095375  0.24463499  1
  O  O167  1  0.60601942  0.64645891  0.50951877  1
  O  O168  1  0.62743233  0.59162830  0.75000020  1
  O  O169  1  0.56842590  0.84519782  -0.01304083  1
  O  O170  1  0.65309467  0.89769781  0.26011890  1
  O  O171  1  0.62006405  0.87756879  0.50005543  1
  O  O172  1  0.64904452  0.89643312  0.75849498  1
  O  O173  1  0.85497896  0.11671661  -0.00470129  1
  O  O174  1  0.90948499  0.13972885  0.24435065  1
  O  O175  1  0.84682744  0.11730967  0.50979061  1
  O  O176  1  0.88575119  0.14494212  0.74742921  1
  O  O177  1  0.89747084  0.38786509  0.00148888  1
  O  O178  1  0.84892717  0.35492897  0.24633836  1
  O  O179  1  0.90067897  0.39171991  0.51333606  1
  O  O180  1  0.84667651  0.36293920  0.75510351  1
  O  O181  1  0.88478710  0.59738010  -0.00166027  1
  O  O182  1  0.84855936  0.63003430  0.23995759  1
  O  O183  1  0.86694683  0.62677904  0.50441249  1
  O  O184  1  0.84838670  0.63764564  0.75283569  1
  O  O185  1  0.88667862  0.89573910  -0.00439934  1
  O  O186  1  0.84085003  0.88412927  0.24159879  1
  O  O187  1  0.87164246  0.87467046  0.49513008  1
  O  O188  1  0.82849059  0.85352683  0.76420842  1
  O  O189  1  -0.01075813  0.14960913  0.10183869  1
  O  O190  1  0.00262949  0.14442007  0.40777682  1
  O  O191  1  0.00030447  0.11306087  0.60606159  1
  O  O192  1  -0.00443902  0.13229145  0.88329093  1
  O  O193  1  -0.01611965  0.32367950  0.13548759  1
  O  O194  1  -0.01133707  0.35200566  0.36775450  1
  O  O195  1  -0.01001128  0.37692005  0.65698302  1
  O  O196  1  -0.00906073  0.36447179  0.85820057  1
  O  O197  1  -0.01280309  0.63449859  0.12841895  1
  O  O198  1  -0.00446168  0.64771592  0.35646376  1
  O  O199  1  -0.00685327  0.62376811  0.64406752  1
  O  O200  1  -0.00864040  0.62235764  0.85012558  1
  O  O201  1  -0.01185780  0.85882891  0.14021286  1
  O  O202  1  -0.01387735  0.85054635  0.35240882  1
  O  O203  1  0.00389016  0.89661595  0.63919881  1
  O  O204  1  -0.01411956  0.86756383  0.84454957  1
  O  O205  1  0.26161554  0.12785978  0.15112800  1
  O  O206  1  0.25185969  0.11368031  0.37480226  1
  O  O207  1  0.24870101  0.12649923  0.65102345  1
  O  O208  1  0.24468695  0.09290745  0.87038719  1
  O  O209  1  0.25787995  0.34389607  0.11433598  1
  O  O210  1  0.24399024  0.38826782  0.39384794  1
  O  O211  1  0.25756088  0.37189697  0.59919831  1
  O  O212  1  0.25157952  0.37011463  0.87081282  1
  O  O213  1  0.25725785  0.62220487  0.09507103  1
  O  O214  1  0.26470408  0.65991433  0.39949489  1
  O  O215  1  0.25340608  0.63177547  0.59449456  1
  O  O216  1  0.26450968  0.66220040  0.89158884  1
  O  O217  1  0.24208278  0.90659753  0.12219703  1
  O  O218  1  0.25374662  0.90702437  0.37619061  1
  O  O219  1  0.24616158  0.87180930  0.59815146  1
  O  O220  1  0.24837346  0.86859678  0.89073864  1
  O  O221  1  0.51100426  0.15081638  0.09027853  1
  O  O222  1  0.50639945  0.16019198  0.38952629  1
  O  O223  1  0.50263431  0.11518350  0.59634947  1
  O  O224  1  0.49804510  0.16538554  0.89607452  1
  O  O225  1  0.49902013  0.39126779  0.13648223  1
  O  O226  1  0.49602715  0.36503521  0.34744254  1
  O  O227  1  0.49961726  0.39198484  0.62673081  1
  O  O228  1  0.50647455  0.36117364  0.85430270  1
  O  O229  1  0.50127563  0.61436094  0.13911291  1
  O  O230  1  0.49503047  0.63389868  0.33346517  1
  O  O231  1  0.49431264  0.64753731  0.64164492  1
  O  O232  1  0.50931573  0.60054241  0.88021484  1
  O  O233  1  0.49119606  0.87659213  0.14876298  1
  O  O234  1  0.50284522  0.87471409  0.35891627  1
  O  O235  1  0.49087796  0.85683612  0.64593370  1
  O  O236  1  0.50396947  0.87718622  0.83729056  1
  O  O237  1  0.75054106  0.10287836  0.15896171  1
  O  O238  1  0.74548492  0.12155546  0.35603348  1
  O  O239  1  0.74259232  0.14581534  0.64205289  1
  O  O240  1  0.75287842  0.12222960  0.85093764  1
  O  O241  1  0.74396498  0.39299641  0.10547689  1
  O  O242  1  0.74709347  0.39530793  0.38840160  1
  O  O243  1  0.74733294  0.36466924  0.60230371  1
  O  O244  1  0.74357372  0.35696468  0.92363882  1
  O  O245  1  0.75530435  0.58798628  0.11317711  1
  O  O246  1  0.74799875  0.58942122  0.37932727  1
  O  O247  1  0.74453268  0.63094010  0.62842810  1
  O  O248  1  0.74355563  0.61059976  0.87574097  1
  O  O249  1  0.74668882  0.89380878  0.09404941  1
  O  O250  1  0.74675859  0.89331844  0.39595754  1
  O  O251  1  0.75119601  0.87859499  0.62015750  1
  O  O252  1  0.73317391  0.85949377  0.91979327  1
  O  O253  1  0.09395432  0.00362255  0.11362172  1
  O  O254  1  0.11466239  0.00850978  0.40578142  1
  O  O255  1  0.13021066  0.00332933  0.59241525  1
  O  O256  1  0.09754849  0.00129201  0.88785396  1
  O  O257  1  0.12828659  0.24252123  0.16290854  1
  O  O258  1  0.14368984  0.25133290  0.36532301  1
  O  O259  1  0.11264741  0.24522486  0.63960065  1
  O  O260  1  0.13535442  0.23802123  0.84281403  1
  O  O261  1  0.14301209  0.49119692  0.12123207  1
  O  O262  1  0.09067826  0.49829892  0.38624235  1
  O  O263  1  0.12668888  0.50601420  0.62737377  1
  O  O264  1  0.13555230  0.50271334  0.86310144  1
  O  O265  1  0.13449220  0.76243924  0.12474254  1
  O  O266  1  0.11952661  0.75440205  0.37015860  1
  O  O267  1  0.12170775  0.75408790  0.64361432  1
  O  O268  1  0.12377375  0.75420870  0.84781923  1
  O  O269  1  0.38385717  0.00799487  0.10368310  1
  O  O270  1  0.39352650  -0.00107869  0.41060059  1
  O  O271  1  0.37886283  -0.01145843  0.59251458  1
  O  O272  1  0.40049940  0.01012457  0.90881710  1
  O  O273  1  0.38645031  0.24846182  0.15831917  1
  O  O274  1  0.36004808  0.25829823  0.36056212  1
  O  O275  1  0.39333897  0.25396417  0.63899364  1
  O  O276  1  0.34803144  0.23986052  0.85453827  1
  O  O277  1  0.37138307  0.49173818  0.09225317  1
  O  O278  1  0.37891425  0.50635776  0.38947176  1
  O  O279  1  0.37718030  0.51043066  0.60442779  1
  O  O280  1  0.35564705  0.50905278  0.88846189  1
  O  O281  1  0.35653479  0.76008625  0.15021174  1
  O  O282  1  0.37810428  0.76157452  0.33149272  1
  O  O283  1  0.36084911  0.74694915  0.62642081  1
  O  O284  1  0.41000716  0.73974884  0.83298745  1
  O  O285  1  0.61024759  0.01549029  0.12281427  1
  O  O286  1  0.60165704  0.00932946  0.38421935  1
  O  O287  1  0.63696359  0.00600949  0.61575980  1
  O  O288  1  0.62107064  -0.00610935  0.91502431  1
  O  O289  1  0.63891266  0.25378523  0.15738471  1
  O  O290  1  0.64017955  0.25952312  0.34548658  1
  O  O291  1  0.60447030  0.25498634  0.63778250  1
  O  O292  1  0.63564443  0.25367628  0.84176374  1
  O  O293  1  0.61670577  0.49136798  0.07277722  1
  O  O294  1  0.59534643  0.49672691  0.38640019  1
  O  O295  1  0.62501708  0.50023707  0.59651628  1
  O  O296  1  0.62521348  0.47737677  0.88889601  1
  O  O297  1  0.63383386  0.74533306  0.15054117  1
  O  O298  1  0.63716131  0.75682060  0.35610924  1
  O  O299  1  0.63039084  0.74748467  0.65965014  1
  O  O300  1  0.60796854  0.74917150  0.84248679  1
  O  O301  1  0.89009445  0.00420931  0.12816931  1
  O  O302  1  0.89825794  -0.00233309  0.36574773  1
  O  O303  1  0.86493073  0.00427389  0.64025801  1
  O  O304  1  0.86560642  -0.00250794  0.85922673  1
  O  O305  1  0.83358261  0.24508248  0.10046060  1
  O  O306  1  0.85781158  0.25663407  0.40356012  1
  O  O307  1  0.87664076  0.25106760  0.60885170  1
  O  O308  1  0.85803693  0.24703128  0.88563039  1
  O  O309  1  0.90165398  0.48189192  0.13918478  1
  O  O310  1  0.88889725  0.49041373  0.38239361  1
  O  O311  1  0.86037740  0.50158697  0.64089906  1
  O  O312  1  0.86264264  0.49337510  0.86300079  1
  O  O313  1  0.84711314  0.75333801  0.11263178  1
  O  O314  1  0.84536393  0.75490225  0.37519674  1
  O  O315  1  0.86341755  0.74719130  0.62121364  1
  O  O316  1  0.87593143  0.74160654  0.89836687  1
