# generated using pymatgen
data_Mg32Ti42(Bi17O64)3
_symmetry_space_group_name_H-M   'P 1'
_cell_length_a   15.92373358
_cell_length_b   15.94276898
_cell_length_c   15.95844535
_cell_angle_alpha   89.96749906
_cell_angle_beta   90.02320758
_cell_angle_gamma   90.00387902
_symmetry_Int_Tables_number   1
_chemical_formula_structural   Mg32Ti42(Bi17O64)3
_chemical_formula_sum   'Mg32 Ti42 Bi51 O192'
_cell_volume   4051.34408480
_cell_formula_units_Z   1
loop_
 _symmetry_equiv_pos_site_id
 _symmetry_equiv_pos_as_xyz
  1  'x, y, z'
loop_
 _atom_site_type_symbol
 _atom_site_label
 _atom_site_symmetry_multiplicity
 _atom_site_fract_x
 _atom_site_fract_y
 _atom_site_fract_z
 _atom_site_occupancy
  Mg  Mg0  1  0.13353993  0.87419486  0.62554668  1
  Mg  Mg1  1  0.86645894  0.87018895  0.88191023  1
  Mg  Mg2  1  0.37224261  0.62962544  0.87344483  1
  Mg  Mg3  1  0.86662484  0.12517619  0.86204536  1
  Mg  Mg4  1  0.63216974  0.87554695  0.36810113  1
  Mg  Mg5  1  0.11843759  0.13470258  0.63129217  1
  Mg  Mg6  1  0.62418871  0.13655144  0.87208403  1
  Mg  Mg7  1  0.62620431  0.12740118  0.12046750  1
  Mg  Mg8  1  0.13067084  0.38112951  0.87373076  1
  Mg  Mg9  1  0.87827771  0.37064766  0.38129106  1
  Mg  Mg10  1  0.38072870  0.62415737  0.12849314  1
  Mg  Mg11  1  0.12102270  0.62275417  0.12837893  1
  Mg  Mg12  1  0.64043432  0.37444808  0.62853605  1
  Mg  Mg13  1  0.38111621  0.61130540  0.37969742  1
  Mg  Mg14  1  0.37791752  0.87868886  0.63311567  1
  Mg  Mg15  1  0.13649088  0.38161473  0.37666410  1
  Mg  Mg16  1  0.12834848  0.87756555  0.88358576  1
  Mg  Mg17  1  0.37206588  0.12273075  0.37380599  1
  Mg  Mg18  1  0.61470892  0.87460283  0.87677069  1
  Mg  Mg19  1  0.50415338  0.45725887  0.54106656  1
  Mg  Mg20  1  0.51815228  0.68611359  0.78580013  1
  Mg  Mg21  1  0.51434794  0.49587524  0.23661691  1
  Mg  Mg22  1  0.77437507  0.30652778  0.79854243  1
  Mg  Mg23  1  0.75686718  -0.01421072  0.20078639  1
  Mg  Mg24  1  0.56834236  0.53328240  -0.03464087  1
  Mg  Mg25  1  0.21014193  0.24294887  0.80571351  1
  Mg  Mg26  1  0.48363314  0.50840747  0.80730923  1
  Mg  Mg27  1  -0.06745699  0.47877182  0.77236102  1
  Mg  Mg28  1  0.72962551  0.45730251  0.49712624  1
  Mg  Mg29  1  0.03066996  0.28895500  0.50081948  1
  Mg  Mg30  1  0.24281331  0.05314709  -0.03056754  1
  Mg  Mg31  1  0.74714677  0.05485091  -0.03000233  1
  Ti  Ti32  1  0.37448287  0.88830725  0.88083161  1
  Ti  Ti33  1  0.61028696  0.86205677  0.62852382  1
  Ti  Ti34  1  0.62305827  0.61131710  0.14071825  1
  Ti  Ti35  1  0.62347311  0.11075039  0.37732695  1
  Ti  Ti36  1  0.38268331  0.87098286  0.12772582  1
  Ti  Ti37  1  0.12609222  0.37993282  0.12971374  1
  Ti  Ti38  1  0.87120229  0.88721088  0.36709673  1
  Ti  Ti39  1  0.37822660  0.11613998  0.12596069  1
  Ti  Ti40  1  0.88251117  0.63017043  0.87596577  1
  Ti  Ti41  1  0.87003298  0.86706581  0.12179721  1
  Ti  Ti42  1  0.37857517  0.38340275  0.38141330  1
  Ti  Ti43  1  0.13800755  0.87602540  0.12555897  1
  Ti  Ti44  1  0.10213980  0.11820412  0.87357126  1
  Ti  Ti45  1  0.41122592  0.60965214  0.62391067  1
  Ti  Ti46  1  0.61387634  0.37647518  0.89193191  1
  Ti  Ti47  1  0.63687975  0.87468974  0.11697857  1
  Ti  Ti48  1  0.87271673  0.13877686  0.62750389  1
  Ti  Ti49  1  0.11170795  0.63032177  0.63308156  1
  Ti  Ti50  1  0.88224021  0.36395422  0.13621980  1
  Ti  Ti51  1  0.61077444  0.38350239  0.37542658  1
  Ti  Ti52  1  0.12714968  0.62495178  0.38234865  1
  Ti  Ti53  1  0.63289827  0.37038259  0.13429350  1
  Ti  Ti54  1  0.13388542  0.87813360  0.37617873  1
  Ti  Ti55  1  0.37556932  0.37046091  0.64269708  1
  Ti  Ti56  1  0.36754528  0.37065609  0.86933085  1
  Ti  Ti57  1  0.87035378  0.36792928  0.61198958  1
  Ti  Ti58  1  0.63823716  0.61167351  0.60986676  1
  Ti  Ti59  1  0.87375802  0.60838902  0.62623773  1
  Ti  Ti60  1  0.37656336  0.12096387  0.62908093  1
  Ti  Ti61  1  0.37449382  0.87810061  0.37407126  1
  Ti  Ti62  1  0.87902768  0.61611089  0.13023714  1
  Ti  Ti63  1  0.11520162  0.63177674  0.87834535  1
  Ti  Ti64  1  0.63381123  0.13363964  0.62828367  1
  Ti  Ti65  1  0.12535080  0.12347460  0.38348473  1
  Ti  Ti66  1  0.89097591  0.12526749  0.37909838  1
  Ti  Ti67  1  0.87734236  0.62198347  0.38116416  1
  Ti  Ti68  1  0.88040735  0.11723970  0.12500543  1
  Ti  Ti69  1  0.13166240  0.11828751  0.12927198  1
  Ti  Ti70  1  0.12607294  0.37686057  0.63971653  1
  Ti  Ti71  1  0.38806588  0.37997639  0.12803470  1
  Ti  Ti72  1  0.63409532  0.62155290  0.37331144  1
  Ti  Ti73  1  0.37590131  0.12957110  0.86738521  1
  Bi  Bi74  1  0.49639082  0.72271717  0.26541101  1
  Bi  Bi75  1  0.52603113  0.00791381  0.76593079  1
  Bi  Bi76  1  0.24391673  0.25717482  0.51942388  1
  Bi  Bi77  1  0.01110860  0.76692820  0.50244132  1
  Bi  Bi78  1  0.25542936  0.78114113  0.75935928  1
  Bi  Bi79  1  0.78331430  0.24963812  -0.01626729  1
  Bi  Bi80  1  0.76226105  0.48877729  0.27070307  1
  Bi  Bi81  1  0.73958247  0.71604129  0.02203167  1
  Bi  Bi82  1  0.25992460  0.73240768  0.26999365  1
  Bi  Bi83  1  0.27113670  0.51914487  0.01237983  1
  Bi  Bi84  1  0.52026258  -0.01933683  0.23655510  1
  Bi  Bi85  1  0.74998622  -0.01230853  0.53039402  1
  Bi  Bi86  1  0.49832589  -0.02660822  0.49733544  1
  Bi  Bi87  1  0.25308046  0.51270125  0.53357095  1
  Bi  Bi88  1  0.72524696  0.24932144  0.47821052  1
  Bi  Bi89  1  0.48678896  0.24699701  -0.00596707  1
  Bi  Bi90  1  0.26085606  0.50685462  0.25209381  1
  Bi  Bi91  1  0.22916779  0.00632615  0.75405732  1
  Bi  Bi92  1  0.00013158  0.48724346  0.52056717  1
  Bi  Bi93  1  0.02560535  0.24261193  0.01295564  1
  Bi  Bi94  1  0.24336475  0.02395228  0.52304150  1
  Bi  Bi95  1  0.27511566  0.75372237  0.01546999  1
  Bi  Bi96  1  0.72021915  0.74570858  0.78287033  1
  Bi  Bi97  1  -0.02046465  0.28794867  0.77910843  1
  Bi  Bi98  1  0.53418460  0.27477426  0.74848604  1
  Bi  Bi99  1  0.01458562  0.25916994  0.27778903  1
  Bi  Bi100  1  0.02451421  0.74289385  0.01163934  1
  Bi  Bi101  1  -0.01010164  0.47345569  -0.02978761  1
  Bi  Bi102  1  0.51410550  0.23159434  0.26396314  1
  Bi  Bi103  1  0.52398441  0.00474368  0.00072614  1
  Bi  Bi104  1  0.52144501  0.74478835  0.49312887  1
  Bi  Bi105  1  0.49216109  0.22328669  0.51402917  1
  Bi  Bi106  1  0.75036986  -0.02762285  0.77193491  1
  Bi  Bi107  1  0.23718026  0.53386974  0.76776388  1
  Bi  Bi108  1  0.75757217  0.20905884  0.24483621  1
  Bi  Bi109  1  0.27031602  0.25587224  0.26957470  1
  Bi  Bi110  1  0.78739166  0.76148031  0.51706189  1
  Bi  Bi111  1  0.28795737  0.73604540  0.52678983  1
  Bi  Bi112  1  -0.00492077  -0.01204328  0.23704218  1
  Bi  Bi113  1  0.26192640  0.26086054  0.01915408  1
  Bi  Bi114  1  -0.03606750  0.78586810  0.72818711  1
  Bi  Bi115  1  0.01161365  0.49866758  0.26250028  1
  Bi  Bi116  1  -0.01091343  -0.02202357  -0.01521699  1
  Bi  Bi117  1  -0.02918033  -0.00661628  0.74258374  1
  Bi  Bi118  1  0.71845723  0.52857297  0.77231876  1
  Bi  Bi119  1  -0.01838804  0.00260185  0.52916306  1
  Bi  Bi120  1  0.26021808  0.00059776  0.25708281  1
  Bi  Bi121  1  0.78062925  0.47277662  -0.00303144  1
  Bi  Bi122  1  0.76556861  0.75038771  0.27196617  1
  Bi  Bi123  1  0.01813451  0.75364071  0.25959425  1
  Bi  Bi124  1  0.50192218  0.72780300  -0.03282967  1
  O  O125  1  0.10634222  0.11974346  -0.00478079  1
  O  O126  1  0.14195226  0.14017266  0.24145694  1
  O  O127  1  0.11536455  0.09530820  0.49450510  1
  O  O128  1  0.14673499  0.13454095  0.75895607  1
  O  O129  1  0.08723318  0.37469427  0.00166673  1
  O  O130  1  0.14710364  0.34793029  0.24193315  1
  O  O131  1  0.10709857  0.39644044  0.50073780  1
  O  O132  1  0.14573976  0.33986160  0.74639566  1
  O  O133  1  0.09837528  0.61930276  -0.00443553  1
  O  O134  1  0.13762954  0.65403472  0.25384696  1
  O  O135  1  0.11327331  0.60486278  0.49719535  1
  O  O136  1  0.13237004  0.63157769  0.74752392  1
  O  O137  1  0.09091089  0.88669581  0.00994579  1
  O  O138  1  0.13601832  0.85322921  0.24741786  1
  O  O139  1  0.09820703  0.87990435  0.49089281  1
  O  O140  1  0.15860219  0.87967225  0.75716726  1
  O  O141  1  0.39044061  0.14179325  0.00447484  1
  O  O142  1  0.34241818  0.11713800  0.24223247  1
  O  O143  1  0.38874805  0.12360396  0.49912180  1
  O  O144  1  0.36679004  0.12429783  0.75006338  1
  O  O145  1  0.38777514  0.35154265  -0.00172699  1
  O  O146  1  0.34373399  0.38843167  0.23839764  1
  O  O147  1  0.40885482  0.38842938  0.49104427  1
  O  O148  1  0.35185116  0.35383693  0.75102771  1
  O  O149  1  0.36938740  0.64444073  0.00092025  1
  O  O150  1  0.34802645  0.61959311  0.25322726  1
  O  O151  1  0.36823370  0.61095185  0.50443381  1
  O  O152  1  0.42748866  0.60653189  0.74241522  1
  O  O153  1  0.38768272  0.85164089  0.00502394  1
  O  O154  1  0.35002929  0.88731206  0.24732085  1
  O  O155  1  0.39158857  0.87850325  0.49362744  1
  O  O156  1  0.35153889  0.88274339  0.76136959  1
  O  O157  1  0.62907935  0.09811634  -0.00473497  1
  O  O158  1  0.63127268  0.14146162  0.25574299  1
  O  O159  1  0.61051280  0.13548295  0.49492005  1
  O  O160  1  0.61614205  0.14196906  0.74234013  1
  O  O161  1  0.59661968  0.41205624  0.00139969  1
  O  O162  1  0.64959729  0.36706417  0.25164785  1
  O  O163  1  0.60382609  0.39880650  0.49329470  1
  O  O164  1  0.65521090  0.34606132  0.75464769  1
  O  O165  1  0.61664505  0.63009875  0.02077225  1
  O  O166  1  0.65567632  0.63662969  0.25278337  1
  O  O167  1  0.62368857  0.64572660  0.49064069  1
  O  O168  1  0.62015516  0.62035744  0.72983570  1
  O  O169  1  0.59981953  0.88228887  0.00301846  1
  O  O170  1  0.64426652  0.90787813  0.24168550  1
  O  O171  1  0.59144412  0.86879889  0.49544352  1
  O  O172  1  0.62614340  0.87696897  0.74060984  1
  O  O173  1  0.85470831  0.12431033  0.00708581  1
  O  O174  1  0.86519586  0.11874876  0.25186085  1
  O  O175  1  0.89395266  0.12680221  0.49448642  1
  O  O176  1  0.86294806  0.11158573  0.73800599  1
  O  O177  1  0.88804909  0.37960259  0.00777525  1
  O  O178  1  0.85742533  0.38846889  0.24840463  1
  O  O179  1  0.92623967  0.36137610  0.50190179  1
  O  O180  1  0.86160945  0.37753457  0.73553044  1
  O  O181  1  0.87753088  0.64654277  -0.00899182  1
  O  O182  1  0.85319204  0.60720467  0.24393699  1
  O  O183  1  0.88968690  0.64160459  0.49245877  1
  O  O184  1  0.86798330  0.58420687  0.73858380  1
  O  O185  1  0.89650104  0.87208052  0.00561472  1
  O  O186  1  0.83865959  0.89226369  0.24513212  1
  O  O187  1  0.89492762  0.85478161  0.48363666  1
  O  O188  1  0.87546083  0.88978097  0.75120388  1
  O  O189  1  -0.00121384  0.13742821  0.12721598  1
  O  O190  1  0.00391818  0.10294056  0.35242530  1
  O  O191  1  -0.00400791  0.09813439  0.62893885  1
  O  O192  1  -0.00806022  0.09573434  0.86680038  1
  O  O193  1  -0.00173851  0.35394531  0.14799983  1
  O  O194  1  0.00657944  0.38441512  0.34297342  1
  O  O195  1  0.00847883  0.40726563  0.64541208  1
  O  O196  1  0.00562338  0.40540046  0.84622320  1
  O  O197  1  -0.00933846  0.65067592  0.13672222  1
  O  O198  1  -0.00362162  0.60839481  0.35419559  1
  O  O199  1  -0.00177540  0.59733122  0.62657200  1
  O  O200  1  -0.00222889  0.60447082  0.85736880  1
  O  O201  1  -0.01329186  0.86422009  0.15650237  1
  O  O202  1  -0.00574225  0.88517674  0.33826367  1
  O  O203  1  0.00879063  0.90272138  0.64055516  1
  O  O204  1  -0.00245190  0.90932611  0.86710772  1
  O  O205  1  0.24476418  0.10360151  0.08993771  1
  O  O206  1  0.24047004  0.14961371  0.38458079  1
  O  O207  1  0.25108063  0.14133630  0.60173934  1
  O  O208  1  0.25845523  0.15495672  0.89106390  1
  O  O209  1  0.23801639  0.39026032  0.08612742  1
  O  O210  1  0.26089028  0.34624628  0.38731247  1
  O  O211  1  0.25275150  0.36937679  0.59985055  1
  O  O212  1  0.25281484  0.33809199  0.88719454  1
  O  O213  1  0.24431271  0.60578154  0.11055780  1
  O  O214  1  0.24111163  0.65012323  0.38632792  1
  O  O215  1  0.23932826  0.63611582  0.61065091  1
  O  O216  1  0.24555873  0.63810487  0.86687603  1
  O  O217  1  0.24824298  0.88519556  0.10521622  1
  O  O218  1  0.24472474  0.84881183  0.38705507  1
  O  O219  1  0.25690449  0.83470721  0.62357154  1
  O  O220  1  0.25938088  0.83996796  0.89352054  1
  O  O221  1  0.49024758  0.14372913  0.14718170  1
  O  O222  1  0.50248309  0.12153264  0.35176350  1
  O  O223  1  0.49576656  0.12222467  0.62147218  1
  O  O224  1  0.49425596  0.09639226  0.86903155  1
  O  O225  1  0.49841655  0.38214850  0.15488787  1
  O  O226  1  0.50257278  0.41293432  0.33790698  1
  O  O227  1  0.49396584  0.38978629  0.64909954  1
  O  O228  1  0.49535328  0.38813402  0.84554908  1
  O  O229  1  0.50492057  0.61466731  0.16175356  1
  O  O230  1  0.51134088  0.60365348  0.33995749  1
  O  O231  1  0.51338072  0.57419337  0.59028074  1
  O  O232  1  0.49766889  0.60463561  0.89326865  1
  O  O233  1  0.49742536  0.86609384  0.15506459  1
  O  O234  1  0.48999908  0.90158148  0.35963121  1
  O  O235  1  0.49991401  0.91092257  0.62604160  1
  O  O236  1  0.49144860  0.91577222  0.86577779  1
  O  O237  1  0.75077394  0.10397711  0.14379453  1
  O  O238  1  0.74751119  0.14908647  0.37843116  1
  O  O239  1  0.74987641  0.14725979  0.60498117  1
  O  O240  1  0.74528916  0.16493225  0.88390107  1
  O  O241  1  0.74968772  0.38593477  0.10611305  1
  O  O242  1  0.74850690  0.36624330  0.40262822  1
  O  O243  1  0.76041463  0.35846319  0.58157744  1
  O  O244  1  0.73561466  0.36806810  0.90288602  1
  O  O245  1  0.75268656  0.60948020  0.10392623  1
  O  O246  1  0.75455226  0.65747981  0.38136036  1
  O  O247  1  0.75242188  0.64604741  0.61526561  1
  O  O248  1  0.75123705  0.63140878  0.86127332  1
  O  O249  1  0.74838276  0.90514906  0.10202990  1
  O  O250  1  0.75575783  0.84451246  0.38776740  1
  O  O251  1  0.73161449  0.86550457  0.59571697  1
  O  O252  1  0.74166520  0.85543232  0.86243650  1
  O  O253  1  0.10972166  -0.00178603  0.14523914  1
  O  O254  1  0.14647451  -0.00530882  0.35641912  1
  O  O255  1  0.16149227  0.00067740  0.63063244  1
  O  O256  1  0.15656473  0.00872395  0.88207513  1
  O  O257  1  0.13455699  0.24627291  0.09957093  1
  O  O258  1  0.09224131  0.24349515  0.39586730  1
  O  O259  1  0.11451079  0.25890264  0.59182265  1
  O  O260  1  0.09168864  0.24453327  0.87950923  1
  O  O261  1  0.10730672  0.49299881  0.14871407  1
  O  O262  1  0.13295600  0.50722662  0.34167477  1
  O  O263  1  0.15492678  0.49835968  0.64145097  1
  O  O264  1  0.15216533  0.50453168  0.86820060  1
  O  O265  1  0.12990222  0.75630058  0.10059121  1
  O  O266  1  0.09321196  0.74929135  0.38632250  1
  O  O267  1  0.09602151  0.74604089  0.61879844  1
  O  O268  1  0.10056732  0.74862903  0.88990375  1
  O  O269  1  0.39455880  0.00013840  0.12018962  1
  O  O270  1  0.34059529  -0.00427524  0.37051135  1
  O  O271  1  0.34725223  0.00697574  0.62190098  1
  O  O272  1  0.34249080  0.00281997  0.90097121  1
  O  O273  1  0.34998369  0.25587479  0.13424835  1
  O  O274  1  0.39559512  0.25898609  0.34748446  1
  O  O275  1  0.38068430  0.25428218  0.60850801  1
  O  O276  1  0.41070266  0.24426571  0.87454717  1
  O  O277  1  0.37445617  0.49487130  0.10300395  1
  O  O278  1  0.33801179  0.49354857  0.36867443  1
  O  O279  1  0.35467536  0.49665481  0.62922350  1
  O  O280  1  0.36160550  0.48798578  0.86415660  1
  O  O281  1  0.35878200  0.75418797  0.13904432  1
  O  O282  1  0.39082943  0.75124205  0.36139011  1
  O  O283  1  0.39815365  0.73053482  0.61510410  1
  O  O284  1  0.41897839  0.75211641  0.85993470  1
  O  O285  1  0.59622297  0.00080072  0.12203209  1
  O  O286  1  0.63330909  0.00159807  0.38891020  1
  O  O287  1  0.64577665  0.01113267  0.61914541  1
  O  O288  1  0.63985563  0.00453474  0.85176484  1
  O  O289  1  0.62822573  0.25928184  0.10914510  1
  O  O290  1  0.60418534  0.26587283  0.38624979  1
  O  O291  1  0.60205174  0.25302649  0.61161304  1
  O  O292  1  0.58915321  0.25846932  0.89001916  1
  O  O293  1  0.61920338  0.49908306  0.15581025  1
  O  O294  1  0.66040010  0.50679128  0.38094624  1
  O  O295  1  0.66700873  0.50057809  0.60935409  1
  O  O296  1  0.61674497  0.49383762  0.85623504  1
  O  O297  1  0.64992070  0.75805302  0.12735423  1
  O  O298  1  0.59374398  0.74993833  0.36403957  1
  O  O299  1  0.59065991  0.74793491  0.61947813  1
  O  O300  1  0.60027128  0.74925133  0.85924254  1
  O  O301  1  0.89095204  -0.00017062  0.12866706  1
  O  O302  1  0.86293470  -0.00121402  0.38480595  1
  O  O303  1  0.86008315  0.00663063  0.60592811  1
  O  O304  1  0.82464317  0.00193740  0.88444470  1
  O  O305  1  0.86069671  0.24906890  0.13180825  1
  O  O306  1  0.89844155  0.24426006  0.36062314  1
  O  O307  1  0.90106406  0.25216906  0.62910280  1
  O  O308  1  0.87907368  0.25548171  0.86689414  1
  O  O309  1  0.89151670  0.50264843  0.10855830  1
  O  O310  1  0.84985179  0.50453863  0.38154846  1
  O  O311  1  0.86098128  0.49497839  0.58707262  1
  O  O312  1  0.86687839  0.50506489  0.88547902  1
  O  O313  1  0.84141065  0.75286839  0.12707111  1
  O  O314  1  0.89021075  0.74551073  0.33842090  1
  O  O315  1  0.88994664  0.73567542  0.62745879  1
  O  O316  1  0.87785259  0.74348494  0.83769926  1
