# generated using pymatgen
data_Mg32Ti42(Bi17O64)3
_symmetry_space_group_name_H-M   'P 1'
_cell_length_a   15.96252156
_cell_length_b   15.95149943
_cell_length_c   15.94653233
_cell_angle_alpha   89.89345293
_cell_angle_beta   90.03009868
_cell_angle_gamma   90.07849908
_symmetry_Int_Tables_number   1
_chemical_formula_structural   Mg32Ti42(Bi17O64)3
_chemical_formula_sum   'Mg32 Ti42 Bi51 O192'
_cell_volume   4060.39280220
_cell_formula_units_Z   1
loop_
 _symmetry_equiv_pos_site_id
 _symmetry_equiv_pos_as_xyz
  1  'x, y, z'
loop_
 _atom_site_type_symbol
 _atom_site_label
 _atom_site_symmetry_multiplicity
 _atom_site_fract_x
 _atom_site_fract_y
 _atom_site_fract_z
 _atom_site_occupancy
  Mg  Mg0  1  0.62379492  0.88730332  0.13017132  1
  Mg  Mg1  1  0.88050815  0.11954130  0.87673460  1
  Mg  Mg2  1  0.38033957  0.62825709  0.87542558  1
  Mg  Mg3  1  0.11582756  0.37754270  0.12954167  1
  Mg  Mg4  1  0.12639226  0.62217256  0.37586923  1
  Mg  Mg5  1  0.62064908  0.37074846  0.62831169  1
  Mg  Mg6  1  0.87917686  0.87928510  0.61893546  1
  Mg  Mg7  1  0.36274357  0.12005334  0.36720241  1
  Mg  Mg8  1  0.37959801  0.12875675  0.62495854  1
  Mg  Mg9  1  0.62449507  0.11789484  0.87272222  1
  Mg  Mg10  1  0.37344869  0.37114619  0.87934139  1
  Mg  Mg11  1  0.11976239  0.63459419  0.87391349  1
  Mg  Mg12  1  0.87837203  0.12358632  0.36606318  1
  Mg  Mg13  1  0.37536644  0.38112638  0.37224464  1
  Mg  Mg14  1  0.86785307  0.37832235  0.36617445  1
  Mg  Mg15  1  0.12898394  0.62611190  0.62593340  1
  Mg  Mg16  1  0.62649069  0.62451183  0.38598869  1
  Mg  Mg17  1  0.37253359  0.86734985  0.62472830  1
  Mg  Mg18  1  0.88564315  0.87800763  0.13457496  1
  Mg  Mg19  1  0.26176239  -0.06243402  0.22373557  1
  Mg  Mg20  1  0.07445621  0.01117629  0.18412345  1
  Mg  Mg21  1  0.49789528  0.03507845  0.29088747  1
  Mg  Mg22  1  0.54280989  0.73159312  0.05303390  1
  Mg  Mg23  1  0.25691393  -0.01868040  -0.00213418  1
  Mg  Mg24  1  0.74584013  0.50201005  0.17121459  1
  Mg  Mg25  1  0.57495950  0.51305489  0.23816520  1
  Mg  Mg26  1  0.17502333  0.23524495  0.51978052  1
  Mg  Mg27  1  0.00858476  0.18046704  0.23334189  1
  Mg  Mg28  1  0.76405931  -0.00271465  0.05102566  1
  Mg  Mg29  1  0.05860310  0.03542525  0.72993026  1
  Mg  Mg30  1  0.51260689  0.79397030  0.72769215  1
  Mg  Mg31  1  0.74656208  0.46069557  0.54794131  1
  Ti  Ti32  1  0.12884544  0.87421741  0.61574972  1
  Ti  Ti33  1  0.12939892  0.61936571  0.11906936  1
  Ti  Ti34  1  0.62998072  0.62694762  0.63046315  1
  Ti  Ti35  1  0.86960377  0.62964726  0.86292368  1
  Ti  Ti36  1  0.86220511  0.62423070  0.37049262  1
  Ti  Ti37  1  0.61338261  0.36838476  0.88914070  1
  Ti  Ti38  1  0.87548941  0.37649579  0.63377889  1
  Ti  Ti39  1  0.38000884  0.62439856  0.39017310  1
  Ti  Ti40  1  0.13033688  0.39084273  0.61845212  1
  Ti  Ti41  1  0.61277637  0.88260956  0.36430858  1
  Ti  Ti42  1  0.61425493  0.64551119  0.86454725  1
  Ti  Ti43  1  0.87548795  0.36425416  0.88679567  1
  Ti  Ti44  1  0.62006423  0.38630284  0.37126423  1
  Ti  Ti45  1  0.62766568  0.88914575  0.62004822  1
  Ti  Ti46  1  0.86901844  0.62024519  0.61640399  1
  Ti  Ti47  1  0.13500925  0.88994958  0.35911412  1
  Ti  Ti48  1  0.38906673  0.87505079  0.11960614  1
  Ti  Ti49  1  0.37728322  0.61617816  0.12644745  1
  Ti  Ti50  1  0.62197003  0.12202073  0.38502836  1
  Ti  Ti51  1  0.36624010  0.11888128  0.87343795  1
  Ti  Ti52  1  0.37314397  0.63351127  0.63004309  1
  Ti  Ti53  1  0.62210293  0.11672531  0.13148927  1
  Ti  Ti54  1  0.87539416  0.62720148  0.12753387  1
  Ti  Ti55  1  0.86944961  0.36323354  0.12205778  1
  Ti  Ti56  1  0.12345839  0.13364465  0.86484691  1
  Ti  Ti57  1  0.36712658  0.38511229  0.62225248  1
  Ti  Ti58  1  0.12757973  0.86122145  0.10423717  1
  Ti  Ti59  1  0.62450197  0.13384463  0.62422041  1
  Ti  Ti60  1  0.38232207  0.87171449  0.88021080  1
  Ti  Ti61  1  0.39238355  0.36544588  0.12756357  1
  Ti  Ti62  1  0.13337985  0.36552765  0.87768860  1
  Ti  Ti63  1  0.62352189  0.36205078  0.12715420  1
  Ti  Ti64  1  0.37356248  0.87284907  0.36943620  1
  Ti  Ti65  1  0.37446834  0.11103454  0.12990504  1
  Ti  Ti66  1  0.11956505  0.87558902  0.87048954  1
  Ti  Ti67  1  0.62565775  0.87370552  0.87125425  1
  Ti  Ti68  1  0.12428446  0.36943719  0.37469473  1
  Ti  Ti69  1  0.12068650  0.11478099  0.37072472  1
  Ti  Ti70  1  0.90196818  0.87896038  0.37225668  1
  Ti  Ti71  1  0.88280513  0.88294123  0.87256201  1
  Ti  Ti72  1  0.87487786  0.11435690  0.13226451  1
  Ti  Ti73  1  0.87529418  0.13502351  0.63307022  1
  Bi  Bi74  1  0.00677591  0.50394515  0.76002723  1
  Bi  Bi75  1  0.76819336  0.76015036  0.72434840  1
  Bi  Bi76  1  0.77059127  0.02472802  0.51434791  1
  Bi  Bi77  1  0.27410662  0.49466147  -0.00184916  1
  Bi  Bi78  1  0.76307583  0.00763679  0.75236689  1
  Bi  Bi79  1  -0.02592443  0.75299235  -0.00123665  1
  Bi  Bi80  1  0.28575625  0.74682920  0.00551910  1
  Bi  Bi81  1  0.74436090  0.78021454  0.00456959  1
  Bi  Bi82  1  0.47817372  0.27170772  0.75110702  1
  Bi  Bi83  1  0.25186899  0.52168714  0.77336838  1
  Bi  Bi84  1  0.25710241  0.46306092  0.23509232  1
  Bi  Bi85  1  0.75527261  0.78800857  0.47017415  1
  Bi  Bi86  1  0.77100639  -0.02129422  0.27303986  1
  Bi  Bi87  1  0.23564318  0.74961477  0.75530591  1
  Bi  Bi88  1  0.25104308  -0.02386643  0.75462033  1
  Bi  Bi89  1  0.46832267  -0.00326931  0.49615047  1
  Bi  Bi90  1  0.00641464  0.72033863  0.23991129  1
  Bi  Bi91  1  0.76273442  0.52192192  -0.01972745  1
  Bi  Bi92  1  0.47564105  0.00004367  0.72676189  1
  Bi  Bi93  1  0.72982785  0.47359740  0.76449550  1
  Bi  Bi94  1  0.50059654  0.72828204  0.26014518  1
  Bi  Bi95  1  0.75425150  0.21463759  0.00091143  1
  Bi  Bi96  1  -0.02024564  0.47676206  0.23015229  1
  Bi  Bi97  1  0.24032509  0.04896340  0.51422445  1
  Bi  Bi98  1  -0.00442022  0.72736340  0.49350484  1
  Bi  Bi99  1  0.01131998  0.27431166  0.72951436  1
  Bi  Bi100  1  0.49654955  0.21820719  -0.00493044  1
  Bi  Bi101  1  0.25824073  0.23764669  0.00217890  1
  Bi  Bi102  1  0.45241823  0.25339470  0.48572172  1
  Bi  Bi103  1  0.25073638  0.49390370  0.47629473  1
  Bi  Bi104  1  0.24954879  0.72906466  0.24894153  1
  Bi  Bi105  1  0.73881624  0.24075490  0.25885698  1
  Bi  Bi106  1  0.20985210  0.23001006  0.22534767  1
  Bi  Bi107  1  0.52660944  -0.00241424  -0.00892108  1
  Bi  Bi108  1  -0.00812965  0.49809688  0.47309231  1
  Bi  Bi109  1  0.54057014  0.52576702  0.01769438  1
  Bi  Bi110  1  0.23989948  0.23218575  0.71405973  1
  Bi  Bi111  1  0.49459264  0.50972384  0.75731952  1
  Bi  Bi112  1  0.72953368  0.23831570  0.76820062  1
  Bi  Bi113  1  0.02382317  0.24219547  0.03181004  1
  Bi  Bi114  1  -0.00442215  0.75427935  0.71887638  1
  Bi  Bi115  1  0.04697423  0.01487197  -0.00060330  1
  Bi  Bi116  1  0.02563767  0.50364145  -0.01556737  1
  Bi  Bi117  1  -0.01847127  0.24389832  0.47193005  1
  Bi  Bi118  1  0.51314051  0.74819779  0.51710534  1
  Bi  Bi119  1  0.75187757  0.27688223  0.48193594  1
  Bi  Bi120  1  0.71225731  0.72199570  0.23576489  1
  Bi  Bi121  1  0.01502730  0.02453606  0.52869164  1
  Bi  Bi122  1  0.23462427  0.74488956  0.47999691  1
  Bi  Bi123  1  0.51473021  0.50216265  0.52510452  1
  Bi  Bi124  1  0.48942240  0.24336759  0.27519692  1
  O  O125  1  0.11427205  0.14560487  -0.00976059  1
  O  O126  1  0.11650659  0.10910192  0.25295165  1
  O  O127  1  0.10630920  0.12908653  0.49968145  1
  O  O128  1  0.16015719  0.10563050  0.75616030  1
  O  O129  1  0.11957914  0.34212728  -0.00169312  1
  O  O130  1  0.10775919  0.39633414  0.26233274  1
  O  O131  1  0.14951446  0.35831153  0.50828528  1
  O  O132  1  0.09760148  0.38998966  0.75441538  1
  O  O133  1  0.11139378  0.63040090  0.00270585  1
  O  O134  1  0.13451156  0.63624990  0.24988616  1
  O  O135  1  0.12281689  0.66597513  0.50290649  1
  O  O136  1  0.11520425  0.58892588  0.75126903  1
  O  O137  1  0.13724198  0.84114401  -0.00852764  1
  O  O138  1  0.13432548  0.91821564  0.24716949  1
  O  O139  1  0.14445338  0.85849330  0.50359575  1
  O  O140  1  0.11494756  0.92341361  0.75938500  1
  O  O141  1  0.36886356  0.15047881  0.00257760  1
  O  O142  1  0.39990459  0.11235081  0.24231096  1
  O  O143  1  0.37836950  0.10579300  0.49644868  1
  O  O144  1  0.37271064  0.10889823  0.75706330  1
  O  O145  1  0.34680144  0.36976791  0.01093083  1
  O  O146  1  0.37745557  0.39146411  0.24545113  1
  O  O147  1  0.35971894  0.35565232  0.50519613  1
  O  O148  1  0.39831385  0.38680071  0.74792874  1
  O  O149  1  0.35607264  0.61660209  0.00199960  1
  O  O150  1  0.37311811  0.63549691  0.24692966  1
  O  O151  1  0.38748968  0.64512615  0.50651551  1
  O  O152  1  0.37463243  0.59528828  0.74739022  1
  O  O153  1  0.33994042  0.88127615  0.00178373  1
  O  O154  1  0.37460248  0.87395501  0.23714375  1
  O  O155  1  0.38314045  0.87770175  0.49154794  1
  O  O156  1  0.39436405  0.88195555  0.76122171  1
  O  O157  1  0.62693549  0.15259320  0.00209862  1
  O  O158  1  0.59565504  0.09630784  0.24083717  1
  O  O159  1  0.62708919  0.13893737  0.49617209  1
  O  O160  1  0.65215308  0.10896716  0.74262883  1
  O  O161  1  0.63583463  0.35002472  0.00573205  1
  O  O162  1  0.60641230  0.39120349  0.24915851  1
  O  O163  1  0.65498359  0.37746476  0.49530859  1
  O  O164  1  0.61329614  0.39959804  0.75795905  1
  O  O165  1  0.60943475  0.64431753  -0.01301204  1
  O  O166  1  0.61055205  0.63100195  0.25765224  1
  O  O167  1  0.60609066  0.64307141  0.50962523  1
  O  O168  1  0.62874620  0.59472230  0.75211071  1
  O  O169  1  0.61469799  0.82902184  -0.01033408  1
  O  O170  1  0.63311410  0.90595431  0.25556713  1
  O  O171  1  0.61124041  0.85585627  0.50545404  1
  O  O172  1  0.62206587  0.88730071  0.75026778  1
  O  O173  1  0.83873938  0.10117255  0.00951634  1
  O  O174  1  0.88314868  0.15198186  0.24183470  1
  O  O175  1  0.89473424  0.11121025  0.50435528  1
  O  O176  1  0.84462655  0.12643222  0.74735675  1
  O  O177  1  0.84564802  0.39374275  -0.00027068  1
  O  O178  1  0.89124005  0.36944587  0.24145119  1
  O  O179  1  0.84005490  0.38321971  0.50730308  1
  O  O180  1  0.89510810  0.36952057  0.75148485  1
  O  O181  1  0.88532251  0.63321182  0.00687564  1
  O  O182  1  0.88558180  0.63793468  0.25473004  1
  O  O183  1  0.87756973  0.62462856  0.50108191  1
  O  O184  1  0.87341971  0.62993522  0.74904311  1
  O  O185  1  0.87630446  0.85440797  -0.00507919  1
  O  O186  1  0.85267531  0.86635745  0.26207024  1
  O  O187  1  0.87040296  0.88219855  0.49126627  1
  O  O188  1  0.86703400  0.86198413  0.75476059  1
  O  O189  1  -0.00617786  0.10412088  0.12365371  1
  O  O190  1  0.00423893  0.15632186  0.36376206  1
  O  O191  1  -0.01225013  0.09636104  0.64714368  1
  O  O192  1  0.01542872  0.09132524  0.84723113  1
  O  O193  1  -0.01083525  0.39693099  0.10990362  1
  O  O194  1  0.00157165  0.37073161  0.40597165  1
  O  O195  1  0.00060987  0.38287132  0.61811164  1
  O  O196  1  -0.00856567  0.40793714  0.88620463  1
  O  O197  1  0.00537626  0.60904082  0.14622353  1
  O  O198  1  0.00129885  0.63703338  0.38980981  1
  O  O199  1  -0.00625008  0.64198506  0.62028859  1
  O  O200  1  -0.00669282  0.59011743  0.87496355  1
  O  O201  1  0.01582964  0.91027695  0.11820812  1
  O  O202  1  0.01335798  0.85711298  0.36583587  1
  O  O203  1  0.00612141  0.86224904  0.62451436  1
  O  O204  1  0.00179636  0.88952439  0.88913692  1
  O  O205  1  0.25994167  0.15680320  0.12421490  1
  O  O206  1  0.23914151  0.11476296  0.38857184  1
  O  O207  1  0.25418505  0.16339972  0.59152178  1
  O  O208  1  0.25170512  0.15677644  0.88554422  1
  O  O209  1  0.24037829  0.35123844  0.15345877  1
  O  O210  1  0.24557405  0.40022753  0.36584108  1
  O  O211  1  0.24831768  0.36837897  0.65337943  1
  O  O212  1  0.24179183  0.34557655  0.86430115  1
  O  O213  1  0.24892933  0.65085606  0.12429377  1
  O  O214  1  0.25250613  0.61759932  0.39835108  1
  O  O215  1  0.25874936  0.64904344  0.63202613  1
  O  O216  1  0.24574412  0.63433602  0.85289856  1
  O  O217  1  0.24185308  0.84050686  0.14052804  1
  O  O218  1  0.25735106  0.90610799  0.35437082  1
  O  O219  1  0.24686830  0.86894239  0.65400811  1
  O  O220  1  0.24793397  0.86607521  0.84742555  1
  O  O221  1  0.49649709  0.11176388  0.09486550  1
  O  O222  1  0.49980665  0.14186976  0.37344060  1
  O  O223  1  0.51025556  0.10472293  0.62819606  1
  O  O224  1  0.49541040  0.11016396  0.89751880  1
  O  O225  1  0.50270350  0.39230850  0.10990672  1
  O  O226  1  0.50589366  0.35038887  0.39356455  1
  O  O227  1  0.49633869  0.39138913  0.60684191  1
  O  O228  1  0.50385866  0.39049172  0.89648390  1
  O  O229  1  0.49355332  0.61475414  0.11454961  1
  O  O230  1  0.49436051  0.65395270  0.37832004  1
  O  O231  1  0.50121267  0.58958329  0.63414997  1
  O  O232  1  0.50447839  0.59746252  0.86935784  1
  O  O233  1  0.49605142  0.90134174  0.10739530  1
  O  O234  1  0.49826231  0.84157600  0.36026541  1
  O  O235  1  0.50596161  0.89201023  0.63498568  1
  O  O236  1  0.49581509  0.89609017  0.89009084  1
  O  O237  1  0.74103655  0.13914393  0.13798623  1
  O  O238  1  0.74209850  0.12002309  0.35681973  1
  O  O239  1  0.75534343  0.13693538  0.59875818  1
  O  O240  1  0.74968419  0.15332135  0.87651107  1
  O  O241  1  0.74722288  0.37386913  0.14745168  1
  O  O242  1  0.74241332  0.35299931  0.35952825  1
  O  O243  1  0.75368009  0.37669620  0.64986012  1
  O  O244  1  0.75509050  0.35804942  0.85098168  1
  O  O245  1  0.75835349  0.62722841  0.13528958  1
  O  O246  1  0.75195001  0.61860930  0.36723858  1
  O  O247  1  0.74701971  0.64451930  0.62931740  1
  O  O248  1  0.74884581  0.64019106  0.88429610  1
  O  O249  1  0.75012930  0.87643440  0.09846727  1
  O  O250  1  0.73266807  0.90441596  0.39537681  1
  O  O251  1  0.74149488  0.85025896  0.62336838  1
  O  O252  1  0.74449653  0.84960827  0.88135855  1
  O  O253  1  0.15650309  -0.01346375  0.08607179  1
  O  O254  1  0.10871952  0.00027679  0.40111397  1
  O  O255  1  0.12536044  -0.00573392  0.61248769  1
  O  O256  1  0.15519251  -0.00478886  0.91132262  1
  O  O257  1  0.08692127  0.25268953  0.15815865  1
  O  O258  1  0.13739494  0.25324789  0.38299749  1
  O  O259  1  0.12149185  0.25838305  0.64268274  1
  O  O260  1  0.09649883  0.24820740  0.84818706  1
  O  O261  1  0.14356623  0.50365981  0.11783238  1
  O  O262  1  0.11485029  0.49804584  0.40925084  1
  O  O263  1  0.13678180  0.50197200  0.60049009  1
  O  O264  1  0.14168377  0.48627851  0.90012238  1
  O  O265  1  0.09486395  0.75029737  0.13314067  1
  O  O266  1  0.15861766  0.76704298  0.36285131  1
  O  O267  1  0.12462594  0.75519613  0.66249960  1
  O  O268  1  0.11558081  0.75940722  0.83815540  1
  O  O269  1  0.33718914  -0.00034048  0.12123637  1
  O  O270  1  0.40819156  -0.00827836  0.36848298  1
  O  O271  1  0.37370740  -0.00179124  0.63247379  1
  O  O272  1  0.34409730  0.00503897  0.89493277  1
  O  O273  1  0.40332731  0.25297853  0.13481378  1
  O  O274  1  0.37735528  0.24960304  0.36770581  1
  O  O275  1  0.38668738  0.25390965  0.64671336  1
  O  O276  1  0.40224471  0.24684517  0.86363145  1
  O  O277  1  0.35262766  0.50154706  0.12357708  1
  O  O278  1  0.38047792  0.50858364  0.39793644  1
  O  O279  1  0.35991770  0.49947193  0.60144955  1
  O  O280  1  0.34237989  0.49483471  0.88000372  1
  O  O281  1  0.39959803  0.75394610  0.09700633  1
  O  O282  1  0.34668262  0.75356780  0.36961532  1
  O  O283  1  0.41221315  0.74394276  0.64776072  1
  O  O284  1  0.37802021  0.75609979  0.89140455  1
  O  O285  1  0.64261561  0.00778306  0.08706554  1
  O  O286  1  0.58497711  0.00211707  0.38818115  1
  O  O287  1  0.65388415  -0.00057919  0.60450027  1
  O  O288  1  0.63608500  -0.01120439  0.89700642  1
  O  O289  1  0.61612647  0.24860385  0.15336615  1
  O  O290  1  0.62515928  0.23954655  0.34227074  1
  O  O291  1  0.61979615  0.24552388  0.64191619  1
  O  O292  1  0.61263201  0.25346821  0.84999495  1
  O  O293  1  0.63288644  0.49651898  0.12128472  1
  O  O294  1  0.60334620  0.49864840  0.37105763  1
  O  O295  1  0.64061089  0.50572421  0.59903037  1
  O  O296  1  0.65490434  0.49038001  0.89744357  1
  O  O297  1  0.60812823  0.76436590  0.15440202  1
  O  O298  1  0.65035444  0.76143340  0.36497300  1
  O  O299  1  0.59381526  0.74218420  0.64197847  1
  O  O300  1  0.58656668  0.74987845  0.83234887  1
  O  O301  1  0.85044895  0.00174631  0.14463033  1
  O  O302  1  0.88339882  -0.00370712  0.35919145  1
  O  O303  1  0.84364640  0.00029109  0.63104306  1
  O  O304  1  0.85522053  -0.00737199  0.86527185  1
  O  O305  1  0.87988599  0.25096289  0.10338426  1
  O  O306  1  0.86745159  0.25121984  0.39902235  1
  O  O307  1  0.89129901  0.25187388  0.62070685  1
  O  O308  1  0.89557263  0.25341684  0.89919837  1
  O  O309  1  0.86533136  0.50603595  0.13998428  1
  O  O310  1  0.89678270  0.50377082  0.37072925  1
  O  O311  1  0.85846859  0.50254774  0.62418500  1
  O  O312  1  0.84510100  0.50495565  0.87339556  1
  O  O313  1  0.90936084  0.74934752  0.12934861  1
  O  O314  1  0.86792762  0.75236603  0.38961839  1
  O  O315  1  0.87323807  0.74912610  0.63316824  1
  O  O316  1  0.90343528  0.74287076  0.87502584  1
