# generated using pymatgen
data_Mg32Ti42(Bi17O64)3
_symmetry_space_group_name_H-M   'P 1'
_cell_length_a   15.97409586
_cell_length_b   15.91976396
_cell_length_c   15.94543537
_cell_angle_alpha   90.05062722
_cell_angle_beta   90.01358614
_cell_angle_gamma   89.98468760
_symmetry_Int_Tables_number   1
_chemical_formula_structural   Mg32Ti42(Bi17O64)3
_chemical_formula_sum   'Mg32 Ti42 Bi51 O192'
_cell_volume   4054.98353416
_cell_formula_units_Z   1
loop_
 _symmetry_equiv_pos_site_id
 _symmetry_equiv_pos_as_xyz
  1  'x, y, z'
loop_
 _atom_site_type_symbol
 _atom_site_label
 _atom_site_symmetry_multiplicity
 _atom_site_fract_x
 _atom_site_fract_y
 _atom_site_fract_z
 _atom_site_occupancy
  Mg  Mg0  1  0.86654124  0.87819399  0.88009160  1
  Mg  Mg1  1  0.11777168  0.61565911  0.12214587  1
  Mg  Mg2  1  0.37201122  0.36623016  0.87262540  1
  Mg  Mg3  1  0.39893553  0.12524649  0.63084386  1
  Mg  Mg4  1  0.11700967  0.12840003  0.37940338  1
  Mg  Mg5  1  0.87157324  0.12405199  0.62730599  1
  Mg  Mg6  1  0.37531887  0.13250028  0.11918219  1
  Mg  Mg7  1  0.36384207  0.87184421  0.36909085  1
  Mg  Mg8  1  0.11834125  0.62131313  0.61979825  1
  Mg  Mg9  1  0.38000615  0.62832425  0.87189891  1
  Mg  Mg10  1  0.60294968  0.61241992  0.38341502  1
  Mg  Mg11  1  0.87776895  0.37332122  0.11697923  1
  Mg  Mg12  1  0.87572946  0.37783610  0.38365058  1
  Mg  Mg13  1  0.61848587  0.63024639  0.87515692  1
  Mg  Mg14  1  0.37330858  0.62696681  0.62413757  1
  Mg  Mg15  1  0.37749633  0.12580031  0.38211735  1
  Mg  Mg16  1  0.13276717  0.88163752  0.12490778  1
  Mg  Mg17  1  0.38047830  0.62593706  0.12789688  1
  Mg  Mg18  1  0.62154850  0.87503838  0.11804228  1
  Mg  Mg19  1  0.04795787  0.76812068  0.22492945  1
  Mg  Mg20  1  0.31992194  0.27504684  0.49554789  1
  Mg  Mg21  1  0.23289335  0.70163364  0.25002162  1
  Mg  Mg22  1  0.20669779  0.23353731  -0.02933047  1
  Mg  Mg23  1  -0.00593919  0.29144900  0.54731554  1
  Mg  Mg24  1  0.71614622  -0.00156463  0.02981002  1
  Mg  Mg25  1  0.03126031  0.46469436  -0.00653761  1
  Mg  Mg26  1  0.48483350  0.00140727  0.76473789  1
  Mg  Mg27  1  0.50733213  0.23014270  0.79752031  1
  Mg  Mg28  1  0.49189626  0.50401693  0.00887621  1
  Mg  Mg29  1  0.44219337  0.46431832  0.41792198  1
  Mg  Mg30  1  0.75285986  -0.00684381  0.73467129  1
  Mg  Mg31  1  0.69417344  0.75124186  0.54096368  1
  Ti  Ti32  1  0.12647630  0.37877755  0.63555475  1
  Ti  Ti33  1  0.12467289  0.86719565  0.62523301  1
  Ti  Ti34  1  0.63216776  0.10395151  0.87366948  1
  Ti  Ti35  1  0.36387154  0.87464751  0.62536783  1
  Ti  Ti36  1  0.63980958  0.35210382  0.13598102  1
  Ti  Ti37  1  0.88342997  0.62629555  0.89560600  1
  Ti  Ti38  1  0.11260462  0.37047032  0.38896467  1
  Ti  Ti39  1  0.62803305  0.39817855  0.61647905  1
  Ti  Ti40  1  0.12470809  0.87172745  0.87924898  1
  Ti  Ti41  1  0.88253758  0.38252185  0.88900875  1
  Ti  Ti42  1  0.11538198  0.13982687  0.62403889  1
  Ti  Ti43  1  0.62704137  0.87531576  0.88226719  1
  Ti  Ti44  1  0.87641528  0.11358041  0.38200414  1
  Ti  Ti45  1  0.37580777  0.87732374  0.86928078  1
  Ti  Ti46  1  0.88258898  0.64603249  0.61959797  1
  Ti  Ti47  1  0.36303668  0.12999893  0.86996492  1
  Ti  Ti48  1  0.13558825  0.36601229  0.11458077  1
  Ti  Ti49  1  0.87294919  0.87099902  0.61376108  1
  Ti  Ti50  1  0.36362110  0.37835048  0.11891238  1
  Ti  Ti51  1  0.86878771  0.11099499  0.87060552  1
  Ti  Ti52  1  0.62285743  0.63396955  0.13363114  1
  Ti  Ti53  1  0.88058733  0.61899020  0.37054519  1
  Ti  Ti54  1  0.86109213  0.12237115  0.12273485  1
  Ti  Ti55  1  0.40036610  0.38650812  0.62727501  1
  Ti  Ti56  1  0.85650002  0.37340166  0.62534241  1
  Ti  Ti57  1  0.12581010  0.63091414  0.88684699  1
  Ti  Ti58  1  0.86792142  0.87901160  0.12531748  1
  Ti  Ti59  1  0.37264678  0.62895230  0.36344181  1
  Ti  Ti60  1  0.13615119  0.88275579  0.36945667  1
  Ti  Ti61  1  0.61153572  0.88490495  0.64051488  1
  Ti  Ti62  1  0.11493904  0.61750571  0.37004254  1
  Ti  Ti63  1  0.13259284  0.35615331  0.87398138  1
  Ti  Ti64  1  0.61003256  0.62806084  0.63427946  1
  Ti  Ti65  1  0.63467700  0.38264489  0.38265306  1
  Ti  Ti66  1  0.62066629  0.11231462  0.64989150  1
  Ti  Ti67  1  0.87601889  0.62634927  0.13708478  1
  Ti  Ti68  1  0.12520575  0.13136399  0.11703005  1
  Ti  Ti69  1  0.11503559  0.11519630  0.86172093  1
  Ti  Ti70  1  0.37207804  0.87425173  0.12346212  1
  Ti  Ti71  1  0.88155619  0.87312467  0.36904365  1
  Ti  Ti72  1  0.61423316  0.12344611  0.11964368  1
  Ti  Ti73  1  0.62507530  0.12076628  0.35773306  1
  Bi  Bi74  1  0.73540348  0.73762224  0.01998565  1
  Bi  Bi75  1  0.01674223  0.47495706  0.22537898  1
  Bi  Bi76  1  -0.02454180  0.23722316  0.00749434  1
  Bi  Bi77  1  0.27270259  0.50607227  0.74956189  1
  Bi  Bi78  1  0.73006786  0.73866080  0.29562293  1
  Bi  Bi79  1  0.48709909  -0.00019102  0.00151556  1
  Bi  Bi80  1  0.49107114  -0.01968327  0.46585245  1
  Bi  Bi81  1  0.74562114  0.55139169  0.50030567  1
  Bi  Bi82  1  0.75184863  0.21972757  0.51224533  1
  Bi  Bi83  1  0.74174436  0.77386034  0.75869325  1
  Bi  Bi84  1  -0.03504340  0.26104808  0.75303606  1
  Bi  Bi85  1  0.26422745  0.04398018  0.51880461  1
  Bi  Bi86  1  -0.00791889  -0.00326000  0.00650985  1
  Bi  Bi87  1  0.03252155  0.00457843  0.51287566  1
  Bi  Bi88  1  0.24672166  -0.01964058  0.76044533  1
  Bi  Bi89  1  0.00918145  0.76083053  0.46109793  1
  Bi  Bi90  1  0.72993433  -0.03707331  0.26905232  1
  Bi  Bi91  1  -0.00673206  0.25016612  0.26867477  1
  Bi  Bi92  1  0.77026171  0.25211840  0.27825970  1
  Bi  Bi93  1  0.48426293  0.27130291  0.00726842  1
  Bi  Bi94  1  0.77284924  0.48373098  0.23867072  1
  Bi  Bi95  1  -0.02804818  -0.00404730  0.73601916  1
  Bi  Bi96  1  0.24584888  0.49575875  0.26567951  1
  Bi  Bi97  1  0.01742034  0.50463520  0.77787282  1
  Bi  Bi98  1  0.77179129  0.53102893  0.76215390  1
  Bi  Bi99  1  0.53779404  0.46518812  0.79096333  1
  Bi  Bi100  1  0.72028513  0.24987991  -0.02486530  1
  Bi  Bi101  1  0.23100726  0.72665768  0.73231502  1
  Bi  Bi102  1  0.47277815  0.27741182  0.27330420  1
  Bi  Bi103  1  0.25435811  0.00868164  0.00873023  1
  Bi  Bi104  1  0.51885841  0.78829273  0.27485882  1
  Bi  Bi105  1  0.27856102  0.25353499  0.70972166  1
  Bi  Bi106  1  0.24907170  0.03534770  0.26102846  1
  Bi  Bi107  1  0.01775793  0.00039889  0.23737188  1
  Bi  Bi108  1  0.24128498  0.72827650  0.49501093  1
  Bi  Bi109  1  0.25523113  0.26480377  0.29954874  1
  Bi  Bi110  1  0.47413835  0.00302497  0.24596259  1
  Bi  Bi111  1  0.28268793  0.52022343  -0.01181418  1
  Bi  Bi112  1  -0.01897560  0.49560562  0.53628835  1
  Bi  Bi113  1  0.23330862  0.73878499  0.03192005  1
  Bi  Bi114  1  0.70156335  0.48003775  -0.00686409  1
  Bi  Bi115  1  0.51994556  0.48813145  0.22084234  1
  Bi  Bi116  1  0.25912229  0.46725264  0.50674919  1
  Bi  Bi117  1  0.47327774  0.74874798  0.50100532  1
  Bi  Bi118  1  0.71244292  0.26172108  0.74711960  1
  Bi  Bi119  1  -0.01646308  0.76152134  0.77445521  1
  Bi  Bi120  1  0.52212361  0.23518251  0.48806920  1
  Bi  Bi121  1  0.72674301  -0.04850646  0.49181867  1
  Bi  Bi122  1  -0.01224662  0.75369436  0.03079943  1
  Bi  Bi123  1  0.49436334  0.74150313  0.76197682  1
  Bi  Bi124  1  0.49853267  0.74403584  0.01622464  1
  O  O125  1  0.13707424  0.12545243  -0.00224056  1
  O  O126  1  0.12456854  0.10379268  0.24266637  1
  O  O127  1  0.10426723  0.12832802  0.50497854  1
  O  O128  1  0.12262838  0.11630199  0.74690424  1
  O  O129  1  0.10639406  0.36391810  -0.00269628  1
  O  O130  1  0.14887658  0.39154333  0.23924059  1
  O  O131  1  0.08211388  0.36472407  0.49631568  1
  O  O132  1  0.14737143  0.37783082  0.75131242  1
  O  O133  1  0.10498653  0.66064002  0.00052806  1
  O  O134  1  0.14948837  0.60070543  0.24802421  1
  O  O135  1  0.11405035  0.64646827  0.48717183  1
  O  O136  1  0.15166167  0.61476212  0.75974651  1
  O  O137  1  0.11710361  0.86432638  -0.00624767  1
  O  O138  1  0.11318902  0.89328294  0.25162205  1
  O  O139  1  0.11215415  0.85289639  0.49341734  1
  O  O140  1  0.14069349  0.88842749  0.74155195  1
  O  O141  1  0.37531663  0.09340475  -0.01047880  1
  O  O142  1  0.37656101  0.10700410  0.25022781  1
  O  O143  1  0.36331684  0.14368152  0.50799858  1
  O  O144  1  0.38280924  0.16845576  0.75233106  1
  O  O145  1  0.41888668  0.39543573  0.00237464  1
  O  O146  1  0.36232134  0.35945897  0.23700115  1
  O  O147  1  0.38501578  0.39219523  0.50441339  1
  O  O148  1  0.34849574  0.37375479  0.73715444  1
  O  O149  1  0.40188394  0.59585305  -0.00219675  1
  O  O150  1  0.34303872  0.63509001  0.24924806  1
  O  O151  1  0.36827923  0.65308552  0.49301689  1
  O  O152  1  0.33629410  0.63072072  0.75001400  1
  O  O153  1  0.37849626  0.90723127  -0.01392406  1
  O  O154  1  0.37958473  0.89158567  0.23904744  1
  O  O155  1  0.40182148  0.86895198  0.50309585  1
  O  O156  1  0.35413701  0.87679206  0.74365717  1
  O  O157  1  0.62227337  0.14760085  -0.00101700  1
  O  O158  1  0.62752653  0.10264974  0.24590412  1
  O  O159  1  0.62303253  0.15304901  0.52726999  1
  O  O160  1  0.66917496  0.08489995  0.76199087  1
  O  O161  1  0.62663800  0.35983899  0.01597555  1
  O  O162  1  0.65017760  0.39632222  0.25333218  1
  O  O163  1  0.60553448  0.34964367  0.50345684  1
  O  O164  1  0.65059428  0.39527990  0.73674612  1
  O  O165  1  0.61793639  0.65961531  0.00109632  1
  O  O166  1  0.63876675  0.60797180  0.24571475  1
  O  O167  1  0.62592432  0.64487387  0.51109914  1
  O  O168  1  0.65463875  0.60579523  0.74585500  1
  O  O169  1  0.61537746  0.84126451  -0.00720926  1
  O  O170  1  0.62064221  0.88733531  0.24156987  1
  O  O171  1  0.62161875  0.86088101  0.51928205  1
  O  O172  1  0.66934111  0.89541206  0.74984305  1
  O  O173  1  0.90366346  0.11176216  -0.00504375  1
  O  O174  1  0.85912765  0.13794080  0.23832358  1
  O  O175  1  0.86097871  0.12454018  0.49722277  1
  O  O176  1  0.88526319  0.14343000  0.75736120  1
  O  O177  1  0.92119454  0.39847115  -0.00223838  1
  O  O178  1  0.85053572  0.36902586  0.24639326  1
  O  O179  1  0.89897511  0.37229904  0.50817901  1
  O  O180  1  0.86310701  0.36133304  0.74769518  1
  O  O181  1  0.90508250  0.61972727  0.00529459  1
  O  O182  1  0.85166759  0.63919887  0.25022788  1
  O  O183  1  0.89394408  0.61456307  0.49482904  1
  O  O184  1  0.85841706  0.63670397  0.73847895  1
  O  O185  1  0.89434165  0.89549364  0.00336869  1
  O  O186  1  0.86046090  0.88286553  0.24666537  1
  O  O187  1  0.88045502  0.88693442  0.49763803  1
  O  O188  1  0.87139502  0.84907008  0.74663723  1
  O  O189  1  0.01081297  0.15728183  0.12530387  1
  O  O190  1  -0.01036410  0.10911533  0.36062823  1
  O  O191  1  -0.00212797  0.08677484  0.62685240  1
  O  O192  1  0.00281417  0.09844897  0.87156172  1
  O  O193  1  0.01026647  0.35411155  0.15418366  1
  O  O194  1  0.00086051  0.37798109  0.34057344  1
  O  O195  1  0.00199303  0.39586373  0.64141997  1
  O  O196  1  0.00748183  0.38212365  0.84988604  1
  O  O197  1  -0.00384690  0.66860439  0.14641828  1
  O  O198  1  -0.00029636  0.59983071  0.35777233  1
  O  O199  1  -0.00566739  0.59645355  0.63515200  1
  O  O200  1  0.00262341  0.62888293  0.84985595  1
  O  O201  1  -0.00072465  0.84946286  0.13697912  1
  O  O202  1  -0.00282469  0.88525871  0.37507573  1
  O  O203  1  0.00309611  0.90204730  0.62912141  1
  O  O204  1  0.00700561  0.88053125  0.85462680  1
  O  O205  1  0.25011000  0.09289623  0.12620927  1
  O  O206  1  0.24636303  0.13632370  0.36092645  1
  O  O207  1  0.23417720  0.14089243  0.62114356  1
  O  O208  1  0.25172552  0.14747316  0.87935638  1
  O  O209  1  0.25239131  0.40233159  0.10393376  1
  O  O210  1  0.23378208  0.34293927  0.41190904  1
  O  O211  1  0.23359455  0.34561342  0.59174223  1
  O  O212  1  0.24429468  0.34294129  0.90268901  1
  O  O213  1  0.25034963  0.61522403  0.09219692  1
  O  O214  1  0.24080655  0.65749856  0.37415266  1
  O  O215  1  0.24353553  0.65125455  0.61234473  1
  O  O216  1  0.24552361  0.63155218  0.91105459  1
  O  O217  1  0.25722600  0.90697225  0.10789741  1
  O  O218  1  0.24256472  0.84782218  0.36616282  1
  O  O219  1  0.25090759  0.85408205  0.60919974  1
  O  O220  1  0.25458987  0.88341483  0.87079262  1
  O  O221  1  0.50536328  0.14867646  0.12390482  1
  O  O222  1  0.50715583  0.11183071  0.39325645  1
  O  O223  1  0.51203019  0.08061774  0.66228699  1
  O  O224  1  0.51926446  0.10310894  0.84984863  1
  O  O225  1  0.51833734  0.36097324  0.15524234  1
  O  O226  1  0.50864751  0.38908646  0.34654485  1
  O  O227  1  0.51089861  0.39942887  0.64236222  1
  O  O228  1  0.49467838  0.35203293  0.83679982  1
  O  O229  1  0.50777258  0.66523767  0.13572914  1
  O  O230  1  0.48036350  0.57968093  0.37327855  1
  O  O231  1  0.50117086  0.61912621  0.64674564  1
  O  O232  1  0.49841416  0.63115768  0.83721551  1
  O  O233  1  0.49390719  0.85458593  0.10556692  1
  O  O234  1  0.49649664  0.89579868  0.36042609  1
  O  O235  1  0.50442541  0.90303418  0.66341082  1
  O  O236  1  0.50723838  0.90598246  0.85374232  1
  O  O237  1  0.75456333  0.09624066  0.09920829  1
  O  O238  1  0.74116326  0.14881872  0.37823994  1
  O  O239  1  0.74690813  0.15762031  0.63453878  1
  O  O240  1  0.76096511  0.13625046  0.89638937  1
  O  O241  1  0.74916503  0.40550221  0.11424485  1
  O  O242  1  0.74554076  0.34719301  0.38758949  1
  O  O243  1  0.74282642  0.34718390  0.61009360  1
  O  O244  1  0.76698745  0.38461872  0.90484282  1
  O  O245  1  0.75786195  0.61591295  0.09969288  1
  O  O246  1  0.75743086  0.64639317  0.39383663  1
  O  O247  1  0.76332477  0.65413755  0.59812350  1
  O  O248  1  0.76259779  0.60742028  0.88385684  1
  O  O249  1  0.75447727  0.90870354  0.11050127  1
  O  O250  1  0.75060658  0.86489057  0.37266133  1
  O  O251  1  0.76043506  0.84115214  0.60815814  1
  O  O252  1  0.74574197  0.84337083  0.88248232  1
  O  O253  1  0.09247752  0.00550684  0.11468218  1
  O  O254  1  0.14212636  -0.00351318  0.38947187  1
  O  O255  1  0.14191499  -0.00742207  0.59811477  1
  O  O256  1  0.14684394  0.00009301  0.87373828  1
  O  O257  1  0.16182392  0.25045253  0.10703407  1
  O  O258  1  0.10897949  0.25406363  0.35009210  1
  O  O259  1  0.08656147  0.25149078  0.62928075  1
  O  O260  1  0.10990865  0.24310404  0.87754414  1
  O  O261  1  0.08809375  0.49277467  0.10301930  1
  O  O262  1  0.14866261  0.49371406  0.37818734  1
  O  O263  1  0.14132515  0.49181166  0.60913305  1
  O  O264  1  0.10803790  0.50790711  0.89568095  1
  O  O265  1  0.16155694  0.75241863  0.15572000  1
  O  O266  1  0.08963082  0.74119342  0.34380052  1
  O  O267  1  0.10961366  0.75254968  0.64393185  1
  O  O268  1  0.12443667  0.75412957  0.85314275  1
  O  O269  1  0.41370029  -0.00017506  0.11971725  1
  O  O270  1  0.37288842  -0.00083747  0.39484259  1
  O  O271  1  0.35069587  0.00045396  0.61791369  1
  O  O272  1  0.37236213  0.01258393  0.83397724  1
  O  O273  1  0.37384745  0.26040532  0.09315898  1
  O  O274  1  0.37709845  0.25325580  0.37493083  1
  O  O275  1  0.38263989  0.26649904  0.61376614  1
  O  O276  1  0.40680263  0.23833413  0.89849796  1
  O  O277  1  0.40676288  0.49502987  0.13816917  1
  O  O278  1  0.33246576  0.51102453  0.38244852  1
  O  O279  1  0.34746448  0.49899075  0.62338192  1
  O  O280  1  0.35337234  0.49568385  0.86179499  1
  O  O281  1  0.35667872  0.75762676  0.10197802  1
  O  O282  1  0.41135436  0.74786290  0.36819157  1
  O  O283  1  0.40039255  0.75865799  0.62270887  1
  O  O284  1  0.39556524  0.76462435  0.87473817  1
  O  O285  1  0.60712302  0.00566897  0.09698564  1
  O  O286  1  0.64179240  0.00899049  0.39471820  1
  O  O287  1  0.65933480  -0.00463573  0.61764911  1
  O  O288  1  0.65422061  -0.00661742  0.91832311  1
  O  O289  1  0.65899151  0.24179675  0.14114403  1
  O  O290  1  0.59566113  0.24621604  0.36946902  1
  O  O291  1  0.59305298  0.22601378  0.69250919  1
  O  O292  1  0.63408070  0.23342400  0.86220174  1
  O  O293  1  0.59119288  0.51558576  0.09930628  1
  O  O294  1  0.64255392  0.49331334  0.40300014  1
  O  O295  1  0.64508777  0.50717659  0.60305014  1
  O  O296  1  0.58591284  0.50519967  0.91540051  1
  O  O297  1  0.66110552  0.75027870  0.13697273  1
  O  O298  1  0.60720194  0.73712016  0.36196847  1
  O  O299  1  0.61746846  0.75244213  0.65054141  1
  O  O300  1  0.61207856  0.75914097  0.83931602  1
  O  O301  1  0.91304132  0.00662407  0.12736252  1
  O  O302  1  0.85017592  0.00126949  0.36776353  1
  O  O303  1  0.85308070  -0.01018118  0.65396399  1
  O  O304  1  0.84983529  0.00072531  0.83887573  1
  O  O305  1  0.86435545  0.24453336  0.09016839  1
  O  O306  1  0.88154969  0.24547120  0.36227151  1
  O  O307  1  0.90152515  0.25414418  0.62277311  1
  O  O308  1  0.89381333  0.25882226  0.88748319  1
  O  O309  1  0.89329050  0.50891445  0.15060061  1
  O  O310  1  0.85290916  0.50451900  0.36465359  1
  O  O311  1  0.85662773  0.49326570  0.61758148  1
  O  O312  1  0.89355532  0.50369132  0.85307457  1
  O  O313  1  0.85685474  0.76001881  0.10573583  1
  O  O314  1  0.88942936  0.75420280  0.37278312  1
  O  O315  1  0.91447801  0.75392734  0.61327271  1
  O  O316  1  0.89323473  0.74431360  0.88357338  1
