# generated using pymatgen
data_Mg32Ti42(Bi17O64)3
_symmetry_space_group_name_H-M   'P 1'
_cell_length_a   15.93997473
_cell_length_b   15.96393602
_cell_length_c   15.96166393
_cell_angle_alpha   90.05923815
_cell_angle_beta   90.07976615
_cell_angle_gamma   90.01434015
_symmetry_Int_Tables_number   1
_chemical_formula_structural   Mg32Ti42(Bi17O64)3
_chemical_formula_sum   'Mg32 Ti42 Bi51 O192'
_cell_volume   4061.67437232
_cell_formula_units_Z   1
loop_
 _symmetry_equiv_pos_site_id
 _symmetry_equiv_pos_as_xyz
  1  'x, y, z'
loop_
 _atom_site_type_symbol
 _atom_site_label
 _atom_site_symmetry_multiplicity
 _atom_site_fract_x
 _atom_site_fract_y
 _atom_site_fract_z
 _atom_site_occupancy
  Mg  Mg0  1  0.13422762  0.87512132  0.12664172  1
  Mg  Mg1  1  0.62363242  0.62482416  0.12576277  1
  Mg  Mg2  1  0.12602969  0.85895266  0.64313039  1
  Mg  Mg3  1  0.38221519  0.13404943  0.36961403  1
  Mg  Mg4  1  0.38009497  0.12304865  0.63588134  1
  Mg  Mg5  1  0.87230728  0.12237163  0.12121655  1
  Mg  Mg6  1  0.87763379  0.12460780  0.62306419  1
  Mg  Mg7  1  0.37420233  0.63015815  0.61345822  1
  Mg  Mg8  1  0.12829370  0.37580799  0.37354947  1
  Mg  Mg9  1  0.37691260  0.87230623  0.87095476  1
  Mg  Mg10  1  0.87690373  0.87266380  0.87707055  1
  Mg  Mg11  1  0.88045309  0.62301891  0.12779475  1
  Mg  Mg12  1  0.37496444  0.38047486  0.87810254  1
  Mg  Mg13  1  0.87267054  0.37384616  0.37363688  1
  Mg  Mg14  1  0.37448247  0.62789619  0.87544216  1
  Mg  Mg15  1  0.63516447  0.37447884  0.12430246  1
  Mg  Mg16  1  0.11856806  0.62607664  0.87289180  1
  Mg  Mg17  1  0.61912558  0.37340940  0.62117921  1
  Mg  Mg18  1  0.12163132  0.12805111  0.37680135  1
  Mg  Mg19  1  0.26396907  0.79110960  0.50921916  1
  Mg  Mg20  1  0.81258753  -0.01246113  0.24253690  1
  Mg  Mg21  1  0.28658162  0.55245378  0.24817784  1
  Mg  Mg22  1  -0.04921798  0.51011888  0.71817133  1
  Mg  Mg23  1  0.06597447  -0.04306561  0.50540891  1
  Mg  Mg24  1  0.07874246  0.75082278  0.24644620  1
  Mg  Mg25  1  0.24372981  0.00804500  0.67062187  1
  Mg  Mg26  1  0.49736418  0.23570458  0.57169710  1
  Mg  Mg27  1  0.45782905  -0.04265015  0.28901946  1
  Mg  Mg28  1  -0.00859211  0.75398314  0.72179744  1
  Mg  Mg29  1  0.51005535  -0.04973816  -0.04603490  1
  Mg  Mg30  1  0.44798439  0.25254927  0.78711900  1
  Mg  Mg31  1  0.52794131  0.82169147  0.75884291  1
  Ti  Ti32  1  0.61208702  0.62758417  0.62347230  1
  Ti  Ti33  1  0.87266598  0.63576740  0.61266572  1
  Ti  Ti34  1  0.13739410  0.61798383  0.37249001  1
  Ti  Ti35  1  0.37725589  0.63965763  0.12171018  1
  Ti  Ti36  1  0.12781713  0.12629007  0.13282073  1
  Ti  Ti37  1  0.88301326  0.62201724  0.37145085  1
  Ti  Ti38  1  0.36411840  0.38966975  0.12923094  1
  Ti  Ti39  1  0.11516774  0.10905208  0.87453315  1
  Ti  Ti40  1  0.87630450  0.87853121  0.12116892  1
  Ti  Ti41  1  0.38733778  0.61280251  0.37959981  1
  Ti  Ti42  1  0.61982273  0.11552771  0.37004163  1
  Ti  Ti43  1  0.12581354  0.37766271  0.12549080  1
  Ti  Ti44  1  0.37754764  0.88468186  0.63417050  1
  Ti  Ti45  1  0.62497564  0.13714384  0.89410905  1
  Ti  Ti46  1  0.61566130  0.36539460  0.37458725  1
  Ti  Ti47  1  0.88025666  0.37529457  0.13308097  1
  Ti  Ti48  1  0.61547722  0.37300479  0.87260139  1
  Ti  Ti49  1  0.13600392  0.61917695  0.12841027  1
  Ti  Ti50  1  0.88501018  0.11789193  0.37191443  1
  Ti  Ti51  1  0.36775432  0.36578764  0.63244239  1
  Ti  Ti52  1  0.10115246  0.87204187  0.87230673  1
  Ti  Ti53  1  0.63540895  0.61438493  0.86579030  1
  Ti  Ti54  1  0.86505286  0.11027882  0.87884425  1
  Ti  Ti55  1  0.87245890  0.86613390  0.37395111  1
  Ti  Ti56  1  0.39196740  0.12674518  0.12192951  1
  Ti  Ti57  1  0.87656406  0.36618703  0.62718659  1
  Ti  Ti58  1  0.86743318  0.37805464  0.87016059  1
  Ti  Ti59  1  0.61802969  0.62536639  0.37097164  1
  Ti  Ti60  1  0.87872893  0.87432673  0.61636399  1
  Ti  Ti61  1  0.61764095  0.88165886  0.61512116  1
  Ti  Ti62  1  0.36448608  0.38058052  0.37237061  1
  Ti  Ti63  1  0.12536504  0.37210712  0.64004725  1
  Ti  Ti64  1  0.39154004  0.87891237  0.11542983  1
  Ti  Ti65  1  0.62281396  0.12960578  0.12878911  1
  Ti  Ti66  1  0.62599680  0.11381359  0.61707024  1
  Ti  Ti67  1  0.11335859  0.12250003  0.62450790  1
  Ti  Ti68  1  0.36937275  0.11649130  0.88381464  1
  Ti  Ti69  1  0.63279308  0.88781978  0.37328273  1
  Ti  Ti70  1  0.63052094  0.89767138  0.13679695  1
  Ti  Ti71  1  0.10983525  0.61934334  0.63475421  1
  Ti  Ti72  1  0.88432874  0.62677479  0.86807602  1
  Ti  Ti73  1  0.11619523  0.37534364  0.87486944  1
  Bi  Bi74  1  0.74449750  0.73881052  0.48550101  1
  Bi  Bi75  1  -0.00601300  0.24794397  0.02487742  1
  Bi  Bi76  1  0.50820659  0.04304176  0.76950090  1
  Bi  Bi77  1  0.24368657  0.76519690  -0.02769096  1
  Bi  Bi78  1  0.49709209  0.26199249  0.25010662  1
  Bi  Bi79  1  0.24237192  0.52128076  0.74531062  1
  Bi  Bi80  1  0.25118034  0.28081851  -0.01641627  1
  Bi  Bi81  1  0.24381367  0.51731131  0.52057065  1
  Bi  Bi82  1  0.75291859  0.51057851  -0.00931502  1
  Bi  Bi83  1  0.24627316  -0.01464291  -0.00787911  1
  Bi  Bi84  1  0.74047541  0.47890716  0.72548723  1
  Bi  Bi85  1  0.26573716  0.00933456  0.21939191  1
  Bi  Bi86  1  0.00057544  0.25138318  0.26531452  1
  Bi  Bi87  1  -0.00461181  0.50983469  -0.01016114  1
  Bi  Bi88  1  0.03158355  0.76942338  0.47713983  1
  Bi  Bi89  1  0.75842628  0.51558081  0.23003081  1
  Bi  Bi90  1  0.77995979  0.01148182  0.50112801  1
  Bi  Bi91  1  0.28530409  0.75380943  0.73622565  1
  Bi  Bi92  1  0.00297520  0.47426584  0.50594518  1
  Bi  Bi93  1  0.25593068  -0.03398699  0.44832903  1
  Bi  Bi94  1  0.75809595  0.22150523  0.25600493  1
  Bi  Bi95  1  0.74244251  0.47675672  0.47593051  1
  Bi  Bi96  1  0.04158591  -0.03951967  0.29185165  1
  Bi  Bi97  1  -0.00956315  -0.01632430  0.73203848  1
  Bi  Bi98  1  0.01603998  -0.00182104  0.03150808  1
  Bi  Bi99  1  0.50257958  0.28279749  0.02303898  1
  Bi  Bi100  1  0.76464264  0.25671087  0.01462106  1
  Bi  Bi101  1  0.72181395  0.23540846  0.50019397  1
  Bi  Bi102  1  0.01475195  0.74023648  0.02225694  1
  Bi  Bi103  1  0.75819064  0.74845570  0.22889957  1
  Bi  Bi104  1  0.46674966  0.01319461  0.48226583  1
  Bi  Bi105  1  0.72882810  0.75022494  0.74103323  1
  Bi  Bi106  1  0.24075356  0.51702162  -0.01702868  1
  Bi  Bi107  1  0.49566497  0.52844800  -0.01690648  1
  Bi  Bi108  1  0.72602551  -0.02818896  -0.03498789  1
  Bi  Bi109  1  0.29232694  0.77220203  0.28692728  1
  Bi  Bi110  1  0.51930488  0.76199876  0.23459507  1
  Bi  Bi111  1  0.71936265  0.24687894  0.73923144  1
  Bi  Bi112  1  0.54269158  0.75917241  -0.02577168  1
  Bi  Bi113  1  0.26002633  0.23916757  0.27227059  1
  Bi  Bi114  1  0.74186028  -0.02507715  0.74216685  1
  Bi  Bi115  1  0.48822497  0.78361532  0.47020152  1
  Bi  Bi116  1  0.24447077  0.21476862  0.76687584  1
  Bi  Bi117  1  -0.02737067  0.23324630  0.76816594  1
  Bi  Bi118  1  0.51526720  0.49000832  0.22198116  1
  Bi  Bi119  1  0.01865600  0.49385014  0.27251032  1
  Bi  Bi120  1  0.49228622  0.46771242  0.50575592  1
  Bi  Bi121  1  0.46401554  0.50847292  0.74243365  1
  Bi  Bi122  1  0.77066189  0.74045869  -0.00257573  1
  Bi  Bi123  1  0.02222403  0.25181179  0.50116326  1
  Bi  Bi124  1  0.26641773  0.21730469  0.50979585  1
  O  O125  1  0.12842878  0.09161887  -0.00966951  1
  O  O126  1  0.14423611  0.13461774  0.24726910  1
  O  O127  1  0.12545966  0.15637297  0.50562586  1
  O  O128  1  0.13505305  0.12501017  0.74643895  1
  O  O129  1  0.12947508  0.35598986  -0.00087848  1
  O  O130  1  0.09784674  0.36925277  0.24079855  1
  O  O131  1  0.10046298  0.36709950  0.50612627  1
  O  O132  1  0.13418448  0.38264385  0.75601366  1
  O  O133  1  0.15509505  0.62953036  0.00383371  1
  O  O134  1  0.10096795  0.62723817  0.24293761  1
  O  O135  1  0.14177667  0.61321106  0.49259502  1
  O  O136  1  0.11771183  0.59393386  0.74881513  1
  O  O137  1  0.12952885  0.90437126  0.00006930  1
  O  O138  1  0.12566695  0.86381546  0.25141143  1
  O  O139  1  0.14105361  0.84682929  0.51821197  1
  O  O140  1  0.06836895  0.85878092  0.75644376  1
  O  O141  1  0.37849375  0.11784100  0.00259540  1
  O  O142  1  0.34883851  0.13029646  0.24251810  1
  O  O143  1  0.38926047  0.14478581  0.50112803  1
  O  O144  1  0.38806187  0.13649821  0.76155697  1
  O  O145  1  0.36779780  0.37061414  0.00758699  1
  O  O146  1  0.40573667  0.37336966  0.24377557  1
  O  O147  1  0.36711962  0.38954122  0.49095773  1
  O  O148  1  0.38909979  0.37677379  0.74869386  1
  O  O149  1  0.36155896  0.60106283  0.00486286  1
  O  O150  1  0.38790519  0.63725193  0.24614314  1
  O  O151  1  0.35139312  0.60529658  0.49008759  1
  O  O152  1  0.37025038  0.61465831  0.74636367  1
  O  O153  1  0.39587695  0.90444894  0.00276889  1
  O  O154  1  0.39589803  0.85504920  0.24817178  1
  O  O155  1  0.35954048  0.88914238  0.51577765  1
  O  O156  1  0.40019508  0.83593099  0.74529838  1
  O  O157  1  0.62006413  0.15454784  0.00438967  1
  O  O158  1  0.63905234  0.13770676  0.25117799  1
  O  O159  1  0.61605484  0.14074364  0.49023173  1
  O  O160  1  0.64379067  0.11807029  0.73573688  1
  O  O161  1  0.62462737  0.36435380  -0.00774205  1
  O  O162  1  0.59505303  0.37654668  0.25488345  1
  O  O163  1  0.62103733  0.38937303  0.49483803  1
  O  O164  1  0.64058831  0.36863222  0.74803564  1
  O  O165  1  0.64464018  0.60045057  -0.00098937  1
  O  O166  1  0.59717176  0.62648054  0.25848799  1
  O  O167  1  0.63420183  0.65285054  0.50761442  1
  O  O168  1  0.63290654  0.62633795  0.75125460  1
  O  O169  1  0.62757862  0.88276728  0.01438556  1
  O  O170  1  0.58653808  0.89282911  0.26035230  1
  O  O171  1  0.63503680  0.85172671  0.49966968  1
  O  O172  1  0.60925099  0.91770752  0.73414904  1
  O  O173  1  0.87050065  0.15829657  -0.00961886  1
  O  O174  1  0.84250148  0.11281950  0.24929010  1
  O  O175  1  0.88139384  0.11564190  0.48919100  1
  O  O176  1  0.88546694  0.11599627  0.75784658  1
  O  O177  1  0.87160071  0.35961831  -0.01055314  1
  O  O178  1  0.89511195  0.37858487  0.24596063  1
  O  O179  1  0.88804392  0.38375905  0.50845489  1
  O  O180  1  0.86982394  0.40490558  0.74643140  1
  O  O181  1  0.84837902  0.61690449  0.00001137  1
  O  O182  1  0.87526621  0.61687547  0.25624718  1
  O  O183  1  0.85660894  0.63673471  0.50049742  1
  O  O184  1  0.91599291  0.63683454  0.75711736  1
  O  O185  1  0.83142311  0.86955463  0.00827285  1
  O  O186  1  0.89044502  0.88017058  0.25755442  1
  O  O187  1  0.84485752  0.87704977  0.50232666  1
  O  O188  1  0.89071297  0.88604224  0.74577992  1
  O  O189  1  0.00354428  0.12366808  0.10433658  1
  O  O190  1  -0.00475920  0.11088496  0.34494249  1
  O  O191  1  0.00234568  0.10701652  0.63018531  1
  O  O192  1  0.00407292  0.14565792  0.87690423  1
  O  O193  1  -0.00048092  0.38068150  0.10107563  1
  O  O194  1  -0.00330204  0.40841410  0.37835728  1
  O  O195  1  -0.00614938  0.40940962  0.64001968  1
  O  O196  1  0.00292690  0.34544311  0.86824670  1
  O  O197  1  0.00357970  0.61970705  0.09518448  1
  O  O198  1  -0.00641774  0.59379400  0.38313486  1
  O  O199  1  -0.00538553  0.59584058  0.61661804  1
  O  O200  1  -0.00345552  0.63400356  0.91347125  1
  O  O201  1  -0.01002044  0.86754191  0.10518383  1
  O  O202  1  -0.00836514  0.88882849  0.41135124  1
  O  O203  1  -0.00563314  0.90558225  0.60467787  1
  O  O204  1  -0.00257724  0.85578921  0.91086622  1
  O  O205  1  0.24686468  0.09764656  0.11462476  1
  O  O206  1  0.24946960  0.15623272  0.38455443  1
  O  O207  1  0.25111708  0.13100171  0.62500247  1
  O  O208  1  0.25564839  0.10189843  0.86372804  1
  O  O209  1  0.24724350  0.35853951  0.13217048  1
  O  O210  1  0.25087581  0.35144291  0.36588942  1
  O  O211  1  0.24691671  0.35810840  0.62504244  1
  O  O212  1  0.24675120  0.38706617  0.88989337  1
  O  O213  1  0.24913083  0.62730673  0.15106352  1
  O  O214  1  0.24768170  0.63499430  0.34476029  1
  O  O215  1  0.24098958  0.60908341  0.63058677  1
  O  O216  1  0.24665464  0.59048379  0.86587677  1
  O  O217  1  0.26146854  0.90318075  0.11565280  1
  O  O218  1  0.25494231  0.84460999  0.39366683  1
  O  O219  1  0.24950345  0.87992843  0.67196664  1
  O  O220  1  0.24884202  0.88577679  0.89113245  1
  O  O221  1  0.50297907  0.11657294  0.13436969  1
  O  O222  1  0.50505554  0.08763754  0.36334886  1
  O  O223  1  0.50898957  0.11508442  0.62314974  1
  O  O224  1  0.51227040  0.15715694  0.85680195  1
  O  O225  1  0.49433325  0.40121121  0.10681569  1
  O  O226  1  0.49683238  0.40075946  0.38621980  1
  O  O227  1  0.49322361  0.36681245  0.60138984  1
  O  O228  1  0.50502079  0.33966848  0.86736526  1
  O  O229  1  0.49503490  0.61779000  0.10794778  1
  O  O230  1  0.49910629  0.60028346  0.39912138  1
  O  O231  1  0.50102462  0.62040369  0.61950732  1
  O  O232  1  0.50864170  0.64046893  0.89823546  1
  O  O233  1  0.50847181  0.86392964  0.12282995  1
  O  O234  1  0.50531360  0.90357225  0.40223857  1
  O  O235  1  0.49871702  0.88102439  0.60937887  1
  O  O236  1  0.50522328  0.84600710  0.87975741  1
  O  O237  1  0.74301784  0.16264476  0.12085222  1
  O  O238  1  0.74481482  0.15410548  0.38450818  1
  O  O239  1  0.75052056  0.13828624  0.59556463  1
  O  O240  1  0.74668734  0.10228592  0.87804912  1
  O  O241  1  0.75903241  0.34897659  0.12475888  1
  O  O242  1  0.74117786  0.36668450  0.38329431  1
  O  O243  1  0.75410371  0.37525296  0.62563022  1
  O  O244  1  0.75349968  0.40464714  0.87444427  1
  O  O245  1  0.74728481  0.62760747  0.15338522  1
  O  O246  1  0.73549160  0.66046771  0.36925089  1
  O  O247  1  0.75552807  0.66882366  0.63430098  1
  O  O248  1  0.75555552  0.58992315  0.86618658  1
  O  O249  1  0.74532061  0.88948882  0.17302291  1
  O  O250  1  0.74433427  0.85207814  0.36333920  1
  O  O251  1  0.74723362  0.86137102  0.65181557  1
  O  O252  1  0.74905533  0.89541831  0.85591080  1
  O  O253  1  0.10216249  0.00120977  0.14214721  1
  O  O254  1  0.12240686  0.00190963  0.39695585  1
  O  O255  1  0.13649421  0.00464322  0.60655445  1
  O  O256  1  0.09787247  -0.00472010  0.85081812  1
  O  O257  1  0.11364422  0.24301937  0.11723822  1
  O  O258  1  0.08509590  0.25433853  0.37465284  1
  O  O259  1  0.09533074  0.25572219  0.63239823  1
  O  O260  1  0.15607500  0.24016940  0.87325184  1
  O  O261  1  0.13261759  0.49577519  0.11664459  1
  O  O262  1  0.13602019  0.50093333  0.35093986  1
  O  O263  1  0.13545710  0.49008919  0.61225814  1
  O  O264  1  0.10582764  0.49136023  0.90232344  1
  O  O265  1  0.11601094  0.74650459  0.12221448  1
  O  O266  1  0.09629511  0.73288827  0.36873479  1
  O  O267  1  0.09473087  0.73264551  0.64654061  1
  O  O268  1  0.13981311  0.75507355  0.88206390  1
  O  O269  1  0.39259579  -0.00486981  0.16600006  1
  O  O270  1  0.36832771  0.00540597  0.37684642  1
  O  O271  1  0.36700214  -0.00256464  0.65203398  1
  O  O272  1  0.41594293  0.00463363  0.87064407  1
  O  O273  1  0.39715645  0.24596696  0.12706933  1
  O  O274  1  0.38519575  0.25897699  0.35179858  1
  O  O275  1  0.39020114  0.25048178  0.63814008  1
  O  O276  1  0.35146746  0.24547138  0.87518150  1
  O  O277  1  0.35337152  0.50092759  0.14666735  1
  O  O278  1  0.35150323  0.49983058  0.34564907  1
  O  O279  1  0.37393830  0.49162782  0.62954172  1
  O  O280  1  0.40873502  0.50126547  0.87069328  1
  O  O281  1  0.37101175  0.75368933  0.10645729  1
  O  O282  1  0.38898382  0.73596993  0.38286569  1
  O  O283  1  0.34154580  0.75408468  0.60575051  1
  O  O284  1  0.34089683  0.74708481  0.88081806  1
  O  O285  1  0.63762772  0.01263155  0.12208222  1
  O  O286  1  0.65219586  0.00201375  0.38264401  1
  O  O287  1  0.64756488  -0.00173839  0.59472314  1
  O  O288  1  0.59883851  0.01828070  0.89497343  1
  O  O289  1  0.59067642  0.25568177  0.13111381  1
  O  O290  1  0.59855810  0.25267233  0.37032460  1
  O  O291  1  0.62155817  0.24473266  0.61722095  1
  O  O292  1  0.66050964  0.25118808  0.86277481  1
  O  O293  1  0.63847131  0.49767356  0.14879152  1
  O  O294  1  0.64810260  0.51077334  0.37779222  1
  O  O295  1  0.63749736  0.51246267  0.62327238  1
  O  O296  1  0.59763623  0.49373397  0.86935375  1
  O  O297  1  0.63802461  0.76017174  0.14955922  1
  O  O298  1  0.58241793  0.75804094  0.36830558  1
  O  O299  1  0.60874488  0.76480399  0.66983329  1
  O  O300  1  0.64855554  0.73265873  0.89026582  1
  O  O301  1  0.87282850  -0.00485325  0.12566732  1
  O  O302  1  0.85086763  -0.00386149  0.36860593  1
  O  O303  1  0.84965644  -0.00355649  0.62324491  1
  O  O304  1  0.88734166  0.00296961  0.89831133  1
  O  O305  1  0.89530831  0.25192792  0.12551600  1
  O  O306  1  0.89147714  0.24446151  0.35603160  1
  O  O307  1  0.88805229  0.25470924  0.63893481  1
  O  O308  1  0.85652324  0.26043877  0.83831306  1
  O  O309  1  0.85067574  0.49364976  0.12309577  1
  O  O310  1  0.84098123  0.50881654  0.38288379  1
  O  O311  1  0.84847797  0.52305966  0.63682464  1
  O  O312  1  0.90765018  0.50030089  0.87468525  1
  O  O313  1  0.85610030  0.75293675  0.12272413  1
  O  O314  1  0.89065261  0.75066513  0.38218420  1
  O  O315  1  0.90559526  0.75695126  0.62962420  1
  O  O316  1  0.85071457  0.74160414  0.88306713  1
