# generated using pymatgen
data_Mg32Ti42(Bi17O64)3
_symmetry_space_group_name_H-M   'P 1'
_cell_length_a   15.94379075
_cell_length_b   15.91686436
_cell_length_c   15.95755106
_cell_angle_alpha   89.91062335
_cell_angle_beta   90.11835620
_cell_angle_gamma   90.03700709
_symmetry_Int_Tables_number   1
_chemical_formula_structural   Mg32Ti42(Bi17O64)3
_chemical_formula_sum   'Mg32 Ti42 Bi51 O192'
_cell_volume   4049.61558645
_cell_formula_units_Z   1
loop_
 _symmetry_equiv_pos_site_id
 _symmetry_equiv_pos_as_xyz
  1  'x, y, z'
loop_
 _atom_site_type_symbol
 _atom_site_label
 _atom_site_symmetry_multiplicity
 _atom_site_fract_x
 _atom_site_fract_y
 _atom_site_fract_z
 _atom_site_occupancy
  Mg  Mg0  1  0.12342016  0.11901725  0.63120041  1
  Mg  Mg1  1  0.37511057  0.12729071  0.12541551  1
  Mg  Mg2  1  0.37467437  0.13040471  0.62882936  1
  Mg  Mg3  1  0.88995413  0.37000667  0.86863669  1
  Mg  Mg4  1  0.12660611  0.88805092  0.88255063  1
  Mg  Mg5  1  0.63958394  0.63144396  0.86864087  1
  Mg  Mg6  1  0.12478307  0.37056351  0.12340005  1
  Mg  Mg7  1  0.12203720  0.62015066  0.37503946  1
  Mg  Mg8  1  0.12112110  0.63637284  0.89274312  1
  Mg  Mg9  1  0.12270874  0.37857667  0.63247898  1
  Mg  Mg10  1  0.88039619  0.38014710  0.12436532  1
  Mg  Mg11  1  0.12461679  0.62535612  0.62237363  1
  Mg  Mg12  1  0.36881669  0.12809942  0.37679287  1
  Mg  Mg13  1  0.36825597  0.37502419  0.86651704  1
  Mg  Mg14  1  0.87591922  0.12193220  0.64043201  1
  Mg  Mg15  1  0.61807919  0.87173692  0.63110313  1
  Mg  Mg16  1  0.61777846  0.61340636  0.62311533  1
  Mg  Mg17  1  0.62434266  0.37401068  0.37854460  1
  Mg  Mg18  1  0.38430500  0.85326872  0.88103758  1
  Mg  Mg19  1  0.47386358  0.26925252  0.74139749  1
  Mg  Mg20  1  -0.00429966  0.19411901  0.78417184  1
  Mg  Mg21  1  0.52869885  0.28515084  -0.07236036  1
  Mg  Mg22  1  0.27276508  -0.02944464  0.73373104  1
  Mg  Mg23  1  0.49203219  0.47494028  0.44441839  1
  Mg  Mg24  1  -0.00956341  -0.00000849  0.51789750  1
  Mg  Mg25  1  -0.00645831  0.53441166  0.78603737  1
  Mg  Mg26  1  0.29091063  -0.01212286  -0.05253826  1
  Mg  Mg27  1  0.72273505  0.69879849  0.73080131  1
  Mg  Mg28  1  -0.02270471  0.73462782  0.28597732  1
  Mg  Mg29  1  -0.02864033  0.71904827  -0.00528595  1
  Mg  Mg30  1  0.52872448  0.71562862  0.50199156  1
  Mg  Mg31  1  0.55354668  0.48381251  0.80173109  1
  Ti  Ti32  1  0.14209115  0.10902907  0.88133779  1
  Ti  Ti33  1  0.38063295  0.61005890  0.61885461  1
  Ti  Ti34  1  0.60996228  0.11588027  0.86813436  1
  Ti  Ti35  1  0.86977217  0.62844197  0.87705422  1
  Ti  Ti36  1  0.36484856  0.37469570  0.12741504  1
  Ti  Ti37  1  0.61210142  0.86734682  0.87680949  1
  Ti  Ti38  1  0.37451486  0.37862665  0.62932389  1
  Ti  Ti39  1  0.88404917  0.86849511  0.39061404  1
  Ti  Ti40  1  0.12486627  0.87540356  0.38383375  1
  Ti  Ti41  1  0.11164297  0.88786069  0.12581765  1
  Ti  Ti42  1  0.11795652  0.13787550  0.37810313  1
  Ti  Ti43  1  0.62929109  0.10948120  0.14452595  1
  Ti  Ti44  1  0.88091194  0.12486238  0.38445694  1
  Ti  Ti45  1  0.11300152  0.63937471  0.13101107  1
  Ti  Ti46  1  0.11297733  0.37298899  0.37567034  1
  Ti  Ti47  1  0.62146691  0.87401187  0.12416849  1
  Ti  Ti48  1  0.37567787  0.86865756  0.61844068  1
  Ti  Ti49  1  0.60881755  0.86668248  0.37980344  1
  Ti  Ti50  1  0.13282381  0.87389879  0.62207202  1
  Ti  Ti51  1  0.86389255  0.62500437  0.38260948  1
  Ti  Ti52  1  0.87440115  0.37243931  0.63219132  1
  Ti  Ti53  1  0.12849983  0.12212245  0.11562307  1
  Ti  Ti54  1  0.37241442  0.87409428  0.37842463  1
  Ti  Ti55  1  0.61982010  0.38465010  0.61348447  1
  Ti  Ti56  1  0.36612055  0.88109543  0.11963270  1
  Ti  Ti57  1  0.88204194  0.86917723  0.62793223  1
  Ti  Ti58  1  0.36917822  0.61903319  0.86476461  1
  Ti  Ti59  1  0.38205267  0.13427663  0.85972843  1
  Ti  Ti60  1  0.86332072  0.11576466  0.12505256  1
  Ti  Ti61  1  0.11191004  0.37866657  0.86815856  1
  Ti  Ti62  1  0.63368088  0.12523048  0.38638340  1
  Ti  Ti63  1  0.37978756  0.62459024  0.37433539  1
  Ti  Ti64  1  0.88680091  0.86932745  0.87766100  1
  Ti  Ti65  1  0.37296705  0.36196087  0.37414122  1
  Ti  Ti66  1  0.35734664  0.62152742  0.11118453  1
  Ti  Ti67  1  0.86805300  0.61925547  0.62883759  1
  Ti  Ti68  1  0.88488806  0.63431575  0.14423970  1
  Ti  Ti69  1  0.85014637  0.13700395  0.87370004  1
  Ti  Ti70  1  0.87562145  0.39013043  0.37462072  1
  Ti  Ti71  1  0.87923762  0.86869051  0.13005791  1
  Ti  Ti72  1  0.63051348  0.12237660  0.63501180  1
  Ti  Ti73  1  0.61700566  0.62645929  0.36714322  1
  Bi  Bi74  1  0.21649462  0.24732478  0.75571661  1
  Bi  Bi75  1  0.48039306  0.01718893  0.01427874  1
  Bi  Bi76  1  0.49173397  0.48179902  -0.01155201  1
  Bi  Bi77  1  0.70721813  0.24971670  0.02201013  1
  Bi  Bi78  1  0.73022306  0.75713244  0.52117930  1
  Bi  Bi79  1  0.22119774  0.52390909  0.76451784  1
  Bi  Bi80  1  0.22126268  0.77280246  0.01536025  1
  Bi  Bi81  1  0.75258664  -0.01631737  0.29181303  1
  Bi  Bi82  1  0.25452874  0.48434840  0.25302959  1
  Bi  Bi83  1  0.48833863  0.26025826  0.51436668  1
  Bi  Bi84  1  -0.02272643  0.00815223  -0.02274245  1
  Bi  Bi85  1  0.46867644  0.75011057  0.22014618  1
  Bi  Bi86  1  0.71974381  0.48917552  0.20108965  1
  Bi  Bi87  1  -0.00615614  0.23813028  0.54181705  1
  Bi  Bi88  1  -0.02268785  0.24746839  0.00723148  1
  Bi  Bi89  1  0.25225649  0.23504121  0.23427546  1
  Bi  Bi90  1  0.00902006  -0.01549897  0.72833947  1
  Bi  Bi91  1  -0.00572006  0.49351001  0.52594001  1
  Bi  Bi92  1  0.01110231  0.73029020  0.49546493  1
  Bi  Bi93  1  -0.00222565  0.48901386  0.00001760  1
  Bi  Bi94  1  0.53144486  0.28811593  0.23060495  1
  Bi  Bi95  1  0.74993942  0.26850346  0.26203487  1
  Bi  Bi96  1  0.47744769  0.02838771  0.25808784  1
  Bi  Bi97  1  0.50838776  0.70273232  -0.01268704  1
  Bi  Bi98  1  0.23490935  0.77589050  0.77271805  1
  Bi  Bi99  1  0.46811522  -0.02081138  0.74836449  1
  Bi  Bi100  1  0.25081502  0.47950597  -0.01329195  1
  Bi  Bi101  1  0.51172360  0.52095057  0.20827450  1
  Bi  Bi102  1  0.69684237  0.27408392  0.77005514  1
  Bi  Bi103  1  0.27305567  0.24252386  -0.01143747  1
  Bi  Bi104  1  0.01628154  0.72747601  0.75617357  1
  Bi  Bi105  1  0.24123637  0.00628159  0.26173807  1
  Bi  Bi106  1  0.76285472  0.27911304  0.50023452  1
  Bi  Bi107  1  0.73253126  0.71124325  0.03130417  1
  Bi  Bi108  1  -0.02067783  0.24066329  0.23067471  1
  Bi  Bi109  1  0.22254280  0.48528879  0.49794460  1
  Bi  Bi110  1  0.26210067  0.71616537  0.50373260  1
  Bi  Bi111  1  0.73893528  0.00651840  0.52573231  1
  Bi  Bi112  1  0.26336508  0.01477138  0.50810228  1
  Bi  Bi113  1  0.73543478  0.75812513  0.24861111  1
  Bi  Bi114  1  0.01425671  0.48815460  0.23115090  1
  Bi  Bi115  1  0.74966905  -0.03225134  0.76796147  1
  Bi  Bi116  1  0.50227824  0.72292332  0.73923426  1
  Bi  Bi117  1  0.49589442  0.02197929  0.50487211  1
  Bi  Bi118  1  0.71102711  0.45686234  -0.01509518  1
  Bi  Bi119  1  0.23178086  0.73509024  0.26208029  1
  Bi  Bi120  1  0.01118358  -0.00291762  0.27477811  1
  Bi  Bi121  1  0.75669476  0.47556883  0.77395045  1
  Bi  Bi122  1  0.74629325  -0.03470242  -0.00142767  1
  Bi  Bi123  1  0.23584587  0.24741765  0.52603011  1
  Bi  Bi124  1  0.72398245  0.51863557  0.48570089  1
  O  O125  1  0.13948943  0.15586750  0.00113765  1
  O  O126  1  0.12642017  0.09057350  0.25706194  1
  O  O127  1  0.10787028  0.14729307  0.49333930  1
  O  O128  1  0.15201363  0.12004252  0.75931669  1
  O  O129  1  0.09749229  0.38626011  -0.00704457  1
  O  O130  1  0.13802292  0.40709139  0.25719493  1
  O  O131  1  0.13296502  0.35889679  0.49232454  1
  O  O132  1  0.15943124  0.39715856  0.75503496  1
  O  O133  1  0.09029105  0.66892522  0.01573755  1
  O  O134  1  0.15666317  0.61669285  0.24946517  1
  O  O135  1  0.12754634  0.65855260  0.49849258  1
  O  O136  1  0.09658775  0.60178665  0.74431917  1
  O  O137  1  0.11370483  0.85522724  0.00925161  1
  O  O138  1  0.13352869  0.91072336  0.25257336  1
  O  O139  1  0.11742066  0.85065426  0.50267308  1
  O  O140  1  0.16132342  0.90482392  0.75036069  1
  O  O141  1  0.36353071  0.09088436  -0.00361935  1
  O  O142  1  0.39428651  0.13590724  0.25309631  1
  O  O143  1  0.37634469  0.09473148  0.49845163  1
  O  O144  1  0.39956071  0.16678880  0.75136409  1
  O  O145  1  0.37417484  0.40237121  0.00706951  1
  O  O146  1  0.34588332  0.37048510  0.25141972  1
  O  O147  1  0.41364144  0.38673222  0.48996328  1
  O  O148  1  0.37130434  0.35090959  0.74131114  1
  O  O149  1  0.37722711  0.60043263  -0.00279490  1
  O  O150  1  0.36853845  0.65023968  0.25412475  1
  O  O151  1  0.37788583  0.62617740  0.50073122  1
  O  O152  1  0.39355024  0.63002605  0.74697112  1
  O  O153  1  0.38402989  0.91050876  -0.00170017  1
  O  O154  1  0.36946102  0.85447561  0.24286779  1
  O  O155  1  0.38110836  0.90220291  0.49801189  1
  O  O156  1  0.36429481  0.87390514  0.75050516  1
  O  O157  1  0.60062534  0.17832994  -0.02716532  1
  O  O158  1  0.63816193  0.09437032  0.25561148  1
  O  O159  1  0.65121133  0.13102049  0.49965392  1
  O  O160  1  0.61682289  0.09331156  0.74650983  1
  O  O161  1  0.61910295  0.35368096  -0.00968213  1
  O  O162  1  0.64491037  0.37026116  0.25263120  1
  O  O163  1  0.60550261  0.34563392  0.50048020  1
  O  O164  1  0.62960095  0.39679465  0.73691632  1
  O  O165  1  0.63083059  0.63090005  -0.00637162  1
  O  O166  1  0.61449664  0.60831204  0.25627533  1
  O  O167  1  0.64300341  0.64418643  0.49990822  1
  O  O168  1  0.60341953  0.62721659  0.74780643  1
  O  O169  1  0.63287299  0.86890453  -0.00194600  1
  O  O170  1  0.64875229  0.87493836  0.24938752  1
  O  O171  1  0.60446137  0.82651735  0.49438312  1
  O  O172  1  0.64234175  0.88179369  0.75969261  1
  O  O173  1  0.89503625  0.13000055  -0.00059718  1
  O  O174  1  0.86548548  0.14157985  0.24079127  1
  O  O175  1  0.91427939  0.10852912  0.49519770  1
  O  O176  1  0.88007850  0.13221076  0.76528238  1
  O  O177  1  0.91330122  0.37926718  -0.00216749  1
  O  O178  1  0.85844140  0.36295702  0.25653456  1
  O  O179  1  0.87878114  0.37222580  0.49321155  1
  O  O180  1  0.85708130  0.36458920  0.74314274  1
  O  O181  1  0.87716891  0.62945945  -0.00715929  1
  O  O182  1  0.87057442  0.65442531  0.25739635  1
  O  O183  1  0.84666319  0.61347706  0.49922939  1
  O  O184  1  0.90453348  0.62365767  0.74066751  1
  O  O185  1  0.88868599  0.89254228  -0.00323091  1
  O  O186  1  0.85613818  0.85421221  0.24415813  1
  O  O187  1  0.91493752  0.88819754  0.50293797  1
  O  O188  1  0.86732024  0.88633079  0.75306278  1
  O  O189  1  0.00988930  0.14327597  0.13193440  1
  O  O190  1  -0.00241045  0.13569074  0.34570100  1
  O  O191  1  0.00352922  0.15994755  0.65480501  1
  O  O192  1  0.02560914  0.09995079  0.87146542  1
  O  O193  1  0.00388508  0.37164678  0.15814476  1
  O  O194  1  -0.00055304  0.36199623  0.36205786  1
  O  O195  1  -0.00542489  0.36694427  0.61885068  1
  O  O196  1  0.00724422  0.42383451  0.84721391  1
  O  O197  1  0.00835934  0.66019617  0.17787018  1
  O  O198  1  -0.00684284  0.64698152  0.38125320  1
  O  O199  1  -0.00834866  0.62704987  0.58860439  1
  O  O200  1  -0.00317809  0.62329553  0.87585228  1
  O  O201  1  0.00125113  0.87657434  0.14361115  1
  O  O202  1  -0.00443754  0.84990280  0.34688942  1
  O  O203  1  0.00608249  0.85970004  0.66324517  1
  O  O204  1  0.00001735  0.91281160  0.86831734  1
  O  O205  1  0.24885552  0.11866488  0.15007301  1
  O  O206  1  0.23626832  0.09638293  0.38001371  1
  O  O207  1  0.24623387  0.11916041  0.59988691  1
  O  O208  1  0.25876865  0.16467851  0.87627881  1
  O  O209  1  0.24539501  0.40399562  0.12004640  1
  O  O210  1  0.25872533  0.40525507  0.38320242  1
  O  O211  1  0.26081462  0.38478671  0.59763060  1
  O  O212  1  0.24130256  0.35748659  0.90850221  1
  O  O213  1  0.24187857  0.62298191  0.10446094  1
  O  O214  1  0.25793776  0.62245201  0.38965130  1
  O  O215  1  0.25878819  0.61634115  0.61439374  1
  O  O216  1  0.25310139  0.64862271  0.86028092  1
  O  O217  1  0.25340684  0.88653850  0.10496572  1
  O  O218  1  0.24277596  0.89811534  0.37952893  1
  O  O219  1  0.24820477  0.89915971  0.61393538  1
  O  O220  1  0.25691845  0.85232121  0.89651685  1
  O  O221  1  0.51343175  0.11816113  0.12489787  1
  O  O222  1  0.51381773  0.11233092  0.39185875  1
  O  O223  1  0.51000066  0.12815994  0.59973999  1
  O  O224  1  0.49398833  0.08888732  0.88037465  1
  O  O225  1  0.48464332  0.37980744  0.14260703  1
  O  O226  1  0.49600902  0.36567835  0.34709150  1
  O  O227  1  0.50257357  0.33516474  0.63391699  1
  O  O228  1  0.49234546  0.40283701  0.87593820  1
  O  O229  1  0.48600209  0.63308356  0.12923517  1
  O  O230  1  0.50358738  0.65653525  0.39221329  1
  O  O231  1  0.49764748  0.66025883  0.61177263  1
  O  O232  1  0.49747689  0.58585289  0.88914231  1
  O  O233  1  0.50807585  0.85913445  0.12713027  1
  O  O234  1  0.49677745  0.86687474  0.36157293  1
  O  O235  1  0.49193448  0.87532751  0.64474594  1
  O  O236  1  0.50248848  0.89713720  0.86694722  1
  O  O237  1  0.74909127  0.11469362  0.09903323  1
  O  O238  1  0.76026107  0.09676715  0.37769643  1
  O  O239  1  0.75225261  0.09215609  0.63134908  1
  O  O240  1  0.73646018  0.15921844  0.87382064  1
  O  O241  1  0.75878330  0.39485727  0.10866614  1
  O  O242  1  0.75239958  0.38244534  0.39168262  1
  O  O243  1  0.74527438  0.38202770  0.60230274  1
  O  O244  1  0.76045002  0.37648808  0.87846893  1
  O  O245  1  0.76801090  0.61938124  0.12887100  1
  O  O246  1  0.74583977  0.59980099  0.36846703  1
  O  O247  1  0.75343046  0.60925368  0.64772146  1
  O  O248  1  0.76199179  0.66723218  0.84454874  1
  O  O249  1  0.75998083  0.87494500  0.10849821  1
  O  O250  1  0.76170404  0.88483753  0.39053762  1
  O  O251  1  0.76463728  0.89437889  0.61266332  1
  O  O252  1  0.76043644  0.87947978  0.88187525  1
  O  O253  1  0.11445011  0.00560277  0.10363228  1
  O  O254  1  0.07630932  -0.00998977  0.40052799  1
  O  O255  1  0.09010857  -0.00662457  0.60725193  1
  O  O256  1  0.17234761  0.00564276  0.90945319  1
  O  O257  1  0.14227702  0.24707046  0.15307778  1
  O  O258  1  0.14132222  0.24983943  0.35151883  1
  O  O259  1  0.14743673  0.25384239  0.63380346  1
  O  O260  1  0.09902834  0.26384593  0.83651758  1
  O  O261  1  0.09191639  0.51827124  0.11767452  1
  O  O262  1  0.11175157  0.49481682  0.40310111  1
  O  O263  1  0.11458953  0.49899825  0.59444545  1
  O  O264  1  0.15099735  0.50870383  0.88326697  1
  O  O265  1  0.14957749  0.76293843  0.14972642  1
  O  O266  1  0.13060169  0.75842929  0.35202642  1
  O  O267  1  0.13580898  0.75676476  0.65692416  1
  O  O268  1  0.11709810  0.75913203  0.84677926  1
  O  O269  1  0.39732685  -0.00463456  0.14288788  1
  O  O270  1  0.37875386  -0.00440747  0.34857049  1
  O  O271  1  0.37001751  0.00379311  0.64978343  1
  O  O272  1  0.34286783  0.02046832  0.83318757  1
  O  O273  1  0.35289007  0.25765926  0.12311036  1
  O  O274  1  0.35415783  0.25263934  0.38970627  1
  O  O275  1  0.36485397  0.25506736  0.59279439  1
  O  O276  1  0.40039281  0.24889917  0.91052773  1
  O  O277  1  0.37208680  0.50889871  0.14687576  1
  O  O278  1  0.40311716  0.51377943  0.36325382  1
  O  O279  1  0.39519222  0.49751450  0.62864499  1
  O  O280  1  0.33165446  0.50004721  0.86257868  1
  O  O281  1  0.37656914  0.75227608  0.10866128  1
  O  O282  1  0.35617656  0.76065431  0.39120723  1
  O  O283  1  0.35644089  0.75794488  0.61559947  1
  O  O284  1  0.40929146  0.73176143  0.88372057  1
  O  O285  1  0.63038062  -0.00604295  0.10815155  1
  O  O286  1  0.63037042  -0.01687144  0.38879985  1
  O  O287  1  0.62113185  -0.00595994  0.59435921  1
  O  O288  1  0.64682097  0.00672496  0.89062147  1
  O  O289  1  0.64564694  0.23328171  0.14527341  1
  O  O290  1  0.64199269  0.23766206  0.35782750  1
  O  O291  1  0.64857852  0.23829564  0.64307889  1
  O  O292  1  0.57278882  0.24113020  0.81738503  1
  O  O293  1  0.61379274  0.49681679  0.12133315  1
  O  O294  1  0.60563856  0.50484989  0.40312183  1
  O  O295  1  0.60572090  0.49321514  0.58936988  1
  O  O296  1  0.65712038  0.50966936  0.86362874  1
  O  O297  1  0.64774251  0.75329497  0.13340921  1
  O  O298  1  0.64713102  0.74710769  0.35714922  1
  O  O299  1  0.65848316  0.75117396  0.63727783  1
  O  O300  1  0.59357526  0.75238609  0.87430491  1
  O  O301  1  0.88573048  0.00219506  0.12807381  1
  O  O302  1  0.88852815  -0.00690122  0.35756537  1
  O  O303  1  0.91238961  -0.00408415  0.62797012  1
  O  O304  1  0.86142907  0.01680591  0.88965854  1
  O  O305  1  0.88410694  0.24894092  0.11554851  1
  O  O306  1  0.85409691  0.23937758  0.38601739  1
  O  O307  1  0.86266010  0.24990449  0.60220300  1
  O  O308  1  0.91485997  0.24403947  0.87938376  1
  O  O309  1  0.91363341  0.51730405  0.13084401  1
  O  O310  1  0.89233297  0.50355051  0.36884993  1
  O  O311  1  0.88795652  0.49647600  0.62398135  1
  O  O312  1  0.86253386  0.51248473  0.86171167  1
  O  O313  1  0.89024418  0.75106660  0.09849548  1
  O  O314  1  0.86412977  0.74968580  0.39364428  1
  O  O315  1  0.86356088  0.75133318  0.61828307  1
  O  O316  1  0.91373389  0.75953968  0.88265036  1
