# generated using pymatgen
data_Mg32Ti42(Bi17O64)3
_symmetry_space_group_name_H-M   'P 1'
_cell_length_a   15.92789999
_cell_length_b   15.96259344
_cell_length_c   15.94531833
_cell_angle_alpha   89.95393611
_cell_angle_beta   89.89083518
_cell_angle_gamma   89.99593863
_symmetry_Int_Tables_number   1
_chemical_formula_structural   Mg32Ti42(Bi17O64)3
_chemical_formula_sum   'Mg32 Ti42 Bi51 O192'
_cell_volume   4054.09794600
_cell_formula_units_Z   1
loop_
 _symmetry_equiv_pos_site_id
 _symmetry_equiv_pos_as_xyz
  1  'x, y, z'
loop_
 _atom_site_type_symbol
 _atom_site_label
 _atom_site_symmetry_multiplicity
 _atom_site_fract_x
 _atom_site_fract_y
 _atom_site_fract_z
 _atom_site_occupancy
  Mg  Mg0  1  0.62212335  0.37854334  0.11823351  1
  Mg  Mg1  1  0.37267208  0.63065681  0.37753431  1
  Mg  Mg2  1  0.36840359  0.13332386  0.12478419  1
  Mg  Mg3  1  0.63283548  0.12934908  0.11634532  1
  Mg  Mg4  1  0.87334125  0.61842955  0.87114557  1
  Mg  Mg5  1  0.12888985  0.63800163  0.11655950  1
  Mg  Mg6  1  0.62502502  0.38181970  0.86949218  1
  Mg  Mg7  1  0.63388747  0.63227455  0.62103278  1
  Mg  Mg8  1  0.87145306  0.62219782  0.13090988  1
  Mg  Mg9  1  0.12866971  0.37483819  0.37786041  1
  Mg  Mg10  1  0.12723814  0.12559127  0.37013958  1
  Mg  Mg11  1  0.37299704  0.62670512  0.87502146  1
  Mg  Mg12  1  0.62710743  0.12037743  0.37482198  1
  Mg  Mg13  1  0.37752799  0.37163832  0.36510934  1
  Mg  Mg14  1  0.36872652  0.12379159  0.62683100  1
  Mg  Mg15  1  0.11907824  0.36675676  0.87445114  1
  Mg  Mg16  1  0.37290049  0.63472340  0.12147046  1
  Mg  Mg17  1  0.87736993  0.37320536  0.37507509  1
  Mg  Mg18  1  0.87443767  0.87639603  0.87723492  1
  Mg  Mg19  1  -0.00625502  0.74864228  0.81190058  1
  Mg  Mg20  1  -0.07668684  0.74294097  -0.00598214  1
  Mg  Mg21  1  0.70444396  0.78339123  0.24210817  1
  Mg  Mg22  1  0.46556955  0.49965420  0.45520633  1
  Mg  Mg23  1  0.00762198  0.05615148  -0.01488914  1
  Mg  Mg24  1  0.00918612  0.31228407  0.04104282  1
  Mg  Mg25  1  0.28911747  0.76322943  0.02570983  1
  Mg  Mg26  1  0.18748272  0.25998492  0.02242045  1
  Mg  Mg27  1  0.46554207  -0.00145209  0.53867071  1
  Mg  Mg28  1  0.77898547  0.74431013  0.78528949  1
  Mg  Mg29  1  0.25172862  0.05742812  0.02085245  1
  Mg  Mg30  1  0.20927819  0.04370376  0.50582326  1
  Mg  Mg31  1  0.00618870  0.50291360  0.52385970  1
  Ti  Ti32  1  0.62632063  0.62189224  0.86831815  1
  Ti  Ti33  1  0.12690878  0.63084312  0.62424582  1
  Ti  Ti34  1  0.62877074  0.61833059  0.13055765  1
  Ti  Ti35  1  0.62513591  0.62045816  0.38726427  1
  Ti  Ti36  1  0.86750576  0.12604587  0.63298351  1
  Ti  Ti37  1  0.12036876  0.62398631  0.38699891  1
  Ti  Ti38  1  0.37212097  0.87110688  0.63101260  1
  Ti  Ti39  1  0.62030190  0.88163275  0.37843516  1
  Ti  Ti40  1  0.12207802  0.87495481  0.88237555  1
  Ti  Ti41  1  0.12992967  0.13312441  0.87947974  1
  Ti  Ti42  1  0.36475294  0.61822940  0.63135237  1
  Ti  Ti43  1  0.87951304  0.37844141  0.88097973  1
  Ti  Ti44  1  0.12753073  0.13272758  0.63426803  1
  Ti  Ti45  1  0.11801125  0.88387852  0.10949885  1
  Ti  Ti46  1  0.87888772  0.13636164  0.35522773  1
  Ti  Ti47  1  0.36743416  0.88404343  0.13231843  1
  Ti  Ti48  1  0.38507187  0.37280888  0.12524057  1
  Ti  Ti49  1  0.38067778  0.87936016  0.38681270  1
  Ti  Ti50  1  0.88304276  0.87687551  0.11837341  1
  Ti  Ti51  1  0.37591241  0.38478736  0.62152572  1
  Ti  Ti52  1  0.14183731  0.89111705  0.38276724  1
  Ti  Ti53  1  0.87798011  0.37856308  0.62088709  1
  Ti  Ti54  1  0.88318642  0.63761492  0.62084131  1
  Ti  Ti55  1  0.37866364  0.37288320  0.87950604  1
  Ti  Ti56  1  0.37644692  0.13506182  0.87404004  1
  Ti  Ti57  1  0.12488735  0.62984284  0.88057126  1
  Ti  Ti58  1  0.62664897  0.87213022  0.60964139  1
  Ti  Ti59  1  0.88911710  0.61505079  0.36249937  1
  Ti  Ti60  1  0.88170011  0.87438611  0.62709413  1
  Ti  Ti61  1  0.61730316  0.37542742  0.38546055  1
  Ti  Ti62  1  0.11249300  0.38053924  0.62189878  1
  Ti  Ti63  1  0.13509430  0.87404146  0.63202242  1
  Ti  Ti64  1  0.61995062  0.87219436  0.86811944  1
  Ti  Ti65  1  0.11334050  0.12321407  0.12309244  1
  Ti  Ti66  1  0.62076091  0.12298991  0.86853906  1
  Ti  Ti67  1  0.62345787  0.11870211  0.61792216  1
  Ti  Ti68  1  0.86475888  0.37773706  0.12569595  1
  Ti  Ti69  1  0.86174244  0.12164526  0.87758633  1
  Ti  Ti70  1  0.88074800  0.13254907  0.10900099  1
  Ti  Ti71  1  0.62372137  0.39330803  0.62196056  1
  Ti  Ti72  1  0.37184599  0.87805834  0.87707984  1
  Ti  Ti73  1  0.37111683  0.11176972  0.37039833  1
  Bi  Bi74  1  0.51413690  0.76994164  0.24801177  1
  Bi  Bi75  1  0.22858462  0.75525469  0.22412795  1
  Bi  Bi76  1  0.48601629  0.52183212  0.25088265  1
  Bi  Bi77  1  0.75983192  -0.02642800  0.74241006  1
  Bi  Bi78  1  0.23837315  0.49968583  0.78663609  1
  Bi  Bi79  1  0.74446529  0.24538514  0.22463392  1
  Bi  Bi80  1  0.52236151  0.75175658  0.73144356  1
  Bi  Bi81  1  0.00707029  -0.00290893  0.78069763  1
  Bi  Bi82  1  0.51198183  0.00814474  0.73771466  1
  Bi  Bi83  1  0.01264091  0.27579151  0.23658471  1
  Bi  Bi84  1  0.49526113  0.49176606  0.76343386  1
  Bi  Bi85  1  -0.00833179  -0.03349666  0.27347299  1
  Bi  Bi86  1  0.78071808  0.76634468  0.46355610  1
  Bi  Bi87  1  0.51351185  0.22192410  0.23612311  1
  Bi  Bi88  1  0.78835307  0.00027329  0.46947616  1
  Bi  Bi89  1  0.24111564  0.26827448  0.21471842  1
  Bi  Bi90  1  0.75652528  0.52700295  0.72634227  1
  Bi  Bi91  1  0.48144283  0.50653391  0.01997553  1
  Bi  Bi92  1  0.75647411  0.51476465  0.00784784  1
  Bi  Bi93  1  0.49137019  0.21741380  0.48062374  1
  Bi  Bi94  1  0.25361487  0.52404504  0.24962124  1
  Bi  Bi95  1  0.00767041  0.01564647  0.53209168  1
  Bi  Bi96  1  0.24405890  0.01253206  0.23507547  1
  Bi  Bi97  1  0.24680789  0.27667764  0.72757592  1
  Bi  Bi98  1  0.74881853  -0.02573167  0.22526624  1
  Bi  Bi99  1  0.01095918  0.25343184  0.46692310  1
  Bi  Bi100  1  0.72110585  -0.01718482  -0.01332233  1
  Bi  Bi101  1  0.25731394  0.75177298  0.49267745  1
  Bi  Bi102  1  0.49350700  0.25407367  0.72328263  1
  Bi  Bi103  1  0.25551779  0.25090681  0.47797844  1
  Bi  Bi104  1  0.72163560  0.74713270  -0.00358021  1
  Bi  Bi105  1  0.26032037  0.75373093  0.77861770  1
  Bi  Bi106  1  0.74572205  0.24890535  0.47546774  1
  Bi  Bi107  1  0.73780582  0.48207848  0.26695442  1
  Bi  Bi108  1  0.22115249  0.45944669  0.02314930  1
  Bi  Bi109  1  0.04177870  0.49081389  0.22912607  1
  Bi  Bi110  1  0.77796527  0.51250317  0.48911130  1
  Bi  Bi111  1  0.73503582  0.26333596  -0.02236210  1
  Bi  Bi112  1  0.48968168  0.73898983  -0.01514577  1
  Bi  Bi113  1  0.25795302  0.49217376  0.47236930  1
  Bi  Bi114  1  0.73456308  0.26761041  0.73121078  1
  Bi  Bi115  1  0.53089687  -0.00130395  0.22404666  1
  Bi  Bi116  1  0.51083905  0.24944789  0.00766018  1
  Bi  Bi117  1  0.26055935  0.01408722  0.77218190  1
  Bi  Bi118  1  0.00845294  0.78480783  0.48146996  1
  Bi  Bi119  1  0.47934737  -0.00096051  -0.00315672  1
  Bi  Bi120  1  0.01153974  0.52232089  0.75255249  1
  Bi  Bi121  1  -0.00046489  0.52371478  0.00810094  1
  Bi  Bi122  1  0.48432583  0.72546159  0.51456063  1
  Bi  Bi123  1  -0.02871694  0.25561377  0.75395833  1
  Bi  Bi124  1  -0.01493571  0.74243165  0.23782719  1
  O  O125  1  0.12005982  0.11118027  -0.00163128  1
  O  O126  1  0.14597038  0.12132621  0.24118028  1
  O  O127  1  0.09890654  0.12026435  0.51001637  1
  O  O128  1  0.14255565  0.11037461  0.75472655  1
  O  O129  1  0.11258855  0.37429316  0.00064679  1
  O  O130  1  0.13271143  0.34900166  0.24930262  1
  O  O131  1  0.09474785  0.38624756  0.50735804  1
  O  O132  1  0.15371466  0.37567744  0.74958825  1
  O  O133  1  0.09961192  0.62381266  -0.00566478  1
  O  O134  1  0.16170884  0.63181163  0.25843678  1
  O  O135  1  0.09323395  0.60252844  0.50169111  1
  O  O136  1  0.14047270  0.60768701  0.74101782  1
  O  O137  1  0.12392861  0.85668799  -0.00344629  1
  O  O138  1  0.12448826  0.89853484  0.25826523  1
  O  O139  1  0.13158281  0.85915315  0.49959019  1
  O  O140  1  0.13044871  0.88484572  0.74491099  1
  O  O141  1  0.38104462  0.10244740  -0.00623619  1
  O  O142  1  0.33992487  0.12906902  0.25748613  1
  O  O143  1  0.41136424  0.10574986  0.50382437  1
  O  O144  1  0.34453723  0.12807492  0.75668545  1
  O  O145  1  0.40871956  0.37478963  -0.00650929  1
  O  O146  1  0.34748544  0.36967174  0.23874309  1
  O  O147  1  0.39383763  0.41141900  0.51301329  1
  O  O148  1  0.35347734  0.36115104  0.75258655  1
  O  O149  1  0.40580218  0.62864518  -0.00293342  1
  O  O150  1  0.37096556  0.61877464  0.24889269  1
  O  O151  1  0.40825704  0.60397189  0.51194483  1
  O  O152  1  0.35398590  0.65210350  0.74592076  1
  O  O153  1  0.37757505  0.89751317  -0.00721143  1
  O  O154  1  0.37332783  0.86713792  0.24493088  1
  O  O155  1  0.39231595  0.90015224  0.50086018  1
  O  O156  1  0.37212220  0.84055473  0.74956737  1
  O  O157  1  0.60489786  0.13694627  -0.00806171  1
  O  O158  1  0.63143445  0.14613015  0.24920931  1
  O  O159  1  0.60834300  0.12944452  0.50569030  1
  O  O160  1  0.63218472  0.08830675  0.75304645  1
  O  O161  1  0.61031142  0.34287049  -0.01080045  1
  O  O162  1  0.64757968  0.37674327  0.25746869  1
  O  O163  1  0.60730599  0.38126969  0.50760483  1
  O  O164  1  0.65429145  0.37555935  0.74568733  1
  O  O165  1  0.60980353  0.66301161  -0.00017862  1
  O  O166  1  0.63060396  0.57469823  0.24170787  1
  O  O167  1  0.61071318  0.63901733  0.49650877  1
  O  O168  1  0.65551856  0.62590612  0.75518558  1
  O  O169  1  0.63481117  0.86148413  -0.00748713  1
  O  O170  1  0.60880832  0.87156837  0.24997267  1
  O  O171  1  0.62041609  0.85289874  0.49384625  1
  O  O172  1  0.62361418  0.90047492  0.74996202  1
  O  O173  1  0.88839648  0.09621805  -0.00359403  1
  O  O174  1  0.86791637  0.15554223  0.24356695  1
  O  O175  1  0.88218338  0.09274997  0.51146759  1
  O  O176  1  0.86218304  0.13660105  0.75340185  1
  O  O177  1  0.90580240  0.38223894  0.00171711  1
  O  O178  1  0.85441441  0.35127810  0.24199405  1
  O  O179  1  0.90800211  0.40400864  0.51264501  1
  O  O180  1  0.86091986  0.34248174  0.75635363  1
  O  O181  1  0.90041017  0.61662835  -0.00016267  1
  O  O182  1  0.86746651  0.64220780  0.25505911  1
  O  O183  1  0.90347847  0.58554985  0.51140964  1
  O  O184  1  0.84061304  0.63932677  0.74457642  1
  O  O185  1  0.86972215  0.85993023  0.00498275  1
  O  O186  1  0.91490789  0.86117123  0.24554167  1
  O  O187  1  0.86707794  0.88848469  0.50407833  1
  O  O188  1  0.83773827  0.84989659  0.73937913  1
  O  O189  1  0.00083499  0.09219590  0.11881648  1
  O  O190  1  -0.00213738  0.14519441  0.36740994  1
  O  O191  1  -0.00082917  0.10795310  0.63999898  1
  O  O192  1  0.00669604  0.12411436  0.86878984  1
  O  O193  1  -0.00829294  0.38620420  0.14850008  1
  O  O194  1  0.00187199  0.35128284  0.35823879  1
  O  O195  1  -0.00017183  0.35701662  0.65660652  1
  O  O196  1  -0.00516040  0.34598927  0.85633264  1
  O  O197  1  0.00320411  0.58682561  0.13718459  1
  O  O198  1  0.00598466  0.59672059  0.34880690  1
  O  O199  1  -0.00395900  0.62972355  0.65658857  1
  O  O200  1  0.00239365  0.62905899  0.84556097  1
  O  O201  1  0.00638817  0.90697434  0.11624690  1
  O  O202  1  0.01577738  0.89488712  0.39093069  1
  O  O203  1  -0.00241645  0.87218021  0.62154399  1
  O  O204  1  0.00205059  0.86593483  0.85077034  1
  O  O205  1  0.24186671  0.16301768  0.09464132  1
  O  O206  1  0.25904899  0.12394961  0.41642536  1
  O  O207  1  0.24243856  0.11830325  0.60440128  1
  O  O208  1  0.24887492  0.08860100  0.89120671  1
  O  O209  1  0.26067766  0.34414999  0.09123413  1
  O  O210  1  0.25427043  0.36959386  0.40602003  1
  O  O211  1  0.25191230  0.36849738  0.61444129  1
  O  O212  1  0.25963807  0.39812563  0.89262280  1
  O  O213  1  0.25114819  0.67443574  0.11058903  1
  O  O214  1  0.24382002  0.63410027  0.41293470  1
  O  O215  1  0.24760701  0.61672173  0.60214947  1
  O  O216  1  0.24264110  0.61247011  0.87853436  1
  O  O217  1  0.24914685  0.85048057  0.11401225  1
  O  O218  1  0.25667928  0.85460730  0.37925105  1
  O  O219  1  0.25396258  0.86821707  0.62425297  1
  O  O220  1  0.24639357  0.88628654  0.86270338  1
  O  O221  1  0.49455173  0.11132691  0.14976934  1
  O  O222  1  0.49472895  0.13464599  0.36185568  1
  O  O223  1  0.49835447  0.12607830  0.65750613  1
  O  O224  1  0.49634071  0.12766932  0.85602584  1
  O  O225  1  0.49753635  0.41058612  0.13562217  1
  O  O226  1  0.50428707  0.40655565  0.36918953  1
  O  O227  1  0.50329107  0.38226897  0.65636894  1
  O  O228  1  0.49789797  0.37329075  0.83918546  1
  O  O229  1  0.50463147  0.59997755  0.13113082  1
  O  O230  1  0.50699239  0.59320215  0.37134186  1
  O  O231  1  0.49811702  0.64903204  0.64395572  1
  O  O232  1  0.51041808  0.65877911  0.86126442  1
  O  O233  1  0.48353098  0.92603632  0.11943053  1
  O  O234  1  0.49826354  0.86061010  0.36543459  1
  O  O235  1  0.49556960  0.84636519  0.62815953  1
  O  O236  1  0.49931734  0.85796973  0.87376484  1
  O  O237  1  0.76066449  0.15370882  0.11412364  1
  O  O238  1  0.75527987  0.13672406  0.39070773  1
  O  O239  1  0.74442316  0.11568765  0.62014641  1
  O  O240  1  0.74611742  0.09658132  0.89324852  1
  O  O241  1  0.75147205  0.34139798  0.10606092  1
  O  O242  1  0.74897868  0.36309279  0.40052467  1
  O  O243  1  0.75527351  0.36670709  0.61354314  1
  O  O244  1  0.75676354  0.37753385  0.90411270  1
  O  O245  1  0.74689427  0.62911691  0.09675335  1
  O  O246  1  0.75919328  0.63244003  0.40600954  1
  O  O247  1  0.76116481  0.60194339  0.60725230  1
  O  O248  1  0.74560130  0.62166115  0.90981036  1
  O  O249  1  0.76959747  0.85362336  0.15951993  1
  O  O250  1  0.73623921  0.84500150  0.35539462  1
  O  O251  1  0.73621942  0.90692991  0.61400317  1
  O  O252  1  0.74741451  0.90685343  0.87529833  1
  O  O253  1  0.16018948  0.00043157  0.11607621  1
  O  O254  1  0.15356863  0.00193084  0.39775552  1
  O  O255  1  0.13073578  -0.00824690  0.60493187  1
  O  O256  1  0.09803240  -0.00892891  0.88776637  1
  O  O257  1  0.09365369  0.23961448  0.11065535  1
  O  O258  1  0.13714593  0.24748579  0.40054399  1
  O  O259  1  0.12688994  0.24736294  0.63389361  1
  O  O260  1  0.15470403  0.24187639  0.89393320  1
  O  O261  1  0.15242016  0.50848046  0.14283950  1
  O  O262  1  0.15711980  0.50091050  0.36304830  1
  O  O263  1  0.09436135  0.49512397  0.62790687  1
  O  O264  1  0.11652112  0.50054753  0.86370298  1
  O  O265  1  0.10628353  0.76382751  0.15318651  1
  O  O266  1  0.10149928  0.74084281  0.38126317  1
  O  O267  1  0.12738075  0.74403254  0.62232371  1
  O  O268  1  0.12076602  0.74693121  0.85654304  1
  O  O269  1  0.33012332  0.00532052  0.12461946  1
  O  O270  1  0.37229401  -0.00435150  0.36101492  1
  O  O271  1  0.39035327  -0.01249126  0.64429993  1
  O  O272  1  0.38429759  -0.00825830  0.84983446  1
  O  O273  1  0.40980733  0.25570019  0.12365512  1
  O  O274  1  0.37544209  0.24727593  0.39885060  1
  O  O275  1  0.39146406  0.25956925  0.62027335  1
  O  O276  1  0.37102275  0.24778841  0.88417634  1
  O  O277  1  0.35763473  0.49614616  0.10268370  1
  O  O278  1  0.35631982  0.50213449  0.37570692  1
  O  O279  1  0.37844836  0.50374633  0.66145800  1
  O  O280  1  0.39327290  0.49981626  0.85939700  1
  O  O281  1  0.39778945  0.76713040  0.10234062  1
  O  O282  1  0.37787673  0.75128427  0.41139961  1
  O  O283  1  0.36485036  0.74578783  0.59246132  1
  O  O284  1  0.34014898  0.75590170  0.90225724  1
  O  O285  1  0.64489441  0.00618085  0.13986548  1
  O  O286  1  0.63524817  -0.00748636  0.37343770  1
  O  O287  1  0.57710998  -0.00533867  0.60823395  1
  O  O288  1  0.60921413  -0.00368336  0.90201749  1
  O  O289  1  0.59284991  0.25284734  0.12504739  1
  O  O290  1  0.61735777  0.25774525  0.39165254  1
  O  O291  1  0.61636921  0.24072193  0.64363400  1
  O  O292  1  0.64911177  0.23639243  0.85299036  1
  O  O293  1  0.63895540  0.50125146  0.08020811  1
  O  O294  1  0.66130233  0.49968390  0.38480803  1
  O  O295  1  0.62849323  0.50356574  0.63418610  1
  O  O296  1  0.60561457  0.50991756  0.87915486  1
  O  O297  1  0.62177661  0.73067852  0.15975607  1
  O  O298  1  0.61624899  0.72709775  0.33541907  1
  O  O299  1  0.63624637  0.75985300  0.64466765  1
  O  O300  1  0.66881491  0.76092041  0.85793761  1
  O  O301  1  0.85213551  -0.00379350  0.13819170  1
  O  O302  1  0.86939593  0.01534482  0.35551750  1
  O  O303  1  0.87754596  -0.00809021  0.65058434  1
  O  O304  1  0.88936062  0.00003260  0.85166209  1
  O  O305  1  0.91071209  0.24386148  0.10016600  1
  O  O306  1  0.87323768  0.24715210  0.41101346  1
  O  O307  1  0.87886460  0.24020402  0.61596506  1
  O  O308  1  0.85780318  0.23694191  0.89241561  1
  O  O309  1  0.84609431  0.49108452  0.12704952  1
  O  O310  1  0.85556872  0.49906008  0.36542113  1
  O  O311  1  0.88338850  0.48898207  0.65823268  1
  O  O312  1  0.88564896  0.49059272  0.86065959  1
  O  O313  1  0.91490946  0.74897148  0.11921103  1
  O  O314  1  0.89742213  0.73317117  0.39995560  1
  O  O315  1  0.87073100  0.74826629  0.59561963  1
  O  O316  1  0.87862588  0.74735371  0.87596480  1
