# generated using pymatgen
data_Mg32Ti42(Bi17O64)3
_symmetry_space_group_name_H-M   'P 1'
_cell_length_a   15.95431483
_cell_length_b   15.95538924
_cell_length_c   15.96438543
_cell_angle_alpha   90.06340938
_cell_angle_beta   90.03069721
_cell_angle_gamma   89.89355184
_symmetry_Int_Tables_number   1
_chemical_formula_structural   Mg32Ti42(Bi17O64)3
_chemical_formula_sum   'Mg32 Ti42 Bi51 O192'
_cell_volume   4063.84082052
_cell_formula_units_Z   1
loop_
 _symmetry_equiv_pos_site_id
 _symmetry_equiv_pos_as_xyz
  1  'x, y, z'
loop_
 _atom_site_type_symbol
 _atom_site_label
 _atom_site_symmetry_multiplicity
 _atom_site_fract_x
 _atom_site_fract_y
 _atom_site_fract_z
 _atom_site_occupancy
  Mg  Mg0  1  0.37944900  0.87090192  0.37642043  1
  Mg  Mg1  1  0.12904815  0.86174740  0.63128762  1
  Mg  Mg2  1  0.37679263  0.62736095  0.88283855  1
  Mg  Mg3  1  0.37217406  0.38507745  0.37238358  1
  Mg  Mg4  1  0.87273223  0.87307419  0.38079485  1
  Mg  Mg5  1  0.12435104  0.38072732  0.86662202  1
  Mg  Mg6  1  0.62727588  0.13587987  0.38934082  1
  Mg  Mg7  1  0.61904447  0.87949595  0.62345114  1
  Mg  Mg8  1  0.87283050  0.13382794  0.13378809  1
  Mg  Mg9  1  0.88370183  0.87440899  0.12062765  1
  Mg  Mg10  1  0.12834890  0.38231222  0.13961967  1
  Mg  Mg11  1  0.37747475  0.12681922  0.87045868  1
  Mg  Mg12  1  0.11743110  0.62236939  0.37063006  1
  Mg  Mg13  1  0.87477634  0.61912980  0.12460049  1
  Mg  Mg14  1  0.38162763  0.63129279  0.61935160  1
  Mg  Mg15  1  0.87390496  0.37172463  0.38784841  1
  Mg  Mg16  1  0.37525409  0.37839841  0.87001691  1
  Mg  Mg17  1  0.62227554  0.87484164  0.12348458  1
  Mg  Mg18  1  0.12961694  0.87976925  0.11962088  1
  Mg  Mg19  1  0.77577824  0.23501188  0.52126415  1
  Mg  Mg20  1  0.44166488  0.19366805  0.46828917  1
  Mg  Mg21  1  0.50913328  0.55405952  0.51638123  1
  Mg  Mg22  1  0.72045904  0.49960791  0.03018450  1
  Mg  Mg23  1  -0.06286284  0.76842693  0.53277918  1
  Mg  Mg24  1  0.22105034  0.18793938  0.80299834  1
  Mg  Mg25  1  0.77143395  0.80202401  0.57374647  1
  Mg  Mg26  1  0.80652683  -0.02936775  0.52169275  1
  Mg  Mg27  1  0.27324923  0.30245782  0.50004766  1
  Mg  Mg28  1  0.80504490  -0.01078768  0.26780718  1
  Mg  Mg29  1  0.26565673  0.56270126  0.26505593  1
  Mg  Mg30  1  0.02193034  0.75351584  0.05851237  1
  Mg  Mg31  1  -0.01722885  0.48885563  0.25466927  1
  Ti  Ti32  1  0.63097085  0.37524309  0.38400902  1
  Ti  Ti33  1  0.38325940  0.38432869  0.62254505  1
  Ti  Ti34  1  0.64147709  0.62218418  0.37433020  1
  Ti  Ti35  1  0.61454197  0.38630530  0.61780066  1
  Ti  Ti36  1  0.36961832  0.37384499  0.13231755  1
  Ti  Ti37  1  0.61922146  0.12385329  0.86718438  1
  Ti  Ti38  1  0.87513071  0.12027898  0.38640789  1
  Ti  Ti39  1  0.36198445  0.12742869  0.11609973  1
  Ti  Ti40  1  0.87625534  0.62973153  0.88540581  1
  Ti  Ti41  1  0.13125033  0.61904299  0.13534435  1
  Ti  Ti42  1  0.62375077  0.12640492  0.14036752  1
  Ti  Ti43  1  0.87526624  0.38210077  0.87197797  1
  Ti  Ti44  1  0.13012904  0.12723247  0.61833144  1
  Ti  Ti45  1  0.38826262  0.63182580  0.37649313  1
  Ti  Ti46  1  0.88147809  0.36535880  0.62441688  1
  Ti  Ti47  1  0.62267935  0.88039434  0.87214604  1
  Ti  Ti48  1  0.37501802  0.62761479  0.12739311  1
  Ti  Ti49  1  0.87866312  0.61917544  0.36094624  1
  Ti  Ti50  1  0.86781841  0.87395026  0.88905241  1
  Ti  Ti51  1  0.12227017  0.61822107  0.62150026  1
  Ti  Ti52  1  0.63358149  0.63762705  0.61962165  1
  Ti  Ti53  1  0.62224169  0.62258536  0.13405487  1
  Ti  Ti54  1  0.63187369  0.13605049  0.61631847  1
  Ti  Ti55  1  0.62580583  0.38266005  0.87795164  1
  Ti  Ti56  1  0.36943477  0.88540061  0.12546060  1
  Ti  Ti57  1  0.62450117  0.36761538  0.12288544  1
  Ti  Ti58  1  0.36341281  0.14244912  0.63462260  1
  Ti  Ti59  1  0.37200094  0.86508989  0.87567296  1
  Ti  Ti60  1  0.62835943  0.89888223  0.36605142  1
  Ti  Ti61  1  0.12510843  0.14555735  0.13579541  1
  Ti  Ti62  1  0.11771583  0.86009166  0.87060393  1
  Ti  Ti63  1  0.86667111  0.37660941  0.10383322  1
  Ti  Ti64  1  0.37298408  0.86978159  0.61427518  1
  Ti  Ti65  1  0.14298771  0.37676553  0.62602945  1
  Ti  Ti66  1  0.86685761  0.12894961  0.88577942  1
  Ti  Ti67  1  0.11799647  0.87396144  0.38061998  1
  Ti  Ti68  1  0.12794274  0.62722038  0.87726588  1
  Ti  Ti69  1  0.87188928  0.61712547  0.61662133  1
  Ti  Ti70  1  0.88949396  0.13225347  0.62034770  1
  Ti  Ti71  1  0.12682919  0.39225691  0.37125493  1
  Ti  Ti72  1  0.11313421  0.12216153  0.38378839  1
  Ti  Ti73  1  0.62809367  0.61720451  0.88183422  1
  Bi  Bi74  1  0.48321889  0.53208802  0.75505231  1
  Bi  Bi75  1  0.73518294  0.74485413  0.77579044  1
  Bi  Bi76  1  0.27945929  0.02179674  0.47614391  1
  Bi  Bi77  1  0.24301692  -0.01070230  0.72500250  1
  Bi  Bi78  1  -0.03875424  0.78503533  0.73234028  1
  Bi  Bi79  1  0.02259067  0.49578111  0.01244817  1
  Bi  Bi80  1  0.03227700  0.23329138  0.76296609  1
  Bi  Bi81  1  0.48156653  0.49696214  0.02485444  1
  Bi  Bi82  1  -0.02969605  0.00344564  0.76827413  1
  Bi  Bi83  1  0.46447519  0.04669330  0.27399220  1
  Bi  Bi84  1  0.00153177  0.52535239  0.75857582  1
  Bi  Bi85  1  0.03178538  0.26901545  0.49779165  1
  Bi  Bi86  1  0.74287400  0.26243200  0.75778226  1
  Bi  Bi87  1  0.23007952  0.75945044  0.00826551  1
  Bi  Bi88  1  0.25596926  0.48631950  0.00226925  1
  Bi  Bi89  1  0.50935713  0.77806369  0.25900008  1
  Bi  Bi90  1  0.73960692  0.73799265  0.02514205  1
  Bi  Bi91  1  0.49336571  0.01822168  0.73712793  1
  Bi  Bi92  1  0.74769513  0.00168243  0.71752287  1
  Bi  Bi93  1  0.49848627  0.27424672  0.74711296  1
  Bi  Bi94  1  0.49202717  0.76759152  0.01754488  1
  Bi  Bi95  1  0.01882223  0.26014485  -0.02549304  1
  Bi  Bi96  1  0.72471790  0.22702012  -0.00351421  1
  Bi  Bi97  1  0.51515875  0.00492339  0.50089467  1
  Bi  Bi98  1  0.03149648  0.02726277  -0.00678359  1
  Bi  Bi99  1  0.76194569  0.47815223  0.51206479  1
  Bi  Bi100  1  0.53080779  0.75633477  0.48985253  1
  Bi  Bi101  1  0.25805486  0.73163304  0.72872658  1
  Bi  Bi102  1  0.27070418  0.51392265  0.48142518  1
  Bi  Bi103  1  0.01230686  -0.02957744  0.53226760  1
  Bi  Bi104  1  0.21986688  0.74780577  0.48291579  1
  Bi  Bi105  1  0.51814396  -0.00105538  0.00362999  1
  Bi  Bi106  1  0.24067044  -0.00484006  0.25930625  1
  Bi  Bi107  1  0.76259554  0.78293333  0.24343388  1
  Bi  Bi108  1  0.77295548  0.47431889  0.23894471  1
  Bi  Bi109  1  0.01184536  0.01547162  0.23452945  1
  Bi  Bi110  1  0.27296366  0.23405149  0.30279660  1
  Bi  Bi111  1  0.76160316  0.49697213  0.75360286  1
  Bi  Bi112  1  -0.01830310  0.27761281  0.24767258  1
  Bi  Bi113  1  0.25964043  0.00461987  -0.03406965  1
  Bi  Bi114  1  0.50800538  0.26566956  0.27232474  1
  Bi  Bi115  1  -0.01835974  0.77559261  0.24975438  1
  Bi  Bi116  1  0.75842007  0.00098339  0.03586541  1
  Bi  Bi117  1  0.51923945  0.49763871  0.27357443  1
  Bi  Bi118  1  0.24822564  0.50926479  0.75715326  1
  Bi  Bi119  1  0.48041919  0.24498719  -0.00321966  1
  Bi  Bi120  1  0.23894005  0.76487305  0.26432206  1
  Bi  Bi121  1  0.49411933  0.76385335  0.74871823  1
  Bi  Bi122  1  0.25058824  0.25777996  -0.02027760  1
  Bi  Bi123  1  0.75522887  0.23503433  0.28518517  1
  Bi  Bi124  1  -0.00857678  0.51451064  0.48426950  1
  O  O125  1  0.09595417  0.14659033  0.01824953  1
  O  O126  1  0.13415784  0.09454654  0.25242568  1
  O  O127  1  0.09276417  0.10751332  0.49866130  1
  O  O128  1  0.13262592  0.13476834  0.73852554  1
  O  O129  1  0.09633391  0.36597162  0.00761491  1
  O  O130  1  0.08268711  0.40419477  0.26078388  1
  O  O131  1  0.14487605  0.35053257  0.49530079  1
  O  O132  1  0.12096441  0.37143631  0.73904861  1
  O  O133  1  0.14385556  0.63822990  -0.00847834  1
  O  O134  1  0.14483389  0.60563162  0.24783445  1
  O  O135  1  0.12969100  0.63365900  0.50502809  1
  O  O136  1  0.12516134  0.59078361  0.74929767  1
  O  O137  1  0.10794280  0.82825544  -0.00648527  1
  O  O138  1  0.15511109  0.87962797  0.24952465  1
  O  O139  1  0.13103319  0.86503698  0.49669611  1
  O  O140  1  0.14710563  0.88690318  0.75864208  1
  O  O141  1  0.40815494  0.11041486  0.00492770  1
  O  O142  1  0.36626203  0.13710054  0.23666721  1
  O  O143  1  0.39405760  0.08945257  0.51796490  1
  O  O144  1  0.32911673  0.15324708  0.74731661  1
  O  O145  1  0.37683806  0.40971228  -0.00102527  1
  O  O146  1  0.37517833  0.34147639  0.24338254  1
  O  O147  1  0.35584586  0.40213325  0.50078985  1
  O  O148  1  0.38600765  0.35256850  0.74015682  1
  O  O149  1  0.37177009  0.58656995  0.00577125  1
  O  O150  1  0.37751418  0.63562468  0.25076688  1
  O  O151  1  0.38581361  0.60041983  0.49681423  1
  O  O152  1  0.40181759  0.64833254  0.74822861  1
  O  O153  1  0.41148757  0.89318692  -0.00204599  1
  O  O154  1  0.35266933  0.85405248  0.23837486  1
  O  O155  1  0.38520177  0.89853230  0.50424846  1
  O  O156  1  0.37159193  0.83890982  0.75736895  1
  O  O157  1  0.60923339  0.13885244  -0.01162775  1
  O  O158  1  0.65037316  0.13069353  0.24837036  1
  O  O159  1  0.57322720  0.13231691  0.51047133  1
  O  O160  1  0.64781809  0.12267640  0.74427889  1
  O  O161  1  0.65634539  0.39115452  -0.00751820  1
  O  O162  1  0.60354834  0.37543417  0.23570471  1
  O  O163  1  0.63451024  0.37703999  0.49658354  1
  O  O164  1  0.61243092  0.36033280  0.74056159  1
  O  O165  1  0.65748704  0.60494936  -0.00698725  1
  O  O166  1  0.61047571  0.62321708  0.24816703  1
  O  O167  1  0.62035430  0.61977227  0.49120184  1
  O  O168  1  0.63498162  0.63743666  0.73807942  1
  O  O169  1  0.59685361  0.87677798  -0.00632580  1
  O  O170  1  0.62580293  0.85218441  0.24597182  1
  O  O171  1  0.60951340  0.87344933  0.48374849  1
  O  O172  1  0.64143648  0.86633932  0.75420029  1
  O  O173  1  0.89163605  0.13705392  -0.00353614  1
  O  O174  1  0.83840331  0.11061394  0.26782930  1
  O  O175  1  0.88328130  0.15903067  0.50370638  1
  O  O176  1  0.85760517  0.09305249  0.73778555  1
  O  O177  1  0.86164017  0.35480143  -0.00988288  1
  O  O178  1  0.89035238  0.40159662  0.26197396  1
  O  O179  1  0.83359412  0.35066832  0.50972568  1
  O  O180  1  0.87418373  0.39812621  0.74061687  1
  O  O181  1  0.86714213  0.64554787  -0.00554395  1
  O  O182  1  0.87982203  0.57692963  0.24951629  1
  O  O183  1  0.90779236  0.64584412  0.50355307  1
  O  O184  1  0.87578185  0.59203767  0.73671894  1
  O  O185  1  0.89115056  0.85541421  -0.00367774  1
  O  O186  1  0.87740007  0.88015811  0.25309784  1
  O  O187  1  0.85338726  0.85105059  0.49751399  1
  O  O188  1  0.87607919  0.89186109  0.75010709  1
  O  O189  1  -0.00080304  0.13187341  0.16566222  1
  O  O190  1  -0.00736948  0.09274462  0.35524892  1
  O  O191  1  -0.00161956  0.14848479  0.64092209  1
  O  O192  1  -0.01237746  0.12815473  0.84861830  1
  O  O193  1  -0.02378313  0.41964083  0.12269913  1
  O  O194  1  0.00311608  0.38464321  0.41534663  1
  O  O195  1  -0.00634789  0.35495411  0.60910868  1
  O  O196  1  -0.01122707  0.35603736  0.86696759  1
  O  O197  1  0.01403512  0.63105602  0.10800824  1
  O  O198  1  -0.00259972  0.58345675  0.35906169  1
  O  O199  1  0.00455129  0.61746496  0.64051296  1
  O  O200  1  -0.00335190  0.62595404  0.85957293  1
  O  O201  1  0.00822114  0.85403235  0.13754149  1
  O  O202  1  0.00519409  0.88642153  0.36810606  1
  O  O203  1  0.00300428  0.84680719  0.60963159  1
  O  O204  1  0.00306909  0.87460301  0.85236091  1
  O  O205  1  0.24636332  0.12311933  0.10797989  1
  O  O206  1  0.23344663  0.13504804  0.39997824  1
  O  O207  1  0.24508063  0.09483735  0.60891905  1
  O  O208  1  0.25394414  0.13272779  0.90761336  1
  O  O209  1  0.25630676  0.38783316  0.11259805  1
  O  O210  1  0.23704299  0.35649703  0.36072563  1
  O  O211  1  0.25774257  0.37672145  0.62689108  1
  O  O212  1  0.24723400  0.37869412  0.89835157  1
  O  O213  1  0.26192403  0.59801138  0.13585415  1
  O  O214  1  0.26199882  0.64976908  0.37946000  1
  O  O215  1  0.25637152  0.60554824  0.65256063  1
  O  O216  1  0.24951690  0.61179853  0.85239505  1
  O  O217  1  0.25578754  0.87790341  0.08978742  1
  O  O218  1  0.25753298  0.84010484  0.38081054  1
  O  O219  1  0.25354406  0.89560830  0.62778492  1
  O  O220  1  0.25466054  0.86927340  0.90047126  1
  O  O221  1  0.50693862  0.12408262  0.14945423  1
  O  O222  1  0.49531899  0.14832336  0.36028040  1
  O  O223  1  0.48194379  0.13873972  0.66516029  1
  O  O224  1  0.50439753  0.13374142  0.84961804  1
  O  O225  1  0.50557879  0.36283959  0.09532570  1
  O  O226  1  0.50071816  0.38184251  0.36027464  1
  O  O227  1  0.49909482  0.34336063  0.61821697  1
  O  O228  1  0.51145226  0.35927049  0.88192255  1
  O  O229  1  0.50216423  0.62295781  0.10873802  1
  O  O230  1  0.49875908  0.58573357  0.38186880  1
  O  O231  1  0.51319570  0.64814659  0.61054952  1
  O  O232  1  0.51294458  0.61764638  0.87965566  1
  O  O233  1  0.49194801  0.85680998  0.13361759  1
  O  O234  1  0.50176700  0.88612205  0.34418073  1
  O  O235  1  0.49400705  0.84487608  0.63283901  1
  O  O236  1  0.50348978  0.86921669  0.85083774  1
  O  O237  1  0.74727884  0.12766198  0.09374822  1
  O  O238  1  0.75129363  0.17041687  0.40742384  1
  O  O239  1  0.73930883  0.09044378  0.60084722  1
  O  O240  1  0.74829502  0.11361656  0.89924521  1
  O  O241  1  0.74886801  0.36376335  0.14724889  1
  O  O242  1  0.74586898  0.37095695  0.35452338  1
  O  O243  1  0.73623489  0.40886390  0.63816066  1
  O  O244  1  0.75078956  0.37951473  0.84242858  1
  O  O245  1  0.74364894  0.65033258  0.13205394  1
  O  O246  1  0.75407947  0.62493821  0.36872612  1
  O  O247  1  0.75375421  0.59741121  0.60899102  1
  O  O248  1  0.75692268  0.62453032  0.85398356  1
  O  O249  1  0.75087713  0.85388859  0.11708592  1
  O  O250  1  0.74485607  0.89086375  0.34232748  1
  O  O251  1  0.73852353  0.91494111  0.60997713  1
  O  O252  1  0.74983947  0.87692022  0.89055340  1
  O  O253  1  0.10211964  0.00402283  0.10921591  1
  O  O254  1  0.15716754  -0.00958441  0.37400247  1
  O  O255  1  0.09772183  -0.00016021  0.63231634  1
  O  O256  1  0.13158003  -0.01525123  0.91040706  1
  O  O257  1  0.12720644  0.25480285  0.15555245  1
  O  O258  1  0.09679927  0.23540269  0.36666290  1
  O  O259  1  0.13408624  0.24260755  0.60727556  1
  O  O260  1  0.12398248  0.25083856  0.87327385  1
  O  O261  1  0.12788198  0.50306318  0.09713279  1
  O  O262  1  0.14867249  0.49985124  0.39407349  1
  O  O263  1  0.12574281  0.49145109  0.60769188  1
  O  O264  1  0.10981775  0.50318412  0.88991238  1
  O  O265  1  0.14864732  0.73985264  0.12841819  1
  O  O266  1  0.12385244  0.75074329  0.36665879  1
  O  O267  1  0.14856288  0.73555432  0.64058441  1
  O  O268  1  0.13419294  0.74303539  0.84895116  1
  O  O269  1  0.37526399  0.00051327  0.13835533  1
  O  O270  1  0.35012354  -0.00266046  0.35464487  1
  O  O271  1  0.38153236  -0.00948586  0.66389539  1
  O  O272  1  0.35806417  -0.00520388  0.86287932  1
  O  O273  1  0.37199570  0.24919092  0.09102175  1
  O  O274  1  0.35917435  0.25917944  0.40341608  1
  O  O275  1  0.35919986  0.24201728  0.58025864  1
  O  O276  1  0.37128914  0.25399386  0.90760600  1
  O  O277  1  0.40409127  0.48855068  0.14400268  1
  O  O278  1  0.33606619  0.50693574  0.35683180  1
  O  O279  1  0.40237057  0.49710662  0.64095476  1
  O  O280  1  0.37910899  0.50191919  0.83418262  1
  O  O281  1  0.37053342  0.74067179  0.09993416  1
  O  O282  1  0.41771075  0.74397697  0.39022116  1
  O  O283  1  0.34235386  0.75410461  0.61208221  1
  O  O284  1  0.38174612  0.75212072  0.90640714  1
  O  O285  1  0.63266009  0.00450415  0.10663102  1
  O  O286  1  0.61609190  0.00993856  0.38060242  1
  O  O287  1  0.57982330  0.00354763  0.62672795  1
  O  O288  1  0.61096410  0.00075354  0.87930375  1
  O  O289  1  0.63037757  0.24846056  0.10976622  1
  O  O290  1  0.61871101  0.26033387  0.35767072  1
  O  O291  1  0.66330176  0.24421323  0.60662655  1
  O  O292  1  0.64648161  0.24985660  0.86883602  1
  O  O293  1  0.63271390  0.49998669  0.12233899  1
  O  O294  1  0.63297764  0.49692487  0.35620603  1
  O  O295  1  0.58837620  0.49711552  0.60877414  1
  O  O296  1  0.63178524  0.49794461  0.85250638  1
  O  O297  1  0.61709960  0.74134341  0.09692255  1
  O  O298  1  0.60451403  0.73869524  0.37180405  1
  O  O299  1  0.66051644  0.75011376  0.60458076  1
  O  O300  1  0.63948229  0.74520500  0.87799531  1
  O  O301  1  0.85283455  0.00034421  0.13423619  1
  O  O302  1  0.84654025  0.00884913  0.40447601  1
  O  O303  1  0.89848822  0.01422322  0.59593761  1
  O  O304  1  0.88705999  -0.00179204  0.88161600  1
  O  O305  1  0.88650689  0.26444911  0.14376649  1
  O  O306  1  0.89095797  0.24856221  0.34932440  1
  O  O307  1  0.84560772  0.24882053  0.64027765  1
  O  O308  1  0.85217693  0.24339408  0.85006579  1
  O  O309  1  0.82495797  0.49640870  0.10129814  1
  O  O310  1  0.86870820  0.50194292  0.41624585  1
  O  O311  1  0.88261194  0.49160356  0.58953668  1
  O  O312  1  0.87840310  0.49807156  0.88309090  1
  O  O313  1  0.88491616  0.74249693  0.15932916  1
  O  O314  1  0.88370647  0.73566857  0.34887153  1
  O  O315  1  0.86041604  0.73770628  0.63764396  1
  O  O316  1  0.86786691  0.75094108  0.84874511  1
