# generated using pymatgen
data_Mg32Ti42(Bi17O64)3
_symmetry_space_group_name_H-M   'P 1'
_cell_length_a   15.93328311
_cell_length_b   15.95701299
_cell_length_c   15.93349324
_cell_angle_alpha   90.03000954
_cell_angle_beta   89.90825969
_cell_angle_gamma   90.15353091
_symmetry_Int_Tables_number   1
_chemical_formula_structural   Mg32Ti42(Bi17O64)3
_chemical_formula_sum   'Mg32 Ti42 Bi51 O192'
_cell_volume   4051.03222171
_cell_formula_units_Z   1
loop_
 _symmetry_equiv_pos_site_id
 _symmetry_equiv_pos_as_xyz
  1  'x, y, z'
loop_
 _atom_site_type_symbol
 _atom_site_label
 _atom_site_symmetry_multiplicity
 _atom_site_fract_x
 _atom_site_fract_y
 _atom_site_fract_z
 _atom_site_occupancy
  Mg  Mg0  1  0.12733112  0.37524071  0.63202352  1
  Mg  Mg1  1  0.37487476  0.37232684  0.63556153  1
  Mg  Mg2  1  0.12700934  0.37705432  0.12536261  1
  Mg  Mg3  1  0.35830593  0.37548935  0.37234852  1
  Mg  Mg4  1  0.13374343  0.37422957  0.87411232  1
  Mg  Mg5  1  0.11926321  0.63281557  0.62580736  1
  Mg  Mg6  1  0.61782678  0.36898705  0.11865885  1
  Mg  Mg7  1  0.11988954  0.63473525  0.87166986  1
  Mg  Mg8  1  0.39218703  0.40576447  0.88532792  1
  Mg  Mg9  1  0.61762401  0.62244134  0.12272065  1
  Mg  Mg10  1  0.38024967  0.12346648  0.62385223  1
  Mg  Mg11  1  0.62453358  0.37915925  0.61815812  1
  Mg  Mg12  1  0.87007751  0.37348033  0.88192474  1
  Mg  Mg13  1  0.13249552  0.62137802  0.12487555  1
  Mg  Mg14  1  0.13213484  0.13072644  0.86661244  1
  Mg  Mg15  1  0.85689252  0.11997565  0.88030616  1
  Mg  Mg16  1  0.61739096  0.13277931  0.37717093  1
  Mg  Mg17  1  0.87729028  0.38075354  0.63476501  1
  Mg  Mg18  1  0.61355811  0.87935227  0.13039526  1
  Mg  Mg19  1  0.75824580  0.70898303  0.80048345  1
  Mg  Mg20  1  0.44316480  0.24830823  -0.03851275  1
  Mg  Mg21  1  0.55886289  0.58000694  -0.10581155  1
  Mg  Mg22  1  0.28561784  0.74264584  0.21285741  1
  Mg  Mg23  1  -0.01560068  0.05490538  0.78203746  1
  Mg  Mg24  1  0.21541629  0.50951259  -0.05533310  1
  Mg  Mg25  1  0.06438070  0.50226135  0.26157232  1
  Mg  Mg26  1  0.31052267  0.70238002  0.72277868  1
  Mg  Mg27  1  0.27779016  0.30904537  0.78416453  1
  Mg  Mg28  1  0.01537999  0.27676022  0.24996154  1
  Mg  Mg29  1  0.76999802  0.49084348  0.54341891  1
  Mg  Mg30  1  0.28001767  0.02171298  0.74744085  1
  Mg  Mg31  1  0.23085800  0.25787870  0.22993960  1
  Ti  Ti32  1  0.13053349  0.88338924  0.37479604  1
  Ti  Ti33  1  0.38238883  0.61967687  0.87916432  1
  Ti  Ti34  1  0.14287402  0.63159594  0.37526345  1
  Ti  Ti35  1  0.11779798  0.11713634  0.63817659  1
  Ti  Ti36  1  0.87136105  0.87369772  0.36505866  1
  Ti  Ti37  1  0.13142641  0.36137306  0.37039780  1
  Ti  Ti38  1  0.36391494  0.87253511  0.37310714  1
  Ti  Ti39  1  0.87628864  0.13884836  0.37418551  1
  Ti  Ti40  1  0.11926422  0.13495764  0.12424468  1
  Ti  Ti41  1  0.88518623  0.37447209  0.13566692  1
  Ti  Ti42  1  0.88710050  0.60766674  0.88288291  1
  Ti  Ti43  1  0.87479212  0.38647428  0.37068106  1
  Ti  Ti44  1  0.37541118  0.36975760  0.11318957  1
  Ti  Ti45  1  0.62424385  0.13077052  0.61993107  1
  Ti  Ti46  1  0.63316618  0.87258448  0.61179482  1
  Ti  Ti47  1  0.86362313  0.62063948  0.63262300  1
  Ti  Ti48  1  0.11334010  0.88256732  0.63798781  1
  Ti  Ti49  1  0.62382411  0.62088527  0.36850966  1
  Ti  Ti50  1  0.37799486  0.88290295  0.63208026  1
  Ti  Ti51  1  0.61532848  0.86900389  0.37694838  1
  Ti  Ti52  1  0.86802021  0.86964590  0.62841784  1
  Ti  Ti53  1  0.88047208  0.86904221  0.87482405  1
  Ti  Ti54  1  0.86992116  0.12251786  0.12859144  1
  Ti  Ti55  1  0.87828849  0.61676158  0.35631399  1
  Ti  Ti56  1  0.88684016  0.87873520  0.13166727  1
  Ti  Ti57  1  0.37550886  0.62886178  0.36541425  1
  Ti  Ti58  1  0.62526323  0.36276045  0.88749290  1
  Ti  Ti59  1  0.13377478  0.87532697  0.12242631  1
  Ti  Ti60  1  0.62767886  0.37420560  0.37973394  1
  Ti  Ti61  1  0.35981839  0.13249941  0.37571306  1
  Ti  Ti62  1  0.60807868  0.12374759  0.11942238  1
  Ti  Ti63  1  0.36547238  0.88254360  0.11477826  1
  Ti  Ti64  1  0.88177044  0.60896038  0.12971051  1
  Ti  Ti65  1  0.37848654  0.11925729  0.86059094  1
  Ti  Ti66  1  0.86700248  0.11853535  0.63462848  1
  Ti  Ti67  1  0.62643182  0.12658224  0.88479177  1
  Ti  Ti68  1  0.63587755  0.63030417  0.61131503  1
  Ti  Ti69  1  0.11799582  0.87293201  0.86674764  1
  Ti  Ti70  1  0.38027864  0.62297509  0.10661717  1
  Ti  Ti71  1  0.37204675  0.12762467  0.12106176  1
  Ti  Ti72  1  0.12085779  0.13079692  0.37774863  1
  Ti  Ti73  1  0.36090965  0.86791915  0.86071913  1
  Bi  Bi74  1  0.45903174  0.74033765  0.51104267  1
  Bi  Bi75  1  0.70974141  0.51819170  0.76001921  1
  Bi  Bi76  1  -0.01855740  0.23826173  -0.01380615  1
  Bi  Bi77  1  0.55216930  0.76194485  0.76232697  1
  Bi  Bi78  1  0.03044518  0.75370745  0.25314032  1
  Bi  Bi79  1  0.48592800  0.01499933  0.27219442  1
  Bi  Bi80  1  0.03386387  0.50118407  0.48358914  1
  Bi  Bi81  1  0.00361497  0.27386393  0.74777509  1
  Bi  Bi82  1  0.47133287  0.27393623  0.51042610  1
  Bi  Bi83  1  0.47719909  0.25855330  0.25309567  1
  Bi  Bi84  1  -0.00208407  0.77530114  0.48739996  1
  Bi  Bi85  1  0.72632489  0.48552494  0.23215568  1
  Bi  Bi86  1  0.72167903  0.75888823  0.24209696  1
  Bi  Bi87  1  -0.01330705  0.02024938  0.25807767  1
  Bi  Bi88  1  0.49714806  0.49948252  0.47394560  1
  Bi  Bi89  1  0.76745716  0.73250362  0.47879936  1
  Bi  Bi90  1  0.77188375  0.73511553  0.02130940  1
  Bi  Bi91  1  0.24729433  0.25250500  -0.02225306  1
  Bi  Bi92  1  0.48305041  0.52403621  0.70650876  1
  Bi  Bi93  1  0.74248565  0.02329329  0.48290903  1
  Bi  Bi94  1  0.25171030  0.26685156  0.54463772  1
  Bi  Bi95  1  0.01931404  0.47133423  -0.01355322  1
  Bi  Bi96  1  0.02538611  0.50415073  0.74764117  1
  Bi  Bi97  1  0.23622822  0.74118280  -0.01683264  1
  Bi  Bi98  1  0.50376739  0.27440576  0.76193695  1
  Bi  Bi99  1  0.50022727  -0.02933909  -0.02394501  1
  Bi  Bi100  1  0.72919324  0.25323125  0.25021241  1
  Bi  Bi101  1  0.52555243  -0.00548693  0.74448578  1
  Bi  Bi102  1  0.74676274  -0.02482008  0.76791737  1
  Bi  Bi103  1  -0.01995927  0.00595146  0.51362295  1
  Bi  Bi104  1  0.23435388  0.02621176  0.24008060  1
  Bi  Bi105  1  0.71849519  0.01047823  0.25001937  1
  Bi  Bi106  1  0.49404829  0.48831411  0.21952896  1
  Bi  Bi107  1  0.23426859  0.77769225  0.52892144  1
  Bi  Bi108  1  0.24376195  0.01536302  0.52364578  1
  Bi  Bi109  1  0.00520758  0.25366806  0.52546754  1
  Bi  Bi110  1  -0.00602866  0.73323064  0.72951890  1
  Bi  Bi111  1  0.23640362  0.00441773  -0.03103446  1
  Bi  Bi112  1  0.72422532  0.51570169  -0.00905644  1
  Bi  Bi113  1  0.48252879  0.76449554  0.23042728  1
  Bi  Bi114  1  -0.01551807  0.00928016  -0.01586534  1
  Bi  Bi115  1  0.76468019  0.26394797  0.01926429  1
  Bi  Bi116  1  0.00768017  0.73743069  0.01794618  1
  Bi  Bi117  1  0.27337503  0.54353921  0.53208104  1
  Bi  Bi118  1  0.49629292  0.00694107  0.50636741  1
  Bi  Bi119  1  0.25828465  0.49848151  0.21796920  1
  Bi  Bi120  1  0.76154108  0.27666114  0.51598252  1
  Bi  Bi121  1  0.56167179  0.76148836  -0.03199926  1
  Bi  Bi122  1  0.74553532  0.27967278  0.74948407  1
  Bi  Bi123  1  0.25661967  0.51360188  0.73921043  1
  Bi  Bi124  1  0.73830754  -0.03228648  0.01003102  1
  O  O125  1  0.15555997  0.14128064  0.00892427  1
  O  O126  1  0.11257388  0.09877551  0.24803640  1
  O  O127  1  0.14637100  0.13168033  0.48918932  1
  O  O128  1  0.09079809  0.10575665  0.74717636  1
  O  O129  1  0.14483284  0.41028045  -0.00014379  1
  O  O130  1  0.08511898  0.38039677  0.26238733  1
  O  O131  1  0.14088851  0.35764817  0.49552865  1
  O  O132  1  0.09153347  0.37646077  0.75616953  1
  O  O133  1  0.16174277  0.62469984  -0.00300458  1
  O  O134  1  0.09507699  0.62497865  0.26348454  1
  O  O135  1  0.14072399  0.61889428  0.49692528  1
  O  O136  1  0.08647958  0.63385744  0.75124148  1
  O  O137  1  0.13470735  0.85923279  0.00707048  1
  O  O138  1  0.12692975  0.86326380  0.25692230  1
  O  O139  1  0.11667803  0.86254591  0.49793047  1
  O  O140  1  0.12349280  0.89715091  0.75164256  1
  O  O141  1  0.35589826  0.15087445  0.00678470  1
  O  O142  1  0.40236017  0.12537956  0.24877562  1
  O  O143  1  0.33973705  0.12821623  0.48911653  1
  O  O144  1  0.38489375  0.09965999  0.74861721  1
  O  O145  1  0.37301020  0.34902184  -0.00012763  1
  O  O146  1  0.40218293  0.38047142  0.25239624  1
  O  O147  1  0.35107926  0.35358795  0.49802302  1
  O  O148  1  0.39953728  0.36722186  0.76053240  1
  O  O149  1  0.34876999  0.63518632  -0.00515504  1
  O  O150  1  0.39716767  0.63459139  0.25280654  1
  O  O151  1  0.35558697  0.64506437  0.49557640  1
  O  O152  1  0.38569443  0.60773503  0.75462468  1
  O  O153  1  0.36462737  0.87182252  0.00169808  1
  O  O154  1  0.36041905  0.84328095  0.25706352  1
  O  O155  1  0.38610052  0.86250009  0.49870394  1
  O  O156  1  0.35635981  0.91512645  0.74809260  1
  O  O157  1  0.63648283  0.13066667  0.00161752  1
  O  O158  1  0.60858564  0.09978048  0.25109068  1
  O  O159  1  0.65494706  0.12562121  0.49766357  1
  O  O160  1  0.60503892  0.10660484  0.73893375  1
  O  O161  1  0.65284713  0.35407479  -0.00131613  1
  O  O162  1  0.60782535  0.40774574  0.25313954  1
  O  O163  1  0.65393213  0.36539631  0.49206794  1
  O  O164  1  0.60912948  0.36637576  0.74849438  1
  O  O165  1  0.63529246  0.62425036  -0.00723138  1
  O  O166  1  0.62107192  0.59865916  0.25568261  1
  O  O167  1  0.64762886  0.65187301  0.50066786  1
  O  O168  1  0.59339304  0.60128436  0.76484226  1
  O  O169  1  0.62187084  0.88854951  0.00272971  1
  O  O170  1  0.64447327  0.88551354  0.25385046  1
  O  O171  1  0.61093754  0.85409920  0.49681090  1
  O  O172  1  0.62671879  0.89523954  0.74190795  1
  O  O173  1  0.86934863  0.09814750  0.01120039  1
  O  O174  1  0.91260086  0.13943304  0.25258723  1
  O  O175  1  0.86723596  0.09728829  0.49005735  1
  O  O176  1  0.88855649  0.13020806  0.74762361  1
  O  O177  1  0.84105238  0.37808650  0.01559908  1
  O  O178  1  0.90592964  0.34733133  0.25273866  1
  O  O179  1  0.83590671  0.39253959  0.49184389  1
  O  O180  1  0.88635643  0.34147585  0.75687554  1
  O  O181  1  0.84747498  0.61357859  0.00407977  1
  O  O182  1  0.90059302  0.63736669  0.24686234  1
  O  O183  1  0.82586299  0.60825802  0.52044241  1
  O  O184  1  0.89435100  0.64200770  0.76378699  1
  O  O185  1  0.88677135  0.89801833  -0.00024949  1
  O  O186  1  0.87312020  0.84498495  0.24713650  1
  O  O187  1  0.88931788  0.87893597  0.49860627  1
  O  O188  1  0.85770590  0.87355596  0.75085741  1
  O  O189  1  0.00838127  0.11135925  0.10894316  1
  O  O190  1  0.00225743  0.09780857  0.38534733  1
  O  O191  1  -0.00150845  0.12533405  0.59488095  1
  O  O192  1  0.00306577  0.13599958  0.89229002  1
  O  O193  1  -0.00381633  0.37766771  0.10002584  1
  O  O194  1  -0.01177689  0.39219425  0.40711317  1
  O  O195  1  -0.00154003  0.35536695  0.61922634  1
  O  O196  1  0.00132996  0.35149658  0.90695466  1
  O  O197  1  -0.00474396  0.61774027  0.09528385  1
  O  O198  1  -0.01243817  0.59758582  0.40083330  1
  O  O199  1  -0.01668148  0.64411507  0.61757278  1
  O  O200  1  -0.00474992  0.64550298  0.91008577  1
  O  O201  1  0.00535378  0.88469810  0.13256555  1
  O  O202  1  0.00158179  0.86995754  0.37679950  1
  O  O203  1  -0.00329673  0.86243620  0.62888436  1
  O  O204  1  0.00212503  0.84961901  0.87251390  1
  O  O205  1  0.25461546  0.14371485  0.15986398  1
  O  O206  1  0.24594901  0.14206890  0.33737139  1
  O  O207  1  0.23947172  0.09116481  0.64336782  1
  O  O208  1  0.25169411  0.08407305  0.85513658  1
  O  O209  1  0.25677878  0.35987467  0.15239734  1
  O  O210  1  0.23703982  0.34110442  0.33575867  1
  O  O211  1  0.24831086  0.34671456  0.66069544  1
  O  O212  1  0.26274065  0.41380550  0.86359492  1
  O  O213  1  0.25899166  0.63092347  0.15746997  1
  O  O214  1  0.25366693  0.64484613  0.34961346  1
  O  O215  1  0.24468391  0.62296396  0.64761624  1
  O  O216  1  0.25750915  0.59717275  0.85481824  1
  O  O217  1  0.25003668  0.84222730  0.13504879  1
  O  O218  1  0.24903114  0.85741798  0.39419965  1
  O  O219  1  0.24334325  0.89377075  0.60800761  1
  O  O220  1  0.24721693  0.89926711  0.87909859  1
  O  O221  1  0.49610084  0.10730313  0.10704224  1
  O  O222  1  0.49177754  0.09741222  0.38808429  1
  O  O223  1  0.50577511  0.12119495  0.58450401  1
  O  O224  1  0.48999529  0.15634237  0.88587165  1
  O  O225  1  0.49479068  0.39398216  0.11814092  1
  O  O226  1  0.50417419  0.38109126  0.40187898  1
  O  O227  1  0.50038588  0.37997045  0.59383219  1
  O  O228  1  0.50671784  0.33601110  0.89035516  1
  O  O229  1  0.49211499  0.60137176  0.11244557  1
  O  O230  1  0.50427803  0.62128967  0.39806578  1
  O  O231  1  0.51743120  0.61573950  0.61018620  1
  O  O232  1  0.48500524  0.67978040  0.88473775  1
  O  O233  1  0.48459967  0.88263622  0.14236183  1
  O  O234  1  0.50195570  0.88935909  0.36165341  1
  O  O235  1  0.49227929  0.86836933  0.64041508  1
  O  O236  1  0.48513338  0.86100532  0.88479452  1
  O  O237  1  0.75740630  0.12951235  0.14998240  1
  O  O238  1  0.76010429  0.11711324  0.36088014  1
  O  O239  1  0.75137892  0.10411211  0.63282149  1
  O  O240  1  0.73568534  0.08755728  0.86500961  1
  O  O241  1  0.75348188  0.35756474  0.15917586  1
  O  O242  1  0.74729744  0.36867828  0.33970122  1
  O  O243  1  0.75251038  0.36035898  0.63337683  1
  O  O244  1  0.74639350  0.37610817  0.84607262  1
  O  O245  1  0.76068929  0.64915538  0.13861694  1
  O  O246  1  0.75344500  0.64697759  0.36347543  1
  O  O247  1  0.74543762  0.63958015  0.68459312  1
  O  O248  1  0.76300566  0.59826119  0.86126235  1
  O  O249  1  0.76035543  0.86493233  0.10790057  1
  O  O250  1  0.75650321  0.85255972  0.38106588  1
  O  O251  1  0.74789408  0.89152191  0.61123307  1
  O  O252  1  0.76251823  0.90638743  0.88333826  1
  O  O253  1  0.15245755  -0.00577622  0.12356597  1
  O  O254  1  0.14325428  -0.00322338  0.37568094  1
  O  O255  1  0.10766763  -0.00090209  0.59762126  1
  O  O256  1  0.11007601  -0.00621436  0.90326374  1
  O  O257  1  0.11378052  0.24624054  0.16148314  1
  O  O258  1  0.08892829  0.24438161  0.35750636  1
  O  O259  1  0.11377424  0.23587440  0.62681935  1
  O  O260  1  0.17147339  0.25433831  0.86077556  1
  O  O261  1  0.13777738  0.50021334  0.15650865  1
  O  O262  1  0.12728975  0.49608942  0.37693500  1
  O  O263  1  0.12204342  0.50195883  0.64454834  1
  O  O264  1  0.10239825  0.50519317  0.86854659  1
  O  O265  1  0.10518769  0.74691285  0.13273146  1
  O  O266  1  0.10472264  0.74231019  0.38048418  1
  O  O267  1  0.13381646  0.76271156  0.63077533  1
  O  O268  1  0.14969145  0.75788267  0.87496903  1
  O  O269  1  0.35029554  0.00072030  0.12810236  1
  O  O270  1  0.36202097  -0.00724540  0.35884846  1
  O  O271  1  0.37886442  -0.00075761  0.59265173  1
  O  O272  1  0.38845435  0.00438416  0.89811245  1
  O  O273  1  0.39360700  0.24922455  0.13867226  1
  O  O274  1  0.39350984  0.24432076  0.36751032  1
  O  O275  1  0.38228053  0.24551969  0.61933765  1
  O  O276  1  0.34350292  0.23725395  0.86987446  1
  O  O277  1  0.35614941  0.49581877  0.12133952  1
  O  O278  1  0.37323439  0.50878630  0.39231487  1
  O  O279  1  0.36172472  0.49549384  0.62612551  1
  O  O280  1  0.43882337  0.52125797  0.89051325  1
  O  O281  1  0.38780518  0.74287757  0.12760301  1
  O  O282  1  0.40258741  0.74931273  0.38212128  1
  O  O283  1  0.35422350  0.76630743  0.62771937  1
  O  O284  1  0.33960089  0.75879023  0.83610683  1
  O  O285  1  0.64401385  0.00534930  0.12436539  1
  O  O286  1  0.64414927  -0.00945983  0.38321904  1
  O  O287  1  0.60350893  -0.00838760  0.60616014  1
  O  O288  1  0.58062653  0.01221436  0.87407584  1
  O  O289  1  0.62126217  0.24070275  0.15139901  1
  O  O290  1  0.61796353  0.25745469  0.34988792  1
  O  O291  1  0.63032804  0.24229571  0.62765415  1
  O  O292  1  0.64322881  0.23965047  0.85554732  1
  O  O293  1  0.65442326  0.49732033  0.11352606  1
  O  O294  1  0.62468239  0.50499738  0.40081585  1
  O  O295  1  0.66067484  0.51179602  0.60904398  1
  O  O296  1  0.62695979  0.48003810  0.88800779  1
  O  O297  1  0.61374403  0.75013525  0.14658581  1
  O  O298  1  0.61814268  0.74887685  0.34783092  1
  O  O299  1  0.62731813  0.75373062  0.64437036  1
  O  O300  1  0.64814876  0.75225234  0.85701942  1
  O  O301  1  0.87529276  -0.00236031  0.15479327  1
  O  O302  1  0.87248459  -0.01251037  0.34887312  1
  O  O303  1  0.89420082  -0.00067526  0.62866234  1
  O  O304  1  0.91145122  -0.00279561  0.86393450  1
  O  O305  1  0.88104042  0.24366078  0.11050579  1
  O  O306  1  0.87534778  0.24915463  0.39736490  1
  O  O307  1  0.87662820  0.23830948  0.59860831  1
  O  O308  1  0.85964650  0.24284361  0.91449427  1
  O  O309  1  0.86636174  0.49527052  0.14585959  1
  O  O310  1  0.85842965  0.49909096  0.35138599  1
  O  O311  1  0.85937956  0.50544442  0.64338971  1
  O  O312  1  0.90801935  0.49659577  0.87671632  1
  O  O313  1  0.88994710  0.75333695  0.09618802  1
  O  O314  1  0.88964969  0.73721137  0.39696088  1
  O  O315  1  0.86126687  0.75506575  0.62008418  1
  O  O316  1  0.84651254  0.75496523  0.88730345  1
