# generated using pymatgen
data_Mg32Ti42(Bi17O64)3
_symmetry_space_group_name_H-M   'P 1'
_cell_length_a   15.93969289
_cell_length_b   15.92824970
_cell_length_c   15.95655393
_cell_angle_alpha   89.96210183
_cell_angle_beta   89.90584816
_cell_angle_gamma   90.06438031
_symmetry_Int_Tables_number   1
_chemical_formula_structural   Mg32Ti42(Bi17O64)3
_chemical_formula_sum   'Mg32 Ti42 Bi51 O192'
_cell_volume   4051.22303528
_cell_formula_units_Z   1
loop_
 _symmetry_equiv_pos_site_id
 _symmetry_equiv_pos_as_xyz
  1  'x, y, z'
loop_
 _atom_site_type_symbol
 _atom_site_label
 _atom_site_symmetry_multiplicity
 _atom_site_fract_x
 _atom_site_fract_y
 _atom_site_fract_z
 _atom_site_occupancy
  Mg  Mg0  1  0.87900493  0.63108983  0.63593426  1
  Mg  Mg1  1  0.37495924  0.37413250  0.62800014  1
  Mg  Mg2  1  0.38086864  0.12384939  0.36827667  1
  Mg  Mg3  1  0.61869272  0.37982813  0.11729779  1
  Mg  Mg4  1  0.11853296  0.12177444  0.37425223  1
  Mg  Mg5  1  0.87020405  0.12662821  0.61543866  1
  Mg  Mg6  1  0.62550007  0.88123909  0.62162763  1
  Mg  Mg7  1  0.36570795  0.37805842  0.36957915  1
  Mg  Mg8  1  0.88007861  0.87185129  0.11876823  1
  Mg  Mg9  1  0.87067450  0.62948208  0.11497474  1
  Mg  Mg10  1  0.86432892  0.87967175  0.37801275  1
  Mg  Mg11  1  0.62019679  0.88485362  0.86771018  1
  Mg  Mg12  1  0.87571094  0.12810839  0.87453464  1
  Mg  Mg13  1  0.11975816  0.12209892  0.12545031  1
  Mg  Mg14  1  0.12425924  0.87662479  0.62411637  1
  Mg  Mg15  1  0.13223375  0.87008643  0.36930472  1
  Mg  Mg16  1  0.38523807  0.86379594  0.62210733  1
  Mg  Mg17  1  0.62038221  0.13025494  0.61991152  1
  Mg  Mg18  1  0.62324474  0.62632146  0.37841477  1
  Mg  Mg19  1  0.47981901  0.72261915  0.47135616  1
  Mg  Mg20  1  0.23135015  0.70713430  0.23469155  1
  Mg  Mg21  1  0.19425541  0.51055419  0.24507835  1
  Mg  Mg22  1  -0.04614485  0.49533622  0.19603706  1
  Mg  Mg23  1  0.48469158  0.50669687  0.80352691  1
  Mg  Mg24  1  0.71690393  0.00321737  0.45901507  1
  Mg  Mg25  1  0.30271424  0.72797224  -0.05888678  1
  Mg  Mg26  1  -0.03829359  0.30925360  0.25158328  1
  Mg  Mg27  1  -0.01999596  0.30581883  0.06628769  1
  Mg  Mg28  1  0.24514715  0.22696145  0.44240856  1
  Mg  Mg29  1  0.18858167  0.22674185  0.25548937  1
  Mg  Mg30  1  0.80762454  0.44014414  0.01555622  1
  Mg  Mg31  1  0.19623125  0.00208504  0.74654527  1
  Ti  Ti32  1  0.13400895  0.13195433  0.60922436  1
  Ti  Ti33  1  0.62029166  0.13229253  0.13056690  1
  Ti  Ti34  1  0.36985599  0.38617702  0.12526565  1
  Ti  Ti35  1  0.86640329  0.11502805  0.38397330  1
  Ti  Ti36  1  0.86965195  0.87675789  0.61617246  1
  Ti  Ti37  1  0.87634150  0.36277263  0.87315636  1
  Ti  Ti38  1  0.61755485  0.62757856  0.62161431  1
  Ti  Ti39  1  0.88057951  0.62507151  0.36623201  1
  Ti  Ti40  1  0.63074475  0.61892002  0.11225400  1
  Ti  Ti41  1  0.86590876  0.62210431  0.87925650  1
  Ti  Ti42  1  0.61572674  0.12511846  0.86925588  1
  Ti  Ti43  1  0.36948819  0.62519802  0.36865882  1
  Ti  Ti44  1  0.12992396  0.87068883  0.88084138  1
  Ti  Ti45  1  0.62820888  0.38389756  0.36386829  1
  Ti  Ti46  1  0.37560216  0.12567738  0.12795326  1
  Ti  Ti47  1  0.13438851  0.37759837  0.36932165  1
  Ti  Ti48  1  0.63133592  0.62369437  0.88198093  1
  Ti  Ti49  1  0.37025445  0.13286101  0.87696562  1
  Ti  Ti50  1  0.61925571  0.12231203  0.36885367  1
  Ti  Ti51  1  0.86390074  0.38118723  0.37842911  1
  Ti  Ti52  1  0.12691569  0.61573015  0.62708283  1
  Ti  Ti53  1  0.12682363  0.37653138  0.86362507  1
  Ti  Ti54  1  0.62092378  0.38167926  0.61345278  1
  Ti  Ti55  1  0.35221929  0.86242583  0.12549065  1
  Ti  Ti56  1  0.12924645  0.37819179  0.13774222  1
  Ti  Ti57  1  0.61923997  0.86970396  0.37492861  1
  Ti  Ti58  1  0.37223255  0.13232904  0.60247737  1
  Ti  Ti59  1  0.11217029  0.62432971  0.12781252  1
  Ti  Ti60  1  0.36389251  0.37221241  0.87673657  1
  Ti  Ti61  1  0.88145225  0.13548429  0.12428274  1
  Ti  Ti62  1  0.37492440  0.62724150  0.61116756  1
  Ti  Ti63  1  0.12536002  0.86461227  0.11728696  1
  Ti  Ti64  1  0.12076614  0.62351973  0.37424972  1
  Ti  Ti65  1  0.36940189  0.87859288  0.86398443  1
  Ti  Ti66  1  0.38064336  0.85943600  0.37267748  1
  Ti  Ti67  1  0.36256436  0.62966670  0.14124520  1
  Ti  Ti68  1  0.13204913  0.37197401  0.62021972  1
  Ti  Ti69  1  0.63067036  0.38694559  0.87746244  1
  Ti  Ti70  1  0.12407927  0.13490008  0.87509738  1
  Ti  Ti71  1  0.87018210  0.88630037  0.87608872  1
  Ti  Ti72  1  0.12163195  0.63208162  0.86681867  1
  Ti  Ti73  1  0.87293884  0.36975326  0.61851974  1
  Bi  Bi74  1  0.76519203  -0.01989107  0.22750342  1
  Bi  Bi75  1  0.48275973  0.71244339  0.76332168  1
  Bi  Bi76  1  0.25663706  -0.02656519  0.49854008  1
  Bi  Bi77  1  -0.01682613  0.01435087  0.72646692  1
  Bi  Bi78  1  0.51049611  0.28078434  0.74776495  1
  Bi  Bi79  1  0.48654557  -0.02312096  0.22778136  1
  Bi  Bi80  1  0.25473254  0.47553655  0.50117872  1
  Bi  Bi81  1  -0.02109467  0.75730551  -0.02085649  1
  Bi  Bi82  1  0.48227344  0.25664868  0.47441258  1
  Bi  Bi83  1  0.21269368  0.26690424  0.01203667  1
  Bi  Bi84  1  0.48170339  0.28175165  0.24516690  1
  Bi  Bi85  1  0.48177408  -0.02255312  0.49552069  1
  Bi  Bi86  1  0.02252807  -0.00397652  0.48257156  1
  Bi  Bi87  1  0.47757221  0.01168432  -0.00408082  1
  Bi  Bi88  1  -0.00591545  0.03193530  -0.00266372  1
  Bi  Bi89  1  0.74242132  0.00986780  0.73653319  1
  Bi  Bi90  1  -0.00323999  0.24111835  0.72622652  1
  Bi  Bi91  1  0.52434643  0.52349233  0.25431265  1
  Bi  Bi92  1  -0.00220524  0.77436239  0.48523674  1
  Bi  Bi93  1  -0.01536813  0.77521175  0.24140173  1
  Bi  Bi94  1  0.72735607  0.75555508  0.48398685  1
  Bi  Bi95  1  0.48257704  0.48683346  0.48560565  1
  Bi  Bi96  1  0.52052446  0.75591609  0.21532517  1
  Bi  Bi97  1  0.71992511  0.76420807  0.73956990  1
  Bi  Bi98  1  0.72609784  0.78123586  -0.00057572  1
  Bi  Bi99  1  0.02046265  -0.00110406  0.23471075  1
  Bi  Bi100  1  -0.01739682  0.48995543  0.73890103  1
  Bi  Bi101  1  0.72628364  0.23732403  0.48995001  1
  Bi  Bi102  1  0.49963601  0.00351258  0.72197781  1
  Bi  Bi103  1  0.25166587  0.02813820  0.25725350  1
  Bi  Bi104  1  0.23757157  0.01315273  -0.00755180  1
  Bi  Bi105  1  0.76039719  0.53473954  0.50021562  1
  Bi  Bi106  1  -0.00030428  0.49338022  -0.02386656  1
  Bi  Bi107  1  0.74382789  0.23418143  0.74854587  1
  Bi  Bi108  1  0.24519961  0.77144240  0.72434029  1
  Bi  Bi109  1  0.22317415  0.75075519  0.49878500  1
  Bi  Bi110  1  0.74047909  0.50194418  0.72973550  1
  Bi  Bi111  1  0.74661049  0.75505261  0.22940597  1
  Bi  Bi112  1  0.24086695  0.53384014  -0.00507272  1
  Bi  Bi113  1  -0.01367988  0.52379444  0.50730145  1
  Bi  Bi114  1  0.50389304  0.27876116  0.00275378  1
  Bi  Bi115  1  0.46907818  0.53794381  0.00087754  1
  Bi  Bi116  1  -0.01673194  0.77173653  0.73828107  1
  Bi  Bi117  1  0.26147637  0.22498218  0.73517348  1
  Bi  Bi118  1  0.72779361  0.24047671  -0.00527583  1
  Bi  Bi119  1  0.76204153  0.23144541  0.24600593  1
  Bi  Bi120  1  0.76247355  0.47691501  0.20254625  1
  Bi  Bi121  1  0.49443659  0.78169336  -0.00497573  1
  Bi  Bi122  1  0.73295882  0.00437401  0.01185664  1
  Bi  Bi123  1  0.00312574  0.26581145  0.45693831  1
  Bi  Bi124  1  0.28760964  0.52517494  0.76828251  1
  O  O125  1  0.11662675  0.10962148  -0.00076687  1
  O  O126  1  0.12471284  0.09962162  0.25025796  1
  O  O127  1  0.14689586  0.15297258  0.49838713  1
  O  O128  1  0.15273738  0.11889924  0.76201211  1
  O  O129  1  0.09801089  0.34992935  0.01786376  1
  O  O130  1  0.16913151  0.38067894  0.25424612  1
  O  O131  1  0.10108361  0.36422852  0.50607808  1
  O  O132  1  0.14404744  0.38717308  0.75566781  1
  O  O133  1  0.14024969  0.62793892  0.01217621  1
  O  O134  1  0.11845468  0.61149060  0.25762284  1
  O  O135  1  0.14842592  0.62151264  0.50295046  1
  O  O136  1  0.12224219  0.61003872  0.75427654  1
  O  O137  1  0.14674024  0.86577534  0.00101302  1
  O  O138  1  0.09929736  0.88338685  0.24990039  1
  O  O139  1  0.12283792  0.85338023  0.49997862  1
  O  O140  1  0.14539178  0.88213477  0.75140998  1
  O  O141  1  0.39225775  0.13012987  0.01008191  1
  O  O142  1  0.38890569  0.07868477  0.24703845  1
  O  O143  1  0.35571667  0.16864183  0.49453927  1
  O  O144  1  0.34425197  0.10611455  0.76898426  1
  O  O145  1  0.39023077  0.36677298  -0.00569704  1
  O  O146  1  0.37943719  0.38099895  0.24293758  1
  O  O147  1  0.40138493  0.36819132  0.49953936  1
  O  O148  1  0.34892695  0.39539695  0.75603539  1
  O  O149  1  0.35594184  0.63345858  0.01667210  1
  O  O150  1  0.39760355  0.60448715  0.25640932  1
  O  O151  1  0.36402920  0.66222532  0.49977575  1
  O  O152  1  0.41122111  0.58652950  0.73500647  1
  O  O153  1  0.35755232  0.82483579  0.01380259  1
  O  O154  1  0.37881834  0.89418871  0.25438728  1
  O  O155  1  0.41853861  0.84987608  0.49251380  1
  O  O156  1  0.37454675  0.89759827  0.75433029  1
  O  O157  1  0.63839442  0.11324998  -0.00247442  1
  O  O158  1  0.63322898  0.15896424  0.24678968  1
  O  O159  1  0.65536468  0.11107438  0.49166426  1
  O  O160  1  0.61585311  0.16429219  0.75678071  1
  O  O161  1  0.58678092  0.39393087  -0.01255067  1
  O  O162  1  0.63392469  0.35593828  0.25250106  1
  O  O163  1  0.61769590  0.40544035  0.50234835  1
  O  O164  1  0.64067405  0.34791586  0.75650014  1
  O  O165  1  0.62836239  0.59566309  -0.00291025  1
  O  O166  1  0.60216034  0.64050105  0.25051228  1
  O  O167  1  0.64784848  0.61716998  0.50456038  1
  O  O168  1  0.62437507  0.64825538  0.74689953  1
  O  O169  1  0.64958276  0.89337075  -0.00630021  1
  O  O170  1  0.61612457  0.84344867  0.25763744  1
  O  O171  1  0.64549000  0.90498305  0.49294205  1
  O  O172  1  0.61078378  0.84420000  0.75028152  1
  O  O173  1  0.89305570  0.13594898  0.00383598  1
  O  O174  1  0.84988798  0.11357612  0.25038803  1
  O  O175  1  0.86143624  0.15376523  0.49302673  1
  O  O176  1  0.88755496  0.10420914  0.74866403  1
  O  O177  1  0.90230570  0.36034470  -0.00972897  1
  O  O178  1  0.87235314  0.40133769  0.26259929  1
  O  O179  1  0.89375773  0.35216928  0.50426021  1
  O  O180  1  0.86883132  0.40773347  0.75937903  1
  O  O181  1  0.87218638  0.66585358  -0.00656147  1
  O  O182  1  0.88634738  0.58689047  0.26029484  1
  O  O183  1  0.87799640  0.61968562  0.50581948  1
  O  O184  1  0.88711096  0.59365640  0.76159481  1
  O  O185  1  0.87113441  0.84902509  -0.00660749  1
  O  O186  1  0.90150442  0.89011523  0.25246214  1
  O  O187  1  0.85775218  0.84508691  0.50674271  1
  O  O188  1  0.90789038  0.89228349  0.75706652  1
  O  O189  1  -0.00639896  0.09802319  0.12852288  1
  O  O190  1  -0.01143985  0.09441873  0.38750887  1
  O  O191  1  0.01172489  0.13365069  0.62960169  1
  O  O192  1  0.01252713  0.09795815  0.86886383  1
  O  O193  1  0.01336252  0.38474862  0.16366616  1
  O  O194  1  0.01296439  0.37330699  0.36366508  1
  O  O195  1  0.00159826  0.36220465  0.65509238  1
  O  O196  1  0.00298720  0.40179439  0.86389087  1
  O  O197  1  0.00103372  0.60332790  0.12468408  1
  O  O198  1  0.00669623  0.60759382  0.39403179  1
  O  O199  1  0.01095996  0.62715303  0.61475479  1
  O  O200  1  0.00631049  0.60639077  0.89444925  1
  O  O201  1  0.00445317  0.84174585  0.11020524  1
  O  O202  1  -0.00904142  0.88941264  0.40521098  1
  O  O203  1  -0.00289484  0.85837140  0.61399223  1
  O  O204  1  0.01394279  0.88471118  0.89373573  1
  O  O205  1  0.25660268  0.10640363  0.13810635  1
  O  O206  1  0.25570035  0.14786883  0.33804533  1
  O  O207  1  0.25462334  0.13474976  0.63127863  1
  O  O208  1  0.25298240  0.13302114  0.91340972  1
  O  O209  1  0.25351248  0.36735956  0.09891076  1
  O  O210  1  0.24770234  0.35301456  0.41433599  1
  O  O211  1  0.24711237  0.37367037  0.60384231  1
  O  O212  1  0.24564964  0.35785377  0.90131753  1
  O  O213  1  0.25196417  0.60214904  0.16504308  1
  O  O214  1  0.25612461  0.65319032  0.35062945  1
  O  O215  1  0.26024028  0.62145825  0.64730846  1
  O  O216  1  0.24549806  0.62660864  0.88168635  1
  O  O217  1  0.24249534  0.88825156  0.14365539  1
  O  O218  1  0.26354237  0.85931484  0.39690114  1
  O  O219  1  0.25943383  0.85620274  0.60726695  1
  O  O220  1  0.25980644  0.83491074  0.87354751  1
  O  O221  1  0.50887505  0.10696421  0.13046709  1
  O  O222  1  0.50785547  0.11659259  0.38928015  1
  O  O223  1  0.49040643  0.10920108  0.62483127  1
  O  O224  1  0.49535234  0.10636262  0.87771722  1
  O  O225  1  0.49172022  0.36159307  0.12437480  1
  O  O226  1  0.50639642  0.39291729  0.36910228  1
  O  O227  1  0.50644575  0.37528418  0.64502877  1
  O  O228  1  0.49802623  0.38603174  0.84332411  1
  O  O229  1  0.49203595  0.62153726  0.11473804  1
  O  O230  1  0.49424080  0.60913204  0.39870409  1
  O  O231  1  0.50560528  0.64734979  0.59624915  1
  O  O232  1  0.51113566  0.60994475  0.87399900  1
  O  O233  1  0.48459686  0.85765065  0.12094003  1
  O  O234  1  0.50367088  0.90963754  0.36314304  1
  O  O235  1  0.50132480  0.90906337  0.62507072  1
  O  O236  1  0.49345016  0.89152207  0.90796186  1
  O  O237  1  0.75677400  0.16239784  0.11857700  1
  O  O238  1  0.74866844  0.16268671  0.36822085  1
  O  O239  1  0.74729177  0.12740700  0.65301981  1
  O  O240  1  0.74556013  0.15249118  0.86953517  1
  O  O241  1  0.74242450  0.38132544  0.10450611  1
  O  O242  1  0.75158282  0.36321373  0.39131808  1
  O  O243  1  0.75599485  0.39378850  0.62408773  1
  O  O244  1  0.75260522  0.37270603  0.90409279  1
  O  O245  1  0.74255421  0.62925200  0.13824584  1
  O  O246  1  0.76052932  0.63564621  0.38624297  1
  O  O247  1  0.75520137  0.60158076  0.63070579  1
  O  O248  1  0.75196396  0.63241062  0.86373412  1
  O  O249  1  0.75468977  0.86097577  0.14412364  1
  O  O250  1  0.74171278  0.84663399  0.36185144  1
  O  O251  1  0.75702568  0.88875910  0.65484661  1
  O  O252  1  0.75839590  0.85653273  0.86281120  1
  O  O253  1  0.10226665  -0.01642140  0.11873541  1
  O  O254  1  0.13530342  -0.00216038  0.40163536  1
  O  O255  1  0.13873873  0.00929358  0.62591002  1
  O  O256  1  0.16548323  -0.01016412  0.87556287  1
  O  O257  1  0.13656820  0.24835775  0.14383360  1
  O  O258  1  0.12226538  0.25083435  0.36045269  1
  O  O259  1  0.13213347  0.24961852  0.65248110  1
  O  O260  1  0.11547339  0.25025475  0.87371843  1
  O  O261  1  0.13871165  0.49478791  0.12682524  1
  O  O262  1  0.15620951  0.49647777  0.37351621  1
  O  O263  1  0.12338854  0.49473897  0.62043131  1
  O  O264  1  0.13685665  0.49294992  0.90282289  1
  O  O265  1  0.13822226  0.73966402  0.15244699  1
  O  O266  1  0.11116906  0.74207064  0.38177027  1
  O  O267  1  0.14255391  0.73987711  0.63180052  1
  O  O268  1  0.11093471  0.74637539  0.86571932  1
  O  O269  1  0.38388052  -0.01606884  0.10372101  1
  O  O270  1  0.36161502  -0.00314622  0.40923401  1
  O  O271  1  0.36509208  0.00842270  0.58520345  1
  O  O272  1  0.36025111  -0.00732909  0.91472049  1
  O  O273  1  0.38022968  0.23634471  0.15185351  1
  O  O274  1  0.40362373  0.25351987  0.36097003  1
  O  O275  1  0.37924049  0.24322078  0.65466094  1
  O  O276  1  0.38503516  0.24858226  0.86152031  1
  O  O277  1  0.37438444  0.49802695  0.10953679  1
  O  O278  1  0.35942321  0.50648262  0.40352504  1
  O  O279  1  0.37408234  0.50789051  0.58665636  1
  O  O280  1  0.36944217  0.49462105  0.88475662  1
  O  O281  1  0.34241463  0.74294999  0.16807786  1
  O  O282  1  0.40690889  0.74847724  0.36045109  1
  O  O283  1  0.38000332  0.74208530  0.66436025  1
  O  O284  1  0.40427676  0.75669828  0.87032963  1
  O  O285  1  0.66328392  0.01872000  0.13553838  1
  O  O286  1  0.64690369  0.00951432  0.35204360  1
  O  O287  1  0.62683906  0.00769117  0.66383765  1
  O  O288  1  0.63963628  0.01210010  0.84822403  1
  O  O289  1  0.61614973  0.24943569  0.08999351  1
  O  O290  1  0.61394264  0.25708491  0.40190588  1
  O  O291  1  0.62732019  0.26023369  0.59964273  1
  O  O292  1  0.61321919  0.25460474  0.90349453  1
  O  O293  1  0.61564044  0.50359097  0.14723974  1
  O  O294  1  0.63782633  0.50054523  0.34842340  1
  O  O295  1  0.62243249  0.50460176  0.64830389  1
  O  O296  1  0.63210026  0.49920512  0.84561117  1
  O  O297  1  0.61678665  0.73919543  0.10911102  1
  O  O298  1  0.59768529  0.75867337  0.41656472  1
  O  O299  1  0.65490705  0.74938846  0.61113772  1
  O  O300  1  0.62202405  0.74339113  0.90502726  1
  O  O301  1  0.84697242  0.00239542  0.11584276  1
  O  O302  1  0.82966312  0.00608930  0.40073031  1
  O  O303  1  0.89469638  -0.00447920  0.61541096  1
  O  O304  1  0.86201218  -0.00279867  0.89593557  1
  O  O305  1  0.91264123  0.24462836  0.15284439  1
  O  O306  1  0.89907840  0.25817389  0.35210021  1
  O  O307  1  0.87524673  0.25519423  0.65393024  1
  O  O308  1  0.88735364  0.25533498  0.84580631  1
  O  O309  1  0.86250569  0.50266540  0.11002313  1
  O  O310  1  0.87862867  0.49333058  0.40946156  1
  O  O311  1  0.90120788  0.49039494  0.61791322  1
  O  O312  1  0.86925038  0.50742839  0.91970475  1
  O  O313  1  0.87335208  0.74469979  0.16448320  1
  O  O314  1  0.90249986  0.74169334  0.36378470  1
  O  O315  1  0.87251105  0.75541288  0.65999751  1
  O  O316  1  0.90594048  0.74782318  0.85375495  1
