# generated using pymatgen
data_Mg32Ti42(Bi17O64)3
_symmetry_space_group_name_H-M   'P 1'
_cell_length_a   15.95062227
_cell_length_b   15.92872007
_cell_length_c   15.96543818
_cell_angle_alpha   89.98426693
_cell_angle_beta   89.99369103
_cell_angle_gamma   90.03624126
_symmetry_Int_Tables_number   1
_chemical_formula_structural   Mg32Ti42(Bi17O64)3
_chemical_formula_sum   'Mg32 Ti42 Bi51 O192'
_cell_volume   4056.38573973
_cell_formula_units_Z   1
loop_
 _symmetry_equiv_pos_site_id
 _symmetry_equiv_pos_as_xyz
  1  'x, y, z'
loop_
 _atom_site_type_symbol
 _atom_site_label
 _atom_site_symmetry_multiplicity
 _atom_site_fract_x
 _atom_site_fract_y
 _atom_site_fract_z
 _atom_site_occupancy
  Mg  Mg0  1  0.12806772  0.37945067  0.86733252  1
  Mg  Mg1  1  0.36905200  0.62388020  0.62114776  1
  Mg  Mg2  1  0.87543310  0.37137706  0.11462668  1
  Mg  Mg3  1  0.63079943  0.87983413  0.87246196  1
  Mg  Mg4  1  0.86031454  0.87531284  0.11812653  1
  Mg  Mg5  1  0.87975250  0.62501644  0.14213266  1
  Mg  Mg6  1  0.87721860  0.86411736  0.62710399  1
  Mg  Mg7  1  0.12470856  0.12787614  0.87603896  1
  Mg  Mg8  1  0.87666016  0.62338395  0.87119116  1
  Mg  Mg9  1  0.11611193  0.86760861  0.85927044  1
  Mg  Mg10  1  0.37321659  0.62209494  0.87687777  1
  Mg  Mg11  1  0.13837363  0.63113410  0.37191795  1
  Mg  Mg12  1  0.63468307  0.61171892  0.37032257  1
  Mg  Mg13  1  0.36849963  0.87473938  0.61386643  1
  Mg  Mg14  1  0.36836975  0.62571833  0.13116577  1
  Mg  Mg15  1  0.10210921  0.13381643  0.61638742  1
  Mg  Mg16  1  0.38009227  0.11615912  0.62093457  1
  Mg  Mg17  1  0.63040711  0.87462365  0.61471208  1
  Mg  Mg18  1  0.37971620  0.87510653  0.87620111  1
  Mg  Mg19  1  0.70035861  0.52497080  0.53494536  1
  Mg  Mg20  1  -0.05097783  0.71212359  0.74383805  1
  Mg  Mg21  1  0.76444539  0.76670079  -0.07462100  1
  Mg  Mg22  1  0.00435634  -0.03944028  0.69471648  1
  Mg  Mg23  1  -0.01446642  0.29415890  0.45719564  1
  Mg  Mg24  1  0.03164522  0.24053157  0.76300098  1
  Mg  Mg25  1  0.30106567  0.74958703  0.27626969  1
  Mg  Mg26  1  0.45388091  0.01672636  0.47428048  1
  Mg  Mg27  1  0.04347079  0.48220380  0.44242770  1
  Mg  Mg28  1  0.77577630  0.49533270  0.19943122  1
  Mg  Mg29  1  -0.05390684  0.77684071  0.45401871  1
  Mg  Mg30  1  0.75474061  -0.00435529  -0.06377368  1
  Mg  Mg31  1  0.77011037  0.57678953  0.01769445  1
  Ti  Ti32  1  0.87570567  0.13649394  0.12071392  1
  Ti  Ti33  1  0.63477272  0.61842905  0.88572018  1
  Ti  Ti34  1  0.12490135  0.86062486  0.62043014  1
  Ti  Ti35  1  0.63745400  0.62411694  0.13042030  1
  Ti  Ti36  1  0.85220387  0.39780612  0.38228283  1
  Ti  Ti37  1  0.12233287  0.63855391  0.13084836  1
  Ti  Ti38  1  0.11831739  0.62987062  0.62139503  1
  Ti  Ti39  1  0.37299688  0.11990543  0.12155821  1
  Ti  Ti40  1  0.37863948  0.87919303  0.37622978  1
  Ti  Ti41  1  0.10923720  0.11642964  0.37068212  1
  Ti  Ti42  1  0.62311817  0.37879557  0.87857314  1
  Ti  Ti43  1  0.62747002  0.36433897  0.37862530  1
  Ti  Ti44  1  0.63149118  0.38211427  0.11835128  1
  Ti  Ti45  1  0.62378939  0.12598730  0.61497773  1
  Ti  Ti46  1  0.89160463  0.13154195  0.62651982  1
  Ti  Ti47  1  0.37743988  0.11627812  0.87582580  1
  Ti  Ti48  1  0.87029827  0.13095710  0.37755868  1
  Ti  Ti49  1  0.37354771  0.60913517  0.37444085  1
  Ti  Ti50  1  0.87291165  0.60691438  0.37497530  1
  Ti  Ti51  1  0.88365363  0.87633946  0.85539627  1
  Ti  Ti52  1  0.11377167  0.12288626  0.12168143  1
  Ti  Ti53  1  0.37939885  0.36612094  0.36996440  1
  Ti  Ti54  1  0.60812268  0.88293441  0.38120181  1
  Ti  Ti55  1  0.88871457  0.61618420  0.60300171  1
  Ti  Ti56  1  0.87439042  0.38346059  0.61875029  1
  Ti  Ti57  1  0.88251105  0.12354424  0.86954156  1
  Ti  Ti58  1  0.11588479  0.37827501  0.11977878  1
  Ti  Ti59  1  0.37541002  0.37633292  0.62060163  1
  Ti  Ti60  1  0.61660260  0.12328062  0.37441790  1
  Ti  Ti61  1  0.37698335  0.38467145  0.86712710  1
  Ti  Ti62  1  0.12288723  0.87675797  0.12777265  1
  Ti  Ti63  1  0.87497089  0.37380198  0.87625373  1
  Ti  Ti64  1  0.62159370  0.12579692  0.87757921  1
  Ti  Ti65  1  0.09952449  0.37046085  0.63230096  1
  Ti  Ti66  1  0.13015486  0.86064918  0.37870668  1
  Ti  Ti67  1  0.62123112  0.13297048  0.12346186  1
  Ti  Ti68  1  0.62980644  0.86812699  0.13010822  1
  Ti  Ti69  1  0.11699427  0.62839231  0.87475134  1
  Ti  Ti70  1  0.37223461  0.37987088  0.11975743  1
  Ti  Ti71  1  0.62198835  0.36603205  0.62365886  1
  Ti  Ti72  1  0.36794336  0.86791539  0.12950054  1
  Ti  Ti73  1  0.36141566  0.13003185  0.36967321  1
  Bi  Bi74  1  0.23651272  -0.02271591  0.25021985  1
  Bi  Bi75  1  0.74602587  0.47696932  0.74783893  1
  Bi  Bi76  1  0.50957473  0.73884611  0.25242995  1
  Bi  Bi77  1  0.74371498  0.02019884  0.22454711  1
  Bi  Bi78  1  0.23438141  0.23954776  0.71290306  1
  Bi  Bi79  1  -0.03338287  0.00006475  0.23345512  1
  Bi  Bi80  1  0.24129211  0.52996196  0.75145154  1
  Bi  Bi81  1  0.51397726  0.52516666  0.71373345  1
  Bi  Bi82  1  0.23433639  0.24037140  0.22149636  1
  Bi  Bi83  1  0.48378973  0.23932051  0.49813733  1
  Bi  Bi84  1  0.49714190  0.25919135  0.22588693  1
  Bi  Bi85  1  0.26662118  0.74514853  0.50160697  1
  Bi  Bi86  1  0.21805336  0.49082425  0.52331808  1
  Bi  Bi87  1  0.51523000  0.72025205  0.48636283  1
  Bi  Bi88  1  0.52838259  0.75734949  -0.01289389  1
  Bi  Bi89  1  0.00358160  0.28306147  0.26610661  1
  Bi  Bi90  1  -0.00868728  0.77968812  0.25289791  1
  Bi  Bi91  1  0.24928952  0.77041616  -0.02379107  1
  Bi  Bi92  1  0.25251160  0.25732752  -0.02529078  1
  Bi  Bi93  1  0.77983191  0.77379455  0.27686684  1
  Bi  Bi94  1  0.73630777  0.73243690  0.50117035  1
  Bi  Bi95  1  0.75152892  0.22599768  0.74011249  1
  Bi  Bi96  1  0.48924311  0.51947783  -0.00937888  1
  Bi  Bi97  1  0.51139453  0.48454791  0.48121925  1
  Bi  Bi98  1  0.01555133  0.52042957  0.25356196  1
  Bi  Bi99  1  0.76729317  0.24188287  0.50601947  1
  Bi  Bi100  1  0.75472346  0.27456540  0.24007361  1
  Bi  Bi101  1  0.49910356  -0.00895345  0.22938725  1
  Bi  Bi102  1  0.47229816  0.24488502  0.73730808  1
  Bi  Bi103  1  0.23031002  0.01100941  0.49773190  1
  Bi  Bi104  1  0.51749450  -0.02023114  -0.00445741  1
  Bi  Bi105  1  0.22888783  0.46047810  0.27193220  1
  Bi  Bi106  1  0.76162367  -0.04257278  0.47715804  1
  Bi  Bi107  1  0.49411399  -0.03357755  0.71125167  1
  Bi  Bi108  1  0.01394716  0.26231560  -0.02791255  1
  Bi  Bi109  1  0.24188466  0.52745185  0.00932453  1
  Bi  Bi110  1  0.48505847  0.24962725  -0.01334251  1
  Bi  Bi111  1  0.24009102  -0.00824639  -0.03198843  1
  Bi  Bi112  1  0.75121641  0.70328134  0.71865508  1
  Bi  Bi113  1  0.72743895  -0.00623970  0.72099794  1
  Bi  Bi114  1  0.19528925  0.26808601  0.46872921  1
  Bi  Bi115  1  -0.03480697  0.75520908  0.01566177  1
  Bi  Bi116  1  -0.02609971  0.51179566  0.01491862  1
  Bi  Bi117  1  0.28305403  0.75967924  0.75181078  1
  Bi  Bi118  1  -0.01159434  0.50940070  0.76362229  1
  Bi  Bi119  1  0.49722495  0.51176831  0.22644130  1
  Bi  Bi120  1  0.53432019  0.74895996  0.72127144  1
  Bi  Bi121  1  0.75681405  0.24484716  -0.02545391  1
  Bi  Bi122  1  0.21166740  0.01186398  0.72245979  1
  Bi  Bi123  1  -0.02164363  -0.02974603  0.48604285  1
  Bi  Bi124  1  0.01659040  -0.01506645  -0.01546380  1
  O  O125  1  0.10384464  0.11509810  0.00857820  1
  O  O126  1  0.13714793  0.14252429  0.25408669  1
  O  O127  1  0.12814611  0.11338607  0.49187883  1
  O  O128  1  0.13611492  0.15247803  0.75176802  1
  O  O129  1  0.10019715  0.38591686  0.00447762  1
  O  O130  1  0.14384895  0.35351483  0.24766593  1
  O  O131  1  0.09188310  0.37959200  0.50550067  1
  O  O132  1  0.13139563  0.33578972  0.74430464  1
  O  O133  1  0.10832105  0.60448112  -0.00624983  1
  O  O134  1  0.10705341  0.63502996  0.24558402  1
  O  O135  1  0.11714025  0.59095234  0.50537052  1
  O  O136  1  0.15236527  0.63232514  0.74235341  1
  O  O137  1  0.13709107  0.89289065  0.01129195  1
  O  O138  1  0.11377222  0.88735123  0.25318298  1
  O  O139  1  0.15169461  0.89025034  0.49476348  1
  O  O140  1  0.10413560  0.87522643  0.73520933  1
  O  O141  1  0.40448602  0.13002626  0.00794600  1
  O  O142  1  0.36426224  0.12992255  0.25261659  1
  O  O143  1  0.39457596  0.12963604  0.49382183  1
  O  O144  1  0.37634651  0.12856587  0.76074505  1
  O  O145  1  0.40095763  0.38693926  0.00600051  1
  O  O146  1  0.37597490  0.35631389  0.25408873  1
  O  O147  1  0.40123029  0.36484287  0.50405913  1
  O  O148  1  0.36905018  0.36077281  0.75418335  1
  O  O149  1  0.36926386  0.59242338  0.00494700  1
  O  O150  1  0.40894028  0.62229212  0.25877704  1
  O  O151  1  0.36876240  0.64766262  0.49171116  1
  O  O152  1  0.34424539  0.63087612  0.75118712  1
  O  O153  1  0.35665155  0.86112655  0.01452631  1
  O  O154  1  0.39072966  0.90176082  0.25429062  1
  O  O155  1  0.34693786  0.85976259  0.48848304  1
  O  O156  1  0.38324481  0.86239741  0.74999728  1
  O  O157  1  0.60963705  0.13722851  0.01178515  1
  O  O158  1  0.64456385  0.12472219  0.26032483  1
  O  O159  1  0.61972872  0.13170731  0.50321153  1
  O  O160  1  0.64117895  0.11964325  0.76387206  1
  O  O161  1  0.61713998  0.37943315  0.00552996  1
  O  O162  1  0.64462330  0.36774252  0.26560159  1
  O  O163  1  0.60598591  0.35566318  0.51067763  1
  O  O164  1  0.64902990  0.37793913  0.75618457  1
  O  O165  1  0.64048721  0.60166211  0.01393880  1
  O  O166  1  0.60094567  0.62396114  0.24980661  1
  O  O167  1  0.63347366  0.64384776  0.49651720  1
  O  O168  1  0.62890664  0.62269531  0.76766673  1
  O  O169  1  0.62859248  0.88325103  0.01421618  1
  O  O170  1  0.59143339  0.87848449  0.25584309  1
  O  O171  1  0.63099873  0.84992529  0.49342652  1
  O  O172  1  0.61707612  0.89346579  0.75014399  1
  O  O173  1  0.88609783  0.15329025  0.00960277  1
  O  O174  1  0.86408055  0.10111687  0.26172610  1
  O  O175  1  0.88789798  0.16068399  0.50851315  1
  O  O176  1  0.85483426  0.11754732  0.75859227  1
  O  O177  1  0.89984010  0.35848155  -0.00836945  1
  O  O178  1  0.83035003  0.39576921  0.26433213  1
  O  O179  1  0.87966255  0.34845321  0.50259329  1
  O  O180  1  0.85838173  0.40045414  0.74696953  1
  O  O181  1  0.89418007  0.63107210  -0.00151149  1
  O  O182  1  0.86985145  0.57507154  0.25953922  1
  O  O183  1  0.89434640  0.66394800  0.49574275  1
  O  O184  1  0.86818547  0.60229814  0.74288927  1
  O  O185  1  0.85023919  0.82410264  0.00130501  1
  O  O186  1  0.88937880  0.87387494  0.24862225  1
  O  O187  1  0.87323335  0.86959382  0.49961146  1
  O  O188  1  0.90983333  0.89912431  0.74883410  1
  O  O189  1  -0.00299633  0.11366916  0.14592759  1
  O  O190  1  0.00042438  0.08929768  0.36188931  1
  O  O191  1  -0.00985754  0.17197061  0.66075170  1
  O  O192  1  -0.00508906  0.15534230  0.86408715  1
  O  O193  1  0.00123411  0.38612872  0.15166961  1
  O  O194  1  -0.02451271  0.39429719  0.36557223  1
  O  O195  1  -0.01128774  0.36006788  0.65078009  1
  O  O196  1  -0.00572579  0.33492199  0.85280554  1
  O  O197  1  0.00395175  0.59559134  0.12769054  1
  O  O198  1  -0.01199634  0.57974643  0.38056646  1
  O  O199  1  0.00559923  0.64002268  0.64744929  1
  O  O200  1  0.00396905  0.63882959  0.83563427  1
  O  O201  1  0.00257760  0.89475641  0.11087401  1
  O  O202  1  0.00960983  0.87158573  0.38932407  1
  O  O203  1  0.00960665  0.87079749  0.59605197  1
  O  O204  1  -0.00559315  0.87026549  0.90648415  1
  O  O205  1  0.25590750  0.14386678  0.11466239  1
  O  O206  1  0.25133669  0.15989885  0.38203393  1
  O  O207  1  0.25287869  0.10657796  0.63056004  1
  O  O208  1  0.25812394  0.12568622  0.90109151  1
  O  O209  1  0.25721770  0.35754665  0.11292072  1
  O  O210  1  0.26181168  0.36542584  0.38287333  1
  O  O211  1  0.26042682  0.38532816  0.61335356  1
  O  O212  1  0.26093989  0.38245571  0.89721657  1
  O  O213  1  0.23857780  0.63142939  0.10595978  1
  O  O214  1  0.26547157  0.65123373  0.34959548  1
  O  O215  1  0.24660240  0.58851554  0.61375638  1
  O  O216  1  0.24094498  0.59315197  0.88603370  1
  O  O217  1  0.24756813  0.87614769  0.14806135  1
  O  O218  1  0.25552813  0.85516138  0.33846472  1
  O  O219  1  0.24141564  0.90939241  0.63280575  1
  O  O220  1  0.24666089  0.88054119  0.88416344  1
  O  O221  1  0.50370128  0.12500115  0.15438948  1
  O  O222  1  0.50552376  0.09422812  0.37243661  1
  O  O223  1  0.51070576  0.14869943  0.63923743  1
  O  O224  1  0.50515158  0.14286717  0.87679700  1
  O  O225  1  0.51008567  0.38491832  0.14768940  1
  O  O226  1  0.50501572  0.39799961  0.37029010  1
  O  O227  1  0.50893552  0.35716760  0.65382312  1
  O  O228  1  0.50901068  0.35438481  0.87125090  1
  O  O229  1  0.50530336  0.59632906  0.11586082  1
  O  O230  1  0.50063693  0.60700344  0.40279748  1
  O  O231  1  0.49356372  0.64358205  0.64211030  1
  O  O232  1  0.50971249  0.63928292  0.90680126  1
  O  O233  1  0.49519880  0.89202689  0.11692944  1
  O  O234  1  0.49249627  0.91318882  0.40563953  1
  O  O235  1  0.50246247  0.85010334  0.62999139  1
  O  O236  1  0.50314781  0.87143908  0.90598322  1
  O  O237  1  0.74976061  0.13077888  0.13095525  1
  O  O238  1  0.75676913  0.14931132  0.39288959  1
  O  O239  1  0.75101109  0.11337559  0.63318862  1
  O  O240  1  0.75265704  0.11810341  0.90933266  1
  O  O241  1  0.74859708  0.35100885  0.12358084  1
  O  O242  1  0.74716365  0.33953122  0.39904464  1
  O  O243  1  0.74863294  0.41818877  0.61540460  1
  O  O244  1  0.75710901  0.38854105  0.88817301  1
  O  O245  1  0.75299417  0.63184761  0.13525338  1
  O  O246  1  0.75479106  0.66171409  0.37562073  1
  O  O247  1  0.76495361  0.61598765  0.60337375  1
  O  O248  1  0.75500374  0.63349149  0.90230559  1
  O  O249  1  0.74020397  0.87163207  0.15845455  1
  O  O250  1  0.73726783  0.85551502  0.37389896  1
  O  O251  1  0.75636270  0.90206923  0.62494373  1
  O  O252  1  0.76093104  0.88863917  0.87168317  1
  O  O253  1  0.13882536  0.00745514  0.14192226  1
  O  O254  1  0.15675806  0.00304006  0.37060036  1
  O  O255  1  0.10408616  0.01105601  0.63994675  1
  O  O256  1  0.12055244  0.00006740  0.88382217  1
  O  O257  1  0.12172721  0.24916834  0.12447114  1
  O  O258  1  0.08261194  0.24075781  0.39266002  1
  O  O259  1  0.14422052  0.25489503  0.60593168  1
  O  O260  1  0.13778550  0.25384401  0.90054838  1
  O  O261  1  0.14443064  0.49136300  0.14843450  1
  O  O262  1  0.13576463  0.50374099  0.35742988  1
  O  O263  1  0.12314263  0.48714430  0.63883708  1
  O  O264  1  0.10535163  0.50150832  0.84369425  1
  O  O265  1  0.11072687  0.75479677  0.11845678  1
  O  O266  1  0.11704934  0.75066142  0.39151082  1
  O  O267  1  0.14638924  0.74439907  0.60598648  1
  O  O268  1  0.14322381  0.74303333  0.88201322  1
  O  O269  1  0.37292871  0.00507011  0.12580765  1
  O  O270  1  0.34918733  0.00759524  0.39183788  1
  O  O271  1  0.41614065  -0.00611336  0.59732817  1
  O  O272  1  0.37948236  0.00212678  0.89565917  1
  O  O273  1  0.40393127  0.25432499  0.12031772  1
  O  O274  1  0.40517389  0.24866469  0.37991759  1
  O  O275  1  0.38130349  0.25103384  0.62990269  1
  O  O276  1  0.37442389  0.25279241  0.89730276  1
  O  O277  1  0.36920704  0.49272467  0.15237011  1
  O  O278  1  0.36368804  0.49578682  0.38177680  1
  O  O279  1  0.40470070  0.49446215  0.62981399  1
  O  O280  1  0.40584662  0.49681133  0.86323509  1
  O  O281  1  0.36673933  0.75494342  0.16317002  1
  O  O282  1  0.40403551  0.76335196  0.35600407  1
  O  O283  1  0.33396943  0.75012323  0.62117119  1
  O  O284  1  0.34774502  0.74567035  0.88408631  1
  O  O285  1  0.62526199  0.00417511  0.13763084  1
  O  O286  1  0.64928613  -0.00308498  0.38046727  1
  O  O287  1  0.61486581  0.00588666  0.63118387  1
  O  O288  1  0.62842544  0.00707221  0.90246641  1
  O  O289  1  0.61436992  0.25301538  0.14169676  1
  O  O290  1  0.59634806  0.24555869  0.38036052  1
  O  O291  1  0.65283220  0.24937153  0.63674158  1
  O  O292  1  0.64824958  0.25122124  0.88643887  1
  O  O293  1  0.65430390  0.49463684  0.15036381  1
  O  O294  1  0.63962614  0.48908884  0.42054214  1
  O  O295  1  0.60378609  0.49317975  0.61570311  1
  O  O296  1  0.61696324  0.49888625  0.87794728  1
  O  O297  1  0.61153960  0.74762746  0.12475935  1
  O  O298  1  0.58511584  0.75553898  0.36839452  1
  O  O299  1  0.64703126  0.75131179  0.64128119  1
  O  O300  1  0.63726934  0.75057534  0.90071128  1
  O  O301  1  0.86400595  0.00605003  0.13160406  1
  O  O302  1  0.86591959  0.01155985  0.40751822  1
  O  O303  1  0.91501986  0.01808674  0.61693000  1
  O  O304  1  0.88323744  0.00516041  0.90355013  1
  O  O305  1  0.88327819  0.24821379  0.16307061  1
  O  O306  1  0.90443254  0.24639457  0.36215984  1
  O  O307  1  0.83931452  0.26298987  0.63952056  1
  O  O308  1  0.84631023  0.24869013  0.86809135  1
  O  O309  1  0.85033360  0.49946960  0.09304488  1
  O  O310  1  0.82860968  0.50309407  0.41763689  1
  O  O311  1  0.90292735  0.50082160  0.59956302  1
  O  O312  1  0.90791219  0.49433236  0.88063951  1
  O  O313  1  0.90718286  0.74636392  0.14415976  1
  O  O314  1  0.89964306  0.73096261  0.34482358  1
  O  O315  1  0.86864638  0.74144210  0.64961564  1
  O  O316  1  0.87059856  0.75740703  0.84178286  1
