# generated using pymatgen
data_Mg32Ti42(Bi17O64)3
_symmetry_space_group_name_H-M   'P 1'
_cell_length_a   15.99846609
_cell_length_b   15.98020308
_cell_length_c   15.92024470
_cell_angle_alpha   89.70834986
_cell_angle_beta   90.15376114
_cell_angle_gamma   90.00500860
_symmetry_Int_Tables_number   1
_chemical_formula_structural   Mg32Ti42(Bi17O64)3
_chemical_formula_sum   'Mg32 Ti42 Bi51 O192'
_cell_volume   4070.08225520
_cell_formula_units_Z   1
loop_
 _symmetry_equiv_pos_site_id
 _symmetry_equiv_pos_as_xyz
  1  'x, y, z'
loop_
 _atom_site_type_symbol
 _atom_site_label
 _atom_site_symmetry_multiplicity
 _atom_site_fract_x
 _atom_site_fract_y
 _atom_site_fract_z
 _atom_site_occupancy
  Mg  Mg0  1  0.37810914  0.62742257  0.11823371  1
  Mg  Mg1  1  0.11659689  0.12337300  0.86645129  1
  Mg  Mg2  1  0.86103089  0.86240431  0.88364856  1
  Mg  Mg3  1  0.86669156  0.11597191  0.38405512  1
  Mg  Mg4  1  0.13139869  0.88171144  0.62804826  1
  Mg  Mg5  1  0.62857478  0.87296631  0.39327682  1
  Mg  Mg6  1  0.60948344  0.11722066  0.62461575  1
  Mg  Mg7  1  0.87429479  0.12055763  0.12740542  1
  Mg  Mg8  1  0.61796159  0.38435890  0.87274537  1
  Mg  Mg9  1  0.86660899  0.37571752  0.62273268  1
  Mg  Mg10  1  0.37716558  0.12192370  0.37599183  1
  Mg  Mg11  1  0.87201677  0.38012891  0.87291980  1
  Mg  Mg12  1  0.88270232  0.13865383  0.86304033  1
  Mg  Mg13  1  0.37848949  0.63261195  0.86061071  1
  Mg  Mg14  1  0.61984659  0.62013137  0.61703430  1
  Mg  Mg15  1  0.87078777  0.63113995  0.63446854  1
  Mg  Mg16  1  0.88569816  0.62007991  0.13145000  1
  Mg  Mg17  1  0.87135144  0.12384505  0.62539561  1
  Mg  Mg18  1  0.38421406  0.64270058  0.38001715  1
  Mg  Mg19  1  0.23507193  0.00575875  0.75494459  1
  Mg  Mg20  1  0.56681407  0.72617851  -0.00123013  1
  Mg  Mg21  1  0.49378003  0.77779291  0.51286998  1
  Mg  Mg22  1  0.55432722  0.02225203  0.79546126  1
  Mg  Mg23  1  0.54201929  0.01023894  0.45998579  1
  Mg  Mg24  1  0.73113305  -0.00309292  0.54426572  1
  Mg  Mg25  1  0.71808953  0.75430112  0.67288276  1
  Mg  Mg26  1  0.21144386  0.05005852  -0.00165410  1
  Mg  Mg27  1  0.79965460  0.72698097  0.49688951  1
  Mg  Mg28  1  -0.04935380  -0.00417695  0.79058857  1
  Mg  Mg29  1  0.00817036  0.44321284  0.24757307  1
  Mg  Mg30  1  0.22206156  0.00461185  0.28947151  1
  Mg  Mg31  1  0.72480372  0.18523045  0.50498041  1
  Ti  Ti32  1  0.86979636  0.37856170  0.13373472  1
  Ti  Ti33  1  0.38468346  0.62343834  0.62189496  1
  Ti  Ti34  1  0.87548655  0.38338979  0.37290785  1
  Ti  Ti35  1  0.87115006  0.88156596  0.38846085  1
  Ti  Ti36  1  0.37897776  0.36576841  0.86854760  1
  Ti  Ti37  1  0.12982745  0.37974927  0.61118783  1
  Ti  Ti38  1  0.88713192  0.88271449  0.12785798  1
  Ti  Ti39  1  0.64261036  0.37143126  0.36899955  1
  Ti  Ti40  1  0.12069482  0.13016724  0.39290254  1
  Ti  Ti41  1  0.62076874  0.37244646  0.13509102  1
  Ti  Ti42  1  0.35855985  0.10089955  0.87029042  1
  Ti  Ti43  1  0.62784621  0.11931896  0.12723387  1
  Ti  Ti44  1  0.36811207  0.89607794  0.63473489  1
  Ti  Ti45  1  0.13167890  0.61527059  0.10836444  1
  Ti  Ti46  1  0.85801538  0.87247630  0.63296434  1
  Ti  Ti47  1  0.13215661  0.62010514  0.62162675  1
  Ti  Ti48  1  0.13069719  0.89051906  0.87775359  1
  Ti  Ti49  1  0.11935429  0.11331663  0.62501941  1
  Ti  Ti50  1  0.13861205  0.61896749  0.38199291  1
  Ti  Ti51  1  0.63771439  0.85237855  0.87107868  1
  Ti  Ti52  1  0.12574667  0.38110195  0.86905320  1
  Ti  Ti53  1  0.12610508  0.62317849  0.86856729  1
  Ti  Ti54  1  0.36811489  0.10585360  0.12142047  1
  Ti  Ti55  1  0.13150164  0.88239970  0.10898135  1
  Ti  Ti56  1  0.13139163  0.86384741  0.37990731  1
  Ti  Ti57  1  0.37980047  0.88002605  0.37279161  1
  Ti  Ti58  1  0.63140984  0.36096270  0.62134881  1
  Ti  Ti59  1  0.36912104  0.87448441  0.11903965  1
  Ti  Ti60  1  0.61323564  0.65617219  0.39099564  1
  Ti  Ti61  1  0.62106209  0.12486864  0.36666425  1
  Ti  Ti62  1  0.60584773  0.89337195  0.62835337  1
  Ti  Ti63  1  0.86273028  0.62197873  0.87615180  1
  Ti  Ti64  1  0.90148023  0.62320882  0.37536161  1
  Ti  Ti65  1  0.12079652  0.12202259  0.12877016  1
  Ti  Ti66  1  0.36610516  0.12273604  0.62115338  1
  Ti  Ti67  1  0.38358913  0.87509122  0.86827194  1
  Ti  Ti68  1  0.63066547  0.62689134  0.85008504  1
  Ti  Ti69  1  0.12407039  0.38186687  0.37090600  1
  Ti  Ti70  1  0.12619689  0.37334413  0.12388669  1
  Ti  Ti71  1  0.37773254  0.36723397  0.62478332  1
  Ti  Ti72  1  0.37132129  0.37321163  0.11617498  1
  Ti  Ti73  1  0.37454079  0.36472495  0.36222253  1
  Bi  Bi74  1  0.21699930  0.24893514  -0.01366799  1
  Bi  Bi75  1  0.02202445  0.75838294  0.52085628  1
  Bi  Bi76  1  -0.01662973  -0.00879466  0.52666644  1
  Bi  Bi77  1  0.51184213  -0.04483489  0.00913050  1
  Bi  Bi78  1  0.51623682  0.27341702  0.48983566  1
  Bi  Bi79  1  0.75694637  0.22063012  0.25178933  1
  Bi  Bi80  1  0.03301797  0.72467056  0.23961673  1
  Bi  Bi81  1  0.73317912  0.03168337  -0.03568959  1
  Bi  Bi82  1  -0.02865837  0.25373453  -0.00053134  1
  Bi  Bi83  1  -0.02642764  0.01861436  -0.01491762  1
  Bi  Bi84  1  -0.00235299  0.77914248  0.76105614  1
  Bi  Bi85  1  0.22611074  0.23880834  0.72946498  1
  Bi  Bi86  1  0.27277724  0.74119811  -0.02161263  1
  Bi  Bi87  1  -0.01114959  0.73681212  -0.01423315  1
  Bi  Bi88  1  0.70390219  0.24036899  0.78182116  1
  Bi  Bi89  1  0.26296380  0.51085180  0.74479111  1
  Bi  Bi90  1  0.27092107  0.52103950  0.24862744  1
  Bi  Bi91  1  0.26299035  -0.00232564  0.48870973  1
  Bi  Bi92  1  0.72105396  0.28137080  0.00085971  1
  Bi  Bi93  1  0.51501802  -0.03638593  0.24681992  1
  Bi  Bi94  1  0.52073643  0.74868265  0.72700889  1
  Bi  Bi95  1  0.78392116  0.74306892  0.26758150  1
  Bi  Bi96  1  0.27824144  0.50652910  0.49407733  1
  Bi  Bi97  1  -0.01508254  0.21989523  0.25795241  1
  Bi  Bi98  1  0.26772085  0.49368613  -0.02308772  1
  Bi  Bi99  1  0.54622968  0.74119918  0.20161955  1
  Bi  Bi100  1  0.72912158  0.54186045  0.24373788  1
  Bi  Bi101  1  0.24037216  0.77324858  0.75220069  1
  Bi  Bi102  1  0.50443255  0.51277578  0.22159244  1
  Bi  Bi103  1  -0.02563723  0.50138407  0.52347961  1
  Bi  Bi104  1  -0.00928140  0.50919669  0.75073069  1
  Bi  Bi105  1  0.72585585  -0.04514191  0.24220431  1
  Bi  Bi106  1  0.49508435  0.19940961  -0.00963519  1
  Bi  Bi107  1  0.48429209  0.21096584  0.75513945  1
  Bi  Bi108  1  0.74939688  0.47305771  0.74419582  1
  Bi  Bi109  1  -0.00744259  0.28615872  0.73876146  1
  Bi  Bi110  1  0.23055539  0.23598584  0.26288715  1
  Bi  Bi111  1  0.26686984  0.25883601  0.49053662  1
  Bi  Bi112  1  -0.03895015  0.24861561  0.50282892  1
  Bi  Bi113  1  -0.02518914  0.48713619  -0.00128714  1
  Bi  Bi114  1  0.75715684  0.02266458  0.74456393  1
  Bi  Bi115  1  0.25997244  0.74097185  0.22067765  1
  Bi  Bi116  1  0.51366629  0.50001318  0.46039608  1
  Bi  Bi117  1  0.76135770  0.75495865  0.05006170  1
  Bi  Bi118  1  0.51576248  0.48839329  0.73940022  1
  Bi  Bi119  1  0.00825343  -0.02904432  0.26154326  1
  Bi  Bi120  1  0.27886498  0.75932124  0.50493280  1
  Bi  Bi121  1  0.72015543  0.52753393  0.02436093  1
  Bi  Bi122  1  0.75097325  0.53776446  0.49761983  1
  Bi  Bi123  1  0.47730510  0.23544254  0.22428595  1
  Bi  Bi124  1  0.48999394  0.51607582  -0.02802816  1
  O  O125  1  0.11650287  0.14353201  0.00583649  1
  O  O126  1  0.16348564  0.10841894  0.24278148  1
  O  O127  1  0.11642122  0.15104881  0.50269209  1
  O  O128  1  0.15270530  0.10758879  0.74431440  1
  O  O129  1  0.12172309  0.36069255  0.00590513  1
  O  O130  1  0.12927886  0.40249298  0.25112997  1
  O  O131  1  0.12769225  0.35833136  0.49693166  1
  O  O132  1  0.12928496  0.38880768  0.75420222  1
  O  O133  1  0.13390854  0.64503655  -0.00400269  1
  O  O134  1  0.14445951  0.63199516  0.25680381  1
  O  O135  1  0.10079137  0.64089011  0.49870887  1
  O  O136  1  0.14079585  0.60813388  0.74485946  1
  O  O137  1  0.11021410  0.85946925  -0.00175018  1
  O  O138  1  0.14023168  0.90865312  0.26294552  1
  O  O139  1  0.11981217  0.85542387  0.50083229  1
  O  O140  1  0.16397261  0.89646570  0.75519106  1
  O  O141  1  0.39786119  0.10083107  -0.00324962  1
  O  O142  1  0.36982034  0.15094600  0.23949346  1
  O  O143  1  0.36466224  0.09638992  0.50915133  1
  O  O144  1  0.34784485  0.14701181  0.75759452  1
  O  O145  1  0.38231791  0.40680637  0.00214778  1
  O  O146  1  0.37750959  0.34466257  0.24735873  1
  O  O147  1  0.35610834  0.38470598  0.50164956  1
  O  O148  1  0.37346716  0.35990914  0.75074165  1
  O  O149  1  0.37722655  0.60060160  -0.00730165  1
  O  O150  1  0.34987261  0.63444770  0.25791096  1
  O  O151  1  0.39069710  0.59088072  0.50173929  1
  O  O152  1  0.34464028  0.62773197  0.73576864  1
  O  O153  1  0.38584931  0.89490152  0.00050158  1
  O  O154  1  0.38401250  0.86345539  0.26004119  1
  O  O155  1  0.36448780  0.90010860  0.51549950  1
  O  O156  1  0.36306122  0.84558461  0.75240976  1
  O  O157  1  0.61940273  0.10493106  0.00900990  1
  O  O158  1  0.62431158  0.15975075  0.24901029  1
  O  O159  1  0.63588192  0.09343733  0.49410702  1
  O  O160  1  0.60875653  0.14738810  0.75028488  1
  O  O161  1  0.64396866  0.39843396  0.00301872  1
  O  O162  1  0.62747014  0.35173911  0.25118091  1
  O  O163  1  0.61362325  0.38817279  0.49651544  1
  O  O164  1  0.60429980  0.33787149  0.73823019  1
  O  O165  1  0.61351123  0.60610622  -0.02196132  1
  O  O166  1  0.64357221  0.65263085  0.26933157  1
  O  O167  1  0.60693739  0.59675887  0.49598465  1
  O  O168  1  0.64186465  0.66285491  0.73643433  1
  O  O169  1  0.59048569  0.85252822  -0.01836226  1
  O  O170  1  0.61482120  0.86624162  0.26191604  1
  O  O171  1  0.62153703  0.92481042  0.51446040  1
  O  O172  1  0.62831168  0.83740535  0.74680438  1
  O  O173  1  0.89689809  0.13492984  0.00002231  1
  O  O174  1  0.86920858  0.13607622  0.25549815  1
  O  O175  1  0.85392319  0.16445189  0.50311409  1
  O  O176  1  0.87560390  0.08833373  0.74594797  1
  O  O177  1  0.88997968  0.36765438  0.00459504  1
  O  O178  1  0.88660974  0.40291535  0.25266235  1
  O  O179  1  0.89324578  0.36837878  0.49667337  1
  O  O180  1  0.89274979  0.40475120  0.74783650  1
  O  O181  1  0.88127868  0.65195247  0.00014007  1
  O  O182  1  0.85242022  0.61519306  0.26202279  1
  O  O183  1  0.89621207  0.64357723  0.49515640  1
  O  O184  1  0.87982372  0.59774967  0.75994371  1
  O  O185  1  0.89940876  0.84202650  0.01136584  1
  O  O186  1  0.88334714  0.90159380  0.25414501  1
  O  O187  1  0.86196883  0.83691155  0.49790763  1
  O  O188  1  0.86919659  0.90392567  0.74704216  1
  O  O189  1  0.00980731  0.11698428  0.15047889  1
  O  O190  1  0.00455876  0.12132862  0.36255989  1
  O  O191  1  0.00099718  0.09784318  0.61473702  1
  O  O192  1  -0.00082546  0.08637209  0.86509769  1
  O  O193  1  0.01018064  0.38982128  0.13455337  1
  O  O194  1  0.00859594  0.40605236  0.36802535  1
  O  O195  1  0.00872018  0.40245370  0.62950430  1
  O  O196  1  0.01148038  0.40556151  0.88069242  1
  O  O197  1  0.01362997  0.63208631  0.13195696  1
  O  O198  1  0.00863677  0.60878587  0.35075938  1
  O  O199  1  0.00224569  0.59256800  0.63178771  1
  O  O200  1  0.01090189  0.60364870  0.88312544  1
  O  O201  1  0.01227060  0.88132845  0.15104410  1
  O  O202  1  0.00466043  0.88958189  0.37449015  1
  O  O203  1  -0.01022991  0.88075634  0.61684959  1
  O  O204  1  0.01319172  0.89340959  0.84273040  1
  O  O205  1  0.25863875  0.12549113  0.09374032  1
  O  O206  1  0.24450763  0.15691297  0.38231099  1
  O  O207  1  0.24173440  0.15711086  0.61603709  1
  O  O208  1  0.25169288  0.13529232  0.90597447  1
  O  O209  1  0.25726184  0.37149123  0.11814100  1
  O  O210  1  0.24839610  0.34747773  0.37077868  1
  O  O211  1  0.24470612  0.34999491  0.62953826  1
  O  O212  1  0.25537112  0.36673878  0.89593946  1
  O  O213  1  0.25030334  0.63376195  0.12755278  1
  O  O214  1  0.25017718  0.64185174  0.40463324  1
  O  O215  1  0.24625328  0.63692977  0.59739618  1
  O  O216  1  0.24791028  0.65557783  0.87582958  1
  O  O217  1  0.25002233  0.87013690  0.11904047  1
  O  O218  1  0.25007139  0.86111472  0.39411813  1
  O  O219  1  0.25644250  0.84255507  0.62532009  1
  O  O220  1  0.24567223  0.84113837  0.88559810  1
  O  O221  1  0.50074610  0.13058457  0.12974763  1
  O  O222  1  0.50460883  0.10884225  0.38319482  1
  O  O223  1  0.48015619  0.12017781  0.64457289  1
  O  O224  1  0.48187316  0.10918039  0.85371455  1
  O  O225  1  0.50670142  0.39545708  0.13406913  1
  O  O226  1  0.49309136  0.37635699  0.37848502  1
  O  O227  1  0.49256923  0.37755228  0.61386030  1
  O  O228  1  0.49285034  0.40673332  0.87313038  1
  O  O229  1  0.50176053  0.61915280  0.13754145  1
  O  O230  1  0.50511220  0.60771345  0.36157855  1
  O  O231  1  0.49600789  0.60846346  0.65249466  1
  O  O232  1  0.50061443  0.59147763  0.84835184  1
  O  O233  1  0.49377687  0.88167614  0.12974111  1
  O  O234  1  0.49045383  0.91626043  0.39168901  1
  O  O235  1  0.48626855  0.88121756  0.63472574  1
  O  O236  1  0.48973933  0.91608013  0.85712145  1
  O  O237  1  0.74561428  0.13720859  0.13266131  1
  O  O238  1  0.74282564  0.15027153  0.37308203  1
  O  O239  1  0.74023802  0.09975569  0.62519203  1
  O  O240  1  0.75562149  0.12111560  0.86542298  1
  O  O241  1  0.75545172  0.36304336  0.12978776  1
  O  O242  1  0.75737056  0.36789929  0.37337076  1
  O  O243  1  0.74462419  0.36618138  0.64480099  1
  O  O244  1  0.74693109  0.37633926  0.84714173  1
  O  O245  1  0.75481773  0.61915155  0.12517735  1
  O  O246  1  0.74115431  0.65473916  0.40629116  1
  O  O247  1  0.74564045  0.65009211  0.58847475  1
  O  O248  1  0.74835116  0.63232608  0.87601404  1
  O  O249  1  0.76497012  0.87232465  0.12905209  1
  O  O250  1  0.75478831  0.86475616  0.36111415  1
  O  O251  1  0.73665201  0.87955860  0.62518232  1
  O  O252  1  0.74235082  0.83153640  0.90010454  1
  O  O253  1  0.13691722  0.00276647  0.09744568  1
  O  O254  1  0.14527985  0.01327105  0.39351345  1
  O  O255  1  0.14096541  0.00425464  0.60377571  1
  O  O256  1  0.15365439  -0.00235389  0.89837686  1
  O  O257  1  0.13067956  0.25148271  0.14515555  1
  O  O258  1  0.11188466  0.25441449  0.34494342  1
  O  O259  1  0.10258821  0.25353302  0.65098271  1
  O  O260  1  0.12666543  0.25731456  0.87001268  1
  O  O261  1  0.13656475  0.50284177  0.10623945  1
  O  O262  1  0.15355763  0.50261073  0.38965869  1
  O  O263  1  0.14975519  0.49812813  0.60561616  1
  O  O264  1  0.15740608  0.50497085  0.88291219  1
  O  O265  1  0.13121087  0.75924269  0.14692218  1
  O  O266  1  0.11243009  0.75229590  0.36356952  1
  O  O267  1  0.10006861  0.74179596  0.63704617  1
  O  O268  1  0.10183935  0.74729360  0.84556870  1
  O  O269  1  0.37040652  -0.00252957  0.14669946  1
  O  O270  1  0.32915460  -0.00012846  0.36301614  1
  O  O271  1  0.33060942  0.00281823  0.65808933  1
  O  O272  1  0.33072845  -0.00665325  0.84740696  1
  O  O273  1  0.40417404  0.25887464  0.10117788  1
  O  O274  1  0.38415400  0.25010282  0.40319321  1
  O  O275  1  0.37799788  0.24730344  0.60541367  1
  O  O276  1  0.39657199  0.25537056  0.89431092  1
  O  O277  1  0.37651194  0.49622059  0.15915786  1
  O  O278  1  0.35141170  0.48748216  0.36151409  1
  O  O279  1  0.35342735  0.49214558  0.63450541  1
  O  O280  1  0.34612616  0.50029464  0.86099381  1
  O  O281  1  0.37011883  0.75605334  0.12401926  1
  O  O282  1  0.39643943  0.76583873  0.41826120  1
  O  O283  1  0.39694388  0.73733049  0.59314568  1
  O  O284  1  0.38929479  0.75893010  0.89822984  1
  O  O285  1  0.62349780  0.00689516  0.15503234  1
  O  O286  1  0.63177751  0.00708130  0.34550577  1
  O  O287  1  0.60688007  -0.00450679  0.67964954  1
  O  O288  1  0.64920392  -0.02383234  0.86860556  1
  O  O289  1  0.61975491  0.25725396  0.09480002  1
  O  O290  1  0.61554216  0.25113026  0.39884712  1
  O  O291  1  0.63051512  0.24566686  0.58377490  1
  O  O292  1  0.63089628  0.25885144  0.89661409  1
  O  O293  1  0.64073985  0.49575894  0.14177344  1
  O  O294  1  0.62711777  0.48826205  0.36067127  1
  O  O295  1  0.63111036  0.48919660  0.64921778  1
  O  O296  1  0.63302969  0.50488954  0.82454893  1
  O  O297  1  0.63019856  0.74250367  0.10307202  1
  O  O298  1  0.58466231  0.75894281  0.42140967  1
  O  O299  1  0.59083692  0.75991060  0.60533915  1
  O  O300  1  0.58641104  0.73610256  0.87426755  1
  O  O301  1  0.88137856  -0.00484835  0.10132788  1
  O  O302  1  0.87088899  -0.00732564  0.40933944  1
  O  O303  1  0.85924417  -0.01098278  0.58468585  1
  O  O304  1  0.86706362  -0.01336603  0.90311360  1
  O  O305  1  0.89700472  0.25803161  0.13127816  1
  O  O306  1  0.90226565  0.26752018  0.36605134  1
  O  O307  1  0.90560779  0.25340563  0.63867985  1
  O  O308  1  0.90898850  0.25845441  0.87100043  1
  O  O309  1  0.87852140  0.49597213  0.10630733  1
  O  O310  1  0.86465085  0.50830399  0.40286269  1
  O  O311  1  0.85504172  0.50568991  0.59490374  1
  O  O312  1  0.86704012  0.50855937  0.91036230  1
  O  O313  1  0.87146384  0.75027056  0.15229480  1
  O  O314  1  0.88970461  0.74697623  0.35519006  1
  O  O315  1  0.85302405  0.75620542  0.65453307  1
  O  O316  1  0.90938123  0.74451569  0.86452300  1
