# generated using pymatgen
data_Mg32Ti42(Bi17O64)3
_symmetry_space_group_name_H-M   'P 1'
_cell_length_a   15.99090035
_cell_length_b   15.91609049
_cell_length_c   16.02415946
_cell_angle_alpha   89.98668803
_cell_angle_beta   89.91356709
_cell_angle_gamma   89.95940858
_symmetry_Int_Tables_number   1
_chemical_formula_structural   Mg32Ti42(Bi17O64)3
_chemical_formula_sum   'Mg32 Ti42 Bi51 O192'
_cell_volume   4078.34498660
_cell_formula_units_Z   1
loop_
 _symmetry_equiv_pos_site_id
 _symmetry_equiv_pos_as_xyz
  1  'x, y, z'
loop_
 _atom_site_type_symbol
 _atom_site_label
 _atom_site_symmetry_multiplicity
 _atom_site_fract_x
 _atom_site_fract_y
 _atom_site_fract_z
 _atom_site_occupancy
  Mg  Mg0  1  0.12246923  0.62349040  0.87943434  1
  Mg  Mg1  1  0.86616270  0.12298211  0.61050370  1
  Mg  Mg2  1  0.86714882  0.88371018  0.88210307  1
  Mg  Mg3  1  0.12620744  0.62517924  0.62038723  1
  Mg  Mg4  1  0.11299708  0.11759587  0.87060321  1
  Mg  Mg5  1  0.37838725  0.63095616  0.37607319  1
  Mg  Mg6  1  0.37426953  0.62427711  0.87593241  1
  Mg  Mg7  1  0.87051140  0.37517354  0.13357271  1
  Mg  Mg8  1  0.37362958  0.87228573  0.12050479  1
  Mg  Mg9  1  0.37765944  0.12723476  0.62977462  1
  Mg  Mg10  1  0.12435715  0.87349123  0.63453322  1
  Mg  Mg11  1  0.12350190  0.36861301  0.12941237  1
  Mg  Mg12  1  0.62056559  0.88506130  0.88498827  1
  Mg  Mg13  1  0.89869912  0.86625534  0.36500885  1
  Mg  Mg14  1  0.86763209  0.62674517  0.87048259  1
  Mg  Mg15  1  0.62372435  0.38141086  0.12458850  1
  Mg  Mg16  1  0.63000730  0.37692772  0.87511951  1
  Mg  Mg17  1  0.37895319  0.62419686  0.12742842  1
  Mg  Mg18  1  0.63781311  0.87968933  0.61535622  1
  Mg  Mg19  1  0.23091097  0.71163906  0.19602940  1
  Mg  Mg20  1  0.05959192  0.57137862  0.23579358  1
  Mg  Mg21  1  0.74639957  -0.04059122  0.01272758  1
  Mg  Mg22  1  0.78386607  0.74571185  0.27929109  1
  Mg  Mg23  1  0.79827880  -0.01554380  0.46644229  1
  Mg  Mg24  1  0.74321717  0.80362949  0.79920946  1
  Mg  Mg25  1  0.74923938  0.24822236  0.25744104  1
  Mg  Mg26  1  0.22141183  0.75516188  0.53535766  1
  Mg  Mg27  1  0.73085281  0.01085055  0.81446860  1
  Mg  Mg28  1  0.21033660  -0.03166553  -0.00757704  1
  Mg  Mg29  1  0.50514214  0.29735480  -0.00181303  1
  Mg  Mg30  1  0.25131216  0.50175160  0.83160959  1
  Mg  Mg31  1  0.25962212  0.51832628  0.28884625  1
  Ti  Ti32  1  0.11900932  0.37311844  0.89222858  1
  Ti  Ti33  1  0.85382110  0.12024282  0.13476323  1
  Ti  Ti34  1  0.37560467  0.86606804  0.64106388  1
  Ti  Ti35  1  0.62435613  0.12648052  0.36761615  1
  Ti  Ti36  1  0.63007061  0.62387548  0.37922572  1
  Ti  Ti37  1  0.63889570  0.61997290  0.86945412  1
  Ti  Ti38  1  0.62356487  0.86675694  0.13399205  1
  Ti  Ti39  1  0.61943133  0.89529056  0.37389895  1
  Ti  Ti40  1  0.87237227  0.12302663  0.37679700  1
  Ti  Ti41  1  0.36429073  0.38195710  0.64172308  1
  Ti  Ti42  1  0.63383719  0.11920249  0.13508864  1
  Ti  Ti43  1  0.87799135  0.36715873  0.36736653  1
  Ti  Ti44  1  0.62378807  0.62919695  0.12988907  1
  Ti  Ti45  1  0.88298520  0.36527173  0.61676968  1
  Ti  Ti46  1  0.89180930  0.62106131  0.37143890  1
  Ti  Ti47  1  0.86968427  0.62329838  0.13847595  1
  Ti  Ti48  1  0.36842064  0.12993579  0.87373542  1
  Ti  Ti49  1  0.14496832  0.64396007  0.38373532  1
  Ti  Ti50  1  0.37031088  0.87306979  0.37444024  1
  Ti  Ti51  1  0.63436691  0.37680312  0.62258153  1
  Ti  Ti52  1  0.62120459  0.13749138  0.89042990  1
  Ti  Ti53  1  0.86830243  0.12443567  0.88660210  1
  Ti  Ti54  1  0.87057037  0.86731546  0.12372233  1
  Ti  Ti55  1  0.14245210  0.11937385  0.38883271  1
  Ti  Ti56  1  0.39216474  0.12652484  0.11163810  1
  Ti  Ti57  1  0.13799782  0.39499151  0.35723375  1
  Ti  Ti58  1  0.13481433  0.87537522  0.38634363  1
  Ti  Ti59  1  0.12922004  0.12918028  0.62610102  1
  Ti  Ti60  1  0.38144481  0.37426845  0.36761836  1
  Ti  Ti61  1  0.37103947  0.37592121  0.88705908  1
  Ti  Ti62  1  0.37345708  0.88184189  0.88311419  1
  Ti  Ti63  1  0.88212795  0.36776195  0.88766554  1
  Ti  Ti64  1  0.12995523  0.37635028  0.62966122  1
  Ti  Ti65  1  0.86058391  0.87203839  0.62987827  1
  Ti  Ti66  1  0.39253166  0.11814343  0.37840242  1
  Ti  Ti67  1  0.63699439  0.62748177  0.62193835  1
  Ti  Ti68  1  0.62438185  0.10691482  0.61404935  1
  Ti  Ti69  1  0.87333983  0.62627363  0.62611919  1
  Ti  Ti70  1  0.61679376  0.38434589  0.36737388  1
  Ti  Ti71  1  0.37165692  0.62778689  0.63643563  1
  Ti  Ti72  1  0.37104492  0.37890153  0.12245646  1
  Ti  Ti73  1  0.10391422  0.87770267  0.86112079  1
  Bi  Bi74  1  0.49711129  0.26380626  0.22720367  1
  Bi  Bi75  1  0.50859748  0.25798929  0.51618963  1
  Bi  Bi76  1  0.02357837  0.03405841  0.25615454  1
  Bi  Bi77  1  0.04997118  0.74823496  0.01965368  1
  Bi  Bi78  1  0.00179173  0.73070389  0.76488431  1
  Bi  Bi79  1  0.74504712  0.77433985  0.47712146  1
  Bi  Bi80  1  0.73594935  0.23605077  0.47992580  1
  Bi  Bi81  1  0.22170152  0.52301645  0.06437961  1
  Bi  Bi82  1  -0.02832627  0.00690393  0.75404182  1
  Bi  Bi83  1  0.02146081  -0.00793705  0.04502131  1
  Bi  Bi84  1  0.27433923  0.50014047  0.50966833  1
  Bi  Bi85  1  0.27873375  0.23704456  0.50614297  1
  Bi  Bi86  1  -0.00024625  0.75866113  0.52601434  1
  Bi  Bi87  1  0.50873292  0.26227227  0.76480922  1
  Bi  Bi88  1  0.48390793  0.50738298  0.24823694  1
  Bi  Bi89  1  0.50358542  0.00724062  0.77419045  1
  Bi  Bi90  1  0.52253773  0.50484752  0.73596943  1
  Bi  Bi91  1  0.76843753  0.74045195  -0.00122726  1
  Bi  Bi92  1  0.50119122  0.51929074  -0.00479719  1
  Bi  Bi93  1  0.23842527  0.72321980  0.75405215  1
  Bi  Bi94  1  0.48359429  -0.01259839  0.52722017  1
  Bi  Bi95  1  0.21118353  0.18571436  0.02261698  1
  Bi  Bi96  1  0.76932911  -0.02552619  0.24943691  1
  Bi  Bi97  1  0.00638020  0.52128232  0.04383633  1
  Bi  Bi98  1  0.23231245  -0.02883150  0.21152311  1
  Bi  Bi99  1  0.77676921  0.47374524  0.76144659  1
  Bi  Bi100  1  0.05384332  0.78173319  0.22734797  1
  Bi  Bi101  1  0.24356698  -0.01737727  0.52435840  1
  Bi  Bi102  1  0.76829890  0.49033231  0.26847319  1
  Bi  Bi103  1  0.54237050  0.77508654  0.74853320  1
  Bi  Bi104  1  0.49729924  0.50490691  0.51322721  1
  Bi  Bi105  1  0.73973060  0.51052911  0.01618452  1
  Bi  Bi106  1  0.00863340  0.49973437  0.77512834  1
  Bi  Bi107  1  0.77051197  0.49748681  0.49779561  1
  Bi  Bi108  1  -0.01015027  -0.01160615  0.52930823  1
  Bi  Bi109  1  0.23827329  0.26268473  0.78126286  1
  Bi  Bi110  1  -0.03308788  0.23143152  0.74402635  1
  Bi  Bi111  1  0.24017285  0.01980080  0.76297356  1
  Bi  Bi112  1  0.50671790  -0.00788709  0.01197577  1
  Bi  Bi113  1  0.49328987  0.74293436  0.26917605  1
  Bi  Bi114  1  0.26815270  0.21333032  0.24381022  1
  Bi  Bi115  1  -0.01376647  0.24176550  0.04441813  1
  Bi  Bi116  1  0.03292700  0.26251832  0.48500800  1
  Bi  Bi117  1  0.48741467  -0.02267867  0.24046185  1
  Bi  Bi118  1  0.50061614  0.75103007  0.50975260  1
  Bi  Bi119  1  0.73717014  0.21542828  0.73109605  1
  Bi  Bi120  1  0.02802568  0.25102389  0.25268855  1
  Bi  Bi121  1  0.50499417  0.74633165  -0.01751636  1
  Bi  Bi122  1  0.73262388  0.26914062  0.02349133  1
  Bi  Bi123  1  0.01847695  0.50345895  0.52059728  1
  Bi  Bi124  1  0.26962180  0.73959031  0.00003933  1
  O  O125  1  0.12912843  0.07728108  -0.00498858  1
  O  O126  1  0.12481296  0.13146106  0.26727357  1
  O  O127  1  0.10312015  0.11439177  0.50262435  1
  O  O128  1  0.16033636  0.13741127  0.74482554  1
  O  O129  1  0.10548076  0.39608220  0.00010038  1
  O  O130  1  0.13327017  0.33920848  0.25327315  1
  O  O131  1  0.10310537  0.39100871  0.47681844  1
  O  O132  1  0.13778071  0.35817027  0.73938964  1
  O  O133  1  0.10993376  0.61367278  0.00551858  1
  O  O134  1  0.13254821  0.67083742  0.26462042  1
  O  O135  1  0.12051331  0.59524524  0.48849143  1
  O  O136  1  0.11863413  0.65202046  0.74526654  1
  O  O137  1  0.10244517  0.89827814  -0.01545699  1
  O  O138  1  0.16772506  0.84975346  0.26497344  1
  O  O139  1  0.11835788  0.90363327  0.50126225  1
  O  O140  1  0.13989243  0.84067907  0.75492844  1
  O  O141  1  0.39565999  0.13386333  -0.00078474  1
  O  O142  1  0.36496580  0.11815607  0.26086305  1
  O  O143  1  0.39167063  0.15193337  0.49528044  1
  O  O144  1  0.35462202  0.12176101  0.75399633  1
  O  O145  1  0.38834970  0.36433953  0.00236122  1
  O  O146  1  0.39867095  0.37456401  0.24530028  1
  O  O147  1  0.37758330  0.40692678  0.48841525  1
  O  O148  1  0.36116531  0.36638200  0.75269183  1
  O  O149  1  0.33278748  0.61839236  0.00771736  1
  O  O150  1  0.41655383  0.62882384  0.24623668  1
  O  O151  1  0.38273504  0.59650211  0.50020931  1
  O  O152  1  0.37523253  0.63647222  0.74803343  1
  O  O153  1  0.41702927  0.88338907  -0.00271187  1
  O  O154  1  0.36347843  0.90644271  0.25498907  1
  O  O155  1  0.41446111  0.86511507  0.49219651  1
  O  O156  1  0.35393401  0.86894214  0.75192261  1
  O  O157  1  0.60691282  0.15576414  -0.00090827  1
  O  O158  1  0.64424199  0.11021127  0.25192360  1
  O  O159  1  0.60728356  0.16055704  0.49614577  1
  O  O160  1  0.66138553  0.09815557  0.73173037  1
  O  O161  1  0.61996476  0.34498836  -0.00395345  1
  O  O162  1  0.61703198  0.38390194  0.25259502  1
  O  O163  1  0.60955733  0.36388405  0.50364398  1
  O  O164  1  0.61279086  0.39412798  0.74564599  1
  O  O165  1  0.65894944  0.63940962  -0.01188454  1
  O  O166  1  0.60358968  0.61563769  0.24140850  1
  O  O167  1  0.62355500  0.62498379  0.49735931  1
  O  O168  1  0.61143303  0.61658907  0.74489960  1
  O  O169  1  0.60879939  0.88780546  0.01110589  1
  O  O170  1  0.64014799  0.88798036  0.25490302  1
  O  O171  1  0.60824226  0.84108384  0.48355157  1
  O  O172  1  0.64500685  0.86657136  0.74208505  1
  O  O173  1  0.88619794  0.10588009  -0.00615791  1
  O  O174  1  0.82814614  0.14427097  0.24599377  1
  O  O175  1  0.88059704  0.08794773  0.49038827  1
  O  O176  1  0.85844097  0.14672532  0.73800396  1
  O  O177  1  0.90023567  0.37929579  -0.00388024  1
  O  O178  1  0.83027731  0.35257757  0.25642725  1
  O  O179  1  0.87228329  0.39505135  0.49039859  1
  O  O180  1  0.86539381  0.35930690  0.73451148  1
  O  O181  1  0.85001179  0.62260041  0.00553341  1
  O  O182  1  0.84380414  0.63512603  0.25427568  1
  O  O183  1  0.87436491  0.59416005  0.48624111  1
  O  O184  1  0.88736070  0.64565643  0.73623033  1
  O  O185  1  0.85917890  0.89296973  0.00990802  1
  O  O186  1  0.84307923  0.85523295  0.25061413  1
  O  O187  1  0.89849405  0.90040177  0.48498838  1
  O  O188  1  0.83853399  0.85691583  0.73766670  1
  O  O189  1  -0.02385959  0.13268187  0.14029111  1
  O  O190  1  -0.01449173  0.14086950  0.36367029  1
  O  O191  1  0.01039645  0.12044306  0.65576237  1
  O  O192  1  -0.01079064  0.12369799  0.84057502  1
  O  O193  1  -0.00773022  0.33749600  0.14239587  1
  O  O194  1  -0.00935535  0.34838463  0.35543849  1
  O  O195  1  -0.00087561  0.38412360  0.61761610  1
  O  O196  1  0.00460839  0.37515342  0.85007630  1
  O  O197  1  -0.01175968  0.63489829  0.14005779  1
  O  O198  1  0.00190906  0.62698228  0.35520867  1
  O  O199  1  -0.00678868  0.62996322  0.60255997  1
  O  O200  1  -0.00441617  0.62533244  0.85766244  1
  O  O201  1  -0.01452328  0.86337953  0.11979476  1
  O  O202  1  0.02380063  0.84780045  0.35813370  1
  O  O203  1  -0.00663969  0.87087782  0.62262451  1
  O  O204  1  -0.00987458  0.87496314  0.84634598  1
  O  O205  1  0.26786033  0.11762174  0.12863303  1
  O  O206  1  0.25428100  0.11826226  0.40037342  1
  O  O207  1  0.24982761  0.13754866  0.59739582  1
  O  O208  1  0.25713293  0.09405952  0.88737588  1
  O  O209  1  0.25710240  0.39188646  0.12413067  1
  O  O210  1  0.25137209  0.40598602  0.36591222  1
  O  O211  1  0.24448445  0.37358186  0.59675545  1
  O  O212  1  0.24492772  0.38136030  0.87482134  1
  O  O213  1  0.25946657  0.58585977  0.17724416  1
  O  O214  1  0.25314874  0.61092303  0.37323009  1
  O  O215  1  0.25309967  0.65875782  0.61742513  1
  O  O216  1  0.24648708  0.62525742  0.85658278  1
  O  O217  1  0.26078501  0.92052844  0.09431895  1
  O  O218  1  0.26042118  0.89181831  0.40577801  1
  O  O219  1  0.25940637  0.86078855  0.59510772  1
  O  O220  1  0.26081957  0.89693313  0.89931954  1
  O  O221  1  0.50963952  0.15284289  0.14013425  1
  O  O222  1  0.50498681  0.14637875  0.36101927  1
  O  O223  1  0.50554063  0.10902726  0.63167330  1
  O  O224  1  0.50113003  0.14136223  0.84385159  1
  O  O225  1  0.50448448  0.34026167  0.11680683  1
  O  O226  1  0.49699281  0.34683720  0.38298110  1
  O  O227  1  0.48146592  0.40890862  0.62818276  1
  O  O228  1  0.49013960  0.34709141  0.87677683  1
  O  O229  1  0.50396865  0.64093583  0.08075512  1
  O  O230  1  0.51323630  0.66573419  0.38308596  1
  O  O231  1  0.49317976  0.59659829  0.62365532  1
  O  O232  1  0.50124253  0.63356912  0.90236016  1
  O  O233  1  0.50092645  0.86412034  0.15617711  1
  O  O234  1  0.50415327  0.86849031  0.34754466  1
  O  O235  1  0.49731548  0.89178233  0.63986338  1
  O  O236  1  0.50178610  0.87507765  0.84358118  1
  O  O237  1  0.74084508  0.08165430  0.09189171  1
  O  O238  1  0.74052488  0.11026123  0.40967432  1
  O  O239  1  0.74157252  0.15328490  0.60176077  1
  O  O240  1  0.74344221  0.12634392  0.87753948  1
  O  O241  1  0.74909505  0.38948248  0.09585172  1
  O  O242  1  0.73506301  0.40536352  0.38652353  1
  O  O243  1  0.74619154  0.36524187  0.61480055  1
  O  O244  1  0.76144354  0.38933503  0.87671346  1
  O  O245  1  0.73920976  0.59581580  0.12941536  1
  O  O246  1  0.74195848  0.57770702  0.37866320  1
  O  O247  1  0.74874029  0.63150589  0.61845624  1
  O  O248  1  0.74728873  0.59078731  0.85017384  1
  O  O249  1  0.73831598  0.89622221  0.12066500  1
  O  O250  1  0.74259011  0.89062992  0.39758931  1
  O  O251  1  0.75767572  0.88279813  0.57652084  1
  O  O252  1  0.74040269  0.90796896  0.88898649  1
  O  O253  1  0.10226866  -0.00877661  0.15335678  1
  O  O254  1  0.11938662  -0.00244684  0.35941162  1
  O  O255  1  0.15083545  0.00500802  0.63827016  1
  O  O256  1  0.11932518  -0.00620694  0.83364857  1
  O  O257  1  0.11947405  0.24100200  0.10193889  1
  O  O258  1  0.13287211  0.24368216  0.39528193  1
  O  O259  1  0.11613040  0.25363725  0.59906829  1
  O  O260  1  0.13864488  0.24993767  0.88394564  1
  O  O261  1  0.09849482  0.49592190  0.14018799  1
  O  O262  1  0.12575954  0.50346755  0.32098327  1
  O  O263  1  0.11589467  0.49623208  0.62462638  1
  O  O264  1  0.12518492  0.49450429  0.85277850  1
  O  O265  1  0.14386895  0.75717526  0.11366738  1
  O  O266  1  0.15891627  0.75219980  0.42382690  1
  O  O267  1  0.11420109  0.75135503  0.59854594  1
  O  O268  1  0.11765843  0.75572041  0.89832422  1
  O  O269  1  0.41437302  0.00999331  0.12136311  1
  O  O270  1  0.40095135  0.00590034  0.39649966  1
  O  O271  1  0.36597518  -0.00750334  0.60782340  1
  O  O272  1  0.40333362  0.00267788  0.87098009  1
  O  O273  1  0.36913728  0.24811962  0.14979605  1
  O  O274  1  0.34764106  0.25940954  0.36362309  1
  O  O275  1  0.37690660  0.26584921  0.61190208  1
  O  O276  1  0.35038888  0.24603254  0.87546237  1
  O  O277  1  0.40717483  0.49230770  0.12372815  1
  O  O278  1  0.38338178  0.50050440  0.34308035  1
  O  O279  1  0.33840509  0.50542035  0.63374266  1
  O  O280  1  0.37288147  0.49177601  0.87153832  1
  O  O281  1  0.33132376  0.74902550  0.12326879  1
  O  O282  1  0.37585538  0.75932915  0.35225673  1
  O  O283  1  0.39770930  0.74972045  0.62026514  1
  O  O284  1  0.37857162  0.75594569  0.90587245  1
  O  O285  1  0.59205957  0.00400123  0.12722806  1
  O  O286  1  0.60288597  0.00588559  0.38955186  1
  O  O287  1  0.62935711  0.00110862  0.58372634  1
  O  O288  1  0.60835252  0.01598150  0.87055890  1
  O  O289  1  0.67415552  0.23839131  0.14567434  1
  O  O290  1  0.65858461  0.24877145  0.35570168  1
  O  O291  1  0.59657585  0.26097761  0.63944056  1
  O  O292  1  0.62689097  0.24685694  0.83678513  1
  O  O293  1  0.60773517  0.50766737  0.08832352  1
  O  O294  1  0.58568902  0.49960127  0.37637107  1
  O  O295  1  0.62298613  0.50012772  0.61930770  1
  O  O296  1  0.60258555  0.50436569  0.88975096  1
  O  O297  1  0.63449393  0.75000781  0.12672690  1
  O  O298  1  0.67742496  0.73059463  0.35231896  1
  O  O299  1  0.60712445  0.74288126  0.62066786  1
  O  O300  1  0.63592651  0.74761149  0.85760101  1
  O  O301  1  0.87702613  -0.00388175  0.15623439  1
  O  O302  1  0.86869236  0.00433375  0.34861937  1
  O  O303  1  0.88527191  -0.00431861  0.63366944  1
  O  O304  1  0.86211547  0.01067261  0.83991156  1
  O  O305  1  0.85330080  0.23849357  0.10310495  1
  O  O306  1  0.84719811  0.24668771  0.38788779  1
  O  O307  1  0.89405433  0.25133244  0.60391701  1
  O  O308  1  0.88086847  0.24888551  0.87589668  1
  O  O309  1  0.88530311  0.50519482  0.13637363  1
  O  O310  1  0.88242363  0.48976513  0.34343880  1
  O  O311  1  0.86343670  0.50368330  0.63372030  1
  O  O312  1  0.88672156  0.49272776  0.84449481  1
  O  O313  1  0.84789131  0.74803091  0.12133788  1
  O  O314  1  0.85867324  0.73928110  0.38413758  1
  O  O315  1  0.87462055  0.75065502  0.59242492  1
  O  O316  1  0.83331910  0.75324759  0.87865937  1
