# generated using pymatgen
data_Mg32Ti42(Bi17O64)3
_symmetry_space_group_name_H-M   'P 1'
_cell_length_a   15.94541041
_cell_length_b   15.94545774
_cell_length_c   15.95007470
_cell_angle_alpha   89.92710401
_cell_angle_beta   89.96723393
_cell_angle_gamma   90.08522298
_symmetry_Int_Tables_number   1
_chemical_formula_structural   Mg32Ti42(Bi17O64)3
_chemical_formula_sum   'Mg32 Ti42 Bi51 O192'
_cell_volume   4055.40759815
_cell_formula_units_Z   1
loop_
 _symmetry_equiv_pos_site_id
 _symmetry_equiv_pos_as_xyz
  1  'x, y, z'
loop_
 _atom_site_type_symbol
 _atom_site_label
 _atom_site_symmetry_multiplicity
 _atom_site_fract_x
 _atom_site_fract_y
 _atom_site_fract_z
 _atom_site_occupancy
  Mg  Mg0  1  0.11964615  0.11022666  0.12694663  1
  Mg  Mg1  1  0.13015254  0.12133560  0.37617064  1
  Mg  Mg2  1  0.87855510  0.61731267  0.39048534  1
  Mg  Mg3  1  0.89172211  0.08958629  0.14026510  1
  Mg  Mg4  1  0.36817153  0.12721201  0.11792394  1
  Mg  Mg5  1  0.62664647  0.63335815  0.38742750  1
  Mg  Mg6  1  0.11776335  0.37382662  0.87339032  1
  Mg  Mg7  1  0.87511224  0.62773295  0.12684491  1
  Mg  Mg8  1  0.37204290  0.37532946  0.36997395  1
  Mg  Mg9  1  0.36768355  0.37538253  0.62649465  1
  Mg  Mg10  1  0.12765723  0.62246744  0.36902757  1
  Mg  Mg11  1  0.88533556  0.62289909  0.86937816  1
  Mg  Mg12  1  0.62289266  0.62152759  0.12564466  1
  Mg  Mg13  1  0.63121098  0.38453109  0.61388617  1
  Mg  Mg14  1  0.62653375  0.87319009  0.13387575  1
  Mg  Mg15  1  0.62068499  0.12844339  0.38133581  1
  Mg  Mg16  1  0.38267473  0.63100905  0.62343167  1
  Mg  Mg17  1  0.11963510  0.87091455  0.87418308  1
  Mg  Mg18  1  0.37760700  0.87229668  0.87994839  1
  Mg  Mg19  1  0.23261817  0.21461929  0.20494619  1
  Mg  Mg20  1  0.00133811  -0.03044399  0.27016389  1
  Mg  Mg21  1  0.79791388  0.47211782  0.50431207  1
  Mg  Mg22  1  0.24606182  0.00823947  0.48568220  1
  Mg  Mg23  1  0.25242126  0.78909791  0.21144838  1
  Mg  Mg24  1  -0.01651016  0.54489621  0.25038117  1
  Mg  Mg25  1  0.69739816  0.02343633  0.72376655  1
  Mg  Mg26  1  0.79412890  0.20827153  0.79543885  1
  Mg  Mg27  1  0.71595332  0.76274865  0.52127601  1
  Mg  Mg28  1  0.23086776  0.79786050  0.01028592  1
  Mg  Mg29  1  -0.01563493  0.44196290  0.75038043  1
  Mg  Mg30  1  -0.09862214  0.00927796  0.75192687  1
  Mg  Mg31  1  0.46033523  0.75437350  0.24278160  1
  Ti  Ti32  1  0.38459878  0.12161528  0.87795200  1
  Ti  Ti33  1  0.87315122  0.35239730  0.62513208  1
  Ti  Ti34  1  0.36444014  0.36566919  0.13776056  1
  Ti  Ti35  1  0.62222259  0.13132663  0.85216110  1
  Ti  Ti36  1  0.36787776  0.37192388  0.86955625  1
  Ti  Ti37  1  0.86451012  0.87872778  0.13972564  1
  Ti  Ti38  1  0.12123382  0.88470723  0.13705048  1
  Ti  Ti39  1  0.86728253  0.86603037  0.38193807  1
  Ti  Ti40  1  0.12150024  0.36500133  0.63082168  1
  Ti  Ti41  1  0.37490309  0.87471528  0.11631394  1
  Ti  Ti42  1  0.62187418  0.14253577  0.61412988  1
  Ti  Ti43  1  0.87935428  0.37621580  0.88155991  1
  Ti  Ti44  1  0.87293782  0.61606311  0.62356718  1
  Ti  Ti45  1  0.62087602  0.62220363  0.62143554  1
  Ti  Ti46  1  0.13337862  0.87451429  0.37467463  1
  Ti  Ti47  1  0.86402320  0.11530349  0.61279866  1
  Ti  Ti48  1  0.88450645  0.38158799  0.35505336  1
  Ti  Ti49  1  0.87324339  0.11632950  0.37065945  1
  Ti  Ti50  1  0.62528418  0.87300920  0.86801198  1
  Ti  Ti51  1  0.36187829  0.88128058  0.61941848  1
  Ti  Ti52  1  0.60381023  0.37087616  0.37029563  1
  Ti  Ti53  1  0.12562190  0.37768276  0.36603313  1
  Ti  Ti54  1  0.86692448  0.86482226  0.61026892  1
  Ti  Ti55  1  0.64236945  0.38883674  0.12711328  1
  Ti  Ti56  1  0.62641432  0.38891433  0.87132334  1
  Ti  Ti57  1  0.12149128  0.63257441  0.89381276  1
  Ti  Ti58  1  0.61946939  0.62090650  0.87724261  1
  Ti  Ti59  1  0.13406015  0.63383534  0.12889957  1
  Ti  Ti60  1  0.36851540  0.12293219  0.62460000  1
  Ti  Ti61  1  0.87104356  0.86319036  0.85959505  1
  Ti  Ti62  1  0.12264749  0.37947209  0.13039861  1
  Ti  Ti63  1  0.11903110  0.12817552  0.87647950  1
  Ti  Ti64  1  0.62179905  0.87791849  0.63163050  1
  Ti  Ti65  1  0.37064009  0.62973040  0.12132273  1
  Ti  Ti66  1  0.88995041  0.38556745  0.12338375  1
  Ti  Ti67  1  0.36481788  0.87317299  0.37573455  1
  Ti  Ti68  1  0.10705623  0.88465847  0.62417826  1
  Ti  Ti69  1  0.62000920  0.87251562  0.36880479  1
  Ti  Ti70  1  0.36788543  0.63062431  0.37887351  1
  Ti  Ti71  1  0.12457312  0.11397713  0.61890510  1
  Ti  Ti72  1  0.37882030  0.62269749  0.88259976  1
  Ti  Ti73  1  0.36864695  0.12718178  0.37967351  1
  Bi  Bi74  1  -0.00008234  0.25595231  0.47494456  1
  Bi  Bi75  1  0.72431242  0.50404835  0.28205040  1
  Bi  Bi76  1  0.76563197  0.51596285  -0.00376999  1
  Bi  Bi77  1  0.26261185  0.01517140  0.24998081  1
  Bi  Bi78  1  0.24543379  0.27667469  0.49119204  1
  Bi  Bi79  1  0.48048105  0.26805720  0.50806815  1
  Bi  Bi80  1  0.01504776  0.22411809  0.24712153  1
  Bi  Bi81  1  0.47742242  0.50392147  0.74310089  1
  Bi  Bi82  1  0.22695268  0.25045414  0.00073948  1
  Bi  Bi83  1  -0.02761458  0.76404010  0.00917043  1
  Bi  Bi84  1  0.01174420  0.49329521  0.50113744  1
  Bi  Bi85  1  -0.04488253  0.21553843  0.00514524  1
  Bi  Bi86  1  0.51852726  0.75092460  0.03086823  1
  Bi  Bi87  1  0.76130599  0.72505436  0.28421264  1
  Bi  Bi88  1  0.53607197  0.00967952  0.00654731  1
  Bi  Bi89  1  -0.01674131  -0.00880078  -0.03018300  1
  Bi  Bi90  1  0.71903315  0.01674191  0.23239671  1
  Bi  Bi91  1  0.47337981  0.49700969  0.50268763  1
  Bi  Bi92  1  0.54222294  0.23405411  0.21851753  1
  Bi  Bi93  1  0.72722016  0.00469732  0.49509615  1
  Bi  Bi94  1  -0.00601893  0.74591585  0.26145276  1
  Bi  Bi95  1  0.23323659  -0.02405636  0.75549716  1
  Bi  Bi96  1  -0.00079400  0.21864212  0.73987346  1
  Bi  Bi97  1  0.74244628  0.72089295  0.74838576  1
  Bi  Bi98  1  0.02660104  0.73474686  0.49633588  1
  Bi  Bi99  1  0.77672757  0.47796979  0.73847519  1
  Bi  Bi100  1  0.20427043  0.50988452  0.76159377  1
  Bi  Bi101  1  0.48328524  0.01496757  0.49156843  1
  Bi  Bi102  1  0.23037031  -0.00146951  -0.02000982  1
  Bi  Bi103  1  0.24534425  0.48204786  -0.00202661  1
  Bi  Bi104  1  0.51827849  0.27817022  0.73593362  1
  Bi  Bi105  1  0.74063167  0.27009713  0.46883844  1
  Bi  Bi106  1  0.48314864  0.73604453  0.75591179  1
  Bi  Bi107  1  0.25431462  0.21511748  0.76032233  1
  Bi  Bi108  1  0.48033263  -0.02179673  0.75005504  1
  Bi  Bi109  1  0.23491077  0.72494233  0.52845268  1
  Bi  Bi110  1  0.49633459  0.76449222  0.48615253  1
  Bi  Bi111  1  0.26209266  0.50759971  0.25084766  1
  Bi  Bi112  1  0.50116309  0.02371777  0.22317194  1
  Bi  Bi113  1  0.21991546  0.51617034  0.53169068  1
  Bi  Bi114  1  0.51051083  0.24582124  -0.00965820  1
  Bi  Bi115  1  0.00396395  0.00095241  0.47668268  1
  Bi  Bi116  1  0.48617288  0.46896635  0.02078583  1
  Bi  Bi117  1  0.00289994  0.52515022  0.02326900  1
  Bi  Bi118  1  0.50191991  0.53795149  0.26579750  1
  Bi  Bi119  1  0.74014909  0.73057087  0.01344640  1
  Bi  Bi120  1  0.76490050  0.01988108  -0.05220138  1
  Bi  Bi121  1  0.72918783  0.25586408  -0.01511311  1
  Bi  Bi122  1  0.01266890  0.72364966  0.72548067  1
  Bi  Bi123  1  0.24235247  0.73690733  0.77585739  1
  Bi  Bi124  1  0.77389777  0.23005893  0.21578873  1
  O  O125  1  0.14836328  0.12518486  -0.00287070  1
  O  O126  1  0.13256906  0.15312685  0.25260087  1
  O  O127  1  0.14082246  0.08865621  0.50756190  1
  O  O128  1  0.12060315  0.14051999  0.75379785  1
  O  O129  1  0.14671745  0.37874007  -0.00096247  1
  O  O130  1  0.13750812  0.36317720  0.25069117  1
  O  O131  1  0.08791145  0.37406943  0.50671252  1
  O  O132  1  0.11601858  0.39491294  0.74666387  1
  O  O133  1  0.14187713  0.60196668  0.00690500  1
  O  O134  1  0.09732407  0.62203954  0.24342747  1
  O  O135  1  0.13302607  0.63118637  0.49801543  1
  O  O136  1  0.12519937  0.64388749  0.76646607  1
  O  O137  1  0.13772750  0.89293257  0.01307832  1
  O  O138  1  0.15304016  0.85267557  0.25829832  1
  O  O139  1  0.10298052  0.90093658  0.50300791  1
  O  O140  1  0.14846524  0.86459427  0.74706742  1
  O  O141  1  0.37545859  0.13964503  -0.00863177  1
  O  O142  1  0.36887267  0.11038772  0.25861271  1
  O  O143  1  0.35398602  0.08592125  0.49974492  1
  O  O144  1  0.38640041  0.13949541  0.74150776  1
  O  O145  1  0.36041123  0.38128795  -0.00621348  1
  O  O146  1  0.35872683  0.39421820  0.24752413  1
  O  O147  1  0.39102175  0.38139185  0.49747255  1
  O  O148  1  0.40331430  0.37723019  0.75181450  1
  O  O149  1  0.37269726  0.63073491  0.00032196  1
  O  O150  1  0.36777318  0.60264450  0.24848619  1
  O  O151  1  0.39140662  0.61409620  0.49483739  1
  O  O152  1  0.39709543  0.61918646  0.75028545  1
  O  O153  1  0.35917984  0.84868240  0.00557323  1
  O  O154  1  0.35786545  0.85230891  0.26138445  1
  O  O155  1  0.40883130  0.87427263  0.50420150  1
  O  O156  1  0.36050250  0.90206848  0.74486272  1
  O  O157  1  0.62582942  0.15087851  -0.01781055  1
  O  O158  1  0.60890538  0.11370514  0.25800862  1
  O  O159  1  0.65793186  0.14398613  0.49996783  1
  O  O160  1  0.60468673  0.10929855  0.73750993  1
  O  O161  1  0.62009296  0.35132601  -0.00015238  1
  O  O162  1  0.62616289  0.39086910  0.24419826  1
  O  O163  1  0.61609216  0.35793004  0.48768214  1
  O  O164  1  0.61345409  0.38191375  0.75485256  1
  O  O165  1  0.61642458  0.64229844  -0.00566752  1
  O  O166  1  0.63765759  0.60735950  0.24896199  1
  O  O167  1  0.64454510  0.65346501  0.51203569  1
  O  O168  1  0.62287830  0.63726161  0.75552720  1
  O  O169  1  0.59336742  0.88092812  -0.00638229  1
  O  O170  1  0.62780307  0.89216842  0.25887807  1
  O  O171  1  0.60870849  0.84560093  0.51022671  1
  O  O172  1  0.65142221  0.90878878  0.75072477  1
  O  O173  1  0.88955319  0.09482671  0.01253226  1
  O  O174  1  0.89158953  0.15108983  0.25412596  1
  O  O175  1  0.86871438  0.10902204  0.49395193  1
  O  O176  1  0.88674945  0.13709076  0.73942930  1
  O  O177  1  0.88058096  0.40763160  -0.00194575  1
  O  O178  1  0.86731765  0.36178009  0.24264831  1
  O  O179  1  0.90219695  0.39475071  0.51071516  1
  O  O180  1  0.84409619  0.34724687  0.74879166  1
  O  O181  1  0.87905099  0.59266088  -0.00485326  1
  O  O182  1  0.89286178  0.64341314  0.25214374  1
  O  O183  1  0.86007781  0.58007797  0.51288745  1
  O  O184  1  0.89440035  0.65583959  0.74675529  1
  O  O185  1  0.89708365  0.89515712  0.01863234  1
  O  O186  1  0.87023999  0.83049175  0.25630118  1
  O  O187  1  0.90430976  0.88598901  0.49586295  1
  O  O188  1  0.86282600  0.87811363  0.74546742  1
  O  O189  1  0.00202535  0.15156407  0.12404717  1
  O  O190  1  0.00068310  0.14968040  0.38110043  1
  O  O191  1  0.00687555  0.14592430  0.61931063  1
  O  O192  1  0.00746110  0.14241583  0.88641847  1
  O  O193  1  0.00130382  0.35130887  0.11838311  1
  O  O194  1  0.00065765  0.34232525  0.36520901  1
  O  O195  1  -0.00964207  0.35258096  0.65543914  1
  O  O196  1  -0.00962010  0.36064798  0.85735149  1
  O  O197  1  0.00929119  0.64491823  0.09765619  1
  O  O198  1  -0.00017495  0.65525548  0.38849831  1
  O  O199  1  -0.01021193  0.65169663  0.60989616  1
  O  O200  1  0.01033237  0.64966364  0.89964882  1
  O  O201  1  0.01590426  0.83451683  0.13591213  1
  O  O202  1  0.00198991  0.85710534  0.35179956  1
  O  O203  1  -0.00232811  0.85466653  0.63719902  1
  O  O204  1  -0.00644537  0.86914058  0.88056563  1
  O  O205  1  0.24700421  0.09941525  0.14133769  1
  O  O206  1  0.25180445  0.08397178  0.37223299  1
  O  O207  1  0.25171962  0.11411580  0.64389316  1
  O  O208  1  0.26201005  0.10893813  0.85322885  1
  O  O209  1  0.24794301  0.41028801  0.12252007  1
  O  O210  1  0.24041152  0.38602106  0.39924498  1
  O  O211  1  0.23984013  0.39067866  0.61467264  1
  O  O212  1  0.25748796  0.41028639  0.85778868  1
  O  O213  1  0.24832571  0.59078307  0.13615264  1
  O  O214  1  0.25476574  0.60018189  0.36958869  1
  O  O215  1  0.25675019  0.61559753  0.61758716  1
  O  O216  1  0.26078391  0.61137896  0.85732298  1
  O  O217  1  0.25334961  0.88934545  0.12927756  1
  O  O218  1  0.25137070  0.90491865  0.40120326  1
  O  O219  1  0.25653258  0.91834273  0.59679754  1
  O  O220  1  0.25307502  0.90461387  0.88002295  1
  O  O221  1  0.49274798  0.13802387  0.13584242  1
  O  O222  1  0.48897780  0.13031865  0.39953135  1
  O  O223  1  0.50565782  0.14055202  0.59117619  1
  O  O224  1  0.50366511  0.15812761  0.87117202  1
  O  O225  1  0.48470964  0.35205112  0.11236774  1
  O  O226  1  0.49749827  0.34196975  0.36044251  1
  O  O227  1  0.50257018  0.34971257  0.62069264  1
  O  O228  1  0.50594399  0.34257021  0.88513155  1
  O  O229  1  0.49030513  0.65649802  0.14098219  1
  O  O230  1  0.49480082  0.65478168  0.34002883  1
  O  O231  1  0.51003579  0.65978444  0.62605635  1
  O  O232  1  0.50182889  0.65443872  0.87439608  1
  O  O233  1  0.48863513  0.83671192  0.14316182  1
  O  O234  1  0.50514899  0.83564581  0.36436288  1
  O  O235  1  0.50885640  0.86826286  0.65615665  1
  O  O236  1  0.50664019  0.86666260  0.84356686  1
  O  O237  1  0.76558279  0.11198338  0.14564655  1
  O  O238  1  0.75853401  0.10131687  0.35458855  1
  O  O239  1  0.75135111  0.10244313  0.63814449  1
  O  O240  1  0.74289948  0.09018131  0.82964917  1
  O  O241  1  0.75243856  0.41492477  0.11907847  1
  O  O242  1  0.77042773  0.40566047  0.39877839  1
  O  O243  1  0.76000720  0.40702345  0.60686613  1
  O  O244  1  0.74224055  0.39271390  0.89010489  1
  O  O245  1  0.75019070  0.61652435  0.09775733  1
  O  O246  1  0.75512370  0.60732747  0.36536690  1
  O  O247  1  0.75431607  0.61000016  0.65764233  1
  O  O248  1  0.74380713  0.61268203  0.88233376  1
  O  O249  1  0.75545402  0.90426543  0.13128663  1
  O  O250  1  0.75902149  0.90492942  0.38569079  1
  O  O251  1  0.75505388  0.88895625  0.58620920  1
  O  O252  1  0.75380587  0.89241655  0.89593313  1
  O  O253  1  0.09405394  -0.01076309  0.16660340  1
  O  O254  1  0.09083504  -0.00629109  0.36112433  1
  O  O255  1  0.11007979  0.00244300  0.65257526  1
  O  O256  1  0.12764724  0.00669503  0.87886899  1
  O  O257  1  0.15311164  0.25790358  0.11615940  1
  O  O258  1  0.13475434  0.25113328  0.40903659  1
  O  O259  1  0.14122840  0.24907794  0.62019782  1
  O  O260  1  0.15628403  0.24859477  0.87580647  1
  O  O261  1  0.09767452  0.49375241  0.13162002  1
  O  O262  1  0.10055344  0.49089096  0.37997444  1
  O  O263  1  0.10774209  0.49405654  0.61073517  1
  O  O264  1  0.12012904  0.51004961  0.87010694  1
  O  O265  1  0.16944032  0.74376111  0.11705477  1
  O  O266  1  0.14097783  0.76213362  0.40517563  1
  O  O267  1  0.13988731  0.76799046  0.61213938  1
  O  O268  1  0.16983952  0.75085369  0.90087974  1
  O  O269  1  0.40206275  -0.01123625  0.11977938  1
  O  O270  1  0.40522917  -0.01764432  0.37204522  1
  O  O271  1  0.40871926  0.00460947  0.62780987  1
  O  O272  1  0.40688868  0.00841100  0.87898586  1
  O  O273  1  0.33509487  0.25412629  0.14205941  1
  O  O274  1  0.34560215  0.23942537  0.39409003  1
  O  O275  1  0.36687780  0.24116489  0.59751873  1
  O  O276  1  0.34882875  0.25760338  0.86503228  1
  O  O277  1  0.39787042  0.50318416  0.11582780  1
  O  O278  1  0.41135329  0.50506264  0.37419553  1
  O  O279  1  0.40332846  0.50074989  0.62519791  1
  O  O280  1  0.40588071  0.50384119  0.87328755  1
  O  O281  1  0.34676097  0.74066660  0.14495780  1
  O  O282  1  0.35916410  0.74728477  0.39512665  1
  O  O283  1  0.35479824  0.76503386  0.63464537  1
  O  O284  1  0.36566042  0.74731371  0.84927852  1
  O  O285  1  0.60196046  -0.00260069  0.12749008  1
  O  O286  1  0.61405654  -0.00899340  0.40789302  1
  O  O287  1  0.62601225  -0.00281747  0.60485198  1
  O  O288  1  0.61551667  0.01008590  0.89097442  1
  O  O289  1  0.64836713  0.26193100  0.13643692  1
  O  O290  1  0.65840062  0.25947381  0.35677641  1
  O  O291  1  0.63570478  0.25082479  0.64038700  1
  O  O292  1  0.67396516  0.24077321  0.84971479  1
  O  O293  1  0.59485408  0.49549540  0.10698432  1
  O  O294  1  0.61002643  0.49659367  0.37145156  1
  O  O295  1  0.60243470  0.51022942  0.61762433  1
  O  O296  1  0.60264158  0.50204990  0.88269488  1
  O  O297  1  0.63839338  0.75313993  0.10845797  1
  O  O298  1  0.66233569  0.75895857  0.37796956  1
  O  O299  1  0.66055311  0.76175350  0.64457791  1
  O  O300  1  0.64567091  0.76093619  0.86666759  1
  O  O301  1  0.91206726  -0.02388040  0.17958481  1
  O  O302  1  0.91019601  0.00184272  0.36095298  1
  O  O303  1  0.89129393  0.00254205  0.62976277  1
  O  O304  1  0.88425627  -0.00680108  0.87357060  1
  O  O305  1  0.84728997  0.26735998  0.10049135  1
  O  O306  1  0.85911464  0.25516398  0.39188455  1
  O  O307  1  0.85769964  0.24471557  0.60088997  1
  O  O308  1  0.85121435  0.25532127  0.89905809  1
  O  O309  1  0.91736983  0.50191355  0.14329884  1
  O  O310  1  0.91641075  0.49396322  0.35066239  1
  O  O311  1  0.89468527  0.50167272  0.66447739  1
  O  O312  1  0.88634707  0.48982164  0.83611384  1
  O  O313  1  0.86064922  0.75353375  0.09626186  1
  O  O314  1  0.84021139  0.75284974  0.39996375  1
  O  O315  1  0.84351643  0.75137891  0.60438034  1
  O  O316  1  0.86460034  0.75407718  0.89709693  1
