# generated using pymatgen
data_Mg32Ti42(Bi17O64)3
_symmetry_space_group_name_H-M   'P 1'
_cell_length_a   15.92805565
_cell_length_b   15.94235673
_cell_length_c   15.93904034
_cell_angle_alpha   90.07088291
_cell_angle_beta   90.05511654
_cell_angle_gamma   89.83696845
_symmetry_Int_Tables_number   1
_chemical_formula_structural   Mg32Ti42(Bi17O64)3
_chemical_formula_sum   'Mg32 Ti42 Bi51 O192'
_cell_volume   4047.39104835
_cell_formula_units_Z   1
loop_
 _symmetry_equiv_pos_site_id
 _symmetry_equiv_pos_as_xyz
  1  'x, y, z'
loop_
 _atom_site_type_symbol
 _atom_site_label
 _atom_site_symmetry_multiplicity
 _atom_site_fract_x
 _atom_site_fract_y
 _atom_site_fract_z
 _atom_site_occupancy
  Mg  Mg0  1  0.12177244  0.62902214  0.62535335  1
  Mg  Mg1  1  0.62873499  0.11654506  0.62734364  1
  Mg  Mg2  1  0.11495513  0.62230121  0.86589355  1
  Mg  Mg3  1  0.62121154  0.13486890  0.86962748  1
  Mg  Mg4  1  0.87390008  0.61878198  0.11703814  1
  Mg  Mg5  1  0.63225892  0.62013477  0.37759677  1
  Mg  Mg6  1  0.12882862  0.12494103  0.87309198  1
  Mg  Mg7  1  0.37531815  0.12052295  0.62943881  1
  Mg  Mg8  1  0.37383959  0.11974711  0.36679496  1
  Mg  Mg9  1  0.11795591  0.62898986  0.12672965  1
  Mg  Mg10  1  0.85807671  0.36296755  0.61430650  1
  Mg  Mg11  1  0.37130118  0.62336898  0.87912278  1
  Mg  Mg12  1  0.61329408  0.37496171  0.86261642  1
  Mg  Mg13  1  0.63577585  0.11651104  0.37326325  1
  Mg  Mg14  1  0.62573127  0.62694842  0.87758433  1
  Mg  Mg15  1  0.37202572  0.61820550  0.37306368  1
  Mg  Mg16  1  0.38373497  0.87170450  0.63122417  1
  Mg  Mg17  1  0.13023998  0.12430421  0.62083634  1
  Mg  Mg18  1  0.88233060  0.87840943  0.12004283  1
  Mg  Mg19  1  0.54487144  0.71354473  0.74582139  1
  Mg  Mg20  1  -0.04832436  0.44462649  0.74299952  1
  Mg  Mg21  1  0.76247588  0.30114857  0.80600406  1
  Mg  Mg22  1  0.74794851  -0.02411377  0.54083001  1
  Mg  Mg23  1  0.77719976  0.78452314  0.00027983  1
  Mg  Mg24  1  0.47681702  -0.03812528  0.00963947  1
  Mg  Mg25  1  0.46114106  0.26071206  0.77066659  1
  Mg  Mg26  1  -0.03076377  0.72749642  0.74798164  1
  Mg  Mg27  1  0.00160259  0.26346764  0.28664785  1
  Mg  Mg28  1  0.52152403  0.50949163  -0.03279522  1
  Mg  Mg29  1  0.24778490  -0.00054992  0.74920249  1
  Mg  Mg30  1  0.78462017  0.79613043  0.49722667  1
  Mg  Mg31  1  -0.02936026  0.47237043  -0.06654179  1
  Ti  Ti32  1  0.11394150  0.87962315  0.87542081  1
  Ti  Ti33  1  0.88079308  0.87954798  0.36917686  1
  Ti  Ti34  1  0.36602146  0.88933539  0.86197330  1
  Ti  Ti35  1  0.35822902  0.36598236  0.12028125  1
  Ti  Ti36  1  0.62248803  0.87228283  0.88155273  1
  Ti  Ti37  1  0.39144177  0.36500330  0.63760763  1
  Ti  Ti38  1  0.11954953  0.86682960  0.12599471  1
  Ti  Ti39  1  0.87863031  0.37420430  0.37865644  1
  Ti  Ti40  1  0.37817886  0.12443046  0.89463715  1
  Ti  Ti41  1  0.88074479  0.87101321  0.64454764  1
  Ti  Ti42  1  0.63382628  0.37045198  0.37778957  1
  Ti  Ti43  1  0.87106566  0.62214307  0.62541954  1
  Ti  Ti44  1  0.13856586  0.37112522  0.62496830  1
  Ti  Ti45  1  0.37747038  0.61795375  0.12069210  1
  Ti  Ti46  1  0.63037242  0.62735935  0.11605571  1
  Ti  Ti47  1  0.36705885  0.38416268  0.87418270  1
  Ti  Ti48  1  0.64371369  0.87304212  0.38366974  1
  Ti  Ti49  1  0.37139853  0.37213361  0.35995898  1
  Ti  Ti50  1  0.12773394  0.87754114  0.62909695  1
  Ti  Ti51  1  0.63133498  0.35038184  0.63331614  1
  Ti  Ti52  1  0.63072452  0.61452062  0.61872372  1
  Ti  Ti53  1  0.12637633  0.61938147  0.38756831  1
  Ti  Ti54  1  0.87854223  0.12795965  0.37787627  1
  Ti  Ti55  1  0.12730374  0.87051574  0.38477630  1
  Ti  Ti56  1  0.86457470  0.63019424  0.38230195  1
  Ti  Ti57  1  0.37784091  0.87631635  0.37786000  1
  Ti  Ti58  1  0.38469307  0.63355256  0.62669900  1
  Ti  Ti59  1  0.87102865  0.12090960  0.63514359  1
  Ti  Ti60  1  0.61622958  0.11348170  0.11503983  1
  Ti  Ti61  1  0.13208420  0.37411425  0.37528725  1
  Ti  Ti62  1  0.62171619  0.87479462  0.62979246  1
  Ti  Ti63  1  0.87529030  0.62446150  0.87360771  1
  Ti  Ti64  1  0.37850426  0.86571438  0.13385852  1
  Ti  Ti65  1  0.11750602  0.11724219  0.38101648  1
  Ti  Ti66  1  0.12720627  0.38156132  0.85682752  1
  Ti  Ti67  1  0.61732384  0.87136084  0.12683915  1
  Ti  Ti68  1  0.87957819  0.87379340  0.88069288  1
  Ti  Ti69  1  0.87884420  0.13345928  0.12249161  1
  Ti  Ti70  1  0.38054420  0.11566799  0.12564025  1
  Ti  Ti71  1  0.10971873  0.37426579  0.13550346  1
  Ti  Ti72  1  0.87319028  0.11350266  0.87924596  1
  Ti  Ti73  1  0.89106496  0.38416644  0.12493989  1
  Bi  Bi74  1  0.53132758  0.25335333  0.23354941  1
  Bi  Bi75  1  -0.00826261  0.73896701  0.24807760  1
  Bi  Bi76  1  0.50508676  0.23225828  0.46211560  1
  Bi  Bi77  1  0.76362752  0.25355632  0.23881907  1
  Bi  Bi78  1  0.24192332  -0.01377822  0.25081949  1
  Bi  Bi79  1  0.51600483  0.00606653  0.27936131  1
  Bi  Bi80  1  0.26002288  0.21259808  0.76098106  1
  Bi  Bi81  1  0.73768368  0.21645365  0.51119577  1
  Bi  Bi82  1  0.23051411  0.22200168  0.25234417  1
  Bi  Bi83  1  0.76593411  0.00759274  0.23476713  1
  Bi  Bi84  1  0.02523470  0.01997744  0.74015888  1
  Bi  Bi85  1  0.01245223  0.26463415  -0.02979133  1
  Bi  Bi86  1  0.00739923  0.24374122  0.53866706  1
  Bi  Bi87  1  0.27546081  0.22406209  0.49646899  1
  Bi  Bi88  1  0.50687140  0.48039567  0.20955998  1
  Bi  Bi89  1  -0.04538921  0.25389116  0.76706292  1
  Bi  Bi90  1  0.22945563  0.22307501  0.02495800  1
  Bi  Bi91  1  0.50359507  0.03140434  0.75744882  1
  Bi  Bi92  1  0.51220622  0.73551481  0.47674970  1
  Bi  Bi93  1  0.27034972  0.49579929  0.50334233  1
  Bi  Bi94  1  -0.00999920  0.72087690  -0.00769817  1
  Bi  Bi95  1  0.23491425  0.50787757  0.22025541  1
  Bi  Bi96  1  0.46629426  0.76181972  -0.02316875  1
  Bi  Bi97  1  0.73809402  0.22502352  -0.01361814  1
  Bi  Bi98  1  0.24452010  -0.01698320  0.01298926  1
  Bi  Bi99  1  0.74123239  0.48330710  0.22143949  1
  Bi  Bi100  1  0.50404688  0.00646283  0.52417012  1
  Bi  Bi101  1  0.26902696  -0.01170557  0.51654251  1
  Bi  Bi102  1  0.73717385  0.73553901  0.75936343  1
  Bi  Bi103  1  0.25345986  0.73281587  0.25326959  1
  Bi  Bi104  1  -0.00478793  0.50515858  0.27303679  1
  Bi  Bi105  1  0.00479158  0.47581948  0.53121278  1
  Bi  Bi106  1  0.75894391  0.48547886  0.77652517  1
  Bi  Bi107  1  0.73188261  -0.00915057  0.76644102  1
  Bi  Bi108  1  0.71264382  0.47366999  0.00525910  1
  Bi  Bi109  1  0.49835568  0.46313615  0.49355234  1
  Bi  Bi110  1  0.22681887  0.73430483  -0.00822756  1
  Bi  Bi111  1  0.73130662  -0.01177615  0.00489403  1
  Bi  Bi112  1  0.00277162  0.02517926  0.24242339  1
  Bi  Bi113  1  0.49195413  0.52044574  0.77060269  1
  Bi  Bi114  1  0.50502406  0.29042253  0.00119785  1
  Bi  Bi115  1  0.25165866  0.51409656  0.72249659  1
  Bi  Bi116  1  -0.00950280  0.73674462  0.51586472  1
  Bi  Bi117  1  0.73362082  0.49192306  0.50064132  1
  Bi  Bi118  1  0.52920042  0.72631391  0.25637081  1
  Bi  Bi119  1  0.76856115  0.75816627  0.22546093  1
  Bi  Bi120  1  -0.01343918  -0.01464778  0.51133549  1
  Bi  Bi121  1  0.02703831  0.03634962  0.01691318  1
  Bi  Bi122  1  0.24195088  0.73692786  0.75222062  1
  Bi  Bi123  1  0.27263949  0.73927569  0.49793755  1
  Bi  Bi124  1  0.20928440  0.50760029  -0.00780419  1
  O  O125  1  0.09944521  0.15218106  -0.00227556  1
  O  O126  1  0.15430710  0.10666477  0.25937785  1
  O  O127  1  0.09650057  0.14675760  0.49354838  1
  O  O128  1  0.14897321  0.08738580  0.74994203  1
  O  O129  1  0.09949534  0.36050634  0.01694445  1
  O  O130  1  0.14453130  0.39586583  0.25802761  1
  O  O131  1  0.09866029  0.36543878  0.49991019  1
  O  O132  1  0.14345700  0.39006310  0.74612154  1
  O  O133  1  0.11304386  0.65007163  -0.00290688  1
  O  O134  1  0.15369231  0.62222703  0.25810638  1
  O  O135  1  0.10187253  0.64648437  0.49954997  1
  O  O136  1  0.16032021  0.62316293  0.74795832  1
  O  O137  1  0.15294182  0.86063928  -0.00386684  1
  O  O138  1  0.12616786  0.89623780  0.24362606  1
  O  O139  1  0.14006209  0.87105360  0.50281383  1
  O  O140  1  0.10427523  0.89913844  0.75297265  1
  O  O141  1  0.40390412  0.16034213  -0.00193715  1
  O  O142  1  0.34944150  0.11062918  0.23861723  1
  O  O143  1  0.39212857  0.15002817  0.50100739  1
  O  O144  1  0.33575106  0.09630120  0.75262449  1
  O  O145  1  0.38531237  0.36078589  0.00103925  1
  O  O146  1  0.35647688  0.38951999  0.24954258  1
  O  O147  1  0.40397852  0.35052734  0.52140949  1
  O  O148  1  0.36739097  0.40930891  0.75676023  1
  O  O149  1  0.38963784  0.64516360  0.00696638  1
  O  O150  1  0.34103517  0.62016009  0.24772256  1
  O  O151  1  0.39025556  0.65288427  0.50547574  1
  O  O152  1  0.35428169  0.60575581  0.74740397  1
  O  O153  1  0.37010686  0.86450211  0.00355955  1
  O  O154  1  0.38049257  0.88702391  0.25126879  1
  O  O155  1  0.34677906  0.85892352  0.50006799  1
  O  O156  1  0.39486790  0.89874337  0.75461685  1
  O  O157  1  0.61808930  0.15041684  0.00141226  1
  O  O158  1  0.63010827  0.07734208  0.23872577  1
  O  O159  1  0.61206994  0.14343039  0.49754716  1
  O  O160  1  0.63024225  0.09205221  0.75103662  1
  O  O161  1  0.59166018  0.40268367  -0.00831148  1
  O  O162  1  0.63468439  0.39108162  0.26251959  1
  O  O163  1  0.59244817  0.35223681  0.50504851  1
  O  O164  1  0.66416173  0.37502616  0.74422588  1
  O  O165  1  0.59587300  0.61316977  0.00287445  1
  O  O166  1  0.63163335  0.63335188  0.24910493  1
  O  O167  1  0.61216067  0.64384456  0.50629008  1
  O  O168  1  0.64562147  0.62563984  0.74099789  1
  O  O169  1  0.66678945  0.85068812  -0.01063270  1
  O  O170  1  0.60188375  0.88812276  0.23919540  1
  O  O171  1  0.67564606  0.86022167  0.49737470  1
  O  O172  1  0.61658431  0.90738240  0.74520016  1
  O  O173  1  0.89155582  0.12598462  0.00048722  1
  O  O174  1  0.84388898  0.13756123  0.24462117  1
  O  O175  1  0.91403662  0.11328253  0.48797477  1
  O  O176  1  0.85172100  0.12554903  0.74736850  1
  O  O177  1  0.92018097  0.39485289  0.01735920  1
  O  O178  1  0.83893402  0.37179605  0.25617465  1
  O  O179  1  0.89392227  0.38541532  0.49386625  1
  O  O180  1  0.84577731  0.37111339  0.73988170  1
  O  O181  1  0.91106795  0.59936397  -0.01401747  1
  O  O182  1  0.86819232  0.66334185  0.25759533  1
  O  O183  1  0.90039471  0.62189639  0.50054145  1
  O  O184  1  0.86399180  0.65625917  0.74125340  1
  O  O185  1  0.85385493  0.89013884  -0.00609323  1
  O  O186  1  0.88023802  0.84477699  0.24869978  1
  O  O187  1  0.84837330  0.91096007  0.48515753  1
  O  O188  1  0.90520082  0.83915927  0.75110253  1
  O  O189  1  -0.00866986  0.12924187  0.14382317  1
  O  O190  1  0.00112614  0.13807562  0.32917995  1
  O  O191  1  -0.00623469  0.14474242  0.64820553  1
  O  O192  1  -0.00578075  0.14486094  0.85192602  1
  O  O193  1  0.00031141  0.34341247  0.17272903  1
  O  O194  1  -0.00424226  0.37647510  0.34866232  1
  O  O195  1  -0.00480070  0.37587899  0.63784393  1
  O  O196  1  0.00138857  0.37073576  0.84776367  1
  O  O197  1  -0.00472335  0.65985489  0.13602070  1
  O  O198  1  0.00347692  0.63492469  0.34813930  1
  O  O199  1  -0.00419331  0.66927339  0.63775694  1
  O  O200  1  -0.00433566  0.66724722  0.85442119  1
  O  O201  1  0.00767457  0.85415333  0.11658944  1
  O  O202  1  -0.00348964  0.86678838  0.38393512  1
  O  O203  1  -0.00172140  0.86101623  0.60108881  1
  O  O204  1  0.00267626  0.85685999  0.89366301  1
  O  O205  1  0.26364152  0.10705046  0.08706773  1
  O  O206  1  0.24146737  0.13140960  0.39939804  1
  O  O207  1  0.25145686  0.12032022  0.58884729  1
  O  O208  1  0.25633979  0.13177740  0.89889661  1
  O  O209  1  0.24844304  0.40166190  0.11035368  1
  O  O210  1  0.24661800  0.37869646  0.39974980  1
  O  O211  1  0.25381402  0.37962458  0.61332819  1
  O  O212  1  0.24778974  0.40516174  0.88944342  1
  O  O213  1  0.25262845  0.60122200  0.10570715  1
  O  O214  1  0.24463483  0.61082599  0.41149656  1
  O  O215  1  0.25794185  0.60286491  0.60723359  1
  O  O216  1  0.24629844  0.60934240  0.90286043  1
  O  O217  1  0.26141417  0.90365249  0.12975843  1
  O  O218  1  0.24151454  0.89939962  0.36427089  1
  O  O219  1  0.23672292  0.92295456  0.64377904  1
  O  O220  1  0.25421127  0.91819244  0.85004941  1
  O  O221  1  0.50086301  0.14534627  0.14393622  1
  O  O222  1  0.50197196  0.13130851  0.34876140  1
  O  O223  1  0.50116354  0.10019398  0.63815132  1
  O  O224  1  0.48807099  0.15047567  0.83432356  1
  O  O225  1  0.48787873  0.35471542  0.14137325  1
  O  O226  1  0.49327275  0.37517039  0.36764945  1
  O  O227  1  0.50511636  0.34932649  0.66770476  1
  O  O228  1  0.49110768  0.33901977  0.86605656  1
  O  O229  1  0.49622607  0.62985756  0.15511813  1
  O  O230  1  0.49692287  0.64726676  0.36786814  1
  O  O231  1  0.50183421  0.63917008  0.64997807  1
  O  O232  1  0.49635361  0.64164815  0.83956805  1
  O  O233  1  0.49957654  0.86004785  0.09698987  1
  O  O234  1  0.49100524  0.85609437  0.38780142  1
  O  O235  1  0.51054214  0.87505720  0.59644574  1
  O  O236  1  0.50970087  0.88297359  0.90648610  1
  O  O237  1  0.74306759  0.09575938  0.11010503  1
  O  O238  1  0.76286455  0.12173248  0.39534399  1
  O  O239  1  0.76232296  0.09696983  0.58476052  1
  O  O240  1  0.75610936  0.11166221  0.90462830  1
  O  O241  1  0.76295424  0.39923844  0.10944803  1
  O  O242  1  0.74920254  0.37967386  0.40190654  1
  O  O243  1  0.73778441  0.38255456  0.58729265  1
  O  O244  1  0.74823517  0.40562047  0.88769453  1
  O  O245  1  0.74478984  0.60063063  0.11539856  1
  O  O246  1  0.75656249  0.60992052  0.39036952  1
  O  O247  1  0.75349189  0.61178568  0.60817399  1
  O  O248  1  0.75640524  0.61655643  0.87180319  1
  O  O249  1  0.73925617  0.90244591  0.13496280  1
  O  O250  1  0.74849916  0.88712591  0.34192289  1
  O  O251  1  0.76227075  0.89923275  0.64588971  1
  O  O252  1  0.75990366  0.87310632  0.84425902  1
  O  O253  1  0.12749832  -0.00816183  0.09742539  1
  O  O254  1  0.10157067  0.00452774  0.38912017  1
  O  O255  1  0.08615748  0.00197400  0.61380321  1
  O  O256  1  0.10694170  -0.00015259  0.90567632  1
  O  O257  1  0.15499300  0.25967671  0.14299633  1
  O  O258  1  0.11877690  0.25732614  0.34644042  1
  O  O259  1  0.12411729  0.25437232  0.62919071  1
  O  O260  1  0.12704652  0.26407344  0.87641647  1
  O  O261  1  0.11375375  0.49751930  0.13120973  1
  O  O262  1  0.10743320  0.50242577  0.39031919  1
  O  O263  1  0.11916946  0.49591989  0.61198091  1
  O  O264  1  0.09506221  0.49558351  0.89929004  1
  O  O265  1  0.15847683  0.75486417  0.13015973  1
  O  O266  1  0.13768548  0.75653869  0.36550967  1
  O  O267  1  0.15386565  0.76409240  0.64504674  1
  O  O268  1  0.15746884  0.76379656  0.86331127  1
  O  O269  1  0.40195080  0.00475544  0.10376836  1
  O  O270  1  0.38145032  -0.00570435  0.39411184  1
  O  O271  1  0.38067998  -0.00454479  0.59410967  1
  O  O272  1  0.39953309  0.00933183  0.90857020  1
  O  O273  1  0.34061023  0.25209308  0.13192119  1
  O  O274  1  0.36400375  0.25554218  0.37114709  1
  O  O275  1  0.36953516  0.25013192  0.67395820  1
  O  O276  1  0.35259804  0.26128468  0.84881311  1
  O  O277  1  0.39905829  0.50043925  0.11889168  1
  O  O278  1  0.37685119  0.49116166  0.40787582  1
  O  O279  1  0.38768535  0.49631789  0.60451779  1
  O  O280  1  0.41778259  0.49683556  0.89285438  1
  O  O281  1  0.35999336  0.75247057  0.14189747  1
  O  O282  1  0.33994986  0.75299490  0.37174772  1
  O  O283  1  0.35285637  0.74645586  0.63820210  1
  O  O284  1  0.36703895  0.76740427  0.87236835  1
  O  O285  1  0.59945063  -0.00619016  0.07560225  1
  O  O286  1  0.60367256  -0.01150447  0.38558676  1
  O  O287  1  0.63035389  -0.00870158  0.59116739  1
  O  O288  1  0.64184451  -0.00794207  0.88626023  1
  O  O289  1  0.64080646  0.23152089  0.15176087  1
  O  O290  1  0.62841923  0.25101786  0.35934951  1
  O  O291  1  0.65639558  0.24039452  0.63203614  1
  O  O292  1  0.66564153  0.25539686  0.87488754  1
  O  O293  1  0.61685759  0.50498766  0.13448509  1
  O  O294  1  0.62089214  0.49210271  0.40989511  1
  O  O295  1  0.61688433  0.50136641  0.60286243  1
  O  O296  1  0.59691617  0.50295518  0.86035871  1
  O  O297  1  0.63466074  0.75206145  0.12978765  1
  O  O298  1  0.62379784  0.75722180  0.36887866  1
  O  O299  1  0.63317216  0.75902913  0.65265006  1
  O  O300  1  0.62181188  0.75746464  0.84219988  1
  O  O301  1  0.88657318  0.00483500  0.14964493  1
  O  O302  1  0.89199830  0.00310051  0.33875056  1
  O  O303  1  0.90413588  -0.00367903  0.63111136  1
  O  O304  1  0.88734249  -0.00378860  0.86098414  1
  O  O305  1  0.85088741  0.25241185  0.12582733  1
  O  O306  1  0.88587304  0.25233374  0.36941183  1
  O  O307  1  0.85841994  0.23589909  0.60503431  1
  O  O308  1  0.85818710  0.24189688  0.86883242  1
  O  O309  1  0.89438416  0.49747633  0.16054229  1
  O  O310  1  0.88732970  0.50602763  0.35941588  1
  O  O311  1  0.89998822  0.51278748  0.64117020  1
  O  O312  1  0.89836591  0.51384623  0.83621894  1
  O  O313  1  0.83578693  0.75121641  0.10519764  1
  O  O314  1  0.85682746  0.75882587  0.40135886  1
  O  O315  1  0.85681224  0.76452099  0.59445312  1
  O  O316  1  0.85737140  0.75127693  0.90567261  1
