# generated using pymatgen
data_Mg32Ti42(Bi17O64)3
_symmetry_space_group_name_H-M   'P 1'
_cell_length_a   15.94046338
_cell_length_b   15.95235295
_cell_length_c   15.94535100
_cell_angle_alpha   90.05363507
_cell_angle_beta   90.06384603
_cell_angle_gamma   89.92765936
_symmetry_Int_Tables_number   1
_chemical_formula_structural   Mg32Ti42(Bi17O64)3
_chemical_formula_sum   'Mg32 Ti42 Bi51 O192'
_cell_volume   4054.70226747
_cell_formula_units_Z   1
loop_
 _symmetry_equiv_pos_site_id
 _symmetry_equiv_pos_as_xyz
  1  'x, y, z'
loop_
 _atom_site_type_symbol
 _atom_site_label
 _atom_site_symmetry_multiplicity
 _atom_site_fract_x
 _atom_site_fract_y
 _atom_site_fract_z
 _atom_site_occupancy
  Mg  Mg0  1  0.11765067  0.62244113  0.38049858  1
  Mg  Mg1  1  0.86831409  0.11810731  0.12601307  1
  Mg  Mg2  1  0.12055681  0.61322167  0.12420620  1
  Mg  Mg3  1  0.63000981  0.62579623  0.61953954  1
  Mg  Mg4  1  0.88043740  0.37348669  0.37469101  1
  Mg  Mg5  1  0.86761280  0.62432534  0.13071908  1
  Mg  Mg6  1  0.13446685  0.86709872  0.62351741  1
  Mg  Mg7  1  0.38952007  0.61496822  0.38266451  1
  Mg  Mg8  1  0.36694827  0.37427026  0.63006625  1
  Mg  Mg9  1  0.63779112  0.62559762  0.88428434  1
  Mg  Mg10  1  0.12594610  0.86964737  0.87615547  1
  Mg  Mg11  1  0.87387370  0.12748820  0.86378748  1
  Mg  Mg12  1  0.13836471  0.87656005  0.13487763  1
  Mg  Mg13  1  0.61951654  0.37123940  0.62909102  1
  Mg  Mg14  1  0.12462428  0.12383525  0.12177031  1
  Mg  Mg15  1  0.38242974  0.88831182  0.12936081  1
  Mg  Mg16  1  0.37800955  0.87473251  0.87199174  1
  Mg  Mg17  1  0.62047587  0.88496913  0.12273580  1
  Mg  Mg18  1  0.86685611  0.87516264  0.62299329  1
  Mg  Mg19  1  -0.02551529  0.30937382  0.54129130  1
  Mg  Mg20  1  0.81517928  0.28730422  0.71302111  1
  Mg  Mg21  1  0.68771590  -0.00764822  0.75818291  1
  Mg  Mg22  1  0.81472773  0.73524058  -0.01525242  1
  Mg  Mg23  1  0.52332220  0.74750490  0.53248547  1
  Mg  Mg24  1  0.75215834  0.48702946  0.75662716  1
  Mg  Mg25  1  0.00086124  0.79018171  0.53985778  1
  Mg  Mg26  1  0.46166215  0.49333335  0.53419020  1
  Mg  Mg27  1  0.52575061  0.05972111  0.25388400  1
  Mg  Mg28  1  0.43706753  0.21293318  0.29031746  1
  Mg  Mg29  1  0.74123412  0.47251457  0.03665334  1
  Mg  Mg30  1  0.52449228  0.00095822  -0.04145441  1
  Mg  Mg31  1  0.04735501  0.71845445  0.25136256  1
  Ti  Ti32  1  0.39320497  0.86404471  0.36721852  1
  Ti  Ti33  1  0.11972946  0.62314200  0.88079344  1
  Ti  Ti34  1  0.38122937  0.85646250  0.62152520  1
  Ti  Ti35  1  0.11995867  0.38805285  0.87797195  1
  Ti  Ti36  1  0.12575985  0.62720173  0.62152067  1
  Ti  Ti37  1  0.38476866  0.37900483  0.37583283  1
  Ti  Ti38  1  0.64889813  0.37449587  0.86963063  1
  Ti  Ti39  1  0.88896127  0.87147611  0.36344622  1
  Ti  Ti40  1  0.62727665  0.12850400  0.86232445  1
  Ti  Ti41  1  0.62968135  0.87836783  0.87548316  1
  Ti  Ti42  1  0.12834484  0.12053869  0.62460777  1
  Ti  Ti43  1  0.37956964  0.11714029  0.87524737  1
  Ti  Ti44  1  0.88211794  0.87237422  0.86549581  1
  Ti  Ti45  1  0.87972062  0.63464986  0.37058949  1
  Ti  Ti46  1  0.86820136  0.37687549  0.13585223  1
  Ti  Ti47  1  0.62333669  0.62854884  0.38654202  1
  Ti  Ti48  1  0.61879985  0.88446330  0.36982524  1
  Ti  Ti49  1  0.11751477  0.36677359  0.38015613  1
  Ti  Ti50  1  0.38549295  0.11825208  0.12286098  1
  Ti  Ti51  1  0.62749767  0.87611800  0.61862564  1
  Ti  Ti52  1  0.87749879  0.11741378  0.37830478  1
  Ti  Ti53  1  0.11470377  0.12120869  0.38945107  1
  Ti  Ti54  1  0.12637174  0.86291075  0.37104913  1
  Ti  Ti55  1  0.37346746  0.38226237  0.87706477  1
  Ti  Ti56  1  0.11568307  0.12524859  0.87744632  1
  Ti  Ti57  1  0.36279531  0.13175730  0.63092722  1
  Ti  Ti58  1  0.13123476  0.37844162  0.61768116  1
  Ti  Ti59  1  0.38316255  0.62141371  0.62381720  1
  Ti  Ti60  1  0.61657066  0.12402299  0.11340293  1
  Ti  Ti61  1  0.64474686  0.62448850  0.11812639  1
  Ti  Ti62  1  0.62193803  0.37560284  0.38283897  1
  Ti  Ti63  1  0.62032132  0.13142793  0.62751205  1
  Ti  Ti64  1  0.63693544  0.13542366  0.37470324  1
  Ti  Ti65  1  0.38593727  0.36335940  0.12101641  1
  Ti  Ti66  1  0.87596267  0.37809514  0.87325992  1
  Ti  Ti67  1  0.88165040  0.12347268  0.63326227  1
  Ti  Ti68  1  0.87801527  0.61765524  0.87258847  1
  Ti  Ti69  1  0.86905413  0.63800742  0.61239925  1
  Ti  Ti70  1  0.62214779  0.36322759  0.13314895  1
  Ti  Ti71  1  0.38423751  0.62730591  0.86657469  1
  Ti  Ti72  1  0.12310564  0.37081000  0.10915689  1
  Ti  Ti73  1  0.86154948  0.87062294  0.12138477  1
  Bi  Bi74  1  -0.01459772  -0.02712766  0.74843508  1
  Bi  Bi75  1  -0.02467339  0.48742038  0.01582828  1
  Bi  Bi76  1  0.24160420  -0.01936064  0.00358392  1
  Bi  Bi77  1  0.24114685  0.24617764  0.22557611  1
  Bi  Bi78  1  0.27918008  0.52839010  0.01491646  1
  Bi  Bi79  1  0.01368833  0.24210934  0.73842840  1
  Bi  Bi80  1  0.25168738  0.50261256  0.48234074  1
  Bi  Bi81  1  -0.00186991  -0.01919097  0.50488655  1
  Bi  Bi82  1  0.47130903  -0.00496623  0.72405283  1
  Bi  Bi83  1  -0.00234587  0.72489904  0.73914195  1
  Bi  Bi84  1  0.26882184  0.69617376  0.23597507  1
  Bi  Bi85  1  0.50164244  0.53263831  0.02508222  1
  Bi  Bi86  1  -0.02456366  0.48500473  0.71883516  1
  Bi  Bi87  1  0.76208684  0.22479888  -0.00485195  1
  Bi  Bi88  1  0.28631056  0.75313606  0.02446620  1
  Bi  Bi89  1  0.54626273  0.51133775  0.75052764  1
  Bi  Bi90  1  0.25616875  0.51187313  0.73637489  1
  Bi  Bi91  1  0.48707717  0.27157170  0.52275320  1
  Bi  Bi92  1  0.51721843  0.52426088  0.24966410  1
  Bi  Bi93  1  -0.00157637  0.21837101  0.24616237  1
  Bi  Bi94  1  0.48704696  0.04597055  0.47064842  1
  Bi  Bi95  1  0.49123731  0.74082852  0.21364829  1
  Bi  Bi96  1  0.75260481  0.51359561  0.27834793  1
  Bi  Bi97  1  0.51142379  0.78138633  -0.00834356  1
  Bi  Bi98  1  0.23523016  0.26770489  0.76646202  1
  Bi  Bi99  1  0.75637903  0.26578097  0.27555036  1
  Bi  Bi100  1  0.26375728  0.23406462  -0.01650234  1
  Bi  Bi101  1  0.53269802  0.75252744  0.76018175  1
  Bi  Bi102  1  0.73785113  0.77367079  0.48098000  1
  Bi  Bi103  1  0.01086186  -0.01517909  0.02111480  1
  Bi  Bi104  1  0.74551145  0.76110565  0.24468503  1
  Bi  Bi105  1  0.75130719  0.72733644  0.75729043  1
  Bi  Bi106  1  0.78430320  -0.00540477  -0.01488199  1
  Bi  Bi107  1  0.75363494  0.02475943  0.52066730  1
  Bi  Bi108  1  0.72955900  0.00412955  0.22268407  1
  Bi  Bi109  1  0.49016839  0.27341668  0.76111808  1
  Bi  Bi110  1  0.26708336  0.48657128  0.24186908  1
  Bi  Bi111  1  -0.02231627  0.23372681  0.01110307  1
  Bi  Bi112  1  -0.01083823  0.49799767  0.47941241  1
  Bi  Bi113  1  0.02686875  -0.00850065  0.25350377  1
  Bi  Bi114  1  0.23655702  0.73803880  0.77362250  1
  Bi  Bi115  1  0.01935775  0.74150542  0.04292640  1
  Bi  Bi116  1  0.27546811  -0.03306962  0.50416697  1
  Bi  Bi117  1  0.23444514  -0.01984567  0.76152833  1
  Bi  Bi118  1  0.02461585  0.50391515  0.25217886  1
  Bi  Bi119  1  0.51473414  0.24748729  -0.01393715  1
  Bi  Bi120  1  0.29063897  0.01564039  0.28115671  1
  Bi  Bi121  1  0.76497347  0.46609485  0.54936021  1
  Bi  Bi122  1  0.26293293  0.73113415  0.46749984  1
  Bi  Bi123  1  0.77619023  0.25882144  0.51604759  1
  Bi  Bi124  1  0.27052378  0.22546576  0.46496264  1
  O  O125  1  0.11199176  0.10353474  -0.00759827  1
  O  O126  1  0.10127582  0.11911132  0.25696671  1
  O  O127  1  0.11567562  0.12428432  0.50670487  1
  O  O128  1  0.13137285  0.15832632  0.74361327  1
  O  O129  1  0.14732938  0.38000962  -0.00140073  1
  O  O130  1  0.09453631  0.37640580  0.26444427  1
  O  O131  1  0.15541119  0.38943005  0.50566798  1
  O  O132  1  0.10675675  0.34951019  0.76076973  1
  O  O133  1  0.10439493  0.61871454  -0.00466828  1
  O  O134  1  0.12329370  0.60705869  0.25171790  1
  O  O135  1  0.12217268  0.60167328  0.50922833  1
  O  O136  1  0.12286630  0.65369987  0.75031069  1
  O  O137  1  0.12191056  0.90135915  -0.00160168  1
  O  O138  1  0.13826380  0.90709754  0.25939032  1
  O  O139  1  0.08785173  0.87178216  0.48982161  1
  O  O140  1  0.15996267  0.86522714  0.74899097  1
  O  O141  1  0.38915529  0.16185281  0.00721506  1
  O  O142  1  0.39453145  0.09666630  0.24994567  1
  O  O143  1  0.38561193  0.14607370  0.50934931  1
  O  O144  1  0.37116443  0.10898708  0.75563429  1
  O  O145  1  0.35476019  0.34672593  0.00852969  1
  O  O146  1  0.38087909  0.40883392  0.25842332  1
  O  O147  1  0.36081350  0.33894482  0.49707932  1
  O  O148  1  0.39657671  0.38367698  0.75987466  1
  O  O149  1  0.36935109  0.63097609  -0.00709710  1
  O  O150  1  0.35923045  0.59574153  0.26061367  1
  O  O151  1  0.36789066  0.64469893  0.50537092  1
  O  O152  1  0.37985027  0.60594764  0.74571665  1
  O  O153  1  0.38947103  0.84301290  -0.00117604  1
  O  O154  1  0.36963478  0.89655576  0.25734884  1
  O  O155  1  0.38526494  0.87262061  0.49799703  1
  O  O156  1  0.36737007  0.88782185  0.73900831  1
  O  O157  1  0.59255573  0.10344989  0.00052418  1
  O  O158  1  0.63927418  0.12904064  0.25734055  1
  O  O159  1  0.61711182  0.10841294  0.50092392  1
  O  O160  1  0.64368844  0.12014319  0.74834313  1
  O  O161  1  0.65792719  0.39376913  -0.01842387  1
  O  O162  1  0.61773652  0.35162374  0.24298305  1
  O  O163  1  0.64121868  0.37913322  0.49454384  1
  O  O164  1  0.58799252  0.37248827  0.75510888  1
  O  O165  1  0.60738204  0.62105779  0.00484678  1
  O  O166  1  0.64089292  0.59876533  0.24221301  1
  O  O167  1  0.60106173  0.65004629  0.49535975  1
  O  O168  1  0.62716730  0.64495495  0.75292109  1
  O  O169  1  0.59853811  0.89795384  -0.00685954  1
  O  O170  1  0.65266438  0.87613529  0.25669304  1
  O  O171  1  0.60442857  0.84734430  0.49769971  1
  O  O172  1  0.62497244  0.87156031  0.74603499  1
  O  O173  1  0.87126312  0.13351967  -0.00396715  1
  O  O174  1  0.87749122  0.13703256  0.25312521  1
  O  O175  1  0.87073458  0.11406329  0.49885155  1
  O  O176  1  0.85700414  0.16257200  0.74140063  1
  O  O177  1  0.85112353  0.42287094  -0.01116539  1
  O  O178  1  0.88160033  0.35060919  0.24618107  1
  O  O179  1  0.86013933  0.37971953  0.49994010  1
  O  O180  1  0.90750073  0.35922017  0.75812663  1
  O  O181  1  0.89324976  0.62734332  -0.00967147  1
  O  O182  1  0.83647652  0.62863236  0.25781723  1
  O  O183  1  0.88225881  0.61741520  0.49792442  1
  O  O184  1  0.86834995  0.65367481  0.74756803  1
  O  O185  1  0.84903254  0.86632700  -0.00999661  1
  O  O186  1  0.84648577  0.87329305  0.24434557  1
  O  O187  1  0.91008973  0.87140878  0.48770217  1
  O  O188  1  0.87220039  0.88160509  0.74864397  1
  O  O189  1  -0.00689869  0.14988256  0.12269665  1
  O  O190  1  -0.00769431  0.15049884  0.37659995  1
  O  O191  1  -0.00005041  0.11235890  0.64356892  1
  O  O192  1  0.00352550  0.15018693  0.86256812  1
  O  O193  1  -0.00624631  0.36128694  0.09050107  1
  O  O194  1  0.00468013  0.35877967  0.42530976  1
  O  O195  1  0.00838620  0.41233804  0.60638664  1
  O  O196  1  -0.00319870  0.38160091  0.90291192  1
  O  O197  1  -0.01010493  0.65713230  0.14542032  1
  O  O198  1  -0.01098758  0.65076946  0.34886041  1
  O  O199  1  -0.00386865  0.60997648  0.64568261  1
  O  O200  1  0.00007332  0.62888844  0.85142170  1
  O  O201  1  -0.01703443  0.86265484  0.10861885  1
  O  O202  1  -0.00510017  0.84879341  0.33089329  1
  O  O203  1  0.00543475  0.89683974  0.63223538  1
  O  O204  1  0.00160961  0.87522123  0.85077782  1
  O  O205  1  0.25841378  0.13526758  0.13613339  1
  O  O206  1  0.23351331  0.10802370  0.38092320  1
  O  O207  1  0.24952404  0.15390662  0.62072982  1
  O  O208  1  0.26074517  0.11268111  0.89676775  1
  O  O209  1  0.24305159  0.36990544  0.15046354  1
  O  O210  1  0.24621404  0.41525437  0.36694134  1
  O  O211  1  0.24318848  0.36446752  0.65577946  1
  O  O212  1  0.24676446  0.38576621  0.85066741  1
  O  O213  1  0.24472361  0.61989360  0.11608721  1
  O  O214  1  0.24653992  0.61552122  0.39139592  1
  O  O215  1  0.24793813  0.63358505  0.64140971  1
  O  O216  1  0.24594869  0.60753266  0.85544900  1
  O  O217  1  0.25816475  0.87964244  0.09740419  1
  O  O218  1  0.23974230  0.87781976  0.40036213  1
  O  O219  1  0.26074121  0.86026422  0.59797489  1
  O  O220  1  0.25634058  0.90820361  0.88658617  1
  O  O221  1  0.50377168  0.14328434  0.14787763  1
  O  O222  1  0.50970131  0.14021245  0.36763723  1
  O  O223  1  0.50425823  0.09749907  0.63227027  1
  O  O224  1  0.49846808  0.15863391  0.86922219  1
  O  O225  1  0.49924629  0.35731788  0.10536928  1
  O  O226  1  0.49664466  0.34039529  0.37858078  1
  O  O227  1  0.49529707  0.39040821  0.59323850  1
  O  O228  1  0.49085066  0.35296346  0.89394558  1
  O  O229  1  0.50735817  0.62239194  0.13760350  1
  O  O230  1  0.50878492  0.62717352  0.34520627  1
  O  O231  1  0.49527471  0.58861770  0.61317893  1
  O  O232  1  0.49955480  0.62527220  0.87052772  1
  O  O233  1  0.50312815  0.84284047  0.12446016  1
  O  O234  1  0.50390470  0.84317153  0.35739035  1
  O  O235  1  0.49755072  0.90023214  0.62679971  1
  O  O236  1  0.50227207  0.85963167  0.86805004  1
  O  O237  1  0.73907892  0.10694813  0.11442211  1
  O  O238  1  0.74886715  0.09310038  0.38468029  1
  O  O239  1  0.74509010  0.13888976  0.60352596  1
  O  O240  1  0.73940308  0.11788861  0.89289575  1
  O  O241  1  0.74898613  0.39120054  0.13464231  1
  O  O242  1  0.74499313  0.38188576  0.35253266  1
  O  O243  1  0.74619899  0.35321726  0.62969976  1
  O  O244  1  0.75496611  0.37085323  0.81968646  1
  O  O245  1  0.74933025  0.58434213  0.09641751  1
  O  O246  1  0.73883422  0.58858085  0.39210354  1
  O  O247  1  0.75435904  0.66017786  0.62344565  1
  O  O248  1  0.76116265  0.65325915  0.88322109  1
  O  O249  1  0.74328898  0.91305730  0.11499817  1
  O  O250  1  0.73862809  0.88734110  0.40490468  1
  O  O251  1  0.74310661  0.85734229  0.60088861  1
  O  O252  1  0.74078453  0.91277757  0.86111692  1
  O  O253  1  0.09425254  0.00015209  0.12900655  1
  O  O254  1  0.08615289  0.00322208  0.38536466  1
  O  O255  1  0.14955470  0.00902911  0.63654997  1
  O  O256  1  0.11940653  0.01186344  0.83686479  1
  O  O257  1  0.12629399  0.25311327  0.13137321  1
  O  O258  1  0.14240078  0.25226451  0.37936477  1
  O  O259  1  0.08327416  0.26702278  0.61114967  1
  O  O260  1  0.15105687  0.24670547  0.88645979  1
  O  O261  1  0.09865359  0.48730487  0.12808948  1
  O  O262  1  0.08929527  0.49612105  0.38114206  1
  O  O263  1  0.13782507  0.50145344  0.65713923  1
  O  O264  1  0.11646577  0.49939581  0.86135987  1
  O  O265  1  0.11960371  0.75318843  0.13942831  1
  O  O266  1  0.13557283  0.74991814  0.35477743  1
  O  O267  1  0.09581947  0.74301455  0.61102285  1
  O  O268  1  0.15315408  0.74413788  0.88632692  1
  O  O269  1  0.38402436  0.01065730  0.09672446  1
  O  O270  1  0.37070428  -0.01063055  0.39199236  1
  O  O271  1  0.36416009  0.01047419  0.61948531  1
  O  O272  1  0.41211801  0.00998562  0.89984484  1
  O  O273  1  0.37369675  0.25584758  0.17761811  1
  O  O274  1  0.34102657  0.26272691  0.35229842  1
  O  O275  1  0.40366248  0.24729571  0.64250947  1
  O  O276  1  0.34759547  0.25248102  0.86894305  1
  O  O277  1  0.37211129  0.48476784  0.10700704  1
  O  O278  1  0.39631265  0.48973426  0.42471296  1
  O  O279  1  0.35194527  0.50176561  0.60592913  1
  O  O280  1  0.37585256  0.49595160  0.90070031  1
  O  O281  1  0.36309401  0.74967827  0.14863295  1
  O  O282  1  0.35423215  0.74936794  0.36372152  1
  O  O283  1  0.41611250  0.74638480  0.62404196  1
  O  O284  1  0.35941359  0.74112713  0.86171480  1
  O  O285  1  0.60323862  0.00857039  0.15851940  1
  O  O286  1  0.58537997  -0.00501684  0.36338721  1
  O  O287  1  0.65190918  -0.00542157  0.63515322  1
  O  O288  1  0.60082185  0.00763039  0.85641523  1
  O  O289  1  0.63523321  0.24804313  0.09742945  1
  O  O290  1  0.65642630  0.24741936  0.38189263  1
  O  O291  1  0.59433334  0.24286970  0.62856781  1
  O  O292  1  0.63208052  0.25141622  0.88677418  1
  O  O293  1  0.60202543  0.48700100  0.11720904  1
  O  O294  1  0.60559996  0.48847023  0.36113344  1
  O  O295  1  0.65431633  0.50100403  0.66055206  1
  O  O296  1  0.64790222  0.49951062  0.84415237  1
  O  O297  1  0.64174685  0.73956844  0.13985764  1
  O  O298  1  0.65325885  0.73960221  0.36081710  1
  O  O299  1  0.59639020  0.75586838  0.63337793  1
  O  O300  1  0.63119356  0.76156836  0.87488092  1
  O  O301  1  0.88560480  -0.00614519  0.10407754  1
  O  O302  1  0.89844098  -0.00553722  0.37191842  1
  O  O303  1  0.85956299  0.00658978  0.62490059  1
  O  O304  1  0.88749987  -0.00044472  0.88462193  1
  O  O305  1  0.86114261  0.26226447  0.09389609  1
  O  O306  1  0.84450791  0.24278288  0.38158433  1
  O  O307  1  0.88547638  0.24636124  0.60344619  1
  O  O308  1  0.86180631  0.26612618  0.90145575  1
  O  O309  1  0.89938225  0.49435013  0.13547588  1
  O  O310  1  0.89649502  0.50399456  0.36667249  1
  O  O311  1  0.84820032  0.51239405  0.65442736  1
  O  O312  1  0.85813096  0.50680810  0.83945229  1
  O  O313  1  0.83335273  0.75363324  0.11080106  1
  O  O314  1  0.84379586  0.75317146  0.37628691  1
  O  O315  1  0.90664261  0.75053383  0.61352081  1
  O  O316  1  0.87884170  0.75745859  0.87568084  1
