# generated using pymatgen
data_Mg32Ti42(Bi17O64)3
_symmetry_space_group_name_H-M   'P 1'
_cell_length_a   15.96527078
_cell_length_b   15.97907286
_cell_length_c   15.96609074
_cell_angle_alpha   90.12036806
_cell_angle_beta   89.90589997
_cell_angle_gamma   90.15230657
_symmetry_Int_Tables_number   1
_chemical_formula_structural   Mg32Ti42(Bi17O64)3
_chemical_formula_sum   'Mg32 Ti42 Bi51 O192'
_cell_volume   4073.08416388
_cell_formula_units_Z   1
loop_
 _symmetry_equiv_pos_site_id
 _symmetry_equiv_pos_as_xyz
  1  'x, y, z'
loop_
 _atom_site_type_symbol
 _atom_site_label
 _atom_site_symmetry_multiplicity
 _atom_site_fract_x
 _atom_site_fract_y
 _atom_site_fract_z
 _atom_site_occupancy
  Mg  Mg0  1  0.63334121  0.87542776  0.36643647  1
  Mg  Mg1  1  0.88706249  0.63405650  0.87933408  1
  Mg  Mg2  1  0.88067934  0.13350748  0.37659568  1
  Mg  Mg3  1  0.37430499  0.62439962  0.12612074  1
  Mg  Mg4  1  0.11924949  0.13187912  0.61739359  1
  Mg  Mg5  1  0.13657677  0.36387517  0.61666357  1
  Mg  Mg6  1  0.37555079  0.37788343  0.12903249  1
  Mg  Mg7  1  0.63962597  0.13281174  0.63980631  1
  Mg  Mg8  1  0.37445105  0.62917286  0.87646345  1
  Mg  Mg9  1  0.62239477  0.62848566  0.87359914  1
  Mg  Mg10  1  0.12206871  0.87650778  0.86484374  1
  Mg  Mg11  1  0.63259967  0.37337623  0.12464364  1
  Mg  Mg12  1  0.63163649  0.62477628  0.13755409  1
  Mg  Mg13  1  0.63229823  0.61906156  0.62041886  1
  Mg  Mg14  1  0.87825742  0.87133843  0.13065381  1
  Mg  Mg15  1  0.37889871  0.36605789  0.37772801  1
  Mg  Mg16  1  0.86758707  0.12323401  0.63742074  1
  Mg  Mg17  1  0.88696037  0.13188448  0.12585993  1
  Mg  Mg18  1  0.37265813  0.62709214  0.37911323  1
  Mg  Mg19  1  -0.01490711  0.81255361  0.73555219  1
  Mg  Mg20  1  -0.00284629  -0.00641375  0.30401579  1
  Mg  Mg21  1  -0.03300410  0.24948458  0.54015803  1
  Mg  Mg22  1  0.69290542  0.80148393  0.51472920  1
  Mg  Mg23  1  0.30709588  0.49354212  0.49617195  1
  Mg  Mg24  1  0.30581715  0.21858788  0.57000815  1
  Mg  Mg25  1  0.74039906  0.05076038  0.79737056  1
  Mg  Mg26  1  0.00049407  0.72381157  0.30053805  1
  Mg  Mg27  1  -0.01967893  0.28702566  -0.06236651  1
  Mg  Mg28  1  -0.05905361  0.46197613  -0.03104058  1
  Mg  Mg29  1  0.23433875  0.24221579  0.31424681  1
  Mg  Mg30  1  0.75597415  0.25209655  0.55795433  1
  Mg  Mg31  1  0.74820871  0.48019827  0.27678782  1
  Ti  Ti32  1  0.11764524  0.62137224  0.13620130  1
  Ti  Ti33  1  0.37795002  0.86162390  0.87290846  1
  Ti  Ti34  1  0.63269666  0.36273734  0.37325714  1
  Ti  Ti35  1  0.87829029  0.88408102  0.87294314  1
  Ti  Ti36  1  0.63808125  0.87313195  0.11841983  1
  Ti  Ti37  1  0.37788571  0.87254035  0.37211607  1
  Ti  Ti38  1  0.13082900  0.38296446  0.88769966  1
  Ti  Ti39  1  0.62993371  0.87107397  0.87873289  1
  Ti  Ti40  1  0.12073748  0.36568088  0.38473170  1
  Ti  Ti41  1  0.88382294  0.11671273  0.87459542  1
  Ti  Ti42  1  0.11849656  0.87574217  0.62030300  1
  Ti  Ti43  1  0.38055796  0.38315951  0.61903382  1
  Ti  Ti44  1  0.62898359  0.13180672  0.12488871  1
  Ti  Ti45  1  0.61771982  0.37809507  0.87640388  1
  Ti  Ti46  1  0.88343282  0.38151436  0.13510629  1
  Ti  Ti47  1  0.63857243  0.62753070  0.37165042  1
  Ti  Ti48  1  0.12545336  0.61585433  0.37862342  1
  Ti  Ti49  1  0.12815579  0.87868610  0.13773360  1
  Ti  Ti50  1  0.36821399  0.86463085  0.63828777  1
  Ti  Ti51  1  0.13167270  0.36750138  0.11875696  1
  Ti  Ti52  1  0.11390453  0.86647076  0.37892233  1
  Ti  Ti53  1  0.12278216  0.11773114  0.38368964  1
  Ti  Ti54  1  0.13292156  0.12687552  0.12523291  1
  Ti  Ti55  1  0.62219811  0.14691244  0.88496311  1
  Ti  Ti56  1  0.62915916  0.12034143  0.36574751  1
  Ti  Ti57  1  0.87026975  0.38010497  0.63158964  1
  Ti  Ti58  1  0.38491611  0.37280752  0.87306842  1
  Ti  Ti59  1  0.12199020  0.62053226  0.88990994  1
  Ti  Ti60  1  0.11934943  0.61678246  0.63335743  1
  Ti  Ti61  1  0.87126854  0.62635408  0.63162773  1
  Ti  Ti62  1  0.37899964  0.62060254  0.61918023  1
  Ti  Ti63  1  0.87232290  0.87618527  0.61160753  1
  Ti  Ti64  1  0.61981125  0.37726281  0.63800000  1
  Ti  Ti65  1  0.36787767  0.12214715  0.87863110  1
  Ti  Ti66  1  0.37390617  0.87741991  0.11995585  1
  Ti  Ti67  1  0.12998844  0.12984368  0.88488985  1
  Ti  Ti68  1  0.89327437  0.62470442  0.12002444  1
  Ti  Ti69  1  0.87842699  0.61285355  0.39013088  1
  Ti  Ti70  1  0.86510741  0.86748408  0.37916210  1
  Ti  Ti71  1  0.36955851  0.12606969  0.38308247  1
  Ti  Ti72  1  0.87818564  0.37465354  0.38236250  1
  Ti  Ti73  1  0.37295123  0.11827920  0.12659707  1
  Bi  Bi74  1  0.52767622  0.00625475  0.77098332  1
  Bi  Bi75  1  0.47564086  0.23297271  0.26371493  1
  Bi  Bi76  1  0.26518219  0.51134092  0.76312131  1
  Bi  Bi77  1  0.78487816  0.00543844  0.25017287  1
  Bi  Bi78  1  0.01911850  0.77216332  0.00886771  1
  Bi  Bi79  1  0.51995208  0.51405661  0.47726637  1
  Bi  Bi80  1  -0.01787406  0.02500125  0.51835446  1
  Bi  Bi81  1  0.52300552  -0.01622851  0.54586547  1
  Bi  Bi82  1  0.49561567  0.26168241  0.03218543  1
  Bi  Bi83  1  0.02378222  0.22781977  0.25050764  1
  Bi  Bi84  1  0.75414534  0.77153294  0.73547976  1
  Bi  Bi85  1  0.75378993  0.51685913  0.03236229  1
  Bi  Bi86  1  0.77980860  0.26708146  0.78829560  1
  Bi  Bi87  1  0.49731252  0.73206980  0.23716249  1
  Bi  Bi88  1  0.26441600  0.47406454  0.27682232  1
  Bi  Bi89  1  0.51397615  0.21362470  0.51821827  1
  Bi  Bi90  1  0.27127993  0.03937085  0.71935861  1
  Bi  Bi91  1  0.76471345  0.73979786  -0.02761555  1
  Bi  Bi92  1  0.25446317  -0.03139336  -0.01809912  1
  Bi  Bi93  1  0.24797451  -0.01377121  0.27489962  1
  Bi  Bi94  1  0.02249394  0.47371789  0.25057155  1
  Bi  Bi95  1  0.77807621  0.27407139  0.01133517  1
  Bi  Bi96  1  0.79168995  0.72736184  0.24576496  1
  Bi  Bi97  1  0.26770710  0.25144207  0.02461349  1
  Bi  Bi98  1  0.51201057  0.75953500  0.48458548  1
  Bi  Bi99  1  0.51685512  0.51048757  0.01653557  1
  Bi  Bi100  1  0.48177618  0.22131299  0.73641707  1
  Bi  Bi101  1  0.03536477  0.01673811  0.75325969  1
  Bi  Bi102  1  0.27290418  0.50424999  0.00867494  1
  Bi  Bi103  1  0.25092388  0.73314136  0.02147279  1
  Bi  Bi104  1  0.73177429  0.01932144  0.51771198  1
  Bi  Bi105  1  0.52350622  -0.02745176  0.24566451  1
  Bi  Bi106  1  0.02661075  0.25725217  0.74054544  1
  Bi  Bi107  1  0.23891294  0.72656790  0.51551293  1
  Bi  Bi108  1  -0.01016504  0.73441566  0.51477720  1
  Bi  Bi109  1  0.73795702  0.48490891  0.51337446  1
  Bi  Bi110  1  0.78376135  0.00511031  0.01802876  1
  Bi  Bi111  1  0.52673571  0.73477678  0.00826601  1
  Bi  Bi112  1  0.77018283  0.23026424  0.25340329  1
  Bi  Bi113  1  0.52982654  0.76198702  0.71513117  1
  Bi  Bi114  1  -0.02384729  0.49469287  0.78347256  1
  Bi  Bi115  1  0.50829313  0.52891417  0.76191426  1
  Bi  Bi116  1  0.51526362  0.46082358  0.24457102  1
  Bi  Bi117  1  0.01009265  0.48403809  0.53161873  1
  Bi  Bi118  1  0.22333001  0.73898544  0.75497608  1
  Bi  Bi119  1  0.76069952  0.52270051  0.78094344  1
  Bi  Bi120  1  0.01288465  -0.00431726  0.03300534  1
  Bi  Bi121  1  0.26806623  0.73127269  0.25405336  1
  Bi  Bi122  1  0.25554868  0.27547548  0.75589205  1
  Bi  Bi123  1  0.26670797  -0.02936478  0.50389349  1
  Bi  Bi124  1  0.51466948  0.01084497  0.00935943  1
  O  O125  1  0.11986263  0.10520354  -0.00255924  1
  O  O126  1  0.14845586  0.16205007  0.23966531  1
  O  O127  1  0.10426100  0.10062168  0.49373415  1
  O  O128  1  0.10621395  0.14372918  0.75330736  1
  O  O129  1  0.11655292  0.39574304  0.00128000  1
  O  O130  1  0.12610809  0.37173174  0.24242538  1
  O  O131  1  0.11405551  0.38676899  0.49454019  1
  O  O132  1  0.13223409  0.34810811  0.75021085  1
  O  O133  1  0.15577421  0.61201791  0.00023777  1
  O  O134  1  0.08982877  0.64838501  0.24495037  1
  O  O135  1  0.14898828  0.61514814  0.49195289  1
  O  O136  1  0.11306310  0.64496628  0.74561044  1
  O  O137  1  0.09851950  0.89559781  -0.00980672  1
  O  O138  1  0.15156546  0.86976840  0.24728141  1
  O  O139  1  0.10733859  0.89195635  0.49376147  1
  O  O140  1  0.11586306  0.83762535  0.73790969  1
  O  O141  1  0.37945416  0.14986073  -0.01015000  1
  O  O142  1  0.38359114  0.11592249  0.24024381  1
  O  O143  1  0.37471387  0.14828899  0.49384358  1
  O  O144  1  0.39233400  0.11640498  0.75531793  1
  O  O145  1  0.38669119  0.35795005  -0.01093905  1
  O  O146  1  0.37240664  0.39503449  0.25134294  1
  O  O147  1  0.38011744  0.38670321  0.50315564  1
  O  O148  1  0.34601180  0.38759450  0.74875496  1
  O  O149  1  0.34220473  0.62722329  0.00021382  1
  O  O150  1  0.38269545  0.64844325  0.25191290  1
  O  O151  1  0.33983278  0.61810793  0.50435582  1
  O  O152  1  0.38190548  0.60342503  0.74374682  1
  O  O153  1  0.37897450  0.88455636  -0.00458449  1
  O  O154  1  0.34846192  0.88639930  0.24522263  1
  O  O155  1  0.37868944  0.88739406  0.49243740  1
  O  O156  1  0.34908575  0.86685284  0.74990778  1
  O  O157  1  0.62355578  0.09797292  -0.00304611  1
  O  O158  1  0.60822208  0.14509802  0.24243325  1
  O  O159  1  0.60864858  0.10744595  0.48388453  1
  O  O160  1  0.63541572  0.12522845  0.76398225  1
  O  O161  1  0.59748744  0.39323626  -0.00945233  1
  O  O162  1  0.64867291  0.39160413  0.25290997  1
  O  O163  1  0.61986065  0.40472603  0.48931996  1
  O  O164  1  0.63915408  0.35277259  0.74791912  1
  O  O165  1  0.61432413  0.61700479  0.00307785  1
  O  O166  1  0.61468297  0.65880446  0.26015590  1
  O  O167  1  0.63590424  0.58893954  0.49517511  1
  O  O168  1  0.59875761  0.63951731  0.74395053  1
  O  O169  1  0.60084210  0.89137604  -0.00303303  1
  O  O170  1  0.62535644  0.87221664  0.23842582  1
  O  O171  1  0.59939054  0.88482413  0.49051135  1
  O  O172  1  0.63318848  0.84155443  0.75411927  1
  O  O173  1  0.87411460  0.11498604  -0.00164300  1
  O  O174  1  0.85864882  0.12494661  0.25033435  1
  O  O175  1  0.91432303  0.14102708  0.49636121  1
  O  O176  1  0.84135555  0.11629003  0.75872566  1
  O  O177  1  0.89861168  0.34710368  0.00848813  1
  O  O178  1  0.85590157  0.41775101  0.24313834  1
  O  O179  1  0.89997170  0.35162230  0.49274907  1
  O  O180  1  0.85322650  0.39101372  0.74399394  1
  O  O181  1  0.84668090  0.62924662  0.00388563  1
  O  O182  1  0.89893857  0.63182845  0.24170737  1
  O  O183  1  0.86692703  0.64434323  0.49897492  1
  O  O184  1  0.89071386  0.61061862  0.74702168  1
  O  O185  1  0.88941307  0.90427317  -0.00666115  1
  O  O186  1  0.83936033  0.86690559  0.25475551  1
  O  O187  1  0.90315681  0.85803336  0.49646497  1
  O  O188  1  0.86193380  0.86440530  0.74275026  1
  O  O189  1  0.01242095  0.13721430  0.14088606  1
  O  O190  1  0.00642991  0.11971655  0.33691108  1
  O  O191  1  -0.00739055  0.09223033  0.63595046  1
  O  O192  1  -0.00518934  0.09452265  0.87021876  1
  O  O193  1  -0.00105556  0.37627222  0.14570998  1
  O  O194  1  -0.00121486  0.37725912  0.35246649  1
  O  O195  1  -0.00834562  0.39371206  0.63375972  1
  O  O196  1  0.00551147  0.39585224  0.87762712  1
  O  O197  1  0.00341265  0.63781306  0.09094856  1
  O  O198  1  0.00009678  0.63017734  0.38908801  1
  O  O199  1  0.00409358  0.61279182  0.59836722  1
  O  O200  1  0.00713451  0.58536758  0.88842468  1
  O  O201  1  0.00611370  0.88206511  0.12643137  1
  O  O202  1  0.00258068  0.87058142  0.33912883  1
  O  O203  1  -0.00103427  0.89273429  0.63579512  1
  O  O204  1  -0.01011161  0.88527109  0.84304262  1
  O  O205  1  0.25377617  0.13082916  0.10499605  1
  O  O206  1  0.24254338  0.12535155  0.37303188  1
  O  O207  1  0.24199436  0.13971059  0.63562622  1
  O  O208  1  0.24698732  0.14847844  0.87366901  1
  O  O209  1  0.24839065  0.37610443  0.10823164  1
  O  O210  1  0.23971614  0.36595423  0.36500597  1
  O  O211  1  0.26022033  0.32899565  0.61637959  1
  O  O212  1  0.24478750  0.34677653  0.88219092  1
  O  O213  1  0.23886066  0.64396592  0.14179530  1
  O  O214  1  0.23760279  0.62941628  0.34255649  1
  O  O215  1  0.24156212  0.65384746  0.63867464  1
  O  O216  1  0.24270523  0.63623044  0.84835105  1
  O  O217  1  0.24232649  0.88080215  0.09665557  1
  O  O218  1  0.24161902  0.89287995  0.38203773  1
  O  O219  1  0.24419847  0.85723483  0.59617146  1
  O  O220  1  0.25029765  0.86265057  0.89171969  1
  O  O221  1  0.49766899  0.13053231  0.10487911  1
  O  O222  1  0.49273958  0.14436756  0.36982537  1
  O  O223  1  0.51434875  0.12963862  0.62628784  1
  O  O224  1  0.50345235  0.09423862  0.87845015  1
  O  O225  1  0.50451832  0.35615588  0.14006046  1
  O  O226  1  0.50941396  0.36034037  0.35037743  1
  O  O227  1  0.50301629  0.39590371  0.63701520  1
  O  O228  1  0.49533565  0.39973440  0.85097129  1
  O  O229  1  0.49939579  0.65103994  0.12545066  1
  O  O230  1  0.50009873  0.63803338  0.40451615  1
  O  O231  1  0.48944893  0.59615097  0.60365971  1
  O  O232  1  0.49628150  0.59317580  0.88079478  1
  O  O233  1  0.48847576  0.86760055  0.14048956  1
  O  O234  1  0.49207927  0.86965133  0.35056693  1
  O  O235  1  0.48476217  0.88634667  0.64074677  1
  O  O236  1  0.49608412  0.89695493  0.85324839  1
  O  O237  1  0.74247388  0.11371994  0.13058535  1
  O  O238  1  0.74520404  0.12008234  0.36885457  1
  O  O239  1  0.75304634  0.13379265  0.58686068  1
  O  O240  1  0.73985578  0.15515413  0.88613728  1
  O  O241  1  0.75553786  0.38622145  0.09262812  1
  O  O242  1  0.75423077  0.39986085  0.38270872  1
  O  O243  1  0.75423349  0.36919025  0.59485437  1
  O  O244  1  0.73585663  0.34611444  0.89440979  1
  O  O245  1  0.75550821  0.58675019  0.14963713  1
  O  O246  1  0.75504121  0.60274472  0.34987897  1
  O  O247  1  0.75961899  0.64382498  0.64183154  1
  O  O248  1  0.74995387  0.64242364  0.86151796  1
  O  O249  1  0.74803385  0.88463452  0.10058054  1
  O  O250  1  0.75540606  0.86911411  0.41189274  1
  O  O251  1  0.76347227  0.83386702  0.60942857  1
  O  O252  1  0.74673672  0.85256150  0.88099361  1
  O  O253  1  0.12411044  0.00523508  0.13387070  1
  O  O254  1  0.11712394  0.00310569  0.34599356  1
  O  O255  1  0.14409389  -0.01000974  0.64672952  1
  O  O256  1  0.14148188  0.00941207  0.84857482  1
  O  O257  1  0.13450319  0.25385365  0.09866233  1
  O  O258  1  0.11877503  0.24684398  0.37680151  1
  O  O259  1  0.07278626  0.24851664  0.61026165  1
  O  O260  1  0.08955990  0.24744861  0.88982212  1
  O  O261  1  0.12163144  0.50746789  0.14502383  1
  O  O262  1  0.12224102  0.49958791  0.35722950  1
  O  O263  1  0.12712349  0.50237011  0.62650101  1
  O  O264  1  0.15047910  0.49495945  0.85853863  1
  O  O265  1  0.12298138  0.75894373  0.09958076  1
  O  O266  1  0.11523798  0.75139169  0.38138607  1
  O  O267  1  0.11244893  0.74850553  0.59240742  1
  O  O268  1  0.10381290  0.73848295  0.90006468  1
  O  O269  1  0.37169930  0.00259638  0.10691764  1
  O  O270  1  0.35869275  0.00547989  0.37463593  1
  O  O271  1  0.34922376  -0.01288181  0.62011376  1
  O  O272  1  0.35132597  0.00790395  0.88172232  1
  O  O273  1  0.37323617  0.24820843  0.12002506  1
  O  O274  1  0.35857908  0.24323018  0.34462381  1
  O  O275  1  0.40770960  0.26160816  0.62966233  1
  O  O276  1  0.38794196  0.25392317  0.84409594  1
  O  O277  1  0.38003012  0.50133007  0.10083251  1
  O  O278  1  0.35111865  0.50044967  0.38038522  1
  O  O279  1  0.33797142  0.49845535  0.61794593  1
  O  O280  1  0.34166133  0.49246951  0.88093226  1
  O  O281  1  0.35500542  0.75937518  0.12006654  1
  O  O282  1  0.35594202  0.75954844  0.37620062  1
  O  O283  1  0.38419222  0.74466904  0.61631298  1
  O  O284  1  0.39578196  0.75337673  0.87737613  1
  O  O285  1  0.60294912  -0.00099553  0.12931011  1
  O  O286  1  0.62164029  0.00412703  0.34303301  1
  O  O287  1  0.63954259  0.00348428  0.61871483  1
  O  O288  1  0.64294318  -0.01261419  0.84897652  1
  O  O289  1  0.63469807  0.24566757  0.09587335  1
  O  O290  1  0.64036269  0.25195162  0.38234018  1
  O  O291  1  0.62967108  0.25886438  0.59770076  1
  O  O292  1  0.58683422  0.25323110  0.88783812  1
  O  O293  1  0.60036726  0.50117519  0.12800570  1
  O  O294  1  0.60272408  0.51223727  0.35593270  1
  O  O295  1  0.65517758  0.49252394  0.63617318  1
  O  O296  1  0.64237877  0.49460535  0.85391483  1
  O  O297  1  0.63098024  0.75614594  0.09975539  1
  O  O298  1  0.63351262  0.74372586  0.41407164  1
  O  O299  1  0.59937370  0.74075368  0.59475565  1
  O  O300  1  0.61060587  0.75278944  0.89840193  1
  O  O301  1  0.86925083  0.00093703  0.13471029  1
  O  O302  1  0.88263889  -0.00902535  0.35930104  1
  O  O303  1  0.85189546  -0.00971853  0.59669475  1
  O  O304  1  0.83386928  -0.00047554  0.87127866  1
  O  O305  1  0.85647389  0.26002574  0.14660606  1
  O  O306  1  0.86679000  0.26221475  0.34591555  1
  O  O307  1  0.87247972  0.25634758  0.62838012  1
  O  O308  1  0.89214267  0.23718876  0.86519495  1
  O  O309  1  0.88889103  0.49797484  0.08235829  1
  O  O310  1  0.88719722  0.50009587  0.39867788  1
  O  O311  1  0.86898633  0.50365439  0.60452959  1
  O  O312  1  0.86436597  0.50310313  0.87455487  1
  O  O313  1  0.86382708  0.74327104  0.12410890  1
  O  O314  1  0.88119149  0.74598179  0.35578087  1
  O  O315  1  0.91667180  0.74616816  0.63584598  1
  O  O316  1  0.88138061  0.76067108  0.89511046  1
