# generated using pymatgen
data_Mg32Ti42(Bi17O64)3
_symmetry_space_group_name_H-M   'P 1'
_cell_length_a   15.98361806
_cell_length_b   15.92771256
_cell_length_c   15.96772206
_cell_angle_alpha   90.06807243
_cell_angle_beta   89.93678435
_cell_angle_gamma   90.04726411
_symmetry_Int_Tables_number   1
_chemical_formula_structural   Mg32Ti42(Bi17O64)3
_chemical_formula_sum   'Mg32 Ti42 Bi51 O192'
_cell_volume   4065.09546342
_cell_formula_units_Z   1
loop_
 _symmetry_equiv_pos_site_id
 _symmetry_equiv_pos_as_xyz
  1  'x, y, z'
loop_
 _atom_site_type_symbol
 _atom_site_label
 _atom_site_symmetry_multiplicity
 _atom_site_fract_x
 _atom_site_fract_y
 _atom_site_fract_z
 _atom_site_occupancy
  Mg  Mg0  1  0.87386389  0.87279893  0.12845913  1
  Mg  Mg1  1  0.62686087  0.12751221  0.87131784  1
  Mg  Mg2  1  0.87298902  0.12581914  0.12309975  1
  Mg  Mg3  1  0.37809450  0.12217592  0.12272120  1
  Mg  Mg4  1  0.37000571  0.13076582  0.86816073  1
  Mg  Mg5  1  0.37242664  0.87074410  0.87287199  1
  Mg  Mg6  1  0.63386344  0.12315806  0.62840355  1
  Mg  Mg7  1  0.12566131  0.36826644  0.62356087  1
  Mg  Mg8  1  0.63374744  0.38031216  0.12113815  1
  Mg  Mg9  1  0.61048323  0.87217166  0.12890380  1
  Mg  Mg10  1  0.38624542  0.63774981  0.12643434  1
  Mg  Mg11  1  0.62744254  0.62783644  0.39138413  1
  Mg  Mg12  1  0.63132022  0.37820972  0.62176463  1
  Mg  Mg13  1  0.36435349  0.36162296  0.63124560  1
  Mg  Mg14  1  0.87663879  0.62929441  0.87634392  1
  Mg  Mg15  1  0.35584897  0.62234152  0.63632915  1
  Mg  Mg16  1  0.59952902  0.87230046  0.38838247  1
  Mg  Mg17  1  0.12560697  0.87986128  0.87730174  1
  Mg  Mg18  1  0.36465445  0.62127089  0.37484285  1
  Mg  Mg19  1  -0.04720433  0.26235216  0.44677514  1
  Mg  Mg20  1  0.80823399  0.43775671  0.46678057  1
  Mg  Mg21  1  0.24551076  0.24764071  0.53175027  1
  Mg  Mg22  1  0.29952958  0.49064077  0.22241677  1
  Mg  Mg23  1  -0.01220069  0.76042731  0.74183982  1
  Mg  Mg24  1  -0.04075287  0.46867492  -0.04961897  1
  Mg  Mg25  1  0.53756537  0.73578636  0.00816149  1
  Mg  Mg26  1  0.03282852  0.79092681  0.49219790  1
  Mg  Mg27  1  0.22010730  0.23464701  0.73085768  1
  Mg  Mg28  1  0.44866637  0.48049971  0.73776606  1
  Mg  Mg29  1  0.54843128  0.05270777  0.48449996  1
  Mg  Mg30  1  0.80647642  0.47896931  0.79877618  1
  Mg  Mg31  1  0.49384192  0.71674128  0.30573460  1
  Ti  Ti32  1  0.36698780  0.12211035  0.62651529  1
  Ti  Ti33  1  0.11949961  0.86748855  0.63531306  1
  Ti  Ti34  1  0.13120572  0.37403250  0.14824302  1
  Ti  Ti35  1  0.12923746  0.13477458  0.38591447  1
  Ti  Ti36  1  0.62627054  0.61041724  0.62954529  1
  Ti  Ti37  1  0.12531277  0.87906395  0.36932761  1
  Ti  Ti38  1  0.39563001  0.36842638  0.12781459  1
  Ti  Ti39  1  0.87047070  0.61978802  0.63168651  1
  Ti  Ti40  1  0.12673545  0.12655937  0.13426471  1
  Ti  Ti41  1  0.60635219  0.87851270  0.62634408  1
  Ti  Ti42  1  0.86903585  0.37386736  0.62018114  1
  Ti  Ti43  1  0.37203204  0.62192544  0.88616639  1
  Ti  Ti44  1  0.62117171  0.39407110  0.87614095  1
  Ti  Ti45  1  0.87378078  0.11827981  0.37644296  1
  Ti  Ti46  1  0.13233789  0.35918891  0.38358830  1
  Ti  Ti47  1  0.88357714  0.87695979  0.38508222  1
  Ti  Ti48  1  0.12194179  0.12831398  0.62507626  1
  Ti  Ti49  1  0.37970495  0.37702660  0.87486076  1
  Ti  Ti50  1  0.13187032  0.87425726  0.11907019  1
  Ti  Ti51  1  0.11981884  0.60127242  0.14080491  1
  Ti  Ti52  1  0.63081045  0.62476711  0.13433339  1
  Ti  Ti53  1  0.89275371  0.63033201  0.12106475  1
  Ti  Ti54  1  0.86928735  0.11733291  0.87732438  1
  Ti  Ti55  1  0.36600511  0.86764373  0.38404341  1
  Ti  Ti56  1  0.12863873  0.37392238  0.88144546  1
  Ti  Ti57  1  0.37319208  0.87688469  0.63255580  1
  Ti  Ti58  1  0.87013728  0.63800761  0.39269369  1
  Ti  Ti59  1  0.37885203  0.37512513  0.36857296  1
  Ti  Ti60  1  0.88299875  0.38467771  0.11695339  1
  Ti  Ti61  1  0.62099918  0.38531603  0.38481465  1
  Ti  Ti62  1  0.88309400  0.88568609  0.62614868  1
  Ti  Ti63  1  0.11652864  0.60562424  0.37241798  1
  Ti  Ti64  1  0.12049969  0.63089908  0.62839782  1
  Ti  Ti65  1  0.63284684  0.13036698  0.12138293  1
  Ti  Ti66  1  0.88528262  0.13778432  0.62545929  1
  Ti  Ti67  1  0.61010148  0.87060489  0.87507451  1
  Ti  Ti68  1  0.38734735  0.86715693  0.12483952  1
  Ti  Ti69  1  0.13280909  0.13318579  0.88231181  1
  Ti  Ti70  1  0.88304155  0.87407361  0.86173874  1
  Ti  Ti71  1  0.12092435  0.60860121  0.90821613  1
  Ti  Ti72  1  0.63254154  0.62747701  0.86891810  1
  Ti  Ti73  1  0.35889678  0.13155091  0.38880741  1
  Bi  Bi74  1  0.48858829  0.71158710  0.75984524  1
  Bi  Bi75  1  0.27851106  0.23351672  0.24297568  1
  Bi  Bi76  1  0.49230258  0.52399785  0.27513018  1
  Bi  Bi77  1  0.23589967  0.72336349  0.24082097  1
  Bi  Bi78  1  0.25276184  -0.01228149  0.52392724  1
  Bi  Bi79  1  0.27681576  0.24598912  -0.00332424  1
  Bi  Bi80  1  0.53783405  0.24748518  0.00419394  1
  Bi  Bi81  1  0.73511220  -0.03112764  0.50608360  1
  Bi  Bi82  1  0.50659191  0.02262050  0.00812018  1
  Bi  Bi83  1  0.75400584  0.28467446  0.75416591  1
  Bi  Bi84  1  0.74038873  -0.00506346  0.02799378  1
  Bi  Bi85  1  0.52008108  0.28109396  0.75244367  1
  Bi  Bi86  1  -0.00778078  0.48053225  0.51618045  1
  Bi  Bi87  1  0.49593702  0.01316609  0.76679936  1
  Bi  Bi88  1  0.74044626  0.52164541  0.27228702  1
  Bi  Bi89  1  0.78914105  0.28690234  -0.01470132  1
  Bi  Bi90  1  0.51740605  0.24099599  0.51973825  1
  Bi  Bi91  1  0.71752339  0.77851735  0.27156534  1
  Bi  Bi92  1  0.51968228  0.21663021  0.28490562  1
  Bi  Bi93  1  0.74219244  0.76233951  0.02648790  1
  Bi  Bi94  1  0.23910001  -0.00027400  0.25600763  1
  Bi  Bi95  1  0.01012108  0.25708958  0.02930518  1
  Bi  Bi96  1  -0.01514342  0.76007167  0.24794055  1
  Bi  Bi97  1  0.70253492  0.01033683  0.28758358  1
  Bi  Bi98  1  0.25588756  0.75313442  0.01291394  1
  Bi  Bi99  1  -0.02280160  -0.02092564  0.00801252  1
  Bi  Bi100  1  0.01695460  -0.00190298  0.51899594  1
  Bi  Bi101  1  -0.00070585  0.75465960  -0.02502376  1
  Bi  Bi102  1  -0.01315353  0.23672657  0.26132979  1
  Bi  Bi103  1  0.00898223  0.02937996  0.76531494  1
  Bi  Bi104  1  0.74597138  0.21821506  0.49169669  1
  Bi  Bi105  1  -0.02335704  0.27120191  0.78046104  1
  Bi  Bi106  1  0.46349285  0.72204390  0.51836479  1
  Bi  Bi107  1  0.23823302  0.47608877  0.75307321  1
  Bi  Bi108  1  0.22645050  0.72121093  0.48786652  1
  Bi  Bi109  1  0.72812362  0.00058686  0.77040777  1
  Bi  Bi110  1  0.25545562  0.47839372  0.00566416  1
  Bi  Bi111  1  0.76875651  0.52366956  0.00935508  1
  Bi  Bi112  1  0.25605896  -0.00633709  0.77358986  1
  Bi  Bi113  1  0.01537411  0.51579732  0.73889240  1
  Bi  Bi114  1  0.23877545  0.74106596  0.77803500  1
  Bi  Bi115  1  -0.01409329  -0.00161653  0.24116392  1
  Bi  Bi116  1  0.50166803  0.51630562  0.02234457  1
  Bi  Bi117  1  -0.03554781  0.49035206  0.28740653  1
  Bi  Bi118  1  0.48398006  0.48649441  0.54032262  1
  Bi  Bi119  1  0.47095107  -0.00421484  0.28546347  1
  Bi  Bi120  1  0.75408415  0.29381048  0.27327528  1
  Bi  Bi121  1  0.25267865  0.47015149  0.49998833  1
  Bi  Bi122  1  0.27318603  -0.00581834  0.01005529  1
  Bi  Bi123  1  0.73453433  0.74322385  0.53386804  1
  Bi  Bi124  1  0.74110137  0.75129641  0.75270498  1
  O  O125  1  0.14779309  0.11907292  -0.00540058  1
  O  O126  1  0.10941593  0.15430004  0.24798576  1
  O  O127  1  0.13382920  0.09503241  0.49463267  1
  O  O128  1  0.10318590  0.14285699  0.73937104  1
  O  O129  1  0.13194661  0.40410655  -0.00451549  1
  O  O130  1  0.14240638  0.34721367  0.25646606  1
  O  O131  1  0.11750500  0.40518011  0.49580885  1
  O  O132  1  0.16540922  0.35522701  0.75028804  1
  O  O133  1  0.15194769  0.59742413  0.01878283  1
  O  O134  1  0.11045609  0.64950232  0.25423344  1
  O  O135  1  0.13946072  0.60983454  0.49763173  1
  O  O136  1  0.07085681  0.65450188  0.73310728  1
  O  O137  1  0.15625501  0.88380494  0.00458454  1
  O  O138  1  0.09446374  0.86166554  0.25058780  1
  O  O139  1  0.13546764  0.90146583  0.49239666  1
  O  O140  1  0.09474385  0.83834697  0.74210725  1
  O  O141  1  0.34411513  0.12816280  -0.00375745  1
  O  O142  1  0.38790616  0.13707183  0.25001664  1
  O  O143  1  0.32495001  0.14570876  0.49703015  1
  O  O144  1  0.38933024  0.10371605  0.73986051  1
  O  O145  1  0.36732897  0.37858977  0.00668641  1
  O  O146  1  0.35906853  0.36800232  0.24149919  1
  O  O147  1  0.39020330  0.39212428  0.48694523  1
  O  O148  1  0.36056314  0.38784991  0.75807409  1
  O  O149  1  0.35378189  0.64027329  0.00088725  1
  O  O150  1  0.41789709  0.63751658  0.24638733  1
  O  O151  1  0.35774430  0.63597094  0.50304388  1
  O  O152  1  0.40404928  0.60047038  0.75854003  1
  O  O153  1  0.34141662  0.86445244  0.00026163  1
  O  O154  1  0.39530399  0.88828654  0.24250599  1
  O  O155  1  0.34177035  0.86500547  0.49555456  1
  O  O156  1  0.37979810  0.89970124  0.74255362  1
  O  O157  1  0.62384370  0.12715582  -0.00414155  1
  O  O158  1  0.60282216  0.11121477  0.23845466  1
  O  O159  1  0.62134461  0.15501061  0.50310740  1
  O  O160  1  0.62006701  0.08863203  0.74763966  1
  O  O161  1  0.60160757  0.37452706  -0.01049491  1
  O  O162  1  0.66347693  0.39901334  0.24366800  1
  O  O163  1  0.60041582  0.36451829  0.49698678  1
  O  O164  1  0.63419967  0.36559288  0.75005792  1
  O  O165  1  0.64717318  0.65890931  -0.01218073  1
  O  O166  1  0.61546602  0.61171479  0.24706736  1
  O  O167  1  0.63545390  0.65405045  0.51269143  1
  O  O168  1  0.59802124  0.61580673  0.74993461  1
  O  O169  1  0.62396543  0.83410258  -0.01399096  1
  O  O170  1  0.62432685  0.89540170  0.25551654  1
  O  O171  1  0.64961598  0.85697866  0.50574614  1
  O  O172  1  0.61921648  0.90634201  0.74232840  1
  O  O173  1  0.86669797  0.11059765  -0.00960772  1
  O  O174  1  0.90114360  0.11526531  0.25353537  1
  O  O175  1  0.88268825  0.16055590  0.49248842  1
  O  O176  1  0.89287564  0.11254322  0.73931605  1
  O  O177  1  0.90385007  0.35980446  -0.00915441  1
  O  O178  1  0.85996485  0.40229623  0.23103327  1
  O  O179  1  0.89701043  0.35452542  0.50488334  1
  O  O180  1  0.85840835  0.38011084  0.74378759  1
  O  O181  1  0.85076095  0.64866625  0.00660253  1
  O  O182  1  0.89305652  0.59715181  0.23753991  1
  O  O183  1  0.85972654  0.64526237  0.50279404  1
  O  O184  1  0.87653756  0.57218970  0.74144672  1
  O  O185  1  0.86818837  0.88893237  -0.01067360  1
  O  O186  1  0.90802328  0.87942866  0.25386864  1
  O  O187  1  0.86090486  0.86181290  0.49832685  1
  O  O188  1  0.91377872  0.87527467  0.74203591  1
  O  O189  1  0.00737678  0.14596716  0.11103359  1
  O  O190  1  0.01238841  0.16173595  0.38201262  1
  O  O191  1  0.00449849  0.12077783  0.60019010  1
  O  O192  1  0.00382772  0.12936817  0.86927303  1
  O  O193  1  0.00514334  0.35737589  0.12938847  1
  O  O194  1  0.01675486  0.34161921  0.36674496  1
  O  O195  1  -0.00191862  0.40418189  0.63561981  1
  O  O196  1  0.01322558  0.39047791  0.85760419  1
  O  O197  1  0.00837113  0.64187328  0.11260829  1
  O  O198  1  -0.00436494  0.60797756  0.38054880  1
  O  O199  1  -0.00757840  0.58549002  0.60916175  1
  O  O200  1  0.00737853  0.59035451  0.91393038  1
  O  O201  1  0.00927350  0.86618380  0.09061232  1
  O  O202  1  0.00417558  0.87540223  0.39977905  1
  O  O203  1  -0.00009428  0.86476791  0.58815806  1
  O  O204  1  0.00648860  0.87593484  0.90612624  1
  O  O205  1  0.24659015  0.11615311  0.15097756  1
  O  O206  1  0.24537990  0.13016334  0.34332277  1
  O  O207  1  0.23822984  0.09023735  0.63294963  1
  O  O208  1  0.24125594  0.15157925  0.83388083  1
  O  O209  1  0.24328535  0.41446768  0.13042278  1
  O  O210  1  0.25522519  0.38634612  0.38948848  1
  O  O211  1  0.24940704  0.36802601  0.58460417  1
  O  O212  1  0.25569685  0.39427050  0.88596816  1
  O  O213  1  0.24709193  0.60171201  0.17163599  1
  O  O214  1  0.23952132  0.64156031  0.36670348  1
  O  O215  1  0.23286654  0.64423059  0.64993092  1
  O  O216  1  0.24919024  0.62672814  0.86126814  1
  O  O217  1  0.24451226  0.90353365  0.14670752  1
  O  O218  1  0.24553001  0.87491462  0.34684042  1
  O  O219  1  0.23999508  0.88348940  0.63363482  1
  O  O220  1  0.24259137  0.86667768  0.84092098  1
  O  O221  1  0.50145696  0.12929367  0.09744832  1
  O  O222  1  0.48452678  0.12724226  0.39352337  1
  O  O223  1  0.47859326  0.12177336  0.58428932  1
  O  O224  1  0.49729789  0.09717539  0.87605627  1
  O  O225  1  0.50348236  0.34649305  0.13009878  1
  O  O226  1  0.50167323  0.37938870  0.35140747  1
  O  O227  1  0.49369599  0.39234607  0.64645109  1
  O  O228  1  0.49836816  0.39974090  0.84170983  1
  O  O229  1  0.51140519  0.64005580  0.08735401  1
  O  O230  1  0.49947210  0.61250812  0.38812626  1
  O  O231  1  0.50188105  0.62599426  0.61103178  1
  O  O232  1  0.50069433  0.65818220  0.89515158  1
  O  O233  1  0.49135317  0.83525771  0.09617188  1
  O  O234  1  0.48104257  0.90645147  0.39110617  1
  O  O235  1  0.49577561  0.87057234  0.61107702  1
  O  O236  1  0.49985981  0.89223592  0.87608554  1
  O  O237  1  0.74593167  0.09714038  0.13014241  1
  O  O238  1  0.76007722  0.11328434  0.38644222  1
  O  O239  1  0.76285914  0.13838276  0.60910300  1
  O  O240  1  0.75505802  0.11725903  0.85166195  1
  O  O241  1  0.76275207  0.38862679  0.08001332  1
  O  O242  1  0.74453164  0.36336290  0.39161840  1
  O  O243  1  0.75430038  0.33986411  0.61522440  1
  O  O244  1  0.74101761  0.37429398  0.87139513  1
  O  O245  1  0.74854160  0.60225596  0.13710775  1
  O  O246  1  0.75548939  0.64960674  0.35676452  1
  O  O247  1  0.74861491  0.63700024  0.63883742  1
  O  O248  1  0.74646421  0.64008586  0.84356380  1
  O  O249  1  0.74674339  0.88493481  0.11494247  1
  O  O250  1  0.76272818  0.88555786  0.35938282  1
  O  O251  1  0.76485914  0.88075942  0.63478906  1
  O  O252  1  0.76880645  0.85819588  0.84833832  1
  O  O253  1  0.11144501  0.00823053  0.14539069  1
  O  O254  1  0.12624911  0.00573380  0.34819741  1
  O  O255  1  0.09808146  -0.01173798  0.63696060  1
  O  O256  1  0.13179381  0.00992067  0.85122500  1
  O  O257  1  0.14092233  0.25955554  0.10282055  1
  O  O258  1  0.15950442  0.24937702  0.42128215  1
  O  O259  1  0.14966294  0.23942215  0.61364926  1
  O  O260  1  0.11995545  0.25817041  0.89137607  1
  O  O261  1  0.09605187  0.49536118  0.16075332  1
  O  O262  1  0.12218385  0.49610278  0.35505846  1
  O  O263  1  0.13470867  0.50697797  0.65511065  1
  O  O264  1  0.13461655  0.50481608  0.84431719  1
  O  O265  1  0.15453865  0.75509455  0.12210451  1
  O  O266  1  0.11780664  0.75815903  0.40160745  1
  O  O267  1  0.11263219  0.74947416  0.58523028  1
  O  O268  1  0.11735186  0.72979282  0.89907574  1
  O  O269  1  0.38962980  -0.00803056  0.09857057  1
  O  O270  1  0.35583144  0.00913748  0.36675588  1
  O  O271  1  0.37009045  -0.00584046  0.60140643  1
  O  O272  1  0.34013811  0.00052321  0.88289922  1
  O  O273  1  0.35015498  0.25355609  0.11555672  1
  O  O274  1  0.37021792  0.25487857  0.36584089  1
  O  O275  1  0.33196630  0.23551144  0.64251190  1
  O  O276  1  0.38391481  0.26131949  0.88888761  1
  O  O277  1  0.40456898  0.49712646  0.13004579  1
  O  O278  1  0.36611461  0.49958671  0.33480056  1
  O  O279  1  0.37126894  0.49791532  0.62291650  1
  O  O280  1  0.38116800  0.50674885  0.89577722  1
  O  O281  1  0.33511764  0.75554416  0.12967055  1
  O  O282  1  0.39301004  0.75639603  0.37146514  1
  O  O283  1  0.38072314  0.75327715  0.63188866  1
  O  O284  1  0.36482909  0.74492743  0.84089878  1
  O  O285  1  0.61476969  -0.00516988  0.09454876  1
  O  O286  1  0.63101619  -0.00374454  0.40368844  1
  O  O287  1  0.62276846  -0.00103313  0.58526423  1
  O  O288  1  0.65520926  -0.01766168  0.88828928  1
  O  O289  1  0.63796373  0.24648904  0.11131426  1
  O  O290  1  0.63309172  0.26086625  0.34899916  1
  O  O291  1  0.59388904  0.24755031  0.63685337  1
  O  O292  1  0.60171648  0.25476567  0.86799685  1
  O  O293  1  0.61005611  0.50731017  0.10314973  1
  O  O294  1  0.64722705  0.50105501  0.38189801  1
  O  O295  1  0.62657189  0.50249417  0.60906942  1
  O  O296  1  0.62922144  0.51123360  0.88862172  1
  O  O297  1  0.64963316  0.74627271  0.13512249  1
  O  O298  1  0.60576762  0.75325977  0.34892694  1
  O  O299  1  0.63733021  0.76222456  0.64430182  1
  O  O300  1  0.62564701  0.75732168  0.83239478  1
  O  O301  1  0.90369010  -0.00181200  0.12619484  1
  O  O302  1  0.89670619  0.00141202  0.38225493  1
  O  O303  1  0.89072223  -0.00125425  0.60632619  1
  O  O304  1  0.89228318  -0.00433905  0.85992695  1
  O  O305  1  0.87170716  0.25632672  0.10928339  1
  O  O306  1  0.87132459  0.24274980  0.34912121  1
  O  O307  1  0.89965395  0.25152551  0.65189201  1
  O  O308  1  0.86994201  0.24058816  0.85921513  1
  O  O309  1  0.89300011  0.50173688  0.07933689  1
  O  O310  1  0.86128647  0.51024475  0.38067515  1
  O  O311  1  0.85182174  0.48654409  0.58054071  1
  O  O312  1  0.85515398  0.50925395  0.90266443  1
  O  O313  1  0.87313232  0.74517086  0.14682398  1
  O  O314  1  0.89511516  0.75231453  0.35998632  1
  O  O315  1  0.89530055  0.72908616  0.65543116  1
  O  O316  1  0.91803510  0.74832082  0.85508149  1
