# generated using pymatgen
data_Mg32Ti42(Bi17O64)3
_symmetry_space_group_name_H-M   'P 1'
_cell_length_a   15.94451009
_cell_length_b   15.95098162
_cell_length_c   15.93282832
_cell_angle_alpha   89.96099640
_cell_angle_beta   90.01484992
_cell_angle_gamma   89.97887697
_symmetry_Int_Tables_number   1
_chemical_formula_structural   Mg32Ti42(Bi17O64)3
_chemical_formula_sum   'Mg32 Ti42 Bi51 O192'
_cell_volume   4052.20423372
_cell_formula_units_Z   1
loop_
 _symmetry_equiv_pos_site_id
 _symmetry_equiv_pos_as_xyz
  1  'x, y, z'
loop_
 _atom_site_type_symbol
 _atom_site_label
 _atom_site_symmetry_multiplicity
 _atom_site_fract_x
 _atom_site_fract_y
 _atom_site_fract_z
 _atom_site_occupancy
  Mg  Mg0  1  0.87529435  0.12266919  0.12076539  1
  Mg  Mg1  1  0.63080483  0.60604796  0.63587804  1
  Mg  Mg2  1  0.62828030  0.87571957  0.37009688  1
  Mg  Mg3  1  0.88299185  0.87826930  0.87194269  1
  Mg  Mg4  1  0.63447942  0.12206595  0.38142809  1
  Mg  Mg5  1  0.38224149  0.62864375  0.37559397  1
  Mg  Mg6  1  0.88093556  0.87216710  0.37607147  1
  Mg  Mg7  1  0.12324356  0.12719878  0.62724506  1
  Mg  Mg8  1  0.12528006  0.61907529  0.37179017  1
  Mg  Mg9  1  0.12823957  0.12274142  0.12926864  1
  Mg  Mg10  1  0.12472788  0.87596000  0.12258958  1
  Mg  Mg11  1  0.38106154  0.36485117  0.37370089  1
  Mg  Mg12  1  0.61685751  0.37255181  0.12855512  1
  Mg  Mg13  1  0.36579761  0.37573738  0.87169209  1
  Mg  Mg14  1  0.36784558  0.61503356  0.86579032  1
  Mg  Mg15  1  0.12626956  0.38682609  0.62972488  1
  Mg  Mg16  1  0.64107094  0.37328634  0.86769765  1
  Mg  Mg17  1  0.87964301  0.63236180  0.88174976  1
  Mg  Mg18  1  0.87504901  0.11924101  0.61701921  1
  Mg  Mg19  1  0.26992658  0.55099005  0.05223265  1
  Mg  Mg20  1  0.44799916  0.54918410  -0.00002686  1
  Mg  Mg21  1  -0.01353082  0.73769555  -0.00040045  1
  Mg  Mg22  1  0.79360859  0.43320558  0.66408048  1
  Mg  Mg23  1  0.79212285  0.24111523  0.72062539  1
  Mg  Mg24  1  0.76366623  0.26856758  0.53143745  1
  Mg  Mg25  1  0.55246425  0.25187413  0.77595879  1
  Mg  Mg26  1  -0.07046943  0.50836474  0.75337587  1
  Mg  Mg27  1  0.01576435  0.00124489  0.24455809  1
  Mg  Mg28  1  0.50013697  0.20000097  0.29499694  1
  Mg  Mg29  1  0.30948664  -0.01224695  0.77890158  1
  Mg  Mg30  1  0.25651375  0.72258182  -0.00626795  1
  Mg  Mg31  1  -0.00363595  0.49898921  0.57272245  1
  Ti  Ti32  1  0.61782777  0.63500874  0.36948195  1
  Ti  Ti33  1  0.38860618  0.62821933  0.62202318  1
  Ti  Ti34  1  0.12046013  0.62127686  0.13001445  1
  Ti  Ti35  1  0.37785962  0.87369874  0.62166378  1
  Ti  Ti36  1  0.87631272  0.63290774  0.63203851  1
  Ti  Ti37  1  0.62218591  0.61271231  0.87761312  1
  Ti  Ti38  1  0.62946107  0.37020096  0.63337301  1
  Ti  Ti39  1  0.89324000  0.87054486  0.12210541  1
  Ti  Ti40  1  0.62455975  0.88857438  0.11874153  1
  Ti  Ti41  1  0.62814186  0.87674063  0.63381784  1
  Ti  Ti42  1  0.12994596  0.62907791  0.63596300  1
  Ti  Ti43  1  0.38180815  0.36773133  0.11856705  1
  Ti  Ti44  1  0.37501515  0.12095676  0.11638302  1
  Ti  Ti45  1  0.12379701  0.36823466  0.12370419  1
  Ti  Ti46  1  0.38747953  0.37303595  0.62426968  1
  Ti  Ti47  1  0.87679956  0.37708802  0.13179023  1
  Ti  Ti48  1  0.62936563  0.13074674  0.63165545  1
  Ti  Ti49  1  0.86947045  0.13632628  0.38446362  1
  Ti  Ti50  1  0.87422154  0.62602951  0.12845103  1
  Ti  Ti51  1  0.38073160  0.13575252  0.63605596  1
  Ti  Ti52  1  0.37242736  0.12030685  0.38808954  1
  Ti  Ti53  1  0.13090299  0.11605474  0.87009940  1
  Ti  Ti54  1  0.13512713  0.62782820  0.88653697  1
  Ti  Ti55  1  0.88261942  0.63230328  0.36393982  1
  Ti  Ti56  1  0.88554530  0.12685544  0.87193030  1
  Ti  Ti57  1  0.88395902  0.87692627  0.62197336  1
  Ti  Ti58  1  0.62515678  0.36853185  0.36728020  1
  Ti  Ti59  1  0.63320428  0.88329643  0.87746557  1
  Ti  Ti60  1  0.11839788  0.39649747  0.88033258  1
  Ti  Ti61  1  0.36618589  0.87408760  0.38632835  1
  Ti  Ti62  1  0.11274221  0.87650358  0.38003128  1
  Ti  Ti63  1  0.11569149  0.87893697  0.87982965  1
  Ti  Ti64  1  0.12365169  0.37238357  0.38577450  1
  Ti  Ti65  1  0.13524492  0.86496415  0.62532414  1
  Ti  Ti66  1  0.86663686  0.37412752  0.37015623  1
  Ti  Ti67  1  0.87961720  0.39369599  0.88277612  1
  Ti  Ti68  1  0.62875650  0.62993999  0.11272178  1
  Ti  Ti69  1  0.64028057  0.12073441  0.87641611  1
  Ti  Ti70  1  0.37816310  0.13734845  0.87609792  1
  Ti  Ti71  1  0.60641839  0.12274971  0.11596164  1
  Ti  Ti72  1  0.11894808  0.13384205  0.37708044  1
  Ti  Ti73  1  0.35461997  0.88317090  0.12259981  1
  Bi  Bi74  1  0.77809058  -0.01029143  -0.00782920  1
  Bi  Bi75  1  0.76435700  -0.01117971  0.49135225  1
  Bi  Bi76  1  0.24781511  0.46162500  0.25216726  1
  Bi  Bi77  1  0.24758851  0.27283104  -0.02088798  1
  Bi  Bi78  1  0.75733508  0.74190608  0.52632868  1
  Bi  Bi79  1  0.27503087  0.49346918  0.48761068  1
  Bi  Bi80  1  0.76111449  0.74961179  -0.01809483  1
  Bi  Bi81  1  0.72675194  0.25513226  0.00281880  1
  Bi  Bi82  1  0.52925205  0.74321716  0.52464025  1
  Bi  Bi83  1  0.27785952  0.71707013  0.22772164  1
  Bi  Bi84  1  0.72234341  0.50907535  0.23939307  1
  Bi  Bi85  1  0.72065496  0.22112750  0.23711967  1
  Bi  Bi86  1  0.25239970  0.73023122  0.47084069  1
  Bi  Bi87  1  0.02065186  0.72597927  0.49893194  1
  Bi  Bi88  1  0.03187346  0.75492636  0.24585796  1
  Bi  Bi89  1  0.50299834  0.27978361  -0.01716205  1
  Bi  Bi90  1  0.24968094  -0.00778469  -0.02515966  1
  Bi  Bi91  1  0.51209723  0.77178580  0.22653390  1
  Bi  Bi92  1  0.44775569  0.74460171  -0.00609673  1
  Bi  Bi93  1  0.46791309  0.53022672  0.20269654  1
  Bi  Bi94  1  0.00351975  0.49394858  0.02339573  1
  Bi  Bi95  1  0.77612495  -0.00127755  0.73962633  1
  Bi  Bi96  1  0.50627555  0.01537549  0.74461169  1
  Bi  Bi97  1  -0.02775540  0.28019145  0.52463648  1
  Bi  Bi98  1  0.78960445  -0.00737823  0.25407488  1
  Bi  Bi99  1  0.23269130  -0.00516820  0.27060761  1
  Bi  Bi100  1  0.49740695  0.47500201  0.78678686  1
  Bi  Bi101  1  -0.02109515  0.28961105  0.74255261  1
  Bi  Bi102  1  0.72719717  0.47742943  0.00544328  1
  Bi  Bi103  1  0.47906520  -0.02719753  -0.02521226  1
  Bi  Bi104  1  -0.01015985  0.22249416  0.24518389  1
  Bi  Bi105  1  0.28440553  0.22584579  0.24689007  1
  Bi  Bi106  1  0.73651751  0.72282110  0.76854715  1
  Bi  Bi107  1  0.25189038  0.01589944  0.54098706  1
  Bi  Bi108  1  0.24004900  0.26561298  0.53019259  1
  Bi  Bi109  1  0.75702291  0.51617574  0.46685999  1
  Bi  Bi110  1  0.01464623  0.01103476  0.73049242  1
  Bi  Bi111  1  0.48004499  -0.01156616  0.26181137  1
  Bi  Bi112  1  0.48605076  0.77868748  0.78197052  1
  Bi  Bi113  1  0.21359688  0.25830716  0.74445297  1
  Bi  Bi114  1  -0.01611193  0.24133636  0.00305067  1
  Bi  Bi115  1  0.01927247  0.01280740  0.01820474  1
  Bi  Bi116  1  0.00824956  0.74500913  0.77128593  1
  Bi  Bi117  1  0.52985072  -0.00445520  0.48945727  1
  Bi  Bi118  1  0.26027581  0.78302285  0.78291405  1
  Bi  Bi119  1  0.02567718  0.01201963  0.50087521  1
  Bi  Bi120  1  0.75452019  0.76729927  0.24622291  1
  Bi  Bi121  1  0.01209737  0.48582290  0.27680163  1
  Bi  Bi122  1  0.53416164  0.25459917  0.50273473  1
  Bi  Bi123  1  0.26701942  0.51501300  0.73226428  1
  Bi  Bi124  1  0.50202542  0.49598604  0.47621361  1
  O  O125  1  0.14276411  0.09010066  -0.00549538  1
  O  O126  1  0.09277037  0.11803945  0.25886602  1
  O  O127  1  0.13870049  0.10784860  0.49725212  1
  O  O128  1  0.10251889  0.12359330  0.75389740  1
  O  O129  1  0.10337100  0.37210333  0.00047055  1
  O  O130  1  0.11864281  0.39058619  0.24671781  1
  O  O131  1  0.14801267  0.37101656  0.49982178  1
  O  O132  1  0.13090718  0.36895601  0.76039043  1
  O  O133  1  0.17028136  0.63006450  0.00245463  1
  O  O134  1  0.08985629  0.61097789  0.24479173  1
  O  O135  1  0.13885744  0.64678518  0.50227339  1
  O  O136  1  0.10295326  0.64462420  0.75326419  1
  O  O137  1  0.14247601  0.89591405  -0.00599247  1
  O  O138  1  0.09129816  0.88133149  0.25540759  1
  O  O139  1  0.14057333  0.87196921  0.50123543  1
  O  O140  1  0.10905090  0.85063158  0.75300515  1
  O  O141  1  0.34935147  0.11875914  -0.00334751  1
  O  O142  1  0.39939315  0.13994669  0.24082302  1
  O  O143  1  0.36106168  0.11042475  0.50112050  1
  O  O144  1  0.38474933  0.12084301  0.75172614  1
  O  O145  1  0.37578468  0.34419787  -0.00486000  1
  O  O146  1  0.37194095  0.39198748  0.24162297  1
  O  O147  1  0.34490804  0.36558476  0.50351342  1
  O  O148  1  0.38179310  0.40121624  0.74214901  1
  O  O149  1  0.34834533  0.63156028  -0.00898343  1
  O  O150  1  0.39501745  0.63374706  0.24897912  1
  O  O151  1  0.34102206  0.62798336  0.50628416  1
  O  O152  1  0.38560830  0.59304007  0.73885851  1
  O  O153  1  0.36865426  0.89145481  0.00402304  1
  O  O154  1  0.39948210  0.86818481  0.24203490  1
  O  O155  1  0.35067115  0.89180366  0.50148595  1
  O  O156  1  0.38706314  0.86847881  0.74612904  1
  O  O157  1  0.65001557  0.12587532  -0.00263216  1
  O  O158  1  0.60193708  0.13976448  0.23870106  1
  O  O159  1  0.62885274  0.14117145  0.51247343  1
  O  O160  1  0.59470219  0.12386016  0.75818190  1
  O  O161  1  0.63340519  0.36805255  -0.00329180  1
  O  O162  1  0.62539080  0.38711967  0.25506058  1
  O  O163  1  0.64774587  0.33057313  0.50813643  1
  O  O164  1  0.60971418  0.36973090  0.74702118  1
  O  O165  1  0.65658901  0.63078540  0.00311690  1
  O  O166  1  0.60953553  0.59552084  0.25148003  1
  O  O167  1  0.64246211  0.64992584  0.49537983  1
  O  O168  1  0.61538381  0.62783714  0.76136730  1
  O  O169  1  0.64965501  0.88373686  0.00158602  1
  O  O170  1  0.58894438  0.88362521  0.24510306  1
  O  O171  1  0.62406577  0.86114171  0.50715720  1
  O  O172  1  0.59330952  0.88381557  0.75536066  1
  O  O173  1  0.86095037  0.16641035  -0.01458278  1
  O  O174  1  0.91674310  0.10550519  0.24725487  1
  O  O175  1  0.83409949  0.15557550  0.49354031  1
  O  O176  1  0.89003567  0.08543234  0.75193434  1
  O  O177  1  0.90005808  0.37417974  0.00019517  1
  O  O178  1  0.87090257  0.39761402  0.24670815  1
  O  O179  1  0.85783315  0.34377669  0.48892241  1
  O  O180  1  0.87978370  0.39450328  0.75344805  1
  O  O181  1  0.87127568  0.66962105  0.00869239  1
  O  O182  1  0.89811510  0.60786793  0.24605561  1
  O  O183  1  0.84327295  0.63726368  0.48924843  1
  O  O184  1  0.90021559  0.62895220  0.74691633  1
  O  O185  1  0.84318468  0.86393905  0.00480055  1
  O  O186  1  0.90893653  0.91466924  0.23788355  1
  O  O187  1  0.83940727  0.87136155  0.50016506  1
  O  O188  1  0.88372609  0.90036591  0.74252684  1
  O  O189  1  -0.00026636  0.13306811  0.08850979  1
  O  O190  1  -0.00495482  0.12368100  0.40921345  1
  O  O191  1  -0.00042695  0.09416720  0.61020280  1
  O  O192  1  -0.00037710  0.13890499  0.89556036  1
  O  O193  1  -0.00050133  0.40743184  0.13517702  1
  O  O194  1  -0.00095463  0.37581633  0.38077470  1
  O  O195  1  0.00206821  0.38022542  0.60862732  1
  O  O196  1  -0.00037600  0.35573418  0.86742399  1
  O  O197  1  0.00460550  0.63729381  0.09226165  1
  O  O198  1  -0.00701168  0.62535757  0.39516521  1
  O  O199  1  -0.00921124  0.62316076  0.58847380  1
  O  O200  1  0.01565306  0.66491232  0.89531637  1
  O  O201  1  -0.00391800  0.83597594  0.08836401  1
  O  O202  1  0.00079180  0.88166989  0.40413307  1
  O  O203  1  -0.00571450  0.89555252  0.60824409  1
  O  O204  1  0.00499414  0.83554665  0.89397075  1
  O  O205  1  0.25570312  0.11945797  0.15639977  1
  O  O206  1  0.24748771  0.12680158  0.35238976  1
  O  O207  1  0.25529888  0.13441661  0.62492052  1
  O  O208  1  0.24533744  0.07905328  0.85448648  1
  O  O209  1  0.24241201  0.38351733  0.12893775  1
  O  O210  1  0.24658488  0.37123318  0.35781931  1
  O  O211  1  0.25627513  0.35280480  0.64002684  1
  O  O212  1  0.23729355  0.38387016  0.89508858  1
  O  O213  1  0.24141475  0.60849065  0.15896689  1
  O  O214  1  0.25137334  0.64372447  0.36267892  1
  O  O215  1  0.24458191  0.62976401  0.65094036  1
  O  O216  1  0.24325506  0.59964050  0.84136774  1
  O  O217  1  0.24772364  0.91262336  0.14091711  1
  O  O218  1  0.24887994  0.87494141  0.35129607  1
  O  O219  1  0.24679235  0.84684817  0.63802614  1
  O  O220  1  0.24117144  0.90450306  0.84692798  1
  O  O221  1  0.49692557  0.13899601  0.09200988  1
  O  O222  1  0.49351141  0.10176112  0.38377256  1
  O  O223  1  0.49098563  0.09706348  0.61930669  1
  O  O224  1  0.48700124  0.16881757  0.88646622  1
  O  O225  1  0.49436252  0.36689866  0.11698277  1
  O  O226  1  0.50683520  0.37584587  0.40490899  1
  O  O227  1  0.50323685  0.38661771  0.60097058  1
  O  O228  1  0.49842202  0.34519001  0.85994876  1
  O  O229  1  0.50981787  0.61459274  0.09779485  1
  O  O230  1  0.50623022  0.61911401  0.39956105  1
  O  O231  1  0.50091210  0.61320505  0.59871915  1
  O  O232  1  0.50780939  0.64037927  0.90996476  1
  O  O233  1  0.50499264  0.84921632  0.10734215  1
  O  O234  1  0.48853493  0.90586921  0.38614439  1
  O  O235  1  0.49081619  0.88878931  0.60635667  1
  O  O236  1  0.50862483  0.85345528  0.90216439  1
  O  O237  1  0.75123664  0.12549356  0.14790083  1
  O  O238  1  0.75438259  0.12981160  0.33908703  1
  O  O239  1  0.74245680  0.14195102  0.65816766  1
  O  O240  1  0.74940477  0.10009320  0.85577687  1
  O  O241  1  0.76057678  0.37668342  0.10548165  1
  O  O242  1  0.74752538  0.38078329  0.37191182  1
  O  O243  1  0.74257691  0.32521122  0.64408812  1
  O  O244  1  0.76487776  0.38302244  0.89345885  1
  O  O245  1  0.75484274  0.62249329  0.15075152  1
  O  O246  1  0.74452514  0.60380500  0.35584572  1
  O  O247  1  0.75561068  0.64373354  0.63364577  1
  O  O248  1  0.74728782  0.62482064  0.86611852  1
  O  O249  1  0.74203538  0.88228665  0.15677781  1
  O  O250  1  0.75549320  0.87981902  0.33480931  1
  O  O251  1  0.74006924  0.86187381  0.64741117  1
  O  O252  1  0.74519661  0.91353245  0.86269500  1
  O  O253  1  0.08406725  -0.00263944  0.13693106  1
  O  O254  1  0.12342363  -0.00109884  0.36871821  1
  O  O255  1  0.13577266  -0.01162701  0.62892474  1
  O  O256  1  0.08766890  -0.00828495  0.86239505  1
  O  O257  1  0.11414927  0.25480164  0.12688985  1
  O  O258  1  0.11938401  0.24853344  0.37470015  1
  O  O259  1  0.12700999  0.25234952  0.62798351  1
  O  O260  1  0.14785319  0.23251410  0.88207522  1
  O  O261  1  0.12592152  0.50646531  0.10270549  1
  O  O262  1  0.12433984  0.49340460  0.37347378  1
  O  O263  1  0.11418409  0.51328657  0.62552480  1
  O  O264  1  0.10189743  0.50832169  0.88469806  1
  O  O265  1  0.13889115  0.74559315  0.15336146  1
  O  O266  1  0.11033566  0.75249123  0.36371068  1
  O  O267  1  0.09364673  0.75034618  0.62223170  1
  O  O268  1  0.17528290  0.75152074  0.89210275  1
  O  O269  1  0.39624483  0.00410306  0.13243160  1
  O  O270  1  0.35814041  0.00291287  0.34518176  1
  O  O271  1  0.34369310  -0.00960966  0.64852312  1
  O  O272  1  0.40436588  0.01118788  0.86636128  1
  O  O273  1  0.35785377  0.24871372  0.12598697  1
  O  O274  1  0.39113402  0.23744566  0.36632112  1
  O  O275  1  0.39170025  0.25013573  0.62307236  1
  O  O276  1  0.32790452  0.24363635  0.86693088  1
  O  O277  1  0.37799685  0.49297346  0.09441748  1
  O  O278  1  0.37914517  0.49811123  0.39641267  1
  O  O279  1  0.35623995  0.49694493  0.60290752  1
  O  O280  1  0.40987059  0.49545645  0.89058268  1
  O  O281  1  0.32839706  0.76587873  0.09882897  1
  O  O282  1  0.37887286  0.76052345  0.39042025  1
  O  O283  1  0.39488939  0.74605530  0.62289716  1
  O  O284  1  0.37263601  0.74410918  0.86766993  1
  O  O285  1  0.60788745  0.00234609  0.12032691  1
  O  O286  1  0.63581000  -0.00096620  0.39930197  1
  O  O287  1  0.63091248  0.00090272  0.62862845  1
  O  O288  1  0.58901673  0.00480118  0.87764540  1
  O  O289  1  0.63814006  0.24604582  0.11444949  1
  O  O290  1  0.59934985  0.24776136  0.36547118  1
  O  O291  1  0.58722090  0.24160571  0.64461432  1
  O  O292  1  0.64249293  0.24148277  0.87404720  1
  O  O293  1  0.64183545  0.50093746  0.11849013  1
  O  O294  1  0.62474497  0.49217132  0.40434708  1
  O  O295  1  0.67423958  0.47953189  0.62501885  1
  O  O296  1  0.61484694  0.49913472  0.88546422  1
  O  O297  1  0.63183313  0.74509125  0.14390942  1
  O  O298  1  0.61587332  0.74732094  0.34801979  1
  O  O299  1  0.60212843  0.75451431  0.63786942  1
  O  O300  1  0.64801220  0.76451317  0.87040466  1
  O  O301  1  0.88011228  -0.00454019  0.09283361  1
  O  O302  1  0.85787601  0.00941747  0.38932859  1
  O  O303  1  0.84573591  -0.00297950  0.60666852  1
  O  O304  1  0.88444947  0.00603886  0.90544786  1
  O  O305  1  0.89810402  0.26064520  0.13373673  1
  O  O306  1  0.88303686  0.24902171  0.34248378  1
  O  O307  1  0.89252940  0.24167793  0.63633138  1
  O  O308  1  0.86763732  0.23880333  0.82192091  1
  O  O309  1  0.87362801  0.51291610  0.09674557  1
  O  O310  1  0.87208387  0.49418033  0.39073810  1
  O  O311  1  0.88143707  0.51147927  0.62941406  1
  O  O312  1  0.90032004  0.50719736  0.87743472  1
  O  O313  1  0.86466299  0.75845191  0.15743252  1
  O  O314  1  0.86965211  0.74622434  0.34845090  1
  O  O315  1  0.88078767  0.75613112  0.61762958  1
  O  O316  1  0.84100418  0.75822226  0.86380696  1
