# generated using pymatgen
data_Mg32Ti42(Bi17O64)3
_symmetry_space_group_name_H-M   'P 1'
_cell_length_a   15.98556992
_cell_length_b   15.99314563
_cell_length_c   15.94423551
_cell_angle_alpha   89.99099407
_cell_angle_beta   89.94391950
_cell_angle_gamma   90.10044354
_symmetry_Int_Tables_number   1
_chemical_formula_structural   Mg32Ti42(Bi17O64)3
_chemical_formula_sum   'Mg32 Ti42 Bi51 O192'
_cell_volume   4076.28777164
_cell_formula_units_Z   1
loop_
 _symmetry_equiv_pos_site_id
 _symmetry_equiv_pos_as_xyz
  1  'x, y, z'
loop_
 _atom_site_type_symbol
 _atom_site_label
 _atom_site_symmetry_multiplicity
 _atom_site_fract_x
 _atom_site_fract_y
 _atom_site_fract_z
 _atom_site_occupancy
  Mg  Mg0  1  0.39347326  0.12200409  0.13461537  1
  Mg  Mg1  1  0.62546589  0.12288104  0.63018833  1
  Mg  Mg2  1  0.87164340  0.87738762  0.37170763  1
  Mg  Mg3  1  0.38239775  0.87776798  0.36675902  1
  Mg  Mg4  1  0.63834356  0.86591431  0.86737806  1
  Mg  Mg5  1  0.36542155  0.38015211  0.37072020  1
  Mg  Mg6  1  0.63122118  0.37220873  0.86954943  1
  Mg  Mg7  1  0.37468878  0.86030117  0.63370765  1
  Mg  Mg8  1  0.61719200  0.87665568  0.63774092  1
  Mg  Mg9  1  0.86668779  0.62737618  0.62383707  1
  Mg  Mg10  1  0.87904343  0.36399400  0.12595344  1
  Mg  Mg11  1  0.36420381  0.13084049  0.63174974  1
  Mg  Mg12  1  0.36710602  0.85899253  0.11670089  1
  Mg  Mg13  1  0.88268629  0.62247981  0.87389144  1
  Mg  Mg14  1  0.12918465  0.12138941  0.38194430  1
  Mg  Mg15  1  0.12324553  0.86983669  0.87535221  1
  Mg  Mg16  1  0.62325279  0.12133986  0.37121489  1
  Mg  Mg17  1  0.62050734  0.61856490  0.62419856  1
  Mg  Mg18  1  0.87763191  0.12110862  0.62159887  1
  Mg  Mg19  1  0.65949899  -0.00066119  0.50175804  1
  Mg  Mg20  1  0.00158451  0.49860258  0.73143535  1
  Mg  Mg21  1  0.55247696  0.73375923  0.77319941  1
  Mg  Mg22  1  0.50445329  0.45536695  0.29052223  1
  Mg  Mg23  1  0.31723944  -0.02012324  0.22789681  1
  Mg  Mg24  1  0.68416990  -0.01789599  0.04083777  1
  Mg  Mg25  1  0.52260483  -0.06984954  0.20753570  1
  Mg  Mg26  1  0.26278796  0.50230419  0.45347218  1
  Mg  Mg27  1  -0.00697672  0.50080857  0.44148747  1
  Mg  Mg28  1  0.56094823  0.47823244  -0.01174662  1
  Mg  Mg29  1  0.75719319  0.69688680  0.77404661  1
  Mg  Mg30  1  0.48611707  0.00602548  0.58690505  1
  Mg  Mg31  1  0.23566199  0.55205697  0.22684676  1
  Ti  Ti32  1  0.37642804  0.10910743  0.37290664  1
  Ti  Ti33  1  0.61573970  0.11981025  0.88154848  1
  Ti  Ti34  1  0.37995189  0.39006514  0.86717859  1
  Ti  Ti35  1  0.89035926  0.38262570  0.61942960  1
  Ti  Ti36  1  0.37770749  0.61823496  0.63555854  1
  Ti  Ti37  1  0.64407469  0.37398459  0.62500370  1
  Ti  Ti38  1  0.87217561  0.63903865  0.12328989  1
  Ti  Ti39  1  0.13181705  0.38549003  0.37371137  1
  Ti  Ti40  1  0.87526848  0.62981703  0.36900332  1
  Ti  Ti41  1  0.63273057  0.61661754  0.37654111  1
  Ti  Ti42  1  0.12708142  0.11988615  0.87183514  1
  Ti  Ti43  1  0.37008151  0.12529385  0.86783503  1
  Ti  Ti44  1  0.62396362  0.37955897  0.13478889  1
  Ti  Ti45  1  0.87678645  0.37278544  0.36903227  1
  Ti  Ti46  1  0.38586638  0.62830095  0.88306321  1
  Ti  Ti47  1  0.12793421  0.62138045  0.38115790  1
  Ti  Ti48  1  0.12334332  0.62674230  0.86990883  1
  Ti  Ti49  1  0.12391923  0.86454378  0.62524547  1
  Ti  Ti50  1  0.12928240  0.88058333  0.37875201  1
  Ti  Ti51  1  0.13179016  0.61745912  0.61660601  1
  Ti  Ti52  1  0.13546411  0.88045516  0.12613462  1
  Ti  Ti53  1  0.12738141  0.11966011  0.62160286  1
  Ti  Ti54  1  0.11829850  0.37813380  0.87658753  1
  Ti  Ti55  1  0.88483354  0.12856749  0.87792227  1
  Ti  Ti56  1  0.63483666  0.37518284  0.38652488  1
  Ti  Ti57  1  0.61767928  0.13394566  0.12157930  1
  Ti  Ti58  1  0.36047199  0.86640224  0.88488595  1
  Ti  Ti59  1  0.86059427  0.87501430  0.62788422  1
  Ti  Ti60  1  0.87614694  0.85917913  0.86861092  1
  Ti  Ti61  1  0.37104987  0.38544722  0.61835614  1
  Ti  Ti62  1  0.87850017  0.37252441  0.88024071  1
  Ti  Ti63  1  0.38592101  0.61792308  0.12131635  1
  Ti  Ti64  1  0.37751238  0.61564384  0.36501668  1
  Ti  Ti65  1  0.87872916  0.88640617  0.13209437  1
  Ti  Ti66  1  0.62446039  0.60968928  0.12597050  1
  Ti  Ti67  1  0.62808457  0.61627939  0.87773085  1
  Ti  Ti68  1  0.13408155  0.37943353  0.12753757  1
  Ti  Ti69  1  0.39024903  0.38090974  0.13018632  1
  Ti  Ti70  1  0.86158344  0.12720402  0.12672866  1
  Ti  Ti71  1  0.12051682  0.38310772  0.61728563  1
  Ti  Ti72  1  0.62551557  0.88028887  0.37241290  1
  Ti  Ti73  1  0.87725447  0.11660653  0.37795431  1
  Bi  Bi74  1  0.27853356  0.73605168  0.50175402  1
  Bi  Bi75  1  0.74436443  0.77396555  0.26534793  1
  Bi  Bi76  1  0.78003192  0.49406544  0.23748287  1
  Bi  Bi77  1  0.74780552  0.21381406  0.49951177  1
  Bi  Bi78  1  0.00284049  0.76518820  0.00815853  1
  Bi  Bi79  1  0.03564718  0.01335822  0.24751188  1
  Bi  Bi80  1  0.77916956  0.50404371  0.49384522  1
  Bi  Bi81  1  0.51582785  0.24779289  0.73294817  1
  Bi  Bi82  1  -0.02802198  -0.02145265  0.50574803  1
  Bi  Bi83  1  0.23364955  0.71022919  0.03142266  1
  Bi  Bi84  1  0.01922360  0.25005475  0.47255034  1
  Bi  Bi85  1  0.27228992  0.76362486  0.26168604  1
  Bi  Bi86  1  0.23207665  0.24634805  0.73966094  1
  Bi  Bi87  1  0.00639455  0.23497804  0.01478857  1
  Bi  Bi88  1  0.74528420  0.78677026  0.01862836  1
  Bi  Bi89  1  0.00965002  0.01458473  0.00884448  1
  Bi  Bi90  1  0.50228115  0.78026129  0.51552573  1
  Bi  Bi91  1  0.49813825  0.25917374  -0.01607132  1
  Bi  Bi92  1  0.51665729  0.73437482  0.26551364  1
  Bi  Bi93  1  0.76442205  0.00390515  0.78573485  1
  Bi  Bi94  1  0.01832819  0.52354390  -0.00822860  1
  Bi  Bi95  1  0.23784961  0.48623803  0.74630449  1
  Bi  Bi96  1  0.24652312  0.19874321  0.23091910  1
  Bi  Bi97  1  0.04139285  0.73930914  0.23184998  1
  Bi  Bi98  1  0.72341600  0.74653755  0.53493279  1
  Bi  Bi99  1  0.48255813  0.24765945  0.28719377  1
  Bi  Bi100  1  0.26620774  0.26547444  -0.00361246  1
  Bi  Bi101  1  -0.02419166  0.75560463  0.48309985  1
  Bi  Bi102  1  0.49785754  -0.03817051  0.77950167  1
  Bi  Bi103  1  0.25551701  0.49129909  0.01475440  1
  Bi  Bi104  1  0.26997332  0.23065797  0.48652863  1
  Bi  Bi105  1  0.53514117  0.76273112  0.02061661  1
  Bi  Bi106  1  0.47618004  -0.01568304  0.02216448  1
  Bi  Bi107  1  0.03041931  0.23979609  0.23431778  1
  Bi  Bi108  1  0.78561462  0.50616803  0.00468615  1
  Bi  Bi109  1  0.72033359  0.00129888  0.23143838  1
  Bi  Bi110  1  0.01428841  0.50777449  0.22784086  1
  Bi  Bi111  1  0.00481805  -0.02490116  0.76159565  1
  Bi  Bi112  1  0.75098308  0.23305758  0.26982239  1
  Bi  Bi113  1  0.52710758  0.49878908  0.73791681  1
  Bi  Bi114  1  0.25493704  0.02596084  0.02473013  1
  Bi  Bi115  1  -0.00641874  0.71981684  0.73243197  1
  Bi  Bi116  1  0.48501479  0.48412421  0.48959439  1
  Bi  Bi117  1  0.78506527  0.49653385  0.75889303  1
  Bi  Bi118  1  0.73850690  0.27286388  -0.00183767  1
  Bi  Bi119  1  0.75515975  0.22919786  0.74908473  1
  Bi  Bi120  1  0.49380495  0.21822527  0.51034965  1
  Bi  Bi121  1  0.26022814  -0.03054721  0.75190872  1
  Bi  Bi122  1  -0.00827805  0.23137404  0.73706092  1
  Bi  Bi123  1  0.26635490  -0.03199771  0.52085466  1
  Bi  Bi124  1  0.24784272  0.72078298  0.76571847  1
  O  O125  1  0.10003885  0.12852823  -0.00505083  1
  O  O126  1  0.11630275  0.12730043  0.25389790  1
  O  O127  1  0.11821476  0.15356468  0.50632126  1
  O  O128  1  0.14931307  0.12598824  0.75181242  1
  O  O129  1  0.15758434  0.36818442  0.01063128  1
  O  O130  1  0.10236187  0.40305942  0.25762767  1
  O  O131  1  0.12697304  0.35178790  0.50912590  1
  O  O132  1  0.10571250  0.42161385  0.76508424  1
  O  O133  1  0.10018192  0.64192591  -0.01197127  1
  O  O134  1  0.11515943  0.59700314  0.25577848  1
  O  O135  1  0.12566315  0.64431650  0.50230734  1
  O  O136  1  0.15360976  0.61483381  0.74628174  1
  O  O137  1  0.10939075  0.86099567  0.00662971  1
  O  O138  1  0.09821585  0.88099979  0.24655830  1
  O  O139  1  0.14929092  0.86953461  0.49904212  1
  O  O140  1  0.12712753  0.89801511  0.74113735  1
  O  O141  1  0.37575624  0.09415186  0.00819822  1
  O  O142  1  0.38656845  0.15227110  0.25807124  1
  O  O143  1  0.36847742  0.12879344  0.49636294  1
  O  O144  1  0.35832440  0.15624200  0.75763310  1
  O  O145  1  0.34463581  0.38064833  0.00728528  1
  O  O146  1  0.40838087  0.37282623  0.24708245  1
  O  O147  1  0.35445100  0.42084650  0.50450090  1
  O  O148  1  0.39773039  0.36677479  0.75577549  1
  O  O149  1  0.37086665  0.61767127  -0.00219598  1
  O  O150  1  0.35484895  0.62134180  0.24249250  1
  O  O151  1  0.34532653  0.60604442  0.48674962  1
  O  O152  1  0.36941762  0.64612615  0.74957243  1
  O  O153  1  0.35481759  0.91616615  0.00174263  1
  O  O154  1  0.36826626  0.85760829  0.24182175  1
  O  O155  1  0.35699958  0.86873523  0.49153882  1
  O  O156  1  0.37330484  0.87425546  0.75946677  1
  O  O157  1  0.62439736  0.09268787  -0.00054751  1
  O  O158  1  0.65131897  0.13347739  0.24104573  1
  O  O159  1  0.63847295  0.12565365  0.49961198  1
  O  O160  1  0.62482581  0.15994254  0.75644644  1
  O  O161  1  0.65178662  0.38597357  0.00150357  1
  O  O162  1  0.59593803  0.37737953  0.24741462  1
  O  O163  1  0.64951150  0.38340433  0.50342062  1
  O  O164  1  0.59802232  0.35874485  0.74654857  1
  O  O165  1  0.61006905  0.60179725  -0.00636991  1
  O  O166  1  0.60968248  0.62731446  0.24048109  1
  O  O167  1  0.63877317  0.62303478  0.49205499  1
  O  O168  1  0.60041374  0.62098347  0.74953456  1
  O  O169  1  0.63189830  0.87256512  -0.00759441  1
  O  O170  1  0.64745895  0.87376808  0.24276589  1
  O  O171  1  0.62179294  0.87443965  0.49007514  1
  O  O172  1  0.58097571  0.85431788  0.75568665  1
  O  O173  1  0.90260158  0.12416895  -0.00267870  1
  O  O174  1  0.85585945  0.12634565  0.24659789  1
  O  O175  1  0.86970000  0.14147936  0.49614765  1
  O  O176  1  0.87070992  0.14317537  0.74904661  1
  O  O177  1  0.85101742  0.37308771  0.00058248  1
  O  O178  1  0.88405948  0.39211756  0.25246314  1
  O  O179  1  0.86093213  0.38551085  0.50402953  1
  O  O180  1  0.90129571  0.41034051  0.75262605  1
  O  O181  1  0.86601397  0.62779737  0.00193530  1
  O  O182  1  0.87585319  0.61816923  0.24777056  1
  O  O183  1  0.86017761  0.62563973  0.49566443  1
  O  O184  1  0.86264317  0.61350209  0.74953102  1
  O  O185  1  0.89340512  0.85922561  -0.01242047  1
  O  O186  1  0.85474403  0.87707929  0.24362449  1
  O  O187  1  0.88732095  0.86489935  0.50352148  1
  O  O188  1  0.87767411  0.89436175  0.74239766  1
  O  O189  1  -0.01189274  0.15801333  0.12995383  1
  O  O190  1  -0.00731095  0.14499047  0.37295794  1
  O  O191  1  0.00939233  0.12337759  0.64844342  1
  O  O192  1  0.00357386  0.13683346  0.85550897  1
  O  O193  1  0.00521401  0.33698075  0.11869929  1
  O  O194  1  -0.00695749  0.37969675  0.39602319  1
  O  O195  1  0.00392493  0.41873040  0.61955890  1
  O  O196  1  0.00537283  0.38124026  0.90765914  1
  O  O197  1  -0.01405085  0.65752868  0.12142114  1
  O  O198  1  -0.00172520  0.61632802  0.38428875  1
  O  O199  1  0.01168969  0.60618545  0.65324303  1
  O  O200  1  0.00961151  0.60083801  0.84130758  1
  O  O201  1  -0.00851757  0.83497164  0.12749498  1
  O  O202  1  0.00684648  0.86185681  0.39745529  1
  O  O203  1  0.01143540  0.89973517  0.61878603  1
  O  O204  1  -0.00326809  0.86877742  0.85085607  1
  O  O205  1  0.27111296  0.08359250  0.15570111  1
  O  O206  1  0.25508676  0.13819567  0.37644299  1
  O  O207  1  0.24258219  0.16661028  0.62015228  1
  O  O208  1  0.24686250  0.12396388  0.89875303  1
  O  O209  1  0.23734200  0.43209117  0.14903685  1
  O  O210  1  0.24341489  0.39910866  0.37591043  1
  O  O211  1  0.24514163  0.37081556  0.65675263  1
  O  O212  1  0.25612862  0.38448989  0.86118076  1
  O  O213  1  0.24765548  0.59972205  0.11001874  1
  O  O214  1  0.24272043  0.58998406  0.35983168  1
  O  O215  1  0.24939336  0.65808653  0.62431782  1
  O  O216  1  0.25090118  0.62709194  0.87462271  1
  O  O217  1  0.24486878  0.91132324  0.13453219  1
  O  O218  1  0.24056106  0.87201642  0.34980734  1
  O  O219  1  0.24908528  0.87580776  0.63048719  1
  O  O220  1  0.24587770  0.89116654  0.86696822  1
  O  O221  1  0.51089743  0.15860148  0.12817933  1
  O  O222  1  0.49797191  0.13448923  0.38055149  1
  O  O223  1  0.49173349  0.12879551  0.61899592  1
  O  O224  1  0.49741463  0.12715168  0.87559105  1
  O  O225  1  0.49730407  0.35331902  0.09822681  1
  O  O226  1  0.50916859  0.37411734  0.40006176  1
  O  O227  1  0.48756987  0.40380417  0.60725322  1
  O  O228  1  0.49496650  0.37763539  0.91636790  1
  O  O229  1  0.49538976  0.65530054  0.12003844  1
  O  O230  1  0.49249715  0.64533340  0.37067912  1
  O  O231  1  0.48880182  0.59549722  0.61780195  1
  O  O232  1  0.49481072  0.66327423  0.87060974  1
  O  O233  1  0.49350356  0.85572524  0.10706664  1
  O  O234  1  0.50967905  0.87124172  0.33675342  1
  O  O235  1  0.49099970  0.88196097  0.60245658  1
  O  O236  1  0.48333458  0.88913084  0.89486576  1
  O  O237  1  0.75578186  0.08018574  0.10735023  1
  O  O238  1  0.75440101  0.13831834  0.37460822  1
  O  O239  1  0.75100118  0.15506922  0.62997614  1
  O  O240  1  0.75456444  0.12232322  0.86777229  1
  O  O241  1  0.73977214  0.39419203  0.14957972  1
  O  O242  1  0.74875639  0.39731194  0.35915698  1
  O  O243  1  0.75241111  0.35062840  0.64835471  1
  O  O244  1  0.76027759  0.36916362  0.85431379  1
  O  O245  1  0.73969435  0.59483758  0.12939197  1
  O  O246  1  0.74837993  0.61682959  0.35868495  1
  O  O247  1  0.74292247  0.66698091  0.64322404  1
  O  O248  1  0.74180410  0.60034659  0.86391723  1
  O  O249  1  0.76498683  0.90088013  0.09596593  1
  O  O250  1  0.74719195  0.85333569  0.37579449  1
  O  O251  1  0.74754526  0.85620262  0.62459939  1
  O  O252  1  0.76101430  0.89699279  0.86936732  1
  O  O253  1  0.09340443  -0.00656589  0.11939152  1
  O  O254  1  0.11166116  -0.00410468  0.37293499  1
  O  O255  1  0.14849438  0.01110200  0.60883915  1
  O  O256  1  0.10528627  0.00563412  0.87633080  1
  O  O257  1  0.14638805  0.26404168  0.15310530  1
  O  O258  1  0.11625997  0.26371199  0.37088870  1
  O  O259  1  0.11033339  0.27198299  0.66154320  1
  O  O260  1  0.13082665  0.26152379  0.86498287  1
  O  O261  1  0.08100298  0.49101587  0.10988033  1
  O  O262  1  0.11408857  0.49804818  0.41537330  1
  O  O263  1  0.15667967  0.50404116  0.61623781  1
  O  O264  1  0.13173637  0.50122773  0.91480102  1
  O  O265  1  0.14853144  0.75787982  0.14173447  1
  O  O266  1  0.12964875  0.73782007  0.35487840  1
  O  O267  1  0.10330428  0.75202107  0.64229522  1
  O  O268  1  0.12547993  0.74282381  0.85373859  1
  O  O269  1  0.42201082  -0.00546540  0.15303408  1
  O  O270  1  0.36442409  0.00166609  0.34696581  1
  O  O271  1  0.36214229  0.00196149  0.62446860  1
  O  O272  1  0.36863469  0.01116596  0.84972024  1
  O  O273  1  0.33673864  0.26100994  0.12022382  1
  O  O274  1  0.38123244  0.25997685  0.38895589  1
  O  O275  1  0.37888384  0.26877968  0.59347421  1
  O  O276  1  0.37656364  0.25170136  0.90465401  1
  O  O277  1  0.39236948  0.49900468  0.12046288  1
  O  O278  1  0.40596439  0.50108868  0.36149102  1
  O  O279  1  0.34755715  0.50502704  0.65028238  1
  O  O280  1  0.38797837  0.50695192  0.86377132  1
  O  O281  1  0.33880423  0.73818939  0.11576778  1
  O  O282  1  0.35438992  0.73907323  0.37406536  1
  O  O283  1  0.38839558  0.73854570  0.59291983  1
  O  O284  1  0.35227894  0.75567271  0.89378902  1
  O  O285  1  0.61019698  0.00618937  0.14510552  1
  O  O286  1  0.64149294  -0.00391790  0.37336210  1
  O  O287  1  0.61111506  0.00030930  0.61625648  1
  O  O288  1  0.62728477  0.00528317  0.84357535  1
  O  O289  1  0.65058669  0.25112403  0.10753648  1
  O  O290  1  0.63990779  0.25964331  0.36981893  1
  O  O291  1  0.59323105  0.26013934  0.61610731  1
  O  O292  1  0.62188950  0.24398295  0.90486375  1
  O  O293  1  0.59214742  0.49328026  0.11570917  1
  O  O294  1  0.60237086  0.50336574  0.36563323  1
  O  O295  1  0.63740444  0.49036701  0.64705390  1
  O  O296  1  0.60065243  0.49763017  0.86392247  1
  O  O297  1  0.64339555  0.73433350  0.10066873  1
  O  O298  1  0.62439488  0.74467701  0.35405329  1
  O  O299  1  0.60006229  0.74813205  0.60691914  1
  O  O300  1  0.65359238  0.73713727  0.85500066  1
  O  O301  1  0.91378782  -0.00289337  0.12318078  1
  O  O302  1  0.88531797  0.00332029  0.38613407  1
  O  O303  1  0.87226577  -0.00579209  0.60328954  1
  O  O304  1  0.88790260  0.00974904  0.86155657  1
  O  O305  1  0.83522241  0.23958044  0.11711871  1
  O  O306  1  0.86109221  0.25952770  0.36782826  1
  O  O307  1  0.90847415  0.26827941  0.62792988  1
  O  O308  1  0.88237910  0.25377716  0.87773853  1
  O  O309  1  0.87705643  0.50341046  0.11829540  1
  O  O310  1  0.87826263  0.50274709  0.38750334  1
  O  O311  1  0.84079445  0.50041739  0.61977557  1
  O  O312  1  0.86979110  0.49595033  0.89028844  1
  O  O313  1  0.83641130  0.75028101  0.12585894  1
  O  O314  1  0.88541661  0.74519634  0.37361797  1
  O  O315  1  0.90624175  0.75499055  0.62779709  1
  O  O316  1  0.85666027  0.74912876  0.84755066  1
