# generated using pymatgen
data_Mg32Ti42(Bi17O64)3
_symmetry_space_group_name_H-M   'P 1'
_cell_length_a   16.00421840
_cell_length_b   15.95910893
_cell_length_c   15.93343921
_cell_angle_alpha   90.03412910
_cell_angle_beta   89.99256934
_cell_angle_gamma   90.00787694
_symmetry_Int_Tables_number   1
_chemical_formula_structural   Mg32Ti42(Bi17O64)3
_chemical_formula_sum   'Mg32 Ti42 Bi51 O192'
_cell_volume   4069.60774853
_cell_formula_units_Z   1
loop_
 _symmetry_equiv_pos_site_id
 _symmetry_equiv_pos_as_xyz
  1  'x, y, z'
loop_
 _atom_site_type_symbol
 _atom_site_label
 _atom_site_symmetry_multiplicity
 _atom_site_fract_x
 _atom_site_fract_y
 _atom_site_fract_z
 _atom_site_occupancy
  Mg  Mg0  1  0.62866015  0.88001520  0.38681056  1
  Mg  Mg1  1  0.38987117  0.36725231  0.88215526  1
  Mg  Mg2  1  0.13696208  0.36972826  0.62885884  1
  Mg  Mg3  1  0.88289285  0.11743760  0.12750162  1
  Mg  Mg4  1  0.87857801  0.62647061  0.87283848  1
  Mg  Mg5  1  0.38622012  0.37595355  0.62248653  1
  Mg  Mg6  1  0.12738129  0.12625380  0.36704970  1
  Mg  Mg7  1  0.37964066  0.62637225  0.87211345  1
  Mg  Mg8  1  0.87564641  0.87422132  0.37121380  1
  Mg  Mg9  1  0.14189155  0.38360925  0.37081303  1
  Mg  Mg10  1  0.11704239  0.63227760  0.37747398  1
  Mg  Mg11  1  0.37845650  0.62162529  0.12313821  1
  Mg  Mg12  1  0.13336446  0.87818394  0.63325698  1
  Mg  Mg13  1  0.85261611  0.63038734  0.13667006  1
  Mg  Mg14  1  0.62460089  0.37031587  0.37997041  1
  Mg  Mg15  1  0.12288524  0.87565146  0.37024458  1
  Mg  Mg16  1  0.87896545  0.37613320  0.38412976  1
  Mg  Mg17  1  0.37352999  0.12365744  0.61630539  1
  Mg  Mg18  1  0.61908679  0.62466231  0.37744314  1
  Mg  Mg19  1  0.51341543  0.23573574  0.69110026  1
  Mg  Mg20  1  0.53767116  0.20414357  -0.00287375  1
  Mg  Mg21  1  0.54274671  0.74878670  0.74491404  1
  Mg  Mg22  1  0.20524145  0.54943578  0.25954394  1
  Mg  Mg23  1  -0.05406592  0.53572056  0.01131213  1
  Mg  Mg24  1  0.02943191  0.03051023  0.74563052  1
  Mg  Mg25  1  0.01442197  0.23840039  0.69054259  1
  Mg  Mg26  1  0.48404787  0.79458248  0.30781161  1
  Mg  Mg27  1  0.24938513  0.54627462  0.44559083  1
  Mg  Mg28  1  0.55678826  0.49062514  0.27405413  1
  Mg  Mg29  1  0.51949611  0.26335968  0.27849773  1
  Mg  Mg30  1  0.55526621  -0.00406004  -0.02009520  1
  Mg  Mg31  1  0.00047440  0.32692496  0.25779741  1
  Ti  Ti32  1  0.13793741  0.62646768  0.63479177  1
  Ti  Ti33  1  0.88893865  0.12087553  0.38204198  1
  Ti  Ti34  1  0.38744691  0.87703068  0.10636808  1
  Ti  Ti35  1  0.38622581  0.62257849  0.35890950  1
  Ti  Ti36  1  0.38066893  0.38845869  0.36432830  1
  Ti  Ti37  1  0.88349860  0.87077065  0.13427077  1
  Ti  Ti38  1  0.63361707  0.12704190  0.60705194  1
  Ti  Ti39  1  0.88056461  0.37536176  0.63133688  1
  Ti  Ti40  1  0.88089829  0.13447018  0.87868083  1
  Ti  Ti41  1  0.87686924  0.88238573  0.88179750  1
  Ti  Ti42  1  0.37891244  0.37408635  0.13100517  1
  Ti  Ti43  1  0.37474035  0.11761764  0.12282913  1
  Ti  Ti44  1  0.88644913  0.12795512  0.62051977  1
  Ti  Ti45  1  0.11256494  0.88940145  0.86520297  1
  Ti  Ti46  1  0.60535051  0.12459495  0.13756364  1
  Ti  Ti47  1  0.62375190  0.88574791  0.63030742  1
  Ti  Ti48  1  0.62093854  0.13113384  0.37560920  1
  Ti  Ti49  1  0.88497214  0.61662093  0.61755894  1
  Ti  Ti50  1  0.13561774  0.12625433  0.61414301  1
  Ti  Ti51  1  0.37940545  0.13234070  0.35896698  1
  Ti  Ti52  1  0.37766760  0.61663110  0.62415707  1
  Ti  Ti53  1  0.62285535  0.37681321  0.63115779  1
  Ti  Ti54  1  0.61622544  0.61482697  0.14210449  1
  Ti  Ti55  1  0.62754895  0.61554637  0.62960087  1
  Ti  Ti56  1  0.12416835  0.87583826  0.11531158  1
  Ti  Ti57  1  0.11760239  0.13812201  0.86776459  1
  Ti  Ti58  1  0.60900246  0.36249202  0.12729415  1
  Ti  Ti59  1  0.36872701  0.87513167  0.63766571  1
  Ti  Ti60  1  0.13034135  0.62918297  0.11451286  1
  Ti  Ti61  1  0.13613669  0.38713243  0.12604145  1
  Ti  Ti62  1  0.11764597  0.61848237  0.87179970  1
  Ti  Ti63  1  0.88456497  0.37939044  0.87637520  1
  Ti  Ti64  1  0.62832866  0.87500621  0.86312364  1
  Ti  Ti65  1  0.39099295  0.87909701  0.87716818  1
  Ti  Ti66  1  0.12797052  0.36778297  0.88415514  1
  Ti  Ti67  1  0.88082020  0.61929989  0.37591324  1
  Ti  Ti68  1  0.63280897  0.12130631  0.86646185  1
  Ti  Ti69  1  0.38790967  0.12409335  0.88374972  1
  Ti  Ti70  1  0.63526587  0.62290170  0.86655520  1
  Ti  Ti71  1  0.13321087  0.13411645  0.12547547  1
  Ti  Ti72  1  0.62512410  0.36158365  0.87873761  1
  Ti  Ti73  1  0.61574690  0.86221901  0.11754765  1
  Bi  Bi74  1  0.50464048  0.49091537  0.02081685  1
  Bi  Bi75  1  0.76159890  0.26388828  0.74340290  1
  Bi  Bi76  1  0.77807433  -0.01695389  0.51854948  1
  Bi  Bi77  1  0.03276375  0.00695410  0.25482520  1
  Bi  Bi78  1  0.02640255  0.27962875  0.48173576  1
  Bi  Bi79  1  0.75606851  -0.01633078  0.02996547  1
  Bi  Bi80  1  0.52685887  0.75634208  0.52222553  1
  Bi  Bi81  1  0.29200805  0.25723291  0.73639630  1
  Bi  Bi82  1  0.25095343  0.00295926  -0.02548091  1
  Bi  Bi83  1  0.29379650  0.75338921  0.48080169  1
  Bi  Bi84  1  0.27789130  0.49549053  -0.01065440  1
  Bi  Bi85  1  0.27989509  -0.03450200  0.25461319  1
  Bi  Bi86  1  0.77954352  0.51843466  0.75428872  1
  Bi  Bi87  1  0.75731997  0.00081681  0.27161351  1
  Bi  Bi88  1  0.78421108  0.77408768  0.72862593  1
  Bi  Bi89  1  0.78287327  0.46484952  0.22880539  1
  Bi  Bi90  1  0.27101644  0.25307674  -0.00150045  1
  Bi  Bi91  1  0.78727726  0.01490473  0.74824202  1
  Bi  Bi92  1  0.02263476  0.75423721  0.24825342  1
  Bi  Bi93  1  0.04529363  0.50868489  0.50504346  1
  Bi  Bi94  1  0.23916100  0.26587761  0.23569463  1
  Bi  Bi95  1  0.28112239  0.73757707  0.75493226  1
  Bi  Bi96  1  0.76890421  0.26203301  0.49599146  1
  Bi  Bi97  1  0.77862502  0.74661041  0.49769583  1
  Bi  Bi98  1  0.27088466  0.01289765  0.74876068  1
  Bi  Bi99  1  0.01400730  0.76082973  0.73336007  1
  Bi  Bi100  1  0.51501913  0.50211828  0.77235050  1
  Bi  Bi101  1  0.27131912  0.46450063  0.75560083  1
  Bi  Bi102  1  0.00198813  0.74986259  -0.02217055  1
  Bi  Bi103  1  0.28285702  0.74468256  0.23339346  1
  Bi  Bi104  1  0.24517734  0.24035599  0.47314535  1
  Bi  Bi105  1  -0.00370375  0.52607945  0.22093822  1
  Bi  Bi106  1  0.51483734  -0.01571624  0.25759325  1
  Bi  Bi107  1  0.52373779  0.71757923  -0.01270802  1
  Bi  Bi108  1  0.00267257  0.76643887  0.48780335  1
  Bi  Bi109  1  0.01882016  -0.02555265  0.52074538  1
  Bi  Bi110  1  0.75414756  0.46427526  0.00722202  1
  Bi  Bi111  1  0.47809685  0.24684103  0.48985883  1
  Bi  Bi112  1  0.01426732  0.03022716  0.00615192  1
  Bi  Bi113  1  0.46514802  -0.01770087  0.47752938  1
  Bi  Bi114  1  0.24881877  -0.02257664  0.46587102  1
  Bi  Bi115  1  0.73915537  0.49497037  0.46806061  1
  Bi  Bi116  1  0.50575303  0.49551864  0.49298681  1
  Bi  Bi117  1  0.71125030  0.75083227  0.27200742  1
  Bi  Bi118  1  0.26744353  0.74087094  -0.01258214  1
  Bi  Bi119  1  -0.03212053  0.28509851  0.03912436  1
  Bi  Bi120  1  0.50341903  0.02958792  0.72849411  1
  Bi  Bi121  1  0.79330350  0.23811802  0.25287611  1
  Bi  Bi122  1  0.77287668  0.73656003  0.00037787  1
  Bi  Bi123  1  0.74676090  0.21824352  0.02439434  1
  Bi  Bi124  1  0.03002368  0.47757543  0.75222670  1
  O  O125  1  0.13440045  0.09900332  -0.00264430  1
  O  O126  1  0.09982747  0.13173967  0.23901933  1
  O  O127  1  0.15787782  0.11562411  0.50179444  1
  O  O128  1  0.08307669  0.14777872  0.75625615  1
  O  O129  1  0.13391020  0.38727598  0.00691936  1
  O  O130  1  0.12715693  0.34908021  0.24937403  1
  O  O131  1  0.11975037  0.38115642  0.50241826  1
  O  O132  1  0.12464461  0.37805383  0.75938945  1
  O  O133  1  0.15191840  0.62869211  0.00224215  1
  O  O134  1  0.09642671  0.62868292  0.24965707  1
  O  O135  1  0.14790559  0.60460475  0.50998844  1
  O  O136  1  0.08908340  0.62291861  0.75395831  1
  O  O137  1  0.13586402  0.87963218  -0.00082548  1
  O  O138  1  0.09281167  0.87320439  0.24344330  1
  O  O139  1  0.14181460  0.89973775  0.50218132  1
  O  O140  1  0.07897318  0.88029613  0.75174833  1
  O  O141  1  0.33716304  0.11671649  -0.00135137  1
  O  O142  1  0.38809403  0.11864804  0.24338334  1
  O  O143  1  0.36904308  0.15365863  0.49186537  1
  O  O144  1  0.38819786  0.11618334  0.76297741  1
  O  O145  1  0.34917602  0.37076452  0.00285892  1
  O  O146  1  0.40223577  0.36665321  0.24603562  1
  O  O147  1  0.39720514  0.36372621  0.49073791  1
  O  O148  1  0.37199518  0.37214815  0.75908279  1
  O  O149  1  0.34003994  0.62393157  -0.00222717  1
  O  O150  1  0.39705117  0.65664032  0.24911392  1
  O  O151  1  0.33817606  0.61704247  0.50376844  1
  O  O152  1  0.39009168  0.65479209  0.74418380  1
  O  O153  1  0.34044030  0.88127658  -0.00640856  1
  O  O154  1  0.38949249  0.86715485  0.23406499  1
  O  O155  1  0.35159142  0.89099428  0.50935650  1
  O  O156  1  0.39327774  0.85902347  0.75592334  1
  O  O157  1  0.63470281  0.11077971  -0.00577435  1
  O  O158  1  0.58030166  0.15132848  0.24715410  1
  O  O159  1  0.64907270  0.11328691  0.49385616  1
  O  O160  1  0.58240466  0.14730319  0.76174919  1
  O  O161  1  0.62528255  0.40633738  0.00065759  1
  O  O162  1  0.59729541  0.35761203  0.24369826  1
  O  O163  1  0.61738414  0.40237288  0.51244542  1
  O  O164  1  0.64619582  0.35053433  0.75958595  1
  O  O165  1  0.63779975  0.63308605  -0.01504380  1
  O  O166  1  0.59247956  0.61915156  0.25010133  1
  O  O167  1  0.62573425  0.59358261  0.50828730  1
  O  O168  1  0.58497039  0.63052286  0.74777746  1
  O  O169  1  0.63747819  0.89564109  -0.00628379  1
  O  O170  1  0.57608089  0.86375637  0.23190920  1
  O  O171  1  0.63554249  0.86473376  0.51142863  1
  O  O172  1  0.58986850  0.86807866  0.74790752  1
  O  O173  1  0.84246048  0.12007035  -0.00802872  1
  O  O174  1  0.87963379  0.12723078  0.25641205  1
  O  O175  1  0.85178066  0.12869847  0.50528384  1
  O  O176  1  0.90148491  0.09629340  0.75391281  1
  O  O177  1  0.89274014  0.40412144  -0.00299053  1
  O  O178  1  0.87419571  0.35950753  0.25705735  1
  O  O179  1  0.87946553  0.34919963  0.51406326  1
  O  O180  1  0.84767946  0.37675490  0.75512421  1
  O  O181  1  0.84947016  0.61820984  0.00592409  1
  O  O182  1  0.90109232  0.62963689  0.25831244  1
  O  O183  1  0.84104954  0.61469474  0.50189463  1
  O  O184  1  0.88335093  0.61939544  0.74013374  1
  O  O185  1  0.83196379  0.87376006  -0.00023154  1
  O  O186  1  0.89939299  0.87570439  0.24719574  1
  O  O187  1  0.84242350  0.87104395  0.49517353  1
  O  O188  1  0.88860893  0.85308546  0.76510068  1
  O  O189  1  0.00274211  0.13849878  0.09279773  1
  O  O190  1  -0.00229776  0.10676861  0.39145421  1
  O  O191  1  -0.00242253  0.13397681  0.60660090  1
  O  O192  1  -0.00767602  0.13182533  0.90593451  1
  O  O193  1  0.01477510  0.36273496  0.13768603  1
  O  O194  1  0.00367913  0.36847738  0.37630401  1
  O  O195  1  -0.00571767  0.36522479  0.65199246  1
  O  O196  1  -0.00046500  0.37489358  0.86893572  1
  O  O197  1  0.00860061  0.60160452  0.10548161  1
  O  O198  1  -0.00714217  0.60750053  0.40471654  1
  O  O199  1  -0.00376091  0.62057184  0.59745341  1
  O  O200  1  0.00138361  0.61678222  0.91584702  1
  O  O201  1  -0.00894697  0.85674416  0.10267145  1
  O  O202  1  -0.00255096  0.88631058  0.41246266  1
  O  O203  1  0.00746300  0.86404021  0.59410967  1
  O  O204  1  -0.01244231  0.87930970  0.91273910  1
  O  O205  1  0.24472498  0.10632369  0.14139197  1
  O  O206  1  0.26283164  0.15511658  0.36331112  1
  O  O207  1  0.24715944  0.12587786  0.65259865  1
  O  O208  1  0.23190473  0.10674359  0.85840690  1
  O  O209  1  0.25582922  0.37880478  0.15104423  1
  O  O210  1  0.26963024  0.34124757  0.36707976  1
  O  O211  1  0.25937258  0.36100661  0.64620256  1
  O  O212  1  0.24399446  0.37584838  0.87073434  1
  O  O213  1  0.24584308  0.62574192  0.16339610  1
  O  O214  1  0.25698550  0.64083859  0.35071983  1
  O  O215  1  0.24738190  0.62338304  0.66239689  1
  O  O216  1  0.23409794  0.65347340  0.85775695  1
  O  O217  1  0.23667720  0.88091019  0.14776278  1
  O  O218  1  0.25125819  0.87749029  0.36130722  1
  O  O219  1  0.25488952  0.88988905  0.65788907  1
  O  O220  1  0.22648844  0.89450260  0.85353718  1
  O  O221  1  0.48765518  0.13996276  0.09478670  1
  O  O222  1  0.50227348  0.09763815  0.39490535  1
  O  O223  1  0.50680968  0.11888563  0.61966329  1
  O  O224  1  0.49488410  0.11211589  0.91508618  1
  O  O225  1  0.49198415  0.36346626  0.09335344  1
  O  O226  1  0.50338801  0.41791668  0.37296004  1
  O  O227  1  0.51188232  0.35962214  0.64856349  1
  O  O228  1  0.51194517  0.39303458  0.87353783  1
  O  O229  1  0.50099401  0.62401608  0.08692384  1
  O  O230  1  0.49431646  0.58972840  0.38827568  1
  O  O231  1  0.48951124  0.63444223  0.59815438  1
  O  O232  1  0.50169858  0.61442802  0.89420057  1
  O  O233  1  0.49558076  0.87224358  0.08146731  1
  O  O234  1  0.50382075  0.89826031  0.38100368  1
  O  O235  1  0.49470134  0.86416417  0.60380320  1
  O  O236  1  0.49724968  0.89598252  0.90128682  1
  O  O237  1  0.73037284  0.13257748  0.13683424  1
  O  O238  1  0.73257297  0.13303603  0.34135725  1
  O  O239  1  0.74443786  0.12640354  0.65413276  1
  O  O240  1  0.74514315  0.12582685  0.84112686  1
  O  O241  1  0.73194462  0.38418475  0.12387077  1
  O  O242  1  0.74836893  0.36166360  0.40274524  1
  O  O243  1  0.74964491  0.34599947  0.62136315  1
  O  O244  1  0.75168355  0.37227784  0.90425826  1
  O  O245  1  0.73026066  0.59874779  0.14759886  1
  O  O246  1  0.74857419  0.65984382  0.36525059  1
  O  O247  1  0.73804522  0.61701678  0.64569108  1
  O  O248  1  0.74736433  0.63505203  0.84373545  1
  O  O249  1  0.72719578  0.89633961  0.14132610  1
  O  O250  1  0.74534480  0.86719756  0.33830708  1
  O  O251  1  0.73863132  0.87700686  0.65072493  1
  O  O252  1  0.74054053  0.86730943  0.84673700  1
  O  O253  1  0.09720802  -0.00483971  0.12854260  1
  O  O254  1  0.14043884  0.00273477  0.34314936  1
  O  O255  1  0.10484289  0.01199207  0.64358027  1
  O  O256  1  0.08925318  0.00618304  0.85800489  1
  O  O257  1  0.15308247  0.24803175  0.11292720  1
  O  O258  1  0.12664163  0.24845009  0.39564832  1
  O  O259  1  0.11538916  0.24487019  0.61282246  1
  O  O260  1  0.12762420  0.25068224  0.89499267  1
  O  O261  1  0.13613797  0.50117930  0.15277953  1
  O  O262  1  0.15529226  0.50704239  0.36969269  1
  O  O263  1  0.11189853  0.50079700  0.63726265  1
  O  O264  1  0.12599784  0.50376482  0.86670166  1
  O  O265  1  0.11728523  0.74719940  0.12857495  1
  O  O266  1  0.09357341  0.75354747  0.37331066  1
  O  O267  1  0.12505384  0.74438212  0.64198294  1
  O  O268  1  0.08733801  0.75698333  0.86510392  1
  O  O269  1  0.37608455  -0.00287607  0.12147746  1
  O  O270  1  0.36671072  0.01234119  0.37999381  1
  O  O271  1  0.38476364  -0.00209988  0.64411061  1
  O  O272  1  0.35761517  -0.00253163  0.87158898  1
  O  O273  1  0.34873193  0.24486528  0.11721957  1
  O  O274  1  0.42455512  0.24863110  0.36107304  1
  O  O275  1  0.39216363  0.24433360  0.64572006  1
  O  O276  1  0.36865960  0.23953205  0.88726955  1
  O  O277  1  0.37904843  0.49322110  0.10425148  1
  O  O278  1  0.34628308  0.49913821  0.36959421  1
  O  O279  1  0.38192549  0.50393519  0.64289882  1
  O  O280  1  0.35738228  0.50107747  0.87456135  1
  O  O281  1  0.35309789  0.75503668  0.10784487  1
  O  O282  1  0.40194972  0.73841355  0.39512798  1
  O  O283  1  0.35534603  0.75455275  0.60618543  1
  O  O284  1  0.36509368  0.75793233  0.88610209  1
  O  O285  1  0.59306662  0.00863263  0.13142113  1
  O  O286  1  0.63280537  0.00317025  0.33623557  1
  O  O287  1  0.62039142  0.00167972  0.63649261  1
  O  O288  1  0.61983854  0.00343221  0.86136593  1
  O  O289  1  0.61486290  0.24912377  0.09420977  1
  O  O290  1  0.59614370  0.24635531  0.38656762  1
  O  O291  1  0.61826845  0.24244587  0.61139062  1
  O  O292  1  0.61312538  0.24873890  0.90410729  1
  O  O293  1  0.58570734  0.49370162  0.14133708  1
  O  O294  1  0.65497169  0.49823106  0.35812073  1
  O  O295  1  0.61465888  0.49405095  0.65941649  1
  O  O296  1  0.63312832  0.50462754  0.84802583  1
  O  O297  1  0.62425376  0.74680617  0.11091887  1
  O  O298  1  0.60163181  0.75383120  0.36067922  1
  O  O299  1  0.61321290  0.74206780  0.63077894  1
  O  O300  1  0.60390424  0.75456798  0.86402077  1
  O  O301  1  0.86947072  -0.00770019  0.11766963  1
  O  O302  1  0.84355878  0.00501557  0.38561990  1
  O  O303  1  0.86646842  0.00652509  0.62177838  1
  O  O304  1  0.85981918  -0.00264779  0.87679445  1
  O  O305  1  0.85956980  0.24386751  0.11194783  1
  O  O306  1  0.86416079  0.23961215  0.38122794  1
  O  O307  1  0.88249617  0.24229922  0.65843291  1
  O  O308  1  0.86849955  0.24950694  0.87228640  1
  O  O309  1  0.87880528  0.50499137  0.14153010  1
  O  O310  1  0.84915183  0.50249398  0.37188833  1
  O  O311  1  0.86669663  0.49146496  0.62869776  1
  O  O312  1  0.87002648  0.49858241  0.86391577  1
  O  O313  1  0.84419418  0.75537662  0.12010571  1
  O  O314  1  0.88616032  0.74525753  0.40268828  1
  O  O315  1  0.86193971  0.73668001  0.61459916  1
  O  O316  1  0.87878987  0.75094414  0.90424762  1
