# generated using pymatgen
data_Mg32Ti42(Bi17O64)3
_symmetry_space_group_name_H-M   'P 1'
_cell_length_a   15.94106527
_cell_length_b   15.93884413
_cell_length_c   15.94257521
_cell_angle_alpha   90.06566667
_cell_angle_beta   89.93446846
_cell_angle_gamma   90.07769327
_symmetry_Int_Tables_number   1
_chemical_formula_structural   Mg32Ti42(Bi17O64)3
_chemical_formula_sum   'Mg32 Ti42 Bi51 O192'
_cell_volume   4050.71483098
_cell_formula_units_Z   1
loop_
 _symmetry_equiv_pos_site_id
 _symmetry_equiv_pos_as_xyz
  1  'x, y, z'
loop_
 _atom_site_type_symbol
 _atom_site_label
 _atom_site_symmetry_multiplicity
 _atom_site_fract_x
 _atom_site_fract_y
 _atom_site_fract_z
 _atom_site_occupancy
  Mg  Mg0  1  0.14409088  0.88969449  0.13481801  1
  Mg  Mg1  1  0.87486212  0.62437595  0.63374121  1
  Mg  Mg2  1  0.36765787  0.11038289  0.87053733  1
  Mg  Mg3  1  0.88641346  0.87512309  0.61822961  1
  Mg  Mg4  1  0.37474593  0.37328737  0.87980170  1
  Mg  Mg5  1  0.61886448  0.37348275  0.88597456  1
  Mg  Mg6  1  0.62101236  0.12928977  0.63025554  1
  Mg  Mg7  1  0.37193803  0.37104116  0.62340468  1
  Mg  Mg8  1  0.36957543  0.87497895  0.62847887  1
  Mg  Mg9  1  0.63135486  0.86607154  0.62189609  1
  Mg  Mg10  1  0.12627796  0.37769153  0.38148436  1
  Mg  Mg11  1  0.62445022  0.87481674  0.12880862  1
  Mg  Mg12  1  0.61765967  0.62735901  0.87758474  1
  Mg  Mg13  1  0.87036335  0.37631954  0.38045863  1
  Mg  Mg14  1  0.37019068  0.87173103  0.36266731  1
  Mg  Mg15  1  0.86965744  0.87468426  0.88688675  1
  Mg  Mg16  1  0.11525633  0.13179072  0.86343124  1
  Mg  Mg17  1  0.12656230  0.61412255  0.86792772  1
  Mg  Mg18  1  0.87166657  0.12378215  0.37945714  1
  Mg  Mg19  1  0.02624702  0.46567213  0.77565097  1
  Mg  Mg20  1  0.44318732  0.02493334  0.27550474  1
  Mg  Mg21  1  0.22406837  0.56614339  0.02508278  1
  Mg  Mg22  1  0.00523656  -0.04759284  0.80305978  1
  Mg  Mg23  1  0.81752246  0.77017458  0.75049558  1
  Mg  Mg24  1  0.75220757  -0.03738772  0.05085114  1
  Mg  Mg25  1  -0.05499614  0.25042103  0.77670575  1
  Mg  Mg26  1  0.45878920  0.24326953  -0.04641142  1
  Mg  Mg27  1  0.21659628  -0.02090091  -0.06550560  1
  Mg  Mg28  1  0.26512533  0.05411506  0.31353389  1
  Mg  Mg29  1  0.53830979  0.50045729  0.04893592  1
  Mg  Mg30  1  0.47357543  0.21391771  0.42676038  1
  Mg  Mg31  1  0.22113706  0.79989558  0.75892770  1
  Ti  Ti32  1  0.61999857  0.62915455  0.38375587  1
  Ti  Ti33  1  0.87898231  0.39230159  0.87942921  1
  Ti  Ti34  1  0.61086866  0.36831134  0.62457513  1
  Ti  Ti35  1  0.13337292  0.36652000  0.87986679  1
  Ti  Ti36  1  0.12650906  0.37419560  0.62938701  1
  Ti  Ti37  1  0.11827265  0.12351423  0.12875537  1
  Ti  Ti38  1  0.11983749  0.85996407  0.61976102  1
  Ti  Ti39  1  0.38139263  0.87403484  0.87120588  1
  Ti  Ti40  1  0.36815744  0.37383797  0.37384657  1
  Ti  Ti41  1  0.13194820  0.62238644  0.37930985  1
  Ti  Ti42  1  0.88129594  0.12239973  0.12468948  1
  Ti  Ti43  1  0.87010747  0.61175248  0.12430598  1
  Ti  Ti44  1  0.13865375  0.36524620  0.12403180  1
  Ti  Ti45  1  0.36881034  0.62118399  0.63010290  1
  Ti  Ti46  1  0.37742580  0.87713560  0.12566508  1
  Ti  Ti47  1  0.61916323  0.87152614  0.37374267  1
  Ti  Ti48  1  0.37975963  0.10767734  0.11604218  1
  Ti  Ti49  1  0.63168665  0.11235809  0.37359705  1
  Ti  Ti50  1  0.38328059  0.62249185  0.36926496  1
  Ti  Ti51  1  0.63633838  0.87128712  0.87493588  1
  Ti  Ti52  1  0.87493573  0.62450589  0.86784289  1
  Ti  Ti53  1  0.38300428  0.11916488  0.63629603  1
  Ti  Ti54  1  0.63028665  0.11700483  0.11662634  1
  Ti  Ti55  1  0.87437466  0.87704992  0.38129011  1
  Ti  Ti56  1  0.62928269  0.63051539  0.12977101  1
  Ti  Ti57  1  0.14002293  0.87025886  0.36844061  1
  Ti  Ti58  1  0.62460832  0.11915114  0.87919510  1
  Ti  Ti59  1  0.37119336  0.62776872  0.88182636  1
  Ti  Ti60  1  0.63386396  0.36984149  0.12464309  1
  Ti  Ti61  1  0.12084554  0.14099059  0.37224425  1
  Ti  Ti62  1  0.87450585  0.37180277  0.12702142  1
  Ti  Ti63  1  0.87997804  0.62324803  0.37414631  1
  Ti  Ti64  1  0.87564420  0.37665340  0.64123838  1
  Ti  Ti65  1  0.87964973  0.11172902  0.87488650  1
  Ti  Ti66  1  0.12052909  0.62221627  0.63706251  1
  Ti  Ti67  1  0.88247579  0.12480055  0.63007855  1
  Ti  Ti68  1  0.87909508  0.86458857  0.12554363  1
  Ti  Ti69  1  0.11530232  0.13967856  0.62349230  1
  Ti  Ti70  1  0.62141748  0.62489654  0.63250002  1
  Ti  Ti71  1  0.62147761  0.36255984  0.38271855  1
  Ti  Ti72  1  0.38701541  0.62348752  0.11479172  1
  Ti  Ti73  1  0.38222312  0.37515487  0.10836835  1
  Bi  Bi74  1  0.49764557  0.76027098  0.00673978  1
  Bi  Bi75  1  0.23669481  0.77703169  -0.03642278  1
  Bi  Bi76  1  -0.00276202  0.48284238  0.52694188  1
  Bi  Bi77  1  0.73953586  0.24877979  0.76249487  1
  Bi  Bi78  1  0.52126023  -0.02106587  0.72296646  1
  Bi  Bi79  1  0.24943103  0.21430774  -0.01760615  1
  Bi  Bi80  1  0.02781094  0.48793492  0.24804428  1
  Bi  Bi81  1  0.49032532  0.51503156  0.76875222  1
  Bi  Bi82  1  0.49813615  -0.01143084  -0.01048766  1
  Bi  Bi83  1  0.02764565  0.76358249  0.78963178  1
  Bi  Bi84  1  0.73576365  0.24000558  0.51932751  1
  Bi  Bi85  1  0.50187013  0.76186687  0.72271299  1
  Bi  Bi86  1  0.48144623  0.47605652  0.50050131  1
  Bi  Bi87  1  0.24237945  -0.01177321  0.51849813  1
  Bi  Bi88  1  0.52165115  0.48538755  0.25593244  1
  Bi  Bi89  1  0.23526111  0.73118570  0.21422874  1
  Bi  Bi90  1  0.03592913  0.49627648  0.01211279  1
  Bi  Bi91  1  0.73309968  0.50297264  -0.00058738  1
  Bi  Bi92  1  0.20319932  -0.00435869  0.74364843  1
  Bi  Bi93  1  0.27125744  0.24937313  0.75052928  1
  Bi  Bi94  1  0.02156800  0.01014042  0.48394003  1
  Bi  Bi95  1  0.76282238  -0.02246097  0.25972229  1
  Bi  Bi96  1  0.75188310  0.22821777  0.24933711  1
  Bi  Bi97  1  0.76158917  0.22982780  -0.01679136  1
  Bi  Bi98  1  0.51316159  0.23537449  0.22742229  1
  Bi  Bi99  1  0.00429969  -0.01039929  0.25747906  1
  Bi  Bi100  1  0.26749614  0.23541552  0.22191215  1
  Bi  Bi101  1  0.50298126  0.76058231  0.25166087  1
  Bi  Bi102  1  0.02172816  0.72338328  0.23925843  1
  Bi  Bi103  1  0.46248863  0.01485885  0.47306988  1
  Bi  Bi104  1  0.00745739  0.71292448  0.01687325  1
  Bi  Bi105  1  0.00022562  0.73306768  0.50099796  1
  Bi  Bi106  1  0.28250310  0.22439069  0.49983144  1
  Bi  Bi107  1  0.76534811  0.73998928  0.25876755  1
  Bi  Bi108  1  0.51196775  0.24961549  0.76249805  1
  Bi  Bi109  1  0.26140524  0.48939015  0.78397751  1
  Bi  Bi110  1  0.47184908  0.76785898  0.49576886  1
  Bi  Bi111  1  0.03385251  -0.04208802  -0.00639786  1
  Bi  Bi112  1  0.72780079  0.50901454  0.77226499  1
  Bi  Bi113  1  0.24804747  0.48850483  0.50586563  1
  Bi  Bi114  1  0.26715559  0.50104281  0.22480532  1
  Bi  Bi115  1  0.74813189  0.75995550  -0.00986899  1
  Bi  Bi116  1  -0.00485032  0.24286948  -0.01334156  1
  Bi  Bi117  1  0.77845701  -0.02414925  0.73760508  1
  Bi  Bi118  1  0.76592646  0.74250541  0.52583556  1
  Bi  Bi119  1  -0.01384925  0.27156720  0.26490554  1
  Bi  Bi120  1  0.74273140  0.49412087  0.53135100  1
  Bi  Bi121  1  -0.01962233  0.25447555  0.50265557  1
  Bi  Bi122  1  0.72650782  -0.00370423  0.52112946  1
  Bi  Bi123  1  0.75600092  0.50144577  0.27821901  1
  Bi  Bi124  1  0.25375044  0.73409725  0.49859703  1
  O  O125  1  0.10688976  0.15855093  0.01235999  1
  O  O126  1  0.15285134  0.10695200  0.25950989  1
  O  O127  1  0.09618754  0.13427087  0.49602558  1
  O  O128  1  0.14324361  0.12127280  0.73638999  1
  O  O129  1  0.10228412  0.35618785  0.00080070  1
  O  O130  1  0.13963697  0.40744572  0.24222780  1
  O  O131  1  0.08459395  0.37477144  0.50848514  1
  O  O132  1  0.13785596  0.39375698  0.74891128  1
  O  O133  1  0.10884354  0.62289908  -0.00396402  1
  O  O134  1  0.12710771  0.62768805  0.25771988  1
  O  O135  1  0.12364632  0.66191757  0.49730517  1
  O  O136  1  0.10680993  0.58648296  0.74379203  1
  O  O137  1  0.15632277  0.89066800  0.00305847  1
  O  O138  1  0.11258323  0.90455026  0.25826616  1
  O  O139  1  0.15502172  0.85865216  0.50332058  1
  O  O140  1  0.09775367  0.89485131  0.73817182  1
  O  O141  1  0.38881470  0.15188086  0.00653577  1
  O  O142  1  0.34969998  0.10050039  0.23401953  1
  O  O143  1  0.40097306  0.14913398  0.50514582  1
  O  O144  1  0.33782656  0.10968508  0.74482098  1
  O  O145  1  0.38925807  0.34370244  0.00248543  1
  O  O146  1  0.36481606  0.41120047  0.25545585  1
  O  O147  1  0.40119739  0.36246296  0.49450471  1
  O  O148  1  0.34093493  0.37796685  0.74876714  1
  O  O149  1  0.39763281  0.63261196  -0.00364038  1
  O  O150  1  0.36193463  0.60973722  0.24627768  1
  O  O151  1  0.38339934  0.65460849  0.49212820  1
  O  O152  1  0.35697375  0.60571429  0.74279072  1
  O  O153  1  0.36096079  0.84185624  -0.00257957  1
  O  O154  1  0.41732668  0.89549246  0.23565433  1
  O  O155  1  0.36427219  0.85193938  0.49762624  1
  O  O156  1  0.40710239  0.87361861  0.75786190  1
  O  O157  1  0.61573118  0.12683617  0.00117723  1
  O  O158  1  0.63456481  0.14555942  0.24703183  1
  O  O159  1  0.63587716  0.10527540  0.49461803  1
  O  O160  1  0.63207284  0.15288492  0.75962821  1
  O  O161  1  0.61883167  0.40776853  0.01022925  1
  O  O162  1  0.60964718  0.36255871  0.25024205  1
  O  O163  1  0.61429448  0.39641390  0.49785879  1
  O  O164  1  0.62913794  0.34071461  0.74307854  1
  O  O165  1  0.61754632  0.58938422  0.00311239  1
  O  O166  1  0.62421740  0.65372496  0.24334849  1
  O  O167  1  0.61434464  0.60543104  0.49387811  1
  O  O168  1  0.64675955  0.62755699  0.74554835  1
  O  O169  1  0.66760852  0.88699205  -0.00852745  1
  O  O170  1  0.60233572  0.86325924  0.25464520  1
  O  O171  1  0.65296768  0.88446854  0.49441093  1
  O  O172  1  0.59873432  0.86658869  0.75637125  1
  O  O173  1  0.88868469  0.13991918  -0.00198387  1
  O  O174  1  0.85757939  0.13609095  0.24390473  1
  O  O175  1  0.87895907  0.14902277  0.51077296  1
  O  O176  1  0.86857397  0.13726569  0.75661215  1
  O  O177  1  0.89402135  0.38772551  -0.00507265  1
  O  O178  1  0.86362712  0.36541173  0.24409236  1
  O  O179  1  0.90470108  0.37167828  0.50593034  1
  O  O180  1  0.84609489  0.37839959  0.75104621  1
  O  O181  1  0.88789982  0.63096090  0.00437095  1
  O  O182  1  0.85948590  0.61728331  0.24989022  1
  O  O183  1  0.87141712  0.65440148  0.48951815  1
  O  O184  1  0.86080268  0.64329240  0.75690511  1
  O  O185  1  0.84065435  0.87470490  0.00927677  1
  O  O186  1  0.89100196  0.90100567  0.24469116  1
  O  O187  1  0.85880600  0.85686314  0.49171852  1
  O  O188  1  0.89294611  0.88257108  0.75086873  1
  O  O189  1  -0.00156381  0.12287194  0.14744176  1
  O  O190  1  0.00169058  0.08920094  0.36780626  1
  O  O191  1  0.00237749  0.11664923  0.63348487  1
  O  O192  1  -0.00851538  0.16565540  0.86516517  1
  O  O193  1  0.00205960  0.39532072  0.14367996  1
  O  O194  1  0.00008302  0.39174778  0.34069442  1
  O  O195  1  -0.00104586  0.41790732  0.65328237  1
  O  O196  1  -0.00817117  0.35261125  0.84187606  1
  O  O197  1  -0.00794124  0.62409703  0.13309874  1
  O  O198  1  -0.00389875  0.61967621  0.37437957  1
  O  O199  1  0.00328635  0.63799156  0.60765869  1
  O  O200  1  -0.00583032  0.66255672  0.87933939  1
  O  O201  1  -0.00478041  0.87926898  0.10299024  1
  O  O202  1  -0.00736700  0.90894765  0.38181014  1
  O  O203  1  0.00810198  0.85631521  0.58903275  1
  O  O204  1  -0.00220742  0.85563012  0.89447467  1
  O  O205  1  0.25157457  0.14734327  0.11277537  1
  O  O206  1  0.23790824  0.14569395  0.39457965  1
  O  O207  1  0.24203754  0.12315848  0.58383048  1
  O  O208  1  0.24317458  0.09898920  0.91027346  1
  O  O209  1  0.25546151  0.35120114  0.12756842  1
  O  O210  1  0.25299654  0.37623272  0.40107566  1
  O  O211  1  0.23917509  0.37745345  0.59477625  1
  O  O212  1  0.24296821  0.39841805  0.89128347  1
  O  O213  1  0.26563582  0.65432458  0.10514582  1
  O  O214  1  0.25062438  0.64584655  0.38307120  1
  O  O215  1  0.25084666  0.63464867  0.60535697  1
  O  O216  1  0.25392264  0.59539834  0.90207050  1
  O  O217  1  0.26680037  0.85550828  0.14744241  1
  O  O218  1  0.24759498  0.85051872  0.35179362  1
  O  O219  1  0.24643995  0.87321363  0.65832446  1
  O  O220  1  0.25770198  0.88081502  0.86024194  1
  O  O221  1  0.49738803  0.11077447  0.15139691  1
  O  O222  1  0.50660447  0.10084353  0.36317494  1
  O  O223  1  0.49534646  0.11525225  0.65315484  1
  O  O224  1  0.50568760  0.15313131  0.87040993  1
  O  O225  1  0.49309468  0.40855112  0.12577947  1
  O  O226  1  0.49946914  0.40384146  0.37084459  1
  O  O227  1  0.50024432  0.38842816  0.63526011  1
  O  O228  1  0.49924349  0.33364765  0.87102467  1
  O  O229  1  0.50121512  0.59693567  0.12699758  1
  O  O230  1  0.50049793  0.60798508  0.35665555  1
  O  O231  1  0.50151349  0.60480365  0.64130691  1
  O  O232  1  0.49190544  0.63053316  0.84699441  1
  O  O233  1  0.50424029  0.88095052  0.08105072  1
  O  O234  1  0.50608568  0.89437711  0.39789383  1
  O  O235  1  0.50251903  0.87848456  0.62381360  1
  O  O236  1  0.50400236  0.86996990  0.90617127  1
  O  O237  1  0.74618560  0.15214801  0.12004163  1
  O  O238  1  0.74438661  0.15643170  0.37103746  1
  O  O239  1  0.75703934  0.15485748  0.62557635  1
  O  O240  1  0.75633974  0.11450570  0.89622183  1
  O  O241  1  0.74887127  0.35822381  0.11583701  1
  O  O242  1  0.73863111  0.36279153  0.37700390  1
  O  O243  1  0.75873293  0.35806945  0.60011075  1
  O  O244  1  0.75451471  0.41572682  0.88818234  1
  O  O245  1  0.74805412  0.63635282  0.11766372  1
  O  O246  1  0.74300496  0.63657254  0.36304765  1
  O  O247  1  0.74221629  0.62233768  0.59850348  1
  O  O248  1  0.75429686  0.59265070  0.88912938  1
  O  O249  1  0.75291771  0.87338388  0.15125262  1
  O  O250  1  0.74991785  0.86131751  0.34089683  1
  O  O251  1  0.75441789  0.88264240  0.64393078  1
  O  O252  1  0.74671519  0.88255486  0.83737043  1
  O  O253  1  0.12305166  0.01233720  0.10923415  1
  O  O254  1  0.14316483  -0.00389159  0.40730025  1
  O  O255  1  0.13689257  -0.00381540  0.60937447  1
  O  O256  1  0.10669200  0.00579115  0.86714261  1
  O  O257  1  0.12368762  0.25339737  0.15920519  1
  O  O258  1  0.09706960  0.25170464  0.35845167  1
  O  O259  1  0.11822245  0.25678205  0.63112906  1
  O  O260  1  0.15353415  0.25289200  0.86744909  1
  O  O261  1  0.15060881  0.48671695  0.09084731  1
  O  O262  1  0.13194851  0.51023019  0.39108466  1
  O  O263  1  0.13019533  0.50936871  0.59508102  1
  O  O264  1  0.09371678  0.48769154  0.88570027  1
  O  O265  1  0.11927889  0.76320361  0.14924813  1
  O  O266  1  0.09677629  0.75940743  0.36224707  1
  O  O267  1  0.13317050  0.74846513  0.66073086  1
  O  O268  1  0.15081846  0.73980690  0.84321423  1
  O  O269  1  0.37785720  -0.00466528  0.08928601  1
  O  O270  1  0.36214199  -0.00162949  0.37745592  1
  O  O271  1  0.37074675  0.00361436  0.60130409  1
  O  O272  1  0.38813430  -0.01117696  0.89796973  1
  O  O273  1  0.39130386  0.25895302  0.15431950  1
  O  O274  1  0.38617648  0.26280302  0.35234874  1
  O  O275  1  0.36260811  0.24258550  0.64185366  1
  O  O276  1  0.35025270  0.24078463  0.86405033  1
  O  O277  1  0.34232018  0.50292457  0.10473001  1
  O  O278  1  0.36786640  0.50956370  0.40284581  1
  O  O279  1  0.36536758  0.50386994  0.59363341  1
  O  O280  1  0.38636749  0.49883437  0.86367229  1
  O  O281  1  0.41150039  0.74680500  0.13239615  1
  O  O282  1  0.40731240  0.74891627  0.35870667  1
  O  O283  1  0.39644232  0.74311541  0.63019917  1
  O  O284  1  0.35016361  0.74282985  0.86317097  1
  O  O285  1  0.64905957  0.00555989  0.11963363  1
  O  O286  1  0.65202763  -0.00084764  0.36143186  1
  O  O287  1  0.63795156  0.00287840  0.63941764  1
  O  O288  1  0.60659431  0.00461863  0.86741494  1
  O  O289  1  0.59680191  0.25715869  0.11821108  1
  O  O290  1  0.59012531  0.25030295  0.39360307  1
  O  O291  1  0.61845208  0.25323415  0.59681254  1
  O  O292  1  0.66413041  0.25221916  0.88658396  1
  O  O293  1  0.63701999  0.49917420  0.15181695  1
  O  O294  1  0.63646290  0.50531064  0.34866793  1
  O  O295  1  0.64974065  0.48941414  0.63748046  1
  O  O296  1  0.60927981  0.49486749  0.84304519  1
  O  O297  1  0.60911196  0.74441824  0.09820590  1
  O  O298  1  0.60691057  0.75125915  0.38666769  1
  O  O299  1  0.60765879  0.74128770  0.61979913  1
  O  O300  1  0.63567191  0.75421982  0.89716657  1
  O  O301  1  0.85438028  0.01178199  0.11279944  1
  O  O302  1  0.84232599  -0.00437184  0.37997616  1
  O  O303  1  0.86708428  0.00990894  0.62164131  1
  O  O304  1  0.90754715  0.00272742  0.87266047  1
  O  O305  1  0.89317263  0.25707517  0.11230086  1
  O  O306  1  0.90791930  0.25033728  0.37701506  1
  O  O307  1  0.91222679  0.26184489  0.64687745  1
  O  O308  1  0.84942564  0.26424802  0.87467086  1
  O  O309  1  0.86080389  0.49831233  0.12604152  1
  O  O310  1  0.85206051  0.50599609  0.38257263  1
  O  O311  1  0.86036221  0.49919158  0.61040208  1
  O  O312  1  0.91099526  0.50658252  0.85458399  1
  O  O313  1  0.87972905  0.75148325  0.14057273  1
  O  O314  1  0.87865740  0.75429457  0.34770969  1
  O  O315  1  0.85280673  0.75088651  0.62931365  1
  O  O316  1  0.83639518  0.74847513  0.87849242  1
