# generated using pymatgen
data_Mg32Ti42(Bi17O64)3
_symmetry_space_group_name_H-M   'P 1'
_cell_length_a   15.94245602
_cell_length_b   15.93251941
_cell_length_c   15.91109153
_cell_angle_alpha   89.89747837
_cell_angle_beta   89.84754199
_cell_angle_gamma   89.97994761
_symmetry_Int_Tables_number   1
_chemical_formula_structural   Mg32Ti42(Bi17O64)3
_chemical_formula_sum   'Mg32 Ti42 Bi51 O192'
_cell_volume   4041.45175874
_cell_formula_units_Z   1
loop_
 _symmetry_equiv_pos_site_id
 _symmetry_equiv_pos_as_xyz
  1  'x, y, z'
loop_
 _atom_site_type_symbol
 _atom_site_label
 _atom_site_symmetry_multiplicity
 _atom_site_fract_x
 _atom_site_fract_y
 _atom_site_fract_z
 _atom_site_occupancy
  Mg  Mg0  1  0.12674450  0.13221446  0.62961314  1
  Mg  Mg1  1  0.12136486  0.62209373  0.37619025  1
  Mg  Mg2  1  0.88275716  0.37573376  0.37238839  1
  Mg  Mg3  1  0.12644757  0.61826159  0.12281193  1
  Mg  Mg4  1  0.87276749  0.13507132  0.62910283  1
  Mg  Mg5  1  0.36737320  0.38023632  0.13520734  1
  Mg  Mg6  1  0.62372295  0.37506413  0.36837113  1
  Mg  Mg7  1  0.12238105  0.61860374  0.87295865  1
  Mg  Mg8  1  0.36952313  0.87824017  0.12894455  1
  Mg  Mg9  1  0.86724802  0.62217978  0.37428823  1
  Mg  Mg10  1  0.86799842  0.37376890  0.89045784  1
  Mg  Mg11  1  0.12934414  0.37046744  0.86931434  1
  Mg  Mg12  1  0.12571939  0.12780112  0.36994852  1
  Mg  Mg13  1  0.63058626  0.36960070  0.12531622  1
  Mg  Mg14  1  0.61782991  0.38570966  0.61715992  1
  Mg  Mg15  1  0.11078020  0.62344302  0.61803116  1
  Mg  Mg16  1  0.87375608  0.11439099  0.37796003  1
  Mg  Mg17  1  0.12062945  0.87300949  0.62793185  1
  Mg  Mg18  1  0.87382595  0.62137063  0.87571404  1
  Mg  Mg19  1  0.26460017  0.47511940  0.70978946  1
  Mg  Mg20  1  0.75319370  0.78285292  0.23498063  1
  Mg  Mg21  1  0.74429265  0.45042326  0.46966624  1
  Mg  Mg22  1  0.47613634  -0.04561776  0.51429043  1
  Mg  Mg23  1  -0.04305044  0.72214914  0.48514197  1
  Mg  Mg24  1  0.53866033  0.49863466  0.46545735  1
  Mg  Mg25  1  0.25175101  0.47216079  0.30336164  1
  Mg  Mg26  1  0.75201493  0.25470723  0.30102086  1
  Mg  Mg27  1  -0.05074332  0.05526188  0.01475618  1
  Mg  Mg28  1  0.46997599  -0.00095840  0.73917280  1
  Mg  Mg29  1  0.21862066  -0.02224030  0.01675832  1
  Mg  Mg30  1  0.49837502  0.45516136  0.03679357  1
  Mg  Mg31  1  -0.04702010  0.29547742  0.75128896  1
  Ti  Ti32  1  0.86794227  0.38063216  0.61686026  1
  Ti  Ti33  1  0.37523538  0.11552648  0.62011509  1
  Ti  Ti34  1  0.12505642  0.12327091  0.88022468  1
  Ti  Ti35  1  0.11228027  0.88277745  0.87526090  1
  Ti  Ti36  1  0.12648172  0.37864841  0.63389457  1
  Ti  Ti37  1  0.12221025  0.87116316  0.37463739  1
  Ti  Ti38  1  0.62134866  0.87522190  0.36967365  1
  Ti  Ti39  1  0.12469041  0.12337654  0.11644542  1
  Ti  Ti40  1  0.37417993  0.11461949  0.13556046  1
  Ti  Ti41  1  0.62852974  0.63729850  0.13506848  1
  Ti  Ti42  1  0.88298526  0.87529424  0.87443252  1
  Ti  Ti43  1  0.36901329  0.86286940  0.62966991  1
  Ti  Ti44  1  0.61397997  0.61394915  0.61142631  1
  Ti  Ti45  1  0.11900006  0.86926775  0.12252765  1
  Ti  Ti46  1  0.87003218  0.38417818  0.12659907  1
  Ti  Ti47  1  0.61942005  0.36256676  0.88214839  1
  Ti  Ti48  1  0.61199449  0.89071768  0.85354880  1
  Ti  Ti49  1  0.37122031  0.12537727  0.38259221  1
  Ti  Ti50  1  0.86380472  0.62018057  0.61866040  1
  Ti  Ti51  1  0.12485765  0.37663369  0.13117828  1
  Ti  Ti52  1  0.87684006  0.86833161  0.36798952  1
  Ti  Ti53  1  0.61865734  0.87511272  0.62282688  1
  Ti  Ti54  1  0.37637777  0.61601570  0.62178219  1
  Ti  Ti55  1  0.37232509  0.87225367  0.86213426  1
  Ti  Ti56  1  0.86435805  0.12461550  0.87248156  1
  Ti  Ti57  1  0.63330413  0.62660342  0.37016408  1
  Ti  Ti58  1  0.38919744  0.37254103  0.37508639  1
  Ti  Ti59  1  0.86401317  0.62319785  0.12585869  1
  Ti  Ti60  1  0.61548846  0.10401233  0.10812716  1
  Ti  Ti61  1  0.87612482  0.86726086  0.61928587  1
  Ti  Ti62  1  0.37246814  0.61002587  0.36947890  1
  Ti  Ti63  1  0.61239115  0.12514439  0.87897161  1
  Ti  Ti64  1  0.37187196  0.12325338  0.86903956  1
  Ti  Ti65  1  0.37292578  0.62185962  0.12316975  1
  Ti  Ti66  1  0.62016833  0.11357498  0.63427302  1
  Ti  Ti67  1  0.12071642  0.36891741  0.38350846  1
  Ti  Ti68  1  0.86813346  0.86982230  0.12038020  1
  Ti  Ti69  1  0.37959559  0.37080514  0.87073389  1
  Ti  Ti70  1  0.36424065  0.87399958  0.37941928  1
  Ti  Ti71  1  0.38368287  0.37713877  0.61098299  1
  Ti  Ti72  1  0.61628790  0.86878541  0.12707813  1
  Ti  Ti73  1  0.37185069  0.62067865  0.87417996  1
  Bi  Bi74  1  0.53034610  0.21911065  0.47019941  1
  Bi  Bi75  1  0.48835497  -0.00138664  0.28046320  1
  Bi  Bi76  1  0.22369862  -0.00105297  0.23738592  1
  Bi  Bi77  1  0.22647136  0.75156468  0.50087269  1
  Bi  Bi78  1  0.72352901  0.53717017  -0.02409150  1
  Bi  Bi79  1  0.24522047  0.25517128  0.01795665  1
  Bi  Bi80  1  0.00229889  0.01998800  0.71308800  1
  Bi  Bi81  1  0.73084739  0.72127322  0.73988894  1
  Bi  Bi82  1  0.52887564  0.50235476  0.77957172  1
  Bi  Bi83  1  0.47404679  0.75349706  0.23781448  1
  Bi  Bi84  1  0.49423535  0.72827724  0.48184785  1
  Bi  Bi85  1  0.72883781  0.00674572  0.49531572  1
  Bi  Bi86  1  -0.00609836  0.24326177  -0.02489383  1
  Bi  Bi87  1  -0.00473256  0.71713485  -0.00831886  1
  Bi  Bi88  1  -0.01600152  0.73158483  0.72779101  1
  Bi  Bi89  1  0.74044692  0.24604387  0.75991715  1
  Bi  Bi90  1  0.24888476  0.26364843  0.27485842  1
  Bi  Bi91  1  0.50215772  0.72549406  -0.00733445  1
  Bi  Bi92  1  0.73479324  0.75303955  -0.04164261  1
  Bi  Bi93  1  0.48144050  0.26066825  0.02539835  1
  Bi  Bi94  1  -0.03152864  0.22346140  0.23537155  1
  Bi  Bi95  1  0.73373638  0.25529731  0.52722242  1
  Bi  Bi96  1  0.23634043  0.25245867  0.51485533  1
  Bi  Bi97  1  -0.01354623  -0.00231311  0.22045380  1
  Bi  Bi98  1  -0.00580041  0.49319863  0.23404729  1
  Bi  Bi99  1  -0.02506322  0.22774588  0.48609024  1
  Bi  Bi100  1  0.23539972  0.51264308  0.50637542  1
  Bi  Bi101  1  0.49096406  0.24085772  0.72416992  1
  Bi  Bi102  1  -0.00048077  -0.00263324  0.48095591  1
  Bi  Bi103  1  0.25644434  0.26519315  0.75238117  1
  Bi  Bi104  1  0.74486177  0.75306030  0.47554247  1
  Bi  Bi105  1  0.25707939  0.48473574  -0.01427251  1
  Bi  Bi106  1  0.22374834  0.74836883  -0.01725350  1
  Bi  Bi107  1  0.23041718  -0.00746127  0.76389041  1
  Bi  Bi108  1  -0.01103635  0.49084079  0.74591350  1
  Bi  Bi109  1  0.22884246  0.71543384  0.73817934  1
  Bi  Bi110  1  0.74805981  0.47820286  0.25815622  1
  Bi  Bi111  1  0.21887789  0.00400013  0.51429715  1
  Bi  Bi112  1  0.45674542  -0.00402453  -0.00994431  1
  Bi  Bi113  1  -0.01903533  0.49887824  0.47898381  1
  Bi  Bi114  1  0.23193586  0.72052998  0.24279745  1
  Bi  Bi115  1  -0.01276060  0.72701642  0.23942023  1
  Bi  Bi116  1  0.51215974  0.49301156  0.22761026  1
  Bi  Bi117  1  0.73423716  0.03557072  0.25950661  1
  Bi  Bi118  1  0.54093754  0.22177228  0.24847112  1
  Bi  Bi119  1  0.76431098  0.21988025  0.06260753  1
  Bi  Bi120  1  0.02212487  0.47741042  -0.01474003  1
  Bi  Bi121  1  0.75139817  0.48400655  0.77550580  1
  Bi  Bi122  1  0.50274072  0.72123512  0.76696234  1
  Bi  Bi123  1  0.74236632  -0.02666449  -0.01196251  1
  Bi  Bi124  1  0.77483703  -0.00493112  0.73172932  1
  O  O125  1  0.16251046  0.12851345  -0.00074916  1
  O  O126  1  0.11289333  0.10313513  0.23806562  1
  O  O127  1  0.15575266  0.14187343  0.50060394  1
  O  O128  1  0.11639684  0.09297430  0.75841628  1
  O  O129  1  0.09769128  0.35528500  0.00393917  1
  O  O130  1  0.16108581  0.39607209  0.24353783  1
  O  O131  1  0.11824174  0.34324687  0.49943115  1
  O  O132  1  0.16238682  0.39938816  0.74565156  1
  O  O133  1  0.12871094  0.65341101  0.00003012  1
  O  O134  1  0.10921966  0.63809557  0.24863474  1
  O  O135  1  0.15956200  0.63003228  0.50041494  1
  O  O136  1  0.10526562  0.63630458  0.74654655  1
  O  O137  1  0.14713305  0.86863052  0.00094116  1
  O  O138  1  0.12235453  0.88752711  0.25097614  1
  O  O139  1  0.15010308  0.87028104  0.49858942  1
  O  O140  1  0.11732110  0.90394367  0.75709614  1
  O  O141  1  0.36348799  0.10647194  -0.01353009  1
  O  O142  1  0.39324956  0.11670429  0.24887138  1
  O  O143  1  0.36559651  0.14686677  0.49916797  1
  O  O144  1  0.40919549  0.12023006  0.73910916  1
  O  O145  1  0.40431897  0.37897246  -0.00843029  1
  O  O146  1  0.35101257  0.39609902  0.25945390  1
  O  O147  1  0.38532708  0.35944126  0.49921292  1
  O  O148  1  0.34754172  0.38989727  0.75554518  1
  O  O149  1  0.37700224  0.64805205  0.00488101  1
  O  O150  1  0.40875623  0.61459915  0.25665050  1
  O  O151  1  0.35628298  0.63253583  0.50616498  1
  O  O152  1  0.39796630  0.62608361  0.75425139  1
  O  O153  1  0.35249519  0.90408944  -0.01520470  1
  O  O154  1  0.40367359  0.88409789  0.26220927  1
  O  O155  1  0.37052195  0.87369365  0.50152863  1
  O  O156  1  0.40879708  0.88313539  0.74067359  1
  O  O157  1  0.64139811  0.14787360  -0.00472492  1
  O  O158  1  0.60655771  0.09657045  0.23276030  1
  O  O159  1  0.64676532  0.14984132  0.50733456  1
  O  O160  1  0.59330097  0.10356540  0.74770946  1
  O  O161  1  0.60289244  0.36426717  -0.00505333  1
  O  O162  1  0.62611742  0.41051759  0.24657197  1
  O  O163  1  0.64027040  0.35593257  0.49414148  1
  O  O164  1  0.62949564  0.41526010  0.73990401  1
  O  O165  1  0.63536336  0.66095735  0.01605051  1
  O  O166  1  0.60398989  0.60412322  0.25709443  1
  O  O167  1  0.63125305  0.65781328  0.50147765  1
  O  O168  1  0.60631806  0.61846255  0.73604711  1
  O  O169  1  0.64780452  0.85592388  0.01185810  1
  O  O170  1  0.60673404  0.89380590  0.25404963  1
  O  O171  1  0.66026898  0.87489093  0.49903954  1
  O  O172  1  0.59311774  0.91399972  0.74148306  1
  O  O173  1  0.87165512  0.15579251  -0.00635099  1
  O  O174  1  0.90659427  0.10082801  0.25281173  1
  O  O175  1  0.86164258  0.15488927  0.50359400  1
  O  O176  1  0.88916853  0.09812540  0.75827034  1
  O  O177  1  0.88838709  0.34992782  0.01544854  1
  O  O178  1  0.87956091  0.41882573  0.25114951  1
  O  O179  1  0.89957998  0.35560695  0.50650871  1
  O  O180  1  0.87318603  0.40847150  0.74601695  1
  O  O181  1  0.85913358  0.65081180  0.01187326  1
  O  O182  1  0.90437594  0.60929443  0.25099405  1
  O  O183  1  0.85084284  0.65278351  0.50797224  1
  O  O184  1  0.89675575  0.61159666  0.74702912  1
  O  O185  1  0.85131772  0.85862924  0.00685438  1
  O  O186  1  0.89286991  0.89352776  0.25641420  1
  O  O187  1  0.87285259  0.83479211  0.50781704  1
  O  O188  1  0.88200487  0.90048111  0.76193053  1
  O  O189  1  0.01242609  0.14480194  0.09288228  1
  O  O190  1  0.00112492  0.11293395  0.40534254  1
  O  O191  1  -0.00061886  0.12854615  0.62295595  1
  O  O192  1  0.01176228  0.10862667  0.91024624  1
  O  O193  1  0.00610623  0.36410705  0.15639730  1
  O  O194  1  0.00983963  0.40944131  0.36529732  1
  O  O195  1  0.01222726  0.36569074  0.66333439  1
  O  O196  1  -0.00173734  0.39560535  0.85500402  1
  O  O197  1  -0.00528130  0.65158925  0.11422520  1
  O  O198  1  -0.00271495  0.61733018  0.41358180  1
  O  O199  1  -0.01293377  0.66494421  0.60348750  1
  O  O200  1  -0.00362609  0.60984844  0.90374689  1
  O  O201  1  0.00512046  0.84401991  0.12390568  1
  O  O202  1  0.00469029  0.88646489  0.39099003  1
  O  O203  1  -0.00871951  0.85221667  0.63331709  1
  O  O204  1  0.00006390  0.88968125  0.89480405  1
  O  O205  1  0.25749505  0.09855042  0.13795099  1
  O  O206  1  0.25643505  0.14276853  0.35229224  1
  O  O207  1  0.26303729  0.09966242  0.63451927  1
  O  O208  1  0.25979915  0.13246662  0.84188240  1
  O  O209  1  0.24741463  0.38286241  0.08764822  1
  O  O210  1  0.24970155  0.35056583  0.38560713  1
  O  O211  1  0.25513363  0.39388263  0.60814777  1
  O  O212  1  0.25840251  0.37113085  0.90523440  1
  O  O213  1  0.25902108  0.61416313  0.14653650  1
  O  O214  1  0.25869144  0.62038712  0.34284020  1
  O  O215  1  0.25775493  0.59685133  0.66207828  1
  O  O216  1  0.25519990  0.63768483  0.87217798  1
  O  O217  1  0.24827769  0.91184048  0.13252697  1
  O  O218  1  0.25500724  0.87570559  0.35839554  1
  O  O219  1  0.26174918  0.90380604  0.63876110  1
  O  O220  1  0.26166345  0.86782443  0.83886691  1
  O  O221  1  0.49939516  0.14295843  0.10684896  1
  O  O222  1  0.49614479  0.12282907  0.38177228  1
  O  O223  1  0.50764170  0.16213190  0.60594751  1
  O  O224  1  0.50244183  0.13199181  0.89469187  1
  O  O225  1  0.49719366  0.35743297  0.12887199  1
  O  O226  1  0.50026747  0.40865641  0.38064291  1
  O  O227  1  0.49471508  0.35593627  0.63690096  1
  O  O228  1  0.50335116  0.37732119  0.85018498  1
  O  O229  1  0.50340733  0.66085608  0.12075182  1
  O  O230  1  0.49869664  0.60641435  0.41006136  1
  O  O231  1  0.49591609  0.65056664  0.61216347  1
  O  O232  1  0.50073960  0.63635416  0.88180879  1
  O  O233  1  0.50487488  0.84422866  0.11673146  1
  O  O234  1  0.51271918  0.90690785  0.40149638  1
  O  O235  1  0.50765443  0.86070455  0.59406949  1
  O  O236  1  0.50663143  0.88111390  0.89458955  1
  O  O237  1  0.73924027  0.10165561  0.12257733  1
  O  O238  1  0.76105839  0.13848225  0.33610513  1
  O  O239  1  0.74300884  0.10986101  0.64881042  1
  O  O240  1  0.75084936  0.13328425  0.85395420  1
  O  O241  1  0.75544113  0.40656956  0.12938704  1
  O  O242  1  0.75547911  0.37047764  0.35813677  1
  O  O243  1  0.75970293  0.40587559  0.59464636  1
  O  O244  1  0.74287268  0.36252139  0.85395131  1
  O  O245  1  0.74690672  0.60485952  0.14290674  1
  O  O246  1  0.74294377  0.65849011  0.35678560  1
  O  O247  1  0.74393830  0.61283899  0.64317766  1
  O  O248  1  0.74495772  0.63212932  0.87652009  1
  O  O249  1  0.75616882  0.88518745  0.15168578  1
  O  O250  1  0.75614286  0.83903033  0.35278836  1
  O  O251  1  0.74598598  0.89307582  0.64292419  1
  O  O252  1  0.75041611  0.88836063  0.87618608  1
  O  O253  1  0.11677480  -0.00082902  0.10770447  1
  O  O254  1  0.12953884  -0.00086344  0.40085518  1
  O  O255  1  0.11238891  0.00044708  0.60060650  1
  O  O256  1  0.16367342  -0.00469943  0.89597714  1
  O  O257  1  0.15562529  0.24642245  0.12961671  1
  O  O258  1  0.11670073  0.25724156  0.34156289  1
  O  O259  1  0.16182510  0.25540074  0.64108299  1
  O  O260  1  0.11932631  0.24004094  0.86678603  1
  O  O261  1  0.10837660  0.49376512  0.10368709  1
  O  O262  1  0.15596930  0.49036223  0.39107640  1
  O  O263  1  0.11772041  0.49355276  0.59916302  1
  O  O264  1  0.13715756  0.49616909  0.90972479  1
  O  O265  1  0.15991988  0.75833161  0.12502105  1
  O  O266  1  0.13529901  0.75477348  0.38110952  1
  O  O267  1  0.15562677  0.74974500  0.62452453  1
  O  O268  1  0.12911700  0.76353694  0.87381706  1
  O  O269  1  0.40776376  0.00174313  0.12532619  1
  O  O270  1  0.37632173  0.00481177  0.38506625  1
  O  O271  1  0.41650984  0.00668221  0.61427794  1
  O  O272  1  0.39469056  0.00389498  0.85146801  1
  O  O273  1  0.36081801  0.24249751  0.10513906  1
  O  O274  1  0.39123527  0.25634882  0.35503145  1
  O  O275  1  0.35983039  0.25420635  0.65152608  1
  O  O276  1  0.38057524  0.25240505  0.85922706  1
  O  O277  1  0.40346239  0.50823635  0.11073210  1
  O  O278  1  0.35026209  0.49731130  0.38969895  1
  O  O279  1  0.38723738  0.49950547  0.62255777  1
  O  O280  1  0.37180723  0.50562284  0.88584067  1
  O  O281  1  0.36108384  0.74890482  0.15863535  1
  O  O282  1  0.39241493  0.75134447  0.37229453  1
  O  O283  1  0.34878726  0.74923733  0.63753569  1
  O  O284  1  0.39155169  0.75667685  0.86834974  1
  O  O285  1  0.60624689  -0.00956266  0.09803630  1
  O  O286  1  0.66381837  -0.00869736  0.37872028  1
  O  O287  1  0.60739519  0.00592086  0.58870796  1
  O  O288  1  0.63458952  0.00572709  0.89530512  1
  O  O289  1  0.64073290  0.24395332  0.15074559  1
  O  O290  1  0.62454395  0.25261125  0.34792807  1
  O  O291  1  0.65170615  0.25383747  0.64660339  1
  O  O292  1  0.62329624  0.24778310  0.84314113  1
  O  O293  1  0.58918059  0.51315387  0.10775668  1
  O  O294  1  0.65122009  0.51216930  0.40378751  1
  O  O295  1  0.59170394  0.50807027  0.58112305  1
  O  O296  1  0.63199032  0.49064775  0.88109381  1
  O  O297  1  0.64887591  0.75144457  0.16745208  1
  O  O298  1  0.59836387  0.75356546  0.37508771  1
  O  O299  1  0.63763581  0.76002187  0.64430719  1
  O  O300  1  0.63234088  0.77226196  0.85082227  1
  O  O301  1  0.90721659  -0.01653695  0.10810908  1
  O  O302  1  0.86317018  -0.01607483  0.41256167  1
  O  O303  1  0.87499105  -0.00891643  0.62006973  1
  O  O304  1  0.86769010  0.00933289  0.91583014  1
  O  O305  1  0.84675867  0.26731696  0.17761105  1
  O  O306  1  0.90423613  0.25134299  0.35813914  1
  O  O307  1  0.86535356  0.26674777  0.65819447  1
  O  O308  1  0.89949382  0.24698103  0.85365608  1
  O  O309  1  0.90179181  0.50586239  0.11445610  1
  O  O310  1  0.85610027  0.49946862  0.41866835  1
  O  O311  1  0.90236797  0.50699782  0.61192351  1
  O  O312  1  0.83449213  0.49714291  0.89757500  1
  O  O313  1  0.85761521  0.74754911  0.16619279  1
  O  O314  1  0.90417722  0.75144531  0.36821651  1
  O  O315  1  0.85168800  0.75022473  0.66132484  1
  O  O316  1  0.88212301  0.75912054  0.86593499  1
