# generated using pymatgen
data_Mg32Ti42(Bi17O64)3
_symmetry_space_group_name_H-M   'P 1'
_cell_length_a   15.94174467
_cell_length_b   15.95279305
_cell_length_c   15.95951869
_cell_angle_alpha   89.99090033
_cell_angle_beta   89.98667190
_cell_angle_gamma   90.07201713
_symmetry_Int_Tables_number   1
_chemical_formula_structural   Mg32Ti42(Bi17O64)3
_chemical_formula_sum   'Mg32 Ti42 Bi51 O192'
_cell_volume   4058.74727063
_cell_formula_units_Z   1
loop_
 _symmetry_equiv_pos_site_id
 _symmetry_equiv_pos_as_xyz
  1  'x, y, z'
loop_
 _atom_site_type_symbol
 _atom_site_label
 _atom_site_symmetry_multiplicity
 _atom_site_fract_x
 _atom_site_fract_y
 _atom_site_fract_z
 _atom_site_occupancy
  Mg  Mg0  1  0.11595599  0.87945585  0.87174666  1
  Mg  Mg1  1  0.62818851  0.87802632  0.88228303  1
  Mg  Mg2  1  0.36674256  0.62363568  0.63793247  1
  Mg  Mg3  1  0.12252718  0.38777500  0.36685406  1
  Mg  Mg4  1  0.36520348  0.12777206  0.87606711  1
  Mg  Mg5  1  0.87252359  0.38008572  0.87323895  1
  Mg  Mg6  1  0.63067621  0.89098596  0.61732096  1
  Mg  Mg7  1  0.62256169  0.12907082  0.87877896  1
  Mg  Mg8  1  0.12612921  0.88024770  0.13324227  1
  Mg  Mg9  1  0.62007673  0.63208684  0.12449499  1
  Mg  Mg10  1  0.37210320  0.87037323  0.86661396  1
  Mg  Mg11  1  0.11905714  0.13526992  0.12199199  1
  Mg  Mg12  1  0.12989155  0.87503131  0.61677229  1
  Mg  Mg13  1  0.37656934  0.61774831  0.37964934  1
  Mg  Mg14  1  0.87540847  0.37819357  0.62183703  1
  Mg  Mg15  1  0.62499449  0.61800601  0.63286598  1
  Mg  Mg16  1  0.38369938  0.36091552  0.62371480  1
  Mg  Mg17  1  0.61745709  0.37614030  0.37992525  1
  Mg  Mg18  1  0.87521933  0.61972794  0.12326837  1
  Mg  Mg19  1  0.49634694  0.68825207  0.53792428  1
  Mg  Mg20  1  0.05228630  0.49851206  0.55140201  1
  Mg  Mg21  1  0.03963973  0.50537058  0.21586823  1
  Mg  Mg22  1  0.76574334  0.04735125  0.52855695  1
  Mg  Mg23  1  0.00268871  0.79672230  0.70644002  1
  Mg  Mg24  1  -0.05559057  0.23296001  0.77380989  1
  Mg  Mg25  1  0.28483425  0.28950112  -0.00248001  1
  Mg  Mg26  1  0.18911822  0.01907348  0.24097225  1
  Mg  Mg27  1  0.44999953  0.50470993  0.55113612  1
  Mg  Mg28  1  0.69643486  0.74881065  0.54552939  1
  Mg  Mg29  1  0.44506890  -0.01583170  -0.02687970  1
  Mg  Mg30  1  0.22662826  0.24366099  0.50759783  1
  Mg  Mg31  1  0.20194093  0.02426420  0.01569863  1
  Ti  Ti32  1  0.12828611  0.86321830  0.37704800  1
  Ti  Ti33  1  0.62762708  0.62494295  0.38452149  1
  Ti  Ti34  1  0.87910796  0.12248094  0.37971869  1
  Ti  Ti35  1  0.86642354  0.62885994  0.62560218  1
  Ti  Ti36  1  0.13298089  0.36392261  0.88210666  1
  Ti  Ti37  1  0.62979324  0.38074288  0.87280686  1
  Ti  Ti38  1  0.88195724  0.62621552  0.86360561  1
  Ti  Ti39  1  0.63135761  0.63143017  0.87658438  1
  Ti  Ti40  1  0.87504582  0.13185525  0.14059471  1
  Ti  Ti41  1  0.61490768  0.38036316  0.62294116  1
  Ti  Ti42  1  0.11880598  0.12446464  0.37351845  1
  Ti  Ti43  1  0.37685105  0.12500713  0.63742577  1
  Ti  Ti44  1  0.86796974  0.62331616  0.38348772  1
  Ti  Ti45  1  0.87380867  0.87340886  0.13462254  1
  Ti  Ti46  1  0.37856370  0.38142457  0.38449539  1
  Ti  Ti47  1  0.62484227  0.36691827  0.11054479  1
  Ti  Ti48  1  0.86807992  0.88297636  0.62187278  1
  Ti  Ti49  1  0.37709577  0.88374219  0.62888499  1
  Ti  Ti50  1  0.12571362  0.11996758  0.62094684  1
  Ti  Ti51  1  0.62099716  0.87513422  0.12928751  1
  Ti  Ti52  1  0.36917314  0.88538365  0.13578338  1
  Ti  Ti53  1  0.88266764  0.87251967  0.87405649  1
  Ti  Ti54  1  0.13021087  0.61425321  0.87793066  1
  Ti  Ti55  1  0.12533984  0.36218498  0.12084984  1
  Ti  Ti56  1  0.62744787  0.12635680  0.11503652  1
  Ti  Ti57  1  0.13545374  0.62626783  0.11900534  1
  Ti  Ti58  1  0.88150309  0.39193391  0.37255847  1
  Ti  Ti59  1  0.36944257  0.63184714  0.88077837  1
  Ti  Ti60  1  0.88443800  0.14235216  0.62030850  1
  Ti  Ti61  1  0.63500824  0.12462320  0.38114094  1
  Ti  Ti62  1  0.12849404  0.12926014  0.87783370  1
  Ti  Ti63  1  0.38443423  0.37292966  0.13097801  1
  Ti  Ti64  1  0.11946311  0.61485923  0.37598242  1
  Ti  Ti65  1  0.87400271  0.36895393  0.13330713  1
  Ti  Ti66  1  0.62638958  0.85857770  0.38404952  1
  Ti  Ti67  1  0.86593465  0.86617910  0.38244656  1
  Ti  Ti68  1  0.38091029  0.63555988  0.12508878  1
  Ti  Ti69  1  0.37710625  0.37365348  0.86982499  1
  Ti  Ti70  1  0.61591712  0.11658527  0.61868465  1
  Ti  Ti71  1  0.11850807  0.63164250  0.64463278  1
  Ti  Ti72  1  0.36371344  0.87661857  0.37722460  1
  Ti  Ti73  1  0.36340438  0.11696256  0.11886872  1
  Bi  Bi74  1  0.23196360  0.79377901  0.00442460  1
  Bi  Bi75  1  0.49226372  0.23463272  0.24289856  1
  Bi  Bi76  1  0.73237876  0.23975983  0.72835684  1
  Bi  Bi77  1  -0.01140403  0.74423387  0.50750240  1
  Bi  Bi78  1  0.76955197  0.51536370  -0.01440852  1
  Bi  Bi79  1  0.23486532  0.77567980  0.75138844  1
  Bi  Bi80  1  -0.00384520  -0.02741982  0.27606591  1
  Bi  Bi81  1  0.75759331  0.27432264  0.47567474  1
  Bi  Bi82  1  0.50908349  0.24865901  0.76187323  1
  Bi  Bi83  1  0.24117258  0.46431612  0.52704909  1
  Bi  Bi84  1  0.28429050  0.74110984  0.52155400  1
  Bi  Bi85  1  0.51403704  0.01186703  0.26970775  1
  Bi  Bi86  1  0.51412416  0.77561465  0.72401879  1
  Bi  Bi87  1  0.26026949  0.03778407  0.48845340  1
  Bi  Bi88  1  0.51282557  0.52753941  0.00049122  1
  Bi  Bi89  1  0.73707854  0.27683293  0.24943351  1
  Bi  Bi90  1  0.48903616  -0.01591066  0.48802298  1
  Bi  Bi91  1  0.25155588  0.72751977  0.26502755  1
  Bi  Bi92  1  -0.01340720  0.02682278  0.76890064  1
  Bi  Bi93  1  0.24742316  0.00607289  0.78341419  1
  Bi  Bi94  1  0.51558320  0.51038177  0.27510678  1
  Bi  Bi95  1  0.03003828  0.25518472  0.26694307  1
  Bi  Bi96  1  0.22628117  0.27027494  0.70902628  1
  Bi  Bi97  1  0.76145140  0.74967643  -0.00616332  1
  Bi  Bi98  1  0.74291633  0.49384092  0.50188645  1
  Bi  Bi99  1  -0.01146384  0.48057707  0.01572804  1
  Bi  Bi100  1  0.49651850  0.53236343  0.76147097  1
  Bi  Bi101  1  0.01037669  0.45626126  0.74616084  1
  Bi  Bi102  1  0.25544691  0.49067303  0.26591111  1
  Bi  Bi103  1  0.02333687  0.30095401  0.52496028  1
  Bi  Bi104  1  0.75367399  0.02075755  0.78846213  1
  Bi  Bi105  1  0.25580546  0.48869269  0.74811506  1
  Bi  Bi106  1  0.77187439  0.21596831  -0.02550859  1
  Bi  Bi107  1  0.74746453  0.77961027  0.75774803  1
  Bi  Bi108  1  0.48011134  0.22550415  -0.00086234  1
  Bi  Bi109  1  0.01835483  0.73687793  -0.01496178  1
  Bi  Bi110  1  0.48293701  0.75233662  0.27919072  1
  Bi  Bi111  1  -0.01844870  0.24344185  -0.03206325  1
  Bi  Bi112  1  0.26696595  0.23012496  0.29066262  1
  Bi  Bi113  1  -0.01227967  0.71706851  0.24676598  1
  Bi  Bi114  1  0.46599911  0.21551868  0.47566793  1
  Bi  Bi115  1  0.27276668  0.48796601  0.01685606  1
  Bi  Bi116  1  0.74809691  -0.01672823  0.02347228  1
  Bi  Bi117  1  0.74900317  0.72445660  0.23460457  1
  Bi  Bi118  1  0.01410263  -0.01435055  0.51508149  1
  Bi  Bi119  1  0.75517461  0.47670110  0.73085915  1
  Bi  Bi120  1  0.00229441  0.00435215  0.04083809  1
  Bi  Bi121  1  0.50574776  0.00642644  0.77874743  1
  Bi  Bi122  1  0.74532665  -0.00835693  0.26440300  1
  Bi  Bi123  1  0.73460218  0.50358526  0.21870893  1
  Bi  Bi124  1  0.48130896  0.78553424  -0.00147791  1
  O  O125  1  0.10521618  0.11083640  -0.01156129  1
  O  O126  1  0.12546514  0.13463914  0.24950002  1
  O  O127  1  0.15042217  0.13366964  0.48816004  1
  O  O128  1  0.15647359  0.12419045  0.73167633  1
  O  O129  1  0.09436824  0.38480935  -0.00632881  1
  O  O130  1  0.13569198  0.35691747  0.23935147  1
  O  O131  1  0.11052594  0.40348849  0.49072400  1
  O  O132  1  0.15940877  0.38010704  0.75746024  1
  O  O133  1  0.10642112  0.61305890  0.00123512  1
  O  O134  1  0.12439550  0.66588035  0.23811875  1
  O  O135  1  0.11814391  0.59184506  0.48582012  1
  O  O136  1  0.12842724  0.64492563  0.75840986  1
  O  O137  1  0.15467643  0.90518260  -0.00453082  1
  O  O138  1  0.13339169  0.90499235  0.26061382  1
  O  O139  1  0.09976440  0.87377100  0.49167639  1
  O  O140  1  0.11534958  0.84567986  0.74422193  1
  O  O141  1  0.41126990  0.10291279  0.00213071  1
  O  O142  1  0.37079525  0.15711224  0.23426671  1
  O  O143  1  0.40415060  0.09765851  0.50399931  1
  O  O144  1  0.34892118  0.13969580  0.74624605  1
  O  O145  1  0.38043097  0.39702532  0.00216305  1
  O  O146  1  0.35448895  0.34498652  0.24208052  1
  O  O147  1  0.39105867  0.41042714  0.49320286  1
  O  O148  1  0.34216244  0.35908377  0.75386990  1
  O  O149  1  0.37630965  0.59598259  0.00388882  1
  O  O150  1  0.37398698  0.64728296  0.24316107  1
  O  O151  1  0.39118046  0.61305894  0.50254567  1
  O  O152  1  0.38598378  0.63011122  0.76258441  1
  O  O153  1  0.37646187  0.88435339  0.00734821  1
  O  O154  1  0.38618248  0.86205732  0.25226728  1
  O  O155  1  0.37597396  0.88844800  0.49915591  1
  O  O156  1  0.37169674  0.84824699  0.74169731  1
  O  O157  1  0.61352987  0.15119008  0.00303737  1
  O  O158  1  0.64257317  0.09793406  0.25932159  1
  O  O159  1  0.59565803  0.14648102  0.50017958  1
  O  O160  1  0.65504318  0.11844034  0.73501605  1
  O  O161  1  0.61323324  0.35183627  -0.00183412  1
  O  O162  1  0.64823885  0.38775088  0.25069440  1
  O  O163  1  0.64213248  0.36919044  0.50806968  1
  O  O164  1  0.62602093  0.40186327  0.75164023  1
  O  O165  1  0.61728938  0.62387129  -0.00063150  1
  O  O166  1  0.64025349  0.60277833  0.25281987  1
  O  O167  1  0.61520623  0.64804449  0.49577720  1
  O  O168  1  0.60621762  0.62372712  0.75972308  1
  O  O169  1  0.65580612  0.87123267  0.00964712  1
  O  O170  1  0.62029171  0.90737761  0.25068060  1
  O  O171  1  0.63922380  0.85045655  0.49485272  1
  O  O172  1  0.62394664  0.85819025  0.74626653  1
  O  O173  1  0.88694501  0.15260778  0.01008100  1
  O  O174  1  0.85303704  0.10722953  0.25392601  1
  O  O175  1  0.88272155  0.11632762  0.49979179  1
  O  O176  1  0.87768887  0.12024825  0.73706070  1
  O  O177  1  0.90943823  0.36132803  0.00483118  1
  O  O178  1  0.85888225  0.38499792  0.25053538  1
  O  O179  1  0.87501137  0.35952128  0.49407925  1
  O  O180  1  0.88030841  0.40522445  0.74901190  1
  O  O181  1  0.85527604  0.63334516  -0.00405978  1
  O  O182  1  0.86725078  0.62985680  0.25768724  1
  O  O183  1  0.89026131  0.63616223  0.50048357  1
  O  O184  1  0.86972351  0.61494913  0.74774267  1
  O  O185  1  0.84590668  0.86681528  -0.00362195  1
  O  O186  1  0.87595661  0.88617421  0.25047001  1
  O  O187  1  0.89005374  0.86302075  0.49998987  1
  O  O188  1  0.88594508  0.85453326  0.74729758  1
  O  O189  1  -0.00935564  0.10572359  0.13418357  1
  O  O190  1  -0.00651099  0.14639235  0.36304858  1
  O  O191  1  0.00932285  0.10319245  0.62039687  1
  O  O192  1  0.01540881  0.14713058  0.83643910  1
  O  O193  1  0.00213093  0.40872264  0.14186694  1
  O  O194  1  -0.00660858  0.35466448  0.36196011  1
  O  O195  1  0.00026223  0.40198864  0.61680882  1
  O  O196  1  0.01302275  0.34653326  0.83614041  1
  O  O197  1  0.00194187  0.61169284  0.14934006  1
  O  O198  1  0.00235620  0.64665103  0.36371148  1
  O  O199  1  0.00952167  0.58833106  0.62870054  1
  O  O200  1  -0.00474675  0.64270424  0.87543972  1
  O  O201  1  -0.00667261  0.88682210  0.12234584  1
  O  O202  1  0.00307313  0.85670442  0.35313996  1
  O  O203  1  -0.00486337  0.90198888  0.62995738  1
  O  O204  1  -0.00614017  0.85059187  0.89553354  1
  O  O205  1  0.25288948  0.11458851  0.09810835  1
  O  O206  1  0.23677651  0.08993291  0.35150387  1
  O  O207  1  0.26759109  0.14452295  0.58853469  1
  O  O208  1  0.24382878  0.08483345  0.89787818  1
  O  O209  1  0.24086122  0.36354055  0.09068471  1
  O  O210  1  0.25163442  0.40628619  0.37628953  1
  O  O211  1  0.26189917  0.33862260  0.58799663  1
  O  O212  1  0.24829699  0.38157440  0.90918237  1
  O  O213  1  0.25174015  0.64143839  0.12653366  1
  O  O214  1  0.24575843  0.61246684  0.34881589  1
  O  O215  1  0.24339353  0.65876468  0.62243713  1
  O  O216  1  0.24799930  0.61385671  0.88281573  1
  O  O217  1  0.25738328  0.86225716  0.13482899  1
  O  O218  1  0.25036548  0.89462045  0.38421349  1
  O  O219  1  0.25323648  0.84104621  0.62058703  1
  O  O220  1  0.24623456  0.87798970  0.85087333  1
  O  O221  1  0.50607254  0.14053992  0.13882569  1
  O  O222  1  0.51026797  0.14228607  0.34769841  1
  O  O223  1  0.50632079  0.09745209  0.65093235  1
  O  O224  1  0.49891608  0.13380400  0.84554884  1
  O  O225  1  0.50107104  0.37440856  0.13676517  1
  O  O226  1  0.49068766  0.35379758  0.35931079  1
  O  O227  1  0.50368903  0.40582866  0.62319962  1
  O  O228  1  0.49273026  0.35479760  0.85762927  1
  O  O229  1  0.49598779  0.60520946  0.12880453  1
  O  O230  1  0.50473155  0.63175361  0.35349977  1
  O  O231  1  0.49700556  0.59162241  0.62907310  1
  O  O232  1  0.49503240  0.61623322  0.88814956  1
  O  O233  1  0.50616983  0.87669184  0.11000745  1
  O  O234  1  0.50744077  0.84539039  0.38070323  1
  O  O235  1  0.49767784  0.89104560  0.63809412  1
  O  O236  1  0.50147787  0.88547684  0.89949602  1
  O  O237  1  0.75216247  0.13457028  0.10456880  1
  O  O238  1  0.74300111  0.08513555  0.40714104  1
  O  O239  1  0.76359669  0.15451781  0.60804771  1
  O  O240  1  0.74735614  0.11139556  0.89228710  1
  O  O241  1  0.75538002  0.35687686  0.11588872  1
  O  O242  1  0.75531878  0.38059626  0.38628293  1
  O  O243  1  0.75075176  0.36103220  0.64756374  1
  O  O244  1  0.74461479  0.39304365  0.88175598  1
  O  O245  1  0.74752707  0.62647081  0.13355497  1
  O  O246  1  0.75089732  0.60846640  0.39277970  1
  O  O247  1  0.75462372  0.65890291  0.61605533  1
  O  O248  1  0.74359142  0.59768164  0.87033389  1
  O  O249  1  0.75085662  0.90111139  0.14044115  1
  O  O250  1  0.75135779  0.88935603  0.36898767  1
  O  O251  1  0.75500865  0.84145803  0.62421845  1
  O  O252  1  0.75527092  0.88670597  0.84928819  1
  O  O253  1  0.12788749  0.00710930  0.12370607  1
  O  O254  1  0.08949951  0.00783949  0.38463158  1
  O  O255  1  0.14572265  0.00375735  0.58896972  1
  O  O256  1  0.11068318  0.00560631  0.84262352  1
  O  O257  1  0.09648325  0.25541542  0.10852803  1
  O  O258  1  0.13045905  0.25052226  0.37499861  1
  O  O259  1  0.12529104  0.24314464  0.60706961  1
  O  O260  1  0.15336564  0.24677266  0.88250316  1
  O  O261  1  0.14115794  0.50932179  0.13832949  1
  O  O262  1  0.10780037  0.51034164  0.32247772  1
  O  O263  1  0.15818175  0.50996829  0.63730453  1
  O  O264  1  0.11447546  0.50048562  0.86522287  1
  O  O265  1  0.12167758  0.75616825  0.08883390  1
  O  O266  1  0.15176192  0.75007932  0.37924472  1
  O  O267  1  0.08736940  0.74289273  0.61319384  1
  O  O268  1  0.13074713  0.74809977  0.90767970  1
  O  O269  1  0.37906010  0.00141503  0.14247816  1
  O  O270  1  0.41335052  -0.01403143  0.37104074  1
  O  O271  1  0.35419314  -0.00226018  0.63582541  1
  O  O272  1  0.38697947  -0.00079443  0.85668614  1
  O  O273  1  0.37280881  0.25070056  0.08801081  1
  O  O274  1  0.33076822  0.25939693  0.41315528  1
  O  O275  1  0.41543991  0.23654524  0.61005253  1
  O  O276  1  0.36428355  0.25114834  0.90786688  1
  O  O277  1  0.35370625  0.48931033  0.13923443  1
  O  O278  1  0.38718679  0.49519366  0.33757139  1
  O  O279  1  0.34333392  0.49323561  0.63661836  1
  O  O280  1  0.37590090  0.49113615  0.85825747  1
  O  O281  1  0.39110258  0.74916690  0.10683792  1
  O  O282  1  0.36594327  0.75200584  0.37241320  1
  O  O283  1  0.39942611  0.75015584  0.59940511  1
  O  O284  1  0.37417971  0.74517028  0.90164668  1
  O  O285  1  0.63008055  0.00997070  0.10809692  1
  O  O286  1  0.59113957  -0.00268108  0.38706358  1
  O  O287  1  0.65599150  0.01302927  0.59011955  1
  O  O288  1  0.62374712  0.00373230  0.85725742  1
  O  O289  1  0.62752496  0.25047611  0.15861356  1
  O  O290  1  0.65594606  0.24226563  0.36739406  1
  O  O291  1  0.61512192  0.25542136  0.65140583  1
  O  O292  1  0.62805987  0.25534123  0.83827938  1
  O  O293  1  0.63992496  0.48648307  0.11433996  1
  O  O294  1  0.60368076  0.50443150  0.38604675  1
  O  O295  1  0.65927020  0.49863939  0.61586115  1
  O  O296  1  0.60294314  0.49380065  0.89081208  1
  O  O297  1  0.63596440  0.75983748  0.14725631  1
  O  O298  1  0.64055282  0.74583756  0.34776101  1
  O  O299  1  0.59040603  0.74215326  0.61891841  1
  O  O300  1  0.65242355  0.74587699  0.88118974  1
  O  O301  1  0.86974337  0.00262951  0.10325637  1
  O  O302  1  0.89811743  -0.00683271  0.37748888  1
  O  O303  1  0.84547493  -0.00666015  0.61454370  1
  O  O304  1  0.89263233  -0.01069040  0.86551469  1
  O  O305  1  0.88988402  0.25075443  0.15023212  1
  O  O306  1  0.84355357  0.23446754  0.37114889  1
  O  O307  1  0.91528362  0.25133636  0.64392247  1
  O  O308  1  0.87220148  0.25479985  0.87491229  1
  O  O309  1  0.86380587  0.49198929  0.10050168  1
  O  O310  1  0.88848775  0.50352108  0.38510901  1
  O  O311  1  0.83817825  0.50750230  0.60870494  1
  O  O312  1  0.88446406  0.50415799  0.90265816  1
  O  O313  1  0.86016384  0.75705736  0.13298032  1
  O  O314  1  0.86259065  0.75105915  0.36942810  1
  O  O315  1  0.91512126  0.74303212  0.62640676  1
  O  O316  1  0.84387436  0.74420640  0.87505620  1
