# generated using pymatgen
data_Mg32Ti42(Bi17O64)3
_symmetry_space_group_name_H-M   'P 1'
_cell_length_a   15.95838698
_cell_length_b   15.94139897
_cell_length_c   15.94590065
_cell_angle_alpha   89.77792546
_cell_angle_beta   89.93142909
_cell_angle_gamma   90.08780424
_symmetry_Int_Tables_number   1
_chemical_formula_structural   Mg32Ti42(Bi17O64)3
_chemical_formula_sum   'Mg32 Ti42 Bi51 O192'
_cell_volume   4056.58322856
_cell_formula_units_Z   1
loop_
 _symmetry_equiv_pos_site_id
 _symmetry_equiv_pos_as_xyz
  1  'x, y, z'
loop_
 _atom_site_type_symbol
 _atom_site_label
 _atom_site_symmetry_multiplicity
 _atom_site_fract_x
 _atom_site_fract_y
 _atom_site_fract_z
 _atom_site_occupancy
  Mg  Mg0  1  0.88586970  0.63216572  0.61909592  1
  Mg  Mg1  1  0.12697250  0.14310190  0.62829999  1
  Mg  Mg2  1  0.37682235  0.87385946  0.36819075  1
  Mg  Mg3  1  0.62244134  0.63179297  0.62439619  1
  Mg  Mg4  1  0.36081448  0.11776554  0.13602485  1
  Mg  Mg5  1  0.88122179  0.87152422  0.11828353  1
  Mg  Mg6  1  0.63103262  0.11455078  0.12024923  1
  Mg  Mg7  1  0.88537895  0.62025889  0.13306976  1
  Mg  Mg8  1  0.62793461  0.11089370  0.87293232  1
  Mg  Mg9  1  0.63026336  0.36981378  0.12612126  1
  Mg  Mg10  1  0.38279059  0.13189307  0.37133860  1
  Mg  Mg11  1  0.63861628  0.62282187  0.37627716  1
  Mg  Mg12  1  0.62685835  0.62540222  0.11648413  1
  Mg  Mg13  1  0.62372059  0.87449359  0.11720352  1
  Mg  Mg14  1  0.11706015  0.12597425  0.38182519  1
  Mg  Mg15  1  0.11896569  0.11698870  0.86879646  1
  Mg  Mg16  1  0.87552439  0.37710064  0.62398239  1
  Mg  Mg17  1  0.12625504  0.11466995  0.12953847  1
  Mg  Mg18  1  0.13246799  0.63027723  0.87306939  1
  Mg  Mg19  1  0.28418079  0.03531204  -0.06141235  1
  Mg  Mg20  1  0.47104109  0.04805960  0.82213809  1
  Mg  Mg21  1  0.45055039  0.05335897  0.00582106  1
  Mg  Mg22  1  0.24592905  -0.02757181  0.21245138  1
  Mg  Mg23  1  0.47933804  0.81541705  0.74229612  1
  Mg  Mg24  1  0.27816525  0.78329208  0.73057239  1
  Mg  Mg25  1  0.24803381  0.24648634  0.82265244  1
  Mg  Mg26  1  0.00083753  0.74601796  0.19121490  1
  Mg  Mg27  1  0.50412572  0.83103101  -0.00787980  1
  Mg  Mg28  1  -0.02563112  0.47766332  0.47126345  1
  Mg  Mg29  1  0.72410441  0.79763204  -0.02376227  1
  Mg  Mg30  1  0.75583645  -0.05436552  0.72635636  1
  Mg  Mg31  1  0.50174219  0.74857785  0.17752411  1
  Ti  Ti32  1  0.38489822  0.37750281  0.87092357  1
  Ti  Ti33  1  0.87614673  0.62070922  0.37493055  1
  Ti  Ti34  1  0.10956680  0.38314593  0.61054457  1
  Ti  Ti35  1  0.12049205  0.61871926  0.12579626  1
  Ti  Ti36  1  0.12342114  0.37699212  0.38075629  1
  Ti  Ti37  1  0.61840483  0.87001912  0.37762503  1
  Ti  Ti38  1  0.87992612  0.88834525  0.87235064  1
  Ti  Ti39  1  0.87516928  0.11482895  0.63189127  1
  Ti  Ti40  1  0.61541306  0.63779477  0.87485166  1
  Ti  Ti41  1  0.37474793  0.62432058  0.36446523  1
  Ti  Ti42  1  0.37881551  0.37865755  0.36342158  1
  Ti  Ti43  1  0.62527442  0.36961853  0.36705099  1
  Ti  Ti44  1  0.87326932  0.11475884  0.37847842  1
  Ti  Ti45  1  0.37182456  0.87496687  0.87267418  1
  Ti  Ti46  1  0.37045287  0.38435988  0.63244144  1
  Ti  Ti47  1  0.12940802  0.36707577  0.12488768  1
  Ti  Ti48  1  0.62885970  0.11919985  0.38402899  1
  Ti  Ti49  1  0.37741288  0.37638304  0.12239079  1
  Ti  Ti50  1  0.62267992  0.11128849  0.64089601  1
  Ti  Ti51  1  0.62961706  0.37732622  0.87714420  1
  Ti  Ti52  1  0.86103893  0.37400773  0.37482368  1
  Ti  Ti53  1  0.37013483  0.61984519  0.11673384  1
  Ti  Ti54  1  0.36688949  0.86819211  0.11678912  1
  Ti  Ti55  1  0.87536072  0.36758969  0.87699280  1
  Ti  Ti56  1  0.88634163  0.86636169  0.62179775  1
  Ti  Ti57  1  0.87470441  0.11930243  0.86679987  1
  Ti  Ti58  1  0.37643187  0.61470679  0.86579005  1
  Ti  Ti59  1  0.38026048  0.13242638  0.62563432  1
  Ti  Ti60  1  0.14232436  0.86794493  0.61924702  1
  Ti  Ti61  1  0.14395750  0.87085993  0.37884576  1
  Ti  Ti62  1  0.37976117  0.63496706  0.63429534  1
  Ti  Ti63  1  0.11947051  0.61685154  0.37894659  1
  Ti  Ti64  1  0.61977925  0.88874493  0.85726809  1
  Ti  Ti65  1  0.13630215  0.87669425  0.87840562  1
  Ti  Ti66  1  0.87320360  0.11907561  0.11781121  1
  Ti  Ti67  1  0.37905525  0.87821139  0.60423036  1
  Ti  Ti68  1  0.87440783  0.86221114  0.37278051  1
  Ti  Ti69  1  0.63246924  0.37717107  0.62090890  1
  Ti  Ti70  1  0.86942924  0.37151011  0.11411438  1
  Ti  Ti71  1  0.13903686  0.62317696  0.62597341  1
  Ti  Ti72  1  0.61427783  0.86996385  0.62429289  1
  Ti  Ti73  1  0.12379356  0.86847618  0.11612658  1
  Bi  Bi74  1  0.76782340  0.24313051  0.75873672  1
  Bi  Bi75  1  0.74742824  0.74927598  0.51757456  1
  Bi  Bi76  1  0.28233690  0.24253103  0.00849312  1
  Bi  Bi77  1  0.26823316  0.02113601  0.47647347  1
  Bi  Bi78  1  0.01020984  0.73782492  0.49626427  1
  Bi  Bi79  1  0.26787409  0.73156154  -0.02173844  1
  Bi  Bi80  1  0.75020375  -0.00912163  0.02176281  1
  Bi  Bi81  1  0.73868067  0.76029954  0.20938809  1
  Bi  Bi82  1  0.26073830  0.25000382  0.48305057  1
  Bi  Bi83  1  0.22633460  0.20692143  0.25702699  1
  Bi  Bi84  1  0.47352095  -0.00508300  0.22179905  1
  Bi  Bi85  1  0.75301360  -0.02100837  0.51225231  1
  Bi  Bi86  1  0.01254182  0.51022811  -0.02705278  1
  Bi  Bi87  1  0.78012839  0.72803035  0.77945068  1
  Bi  Bi88  1  0.26263674  0.72934277  0.48343419  1
  Bi  Bi89  1  0.74465072  -0.02105968  0.26140832  1
  Bi  Bi90  1  -0.00634374  0.23395186  0.22083937  1
  Bi  Bi91  1  0.51193177  0.72630709  0.47787941  1
  Bi  Bi92  1  -0.02489622  0.53814467  0.76038310  1
  Bi  Bi93  1  0.49377919  0.00923453  0.49322134  1
  Bi  Bi94  1  0.52344849  0.52729063  0.24505028  1
  Bi  Bi95  1  0.51177167  0.25004823  0.49699536  1
  Bi  Bi96  1  0.02206242  -0.03001923  0.26324652  1
  Bi  Bi97  1  0.52189688  0.52319431  0.74301224  1
  Bi  Bi98  1  0.51235594  0.22834282  0.20881499  1
  Bi  Bi99  1  0.77323891  0.51667830  0.52338153  1
  Bi  Bi100  1  0.02705147  0.00835646  0.00747103  1
  Bi  Bi101  1  0.03192077  -0.00882598  0.74102545  1
  Bi  Bi102  1  0.26703888  0.48888719  0.49458754  1
  Bi  Bi103  1  0.02640454  0.02044591  0.50637981  1
  Bi  Bi104  1  0.50975813  0.26869017  0.72786718  1
  Bi  Bi105  1  0.24715490  0.72768286  0.24167900  1
  Bi  Bi106  1  0.23749754  0.47504166  -0.02692429  1
  Bi  Bi107  1  0.21422660  0.47077837  0.75520119  1
  Bi  Bi108  1  0.74313747  0.21997451  -0.00801918  1
  Bi  Bi109  1  0.53154852  0.48936743  0.00850013  1
  Bi  Bi110  1  -0.01097050  0.47703494  0.24004063  1
  Bi  Bi111  1  0.74935463  0.23102813  0.25050100  1
  Bi  Bi112  1  0.51682281  0.49141062  0.48880569  1
  Bi  Bi113  1  0.25716204  0.03499305  0.74099674  1
  Bi  Bi114  1  0.75626509  0.22995955  0.52352995  1
  Bi  Bi115  1  0.76709163  0.53347748  -0.01076482  1
  Bi  Bi116  1  0.04470131  0.25057695  -0.02357231  1
  Bi  Bi117  1  -0.04943034  0.72366889  -0.02494426  1
  Bi  Bi118  1  0.75716908  0.50111857  0.76357138  1
  Bi  Bi119  1  0.03375867  0.74685613  0.74358522  1
  Bi  Bi120  1  0.24250657  0.48377679  0.23795079  1
  Bi  Bi121  1  0.51311545  0.24087002  -0.01336621  1
  Bi  Bi122  1  -0.01431865  0.25367306  0.49445116  1
  Bi  Bi123  1  0.75519589  0.51903563  0.22941615  1
  Bi  Bi124  1  0.02560532  0.28156646  0.76500693  1
  O  O125  1  0.11954673  0.11917211  -0.00063335  1
  O  O126  1  0.10238539  0.13817134  0.25862804  1
  O  O127  1  0.12047546  0.12228585  0.50707318  1
  O  O128  1  0.11898505  0.09599439  0.74414192  1
  O  O129  1  0.14447389  0.36436248  0.01050935  1
  O  O130  1  0.12159079  0.39677263  0.26229415  1
  O  O131  1  0.16078053  0.37546041  0.50259319  1
  O  O132  1  0.09303556  0.40227429  0.73578832  1
  O  O133  1  0.08606153  0.62877794  0.01440251  1
  O  O134  1  0.15552068  0.61170258  0.26434810  1
  O  O135  1  0.12483222  0.65844259  0.50145286  1
  O  O136  1  0.11624629  0.61438714  0.74552252  1
  O  O137  1  0.09832564  0.87341068  0.00279277  1
  O  O138  1  0.14753291  0.90189908  0.26040507  1
  O  O139  1  0.11675588  0.84404346  0.50689702  1
  O  O140  1  0.13446241  0.89532941  0.75631817  1
  O  O141  1  0.33849555  0.11866741  0.01222055  1
  O  O142  1  0.41251727  0.11429851  0.25229637  1
  O  O143  1  0.35643895  0.14361962  0.50206330  1
  O  O144  1  0.39197376  0.08773789  0.73543552  1
  O  O145  1  0.35154650  0.37145348  0.00495736  1
  O  O146  1  0.38951363  0.39630135  0.25204555  1
  O  O147  1  0.34733766  0.36118366  0.51267730  1
  O  O148  1  0.40216811  0.38125572  0.75643545  1
  O  O149  1  0.38053792  0.65150970  0.00544597  1
  O  O150  1  0.34463734  0.61003191  0.25394555  1
  O  O151  1  0.38692528  0.65161186  0.50720275  1
  O  O152  1  0.35872262  0.60337758  0.75325354  1
  O  O153  1  0.37626401  0.83820327  0.00093807  1
  O  O154  1  0.35937703  0.91472759  0.24387942  1
  O  O155  1  0.38712409  0.84174442  0.50045030  1
  O  O156  1  0.36472200  0.88511528  0.75752926  1
  O  O157  1  0.66699545  0.10147985  -0.00247248  1
  O  O158  1  0.62034769  0.15597414  0.25689540  1
  O  O159  1  0.65331495  0.10788835  0.50055992  1
  O  O160  1  0.59440422  0.13948365  0.74731691  1
  O  O161  1  0.63513011  0.40123584  -0.00245702  1
  O  O162  1  0.60663230  0.34853060  0.25713562  1
  O  O163  1  0.62691828  0.39714411  0.50458926  1
  O  O164  1  0.61863158  0.35343602  0.75349939  1
  O  O165  1  0.62361401  0.59824062  -0.00761430  1
  O  O166  1  0.63814458  0.60851140  0.25132652  1
  O  O167  1  0.59343589  0.61358849  0.49647202  1
  O  O168  1  0.62208476  0.62392506  0.75399940  1
  O  O169  1  0.62140192  0.87838062  -0.01644487  1
  O  O170  1  0.65838736  0.86684913  0.25506738  1
  O  O171  1  0.61643427  0.90379859  0.49850489  1
  O  O172  1  0.61162225  0.84468799  0.74211567  1
  O  O173  1  0.85219656  0.11088806  -0.00089530  1
  O  O174  1  0.87998973  0.15474910  0.25851397  1
  O  O175  1  0.84403056  0.10917996  0.50407910  1
  O  O176  1  0.87875622  0.15550592  0.74738280  1
  O  O177  1  0.86507335  0.39961192  -0.00012095  1
  O  O178  1  0.90026478  0.35989250  0.26115256  1
  O  O179  1  0.86219894  0.40882656  0.49103826  1
  O  O180  1  0.88309352  0.34407887  0.75356349  1
  O  O181  1  0.89276614  0.60150555  0.00529438  1
  O  O182  1  0.84798156  0.62862671  0.26011707  1
  O  O183  1  0.89683225  0.58353320  0.50041919  1
  O  O184  1  0.89282191  0.65576084  0.74533471  1
  O  O185  1  0.89108210  0.90084477  -0.01293269  1
  O  O186  1  0.84092787  0.86334998  0.25514267  1
  O  O187  1  0.88287778  0.90356195  0.50548073  1
  O  O188  1  0.84873556  0.85315780  0.74113101  1
  O  O189  1  -0.00976381  0.12220125  0.12688668  1
  O  O190  1  -0.01264887  0.13599469  0.40621615  1
  O  O191  1  -0.01166312  0.10662002  0.62137970  1
  O  O192  1  -0.01256875  0.15264181  0.88546167  1
  O  O193  1  0.00860464  0.38446702  0.12621745  1
  O  O194  1  0.00682729  0.36648651  0.40277645  1
  O  O195  1  0.00176505  0.40194984  0.58055133  1
  O  O196  1  -0.00803622  0.35710949  0.88833634  1
  O  O197  1  0.01093223  0.61999988  0.17132854  1
  O  O198  1  0.00447665  0.64982037  0.37686351  1
  O  O199  1  0.01566365  0.66114467  0.62076601  1
  O  O200  1  0.00261565  0.60985105  0.87493179  1
  O  O201  1  0.00394610  0.87055078  0.16462925  1
  O  O202  1  -0.00739964  0.86539803  0.35291304  1
  O  O203  1  0.00138953  0.85834049  0.64421068  1
  O  O204  1  -0.01429470  0.85449225  0.84969474  1
  O  O205  1  0.24517311  0.09373697  0.17644465  1
  O  O206  1  0.24859906  0.12164347  0.36894099  1
  O  O207  1  0.25726344  0.12781791  0.64061688  1
  O  O208  1  0.24660374  0.11579257  0.85009964  1
  O  O209  1  0.24932192  0.37175230  0.15272595  1
  O  O210  1  0.25328483  0.41315877  0.36895329  1
  O  O211  1  0.25454459  0.37540690  0.66319011  1
  O  O212  1  0.25617800  0.38673767  0.85740183  1
  O  O213  1  0.24646351  0.64501418  0.11640133  1
  O  O214  1  0.25017529  0.60949329  0.40759639  1
  O  O215  1  0.25607061  0.63854814  0.60928108  1
  O  O216  1  0.25426582  0.61244324  0.90504411  1
  O  O217  1  0.24521956  0.87958827  0.11953913  1
  O  O218  1  0.25143799  0.89407247  0.40231638  1
  O  O219  1  0.25795740  0.87067620  0.62356938  1
  O  O220  1  0.24481258  0.91336349  0.89852701  1
  O  O221  1  0.50317064  0.11458937  0.11133870  1
  O  O222  1  0.50884034  0.13110180  0.40896214  1
  O  O223  1  0.50520165  0.10977848  0.59613210  1
  O  O224  1  0.50612902  0.12466567  0.91570907  1
  O  O225  1  0.49072521  0.37507477  0.10824762  1
  O  O226  1  0.49252709  0.36405669  0.40066687  1
  O  O227  1  0.49842303  0.37236416  0.62245055  1
  O  O228  1  0.50009352  0.35627486  0.89469244  1
  O  O229  1  0.48871842  0.62777927  0.14711908  1
  O  O230  1  0.49004435  0.64178499  0.35681309  1
  O  O231  1  0.49395361  0.61714846  0.63936524  1
  O  O232  1  0.49360979  0.63349539  0.86399857  1
  O  O233  1  0.49713775  0.85874402  0.11739849  1
  O  O234  1  0.50701205  0.87040879  0.35911466  1
  O  O235  1  0.49611812  0.88381446  0.63355325  1
  O  O236  1  0.48853043  0.84226665  0.86743538  1
  O  O237  1  0.75662797  0.15144765  0.14079491  1
  O  O238  1  0.75049813  0.13484645  0.35754102  1
  O  O239  1  0.74276932  0.15115654  0.64313112  1
  O  O240  1  0.75277554  0.13393738  0.85580284  1
  O  O241  1  0.75824305  0.36961544  0.14303170  1
  O  O242  1  0.74582303  0.38281890  0.35643812  1
  O  O243  1  0.74545930  0.35192078  0.62427321  1
  O  O244  1  0.74591948  0.39066748  0.86213886  1
  O  O245  1  0.75427094  0.60199753  0.11571661  1
  O  O246  1  0.76183937  0.60507850  0.40706028  1
  O  O247  1  0.75021522  0.64021102  0.60452729  1
  O  O248  1  0.74274843  0.60446808  0.86707149  1
  O  O249  1  0.75649496  0.83928249  0.09378294  1
  O  O250  1  0.75352940  0.89530307  0.39544837  1
  O  O251  1  0.74320417  0.86590542  0.61025655  1
  O  O252  1  0.73620669  0.90787615  0.85283842  1
  O  O253  1  0.10968189  -0.01014517  0.12275036  1
  O  O254  1  0.10559899  -0.00768371  0.39346173  1
  O  O255  1  0.11493719  -0.01576395  0.61412722  1
  O  O256  1  0.08591342  -0.00752559  0.88105331  1
  O  O257  1  0.12385629  0.24973845  0.13594660  1
  O  O258  1  0.14600845  0.26190374  0.37706314  1
  O  O259  1  0.10164138  0.26702281  0.63507833  1
  O  O260  1  0.12859172  0.24698576  0.86187889  1
  O  O261  1  0.14296346  0.50302839  0.12317717  1
  O  O262  1  0.09636329  0.50690099  0.40486872  1
  O  O263  1  0.14294907  0.50916050  0.61170996  1
  O  O264  1  0.12707774  0.50182243  0.89439091  1
  O  O265  1  0.11982015  0.75136360  0.14930873  1
  O  O266  1  0.15331388  0.75429302  0.36324817  1
  O  O267  1  0.15328351  0.75671478  0.66892533  1
  O  O268  1  0.13712165  0.75964662  0.86975225  1
  O  O269  1  0.39411672  -0.01115219  0.10513856  1
  O  O270  1  0.38297153  0.00321134  0.40413305  1
  O  O271  1  0.37339767  -0.00510279  0.58190522  1
  O  O272  1  0.39639677  -0.01232330  0.90623925  1
  O  O273  1  0.36645872  0.25164186  0.12393726  1
  O  O274  1  0.34859265  0.26333833  0.37085675  1
  O  O275  1  0.39195563  0.24483751  0.63941726  1
  O  O276  1  0.35361303  0.25968390  0.88558386  1
  O  O277  1  0.36038125  0.50441339  0.11443816  1
  O  O278  1  0.38815154  0.50307590  0.40389071  1
  O  O279  1  0.37046094  0.49813008  0.61110932  1
  O  O280  1  0.38411344  0.50012370  0.89502516  1
  O  O281  1  0.37425540  0.75454556  0.15982540  1
  O  O282  1  0.34429140  0.74250716  0.36100649  1
  O  O283  1  0.38385490  0.75200129  0.66337541  1
  O  O284  1  0.33143638  0.75302685  0.85489861  1
  O  O285  1  0.66477214  -0.00743836  0.13559283  1
  O  O286  1  0.62606413  0.00688768  0.35361524  1
  O  O287  1  0.65176234  -0.00302797  0.65213188  1
  O  O288  1  0.58327634  -0.00754692  0.84260493  1
  O  O289  1  0.61006748  0.24554196  0.10353244  1
  O  O290  1  0.62482043  0.25510289  0.40971407  1
  O  O291  1  0.60315602  0.24817677  0.61227076  1
  O  O292  1  0.63083101  0.25221467  0.90754412  1
  O  O293  1  0.60501470  0.49655778  0.13439569  1
  O  O294  1  0.59787278  0.49139970  0.37061181  1
  O  O295  1  0.62688124  0.49393302  0.64728486  1
  O  O296  1  0.59995591  0.49224141  0.86223602  1
  O  O297  1  0.62045904  0.74683803  0.13517756  1
  O  O298  1  0.63417103  0.75418338  0.39430632  1
  O  O299  1  0.61501714  0.75725630  0.58990314  1
  O  O300  1  0.64679511  0.74531516  0.88985227  1
  O  O301  1  0.85115667  0.00430559  0.13381085  1
  O  O302  1  0.88227672  0.00494324  0.35617491  1
  O  O303  1  0.84784876  -0.00011029  0.64935815  1
  O  O304  1  0.88505867  0.00698425  0.84614681  1
  O  O305  1  0.89211740  0.25432878  0.11260339  1
  O  O306  1  0.86901585  0.25965481  0.41062908  1
  O  O307  1  0.88079503  0.24541321  0.59309322  1
  O  O308  1  0.84652438  0.25429842  0.89165478  1
  O  O309  1  0.87938746  0.49173357  0.15328739  1
  O  O310  1  0.90169643  0.50032439  0.35711630  1
  O  O311  1  0.85355689  0.50382966  0.65372597  1
  O  O312  1  0.87405600  0.49055044  0.84360296  1
  O  O313  1  0.90757403  0.74337204  0.10686248  1
  O  O314  1  0.86610989  0.74946067  0.39845506  1
  O  O315  1  0.87377121  0.75641278  0.58899950  1
  O  O316  1  0.83018562  0.76949803  0.90332051  1
