# generated using pymatgen
data_Mg32Ti42(Bi17O64)3
_symmetry_space_group_name_H-M   'P 1'
_cell_length_a   15.96205367
_cell_length_b   15.94992835
_cell_length_c   15.90207755
_cell_angle_alpha   89.87652753
_cell_angle_beta   90.03464496
_cell_angle_gamma   89.68418086
_symmetry_Int_Tables_number   1
_chemical_formula_structural   Mg32Ti42(Bi17O64)3
_chemical_formula_sum   'Mg32 Ti42 Bi51 O192'
_cell_volume   4048.49569231
_cell_formula_units_Z   1
loop_
 _symmetry_equiv_pos_site_id
 _symmetry_equiv_pos_as_xyz
  1  'x, y, z'
loop_
 _atom_site_type_symbol
 _atom_site_label
 _atom_site_symmetry_multiplicity
 _atom_site_fract_x
 _atom_site_fract_y
 _atom_site_fract_z
 _atom_site_occupancy
  Mg  Mg0  1  0.13090975  0.38508846  0.36928794  1
  Mg  Mg1  1  0.37142271  0.61588842  0.87061094  1
  Mg  Mg2  1  0.37457882  0.87960438  0.12045768  1
  Mg  Mg3  1  0.87237851  0.87848106  0.87130938  1
  Mg  Mg4  1  0.88599165  0.63414360  0.37692632  1
  Mg  Mg5  1  0.87574535  0.37625999  0.37854418  1
  Mg  Mg6  1  0.62820634  0.62397517  0.12281772  1
  Mg  Mg7  1  0.61494465  0.63056211  0.37039194  1
  Mg  Mg8  1  0.86625908  0.36105043  0.87698378  1
  Mg  Mg9  1  0.62421768  0.62695863  0.62894385  1
  Mg  Mg10  1  0.87053006  0.87614218  0.11435671  1
  Mg  Mg11  1  0.87903314  0.13183138  0.12416717  1
  Mg  Mg12  1  0.12358174  0.38014456  0.63173360  1
  Mg  Mg13  1  0.62984043  0.11938690  0.12720372  1
  Mg  Mg14  1  0.88333328  0.12619480  0.38279697  1
  Mg  Mg15  1  0.87850446  0.62576113  0.86848887  1
  Mg  Mg16  1  0.36896642  0.87787733  0.39020919  1
  Mg  Mg17  1  0.13077015  0.37500629  0.87342313  1
  Mg  Mg18  1  0.13310972  0.62044802  0.12614960  1
  Mg  Mg19  1  0.22255568  -0.02402011  -0.05729450  1
  Mg  Mg20  1  0.25081036  0.24728674  0.44138958  1
  Mg  Mg21  1  0.05021205  0.80247299  0.50890863  1
  Mg  Mg22  1  0.03696411  0.29242865  0.49904594  1
  Mg  Mg23  1  0.46080620  -0.03231440  0.26526294  1
  Mg  Mg24  1  0.80776615  0.76023492  -0.00663624  1
  Mg  Mg25  1  -0.03322218  0.46681663  0.77923586  1
  Mg  Mg26  1  0.26463196  0.50930641  0.25046002  1
  Mg  Mg27  1  0.52792088  0.52653344  0.00360897  1
  Mg  Mg28  1  -0.01447444  -0.01132196  0.18874382  1
  Mg  Mg29  1  0.81905762  0.00448223  -0.00316762  1
  Mg  Mg30  1  0.22555318  0.24274700  0.03444600  1
  Mg  Mg31  1  0.22873449  -0.05381908  0.56606404  1
  Ti  Ti32  1  0.13512593  0.62139044  0.37122247  1
  Ti  Ti33  1  0.87257435  0.87805963  0.63233580  1
  Ti  Ti34  1  0.37917289  0.13044754  0.88875964  1
  Ti  Ti35  1  0.63539523  0.38413350  0.12762479  1
  Ti  Ti36  1  0.62942178  0.87757582  0.10322260  1
  Ti  Ti37  1  0.63118224  0.86876961  0.62797766  1
  Ti  Ti38  1  0.37569526  0.61626160  0.12668047  1
  Ti  Ti39  1  0.37443842  0.62575070  0.63188051  1
  Ti  Ti40  1  0.37192983  0.13099760  0.12562381  1
  Ti  Ti41  1  0.38199911  0.38099246  0.88180341  1
  Ti  Ti42  1  0.12975776  0.88418378  0.12783637  1
  Ti  Ti43  1  0.37387841  0.62447539  0.37572367  1
  Ti  Ti44  1  0.87849661  0.63498285  0.62497227  1
  Ti  Ti45  1  0.89312092  0.88269179  0.37601174  1
  Ti  Ti46  1  0.87725401  0.62150095  0.11594727  1
  Ti  Ti47  1  0.62581581  0.62117444  0.87331295  1
  Ti  Ti48  1  0.62430262  0.37697042  0.88585738  1
  Ti  Ti49  1  0.37981750  0.36816889  0.36289437  1
  Ti  Ti50  1  0.12385279  0.11493765  0.38244271  1
  Ti  Ti51  1  0.62831323  0.11070036  0.88406908  1
  Ti  Ti52  1  0.88320619  0.37655617  0.12963526  1
  Ti  Ti53  1  0.37736856  0.12162877  0.38154332  1
  Ti  Ti54  1  0.13370968  0.38363819  0.13565264  1
  Ti  Ti55  1  0.62669055  0.37805913  0.37233567  1
  Ti  Ti56  1  0.12523429  0.61725961  0.86119553  1
  Ti  Ti57  1  0.11653477  0.61224597  0.61206843  1
  Ti  Ti58  1  0.62762735  0.38009561  0.62607920  1
  Ti  Ti59  1  0.36399601  0.13974742  0.61123311  1
  Ti  Ti60  1  0.38151949  0.37862349  0.61822933  1
  Ti  Ti61  1  0.62458831  0.88083020  0.87867405  1
  Ti  Ti62  1  0.13266940  0.13277737  0.89273621  1
  Ti  Ti63  1  0.88428480  0.13437200  0.62872613  1
  Ti  Ti64  1  0.62952433  0.12619403  0.36802826  1
  Ti  Ti65  1  0.12926618  0.86802428  0.37121990  1
  Ti  Ti66  1  0.38024470  0.88857593  0.87766801  1
  Ti  Ti67  1  0.61526740  0.88138157  0.36369226  1
  Ti  Ti68  1  0.12673277  0.13991772  0.62681471  1
  Ti  Ti69  1  0.89259491  0.12536029  0.87122151  1
  Ti  Ti70  1  0.88799324  0.37658672  0.62508590  1
  Ti  Ti71  1  0.37613010  0.87268131  0.62244359  1
  Ti  Ti72  1  0.11181972  0.12126741  0.12577734  1
  Ti  Ti73  1  0.37223565  0.37625719  0.12048096  1
  Bi  Bi74  1  0.28673749  0.76346889  0.25245075  1
  Bi  Bi75  1  0.52055432  0.01389628  0.71556072  1
  Bi  Bi76  1  0.00011862  0.49276583  0.48409849  1
  Bi  Bi77  1  0.01133828  0.50508612  -0.02088652  1
  Bi  Bi78  1  0.76554251  0.51265388  0.73299973  1
  Bi  Bi79  1  0.51025096  0.77023921  0.22942750  1
  Bi  Bi80  1  0.75393708  0.26235294  0.74456466  1
  Bi  Bi81  1  0.01686689  0.26068160  0.75238931  1
  Bi  Bi82  1  0.02706212  0.74807461  -0.02060470  1
  Bi  Bi83  1  0.52488075  0.00293254  0.49535877  1
  Bi  Bi84  1  0.24478539  -0.00665247  0.25867468  1
  Bi  Bi85  1  0.49847829  0.75628088  0.76005296  1
  Bi  Bi86  1  0.76132561  0.53457651  0.49292138  1
  Bi  Bi87  1  0.75157085  0.76093139  0.76945255  1
  Bi  Bi88  1  0.74036195  0.25492280  0.49530305  1
  Bi  Bi89  1  0.27136497  0.03102309  0.75137960  1
  Bi  Bi90  1  0.26638199  0.27599905  0.75830649  1
  Bi  Bi91  1  0.75628877  0.53073565  0.26459942  1
  Bi  Bi92  1  0.75649325  0.23107264  0.00890585  1
  Bi  Bi93  1  0.48929202  0.00694101  0.03623362  1
  Bi  Bi94  1  0.75384069  0.75271913  0.22294124  1
  Bi  Bi95  1  0.76229392  0.76576637  0.45939884  1
  Bi  Bi96  1  0.25225529  0.49255980  0.73620957  1
  Bi  Bi97  1  0.03531107  -0.00437309  0.52516468  1
  Bi  Bi98  1  0.02219127  0.76432173  0.70943970  1
  Bi  Bi99  1  0.23031464  0.78982698  0.76616085  1
  Bi  Bi100  1  0.51537746  0.51809738  0.50793745  1
  Bi  Bi101  1  0.78029248  0.50100197  -0.01983670  1
  Bi  Bi102  1  0.04168962  -0.01202653  0.74888344  1
  Bi  Bi103  1  0.01622917  0.24110233  0.28390412  1
  Bi  Bi104  1  0.52242368  0.75877879  0.50180104  1
  Bi  Bi105  1  0.74981739  0.03305135  0.73980145  1
  Bi  Bi106  1  0.51258227  0.25471316  0.02600544  1
  Bi  Bi107  1  0.51081877  0.24485236  0.77173514  1
  Bi  Bi108  1  0.24990533  0.23384933  0.24330499  1
  Bi  Bi109  1  0.78582697  -0.00108787  0.24285689  1
  Bi  Bi110  1  0.78418068  0.23471153  0.25487086  1
  Bi  Bi111  1  0.48545374  0.72525708  -0.01478304  1
  Bi  Bi112  1  0.01349093  0.28473418  0.00195568  1
  Bi  Bi113  1  0.24248154  0.51332077  0.00470537  1
  Bi  Bi114  1  0.02258354  0.74428228  0.21997445  1
  Bi  Bi115  1  0.52515161  0.23284703  0.52760667  1
  Bi  Bi116  1  0.77036948  0.01006275  0.50164107  1
  Bi  Bi117  1  0.25270907  0.74784532  0.52763170  1
  Bi  Bi118  1  0.51025440  0.49750543  0.74798791  1
  Bi  Bi119  1  0.51584770  0.23543912  0.24931886  1
  Bi  Bi120  1  0.02065223  -0.02996464  -0.02399341  1
  Bi  Bi121  1  0.25783561  0.76133844  0.00828003  1
  Bi  Bi122  1  0.26297703  0.48562052  0.46954881  1
  Bi  Bi123  1  0.51602091  0.51077038  0.24327556  1
  Bi  Bi124  1  -0.01079560  0.50354637  0.25784249  1
  O  O125  1  0.12755487  0.09260705  0.00514035  1
  O  O126  1  0.13145789  0.15210790  0.24685700  1
  O  O127  1  0.12893207  0.10649549  0.49997756  1
  O  O128  1  0.11573726  0.13495713  0.75250065  1
  O  O129  1  0.10723394  0.39370069  -0.00152435  1
  O  O130  1  0.13369508  0.34660492  0.24500493  1
  O  O131  1  0.10417179  0.40050708  0.50437205  1
  O  O132  1  0.13255869  0.33153165  0.75506241  1
  O  O133  1  0.12250434  0.58294570  0.00120454  1
  O  O134  1  0.12551459  0.65745754  0.25468775  1
  O  O135  1  0.11782798  0.59060518  0.49820471  1
  O  O136  1  0.12169938  0.65502263  0.75240243  1
  O  O137  1  0.14991062  0.90345843  0.01412498  1
  O  O138  1  0.09685382  0.85744338  0.25718079  1
  O  O139  1  0.13769798  0.89882859  0.49377400  1
  O  O140  1  0.10846633  0.86218762  0.74992125  1
  O  O141  1  0.37519658  0.09977338  0.00173619  1
  O  O142  1  0.37462666  0.14803692  0.24572210  1
  O  O143  1  0.34966016  0.11664380  0.49610050  1
  O  O144  1  0.36755571  0.12927474  0.74607364  1
  O  O145  1  0.37155689  0.39094131  -0.00436080  1
  O  O146  1  0.35841633  0.35731362  0.24611294  1
  O  O147  1  0.37337199  0.39957880  0.50268042  1
  O  O148  1  0.39161337  0.34592787  0.74641393  1
  O  O149  1  0.41721108  0.59670269  0.00945584  1
  O  O150  1  0.33460498  0.62079678  0.24559125  1
  O  O151  1  0.38243779  0.59615924  0.49172657  1
  O  O152  1  0.37376594  0.64773559  0.74333765  1
  O  O153  1  0.35233765  0.90252975  -0.00823730  1
  O  O154  1  0.39366985  0.86005929  0.25124624  1
  O  O155  1  0.32968548  0.88050435  0.50953494  1
  O  O156  1  0.38480071  0.84368795  0.74758840  1
  O  O157  1  0.63577698  0.15482063  -0.00492650  1
  O  O158  1  0.60055111  0.11939375  0.25322018  1
  O  O159  1  0.63355338  0.15384283  0.49476842  1
  O  O160  1  0.61694786  0.09848381  0.76040096  1
  O  O161  1  0.61959101  0.35273184  0.00189321  1
  O  O162  1  0.62717388  0.39869291  0.25017044  1
  O  O163  1  0.61866548  0.33861554  0.49837528  1
  O  O164  1  0.62225410  0.39824904  0.74636936  1
  O  O165  1  0.60262556  0.63191255  -0.00494436  1
  O  O166  1  0.62497321  0.58990075  0.25097381  1
  O  O167  1  0.59913665  0.63887847  0.49705097  1
  O  O168  1  0.61150456  0.59629946  0.75544465  1
  O  O169  1  0.64807182  0.84963540  -0.00781024  1
  O  O170  1  0.57499996  0.89965318  0.25531305  1
  O  O171  1  0.62919146  0.85629176  0.50189281  1
  O  O172  1  0.59073495  0.88091220  0.74736304  1
  O  O173  1  0.85531795  0.13307981  -0.00507805  1
  O  O174  1  0.86079162  0.11609745  0.25266746  1
  O  O175  1  0.85376828  0.12932014  0.51195231  1
  O  O176  1  0.88649788  0.09608164  0.75464148  1
  O  O177  1  0.87976222  0.35285429  0.00664714  1
  O  O178  1  0.87833148  0.41352523  0.24533140  1
  O  O179  1  0.92279040  0.35285815  0.51257631  1
  O  O180  1  0.85264456  0.39267633  0.74914473  1
  O  O181  1  0.84781843  0.63643237  0.00091072  1
  O  O182  1  0.88278889  0.60140100  0.24948382  1
  O  O183  1  0.85723915  0.64019272  0.50491847  1
  O  O184  1  0.88363784  0.58363464  0.74573640  1
  O  O185  1  0.83782091  0.87923779  -0.00560402  1
  O  O186  1  0.89898826  0.91334797  0.25797688  1
  O  O187  1  0.83898741  0.87479679  0.49698787  1
  O  O188  1  0.89831080  0.88414783  0.74352682  1
  O  O189  1  0.00069971  0.10484639  0.13519906  1
  O  O190  1  0.00838607  0.12166714  0.36400600  1
  O  O191  1  -0.00122839  0.10653499  0.62123598  1
  O  O192  1  0.00461145  0.15497875  0.88340773  1
  O  O193  1  0.00529177  0.38097422  0.12315484  1
  O  O194  1  0.00428456  0.41390883  0.36518216  1
  O  O195  1  -0.00538978  0.39291769  0.67128470  1
  O  O196  1  -0.00369619  0.34837054  0.86198323  1
  O  O197  1  -0.00289867  0.63279154  0.12313676  1
  O  O198  1  0.00910741  0.59347432  0.37125846  1
  O  O199  1  -0.00356669  0.61294277  0.62093027  1
  O  O200  1  0.00365184  0.64152560  0.89481096  1
  O  O201  1  0.00297880  0.88732359  0.11184889  1
  O  O202  1  0.00008765  0.88372341  0.40892371  1
  O  O203  1  -0.01186091  0.87075902  0.59801771  1
  O  O204  1  -0.00172452  0.85589960  0.90235128  1
  O  O205  1  0.25171574  0.14274338  0.12276582  1
  O  O206  1  0.24497329  0.14931628  0.36479597  1
  O  O207  1  0.24266869  0.13928084  0.63590338  1
  O  O208  1  0.24912753  0.09335030  0.88381461  1
  O  O209  1  0.24250308  0.34732870  0.10358147  1
  O  O210  1  0.25111473  0.36226853  0.39839406  1
  O  O211  1  0.25627715  0.37350246  0.65186378  1
  O  O212  1  0.25914918  0.38439430  0.85021605  1
  O  O213  1  0.25747992  0.63184245  0.07531840  1
  O  O214  1  0.24721180  0.64296554  0.39714077  1
  O  O215  1  0.24857128  0.63637557  0.61355687  1
  O  O216  1  0.24202947  0.58522320  0.88084850  1
  O  O217  1  0.24726463  0.87960317  0.16009161  1
  O  O218  1  0.24535224  0.87416394  0.34382039  1
  O  O219  1  0.24931251  0.84084110  0.64029799  1
  O  O220  1  0.26036131  0.89388222  0.85102404  1
  O  O221  1  0.50096651  0.13032679  0.10564224  1
  O  O222  1  0.49361820  0.11466139  0.39410125  1
  O  O223  1  0.47993786  0.10871573  0.61242097  1
  O  O224  1  0.49838309  0.14015500  0.88141811  1
  O  O225  1  0.48584720  0.37503948  0.12225003  1
  O  O226  1  0.49443013  0.38553314  0.36422462  1
  O  O227  1  0.49774438  0.40474410  0.61991549  1
  O  O228  1  0.49985823  0.34351596  0.87494379  1
  O  O229  1  0.48975591  0.62427012  0.15637943  1
  O  O230  1  0.48799267  0.59805983  0.35358309  1
  O  O231  1  0.49325137  0.59562452  0.62732053  1
  O  O232  1  0.49752592  0.65445979  0.86788346  1
  O  O233  1  0.50749591  0.86007436  0.10496036  1
  O  O234  1  0.49391955  0.90294233  0.40265635  1
  O  O235  1  0.48854801  0.89079738  0.60066534  1
  O  O236  1  0.49759282  0.84103930  0.88281149  1
  O  O237  1  0.74917393  0.15962800  0.12824295  1
  O  O238  1  0.74308028  0.14554482  0.36962615  1
  O  O239  1  0.75918875  0.14383986  0.66065633  1
  O  O240  1  0.74373792  0.09003152  0.87036408  1
  O  O241  1  0.74878724  0.37727033  0.12087481  1
  O  O242  1  0.74413498  0.34976034  0.38645229  1
  O  O243  1  0.74447747  0.34889187  0.61367440  1
  O  O244  1  0.73912956  0.39184810  0.88723526  1
  O  O245  1  0.75375086  0.62005192  0.15117942  1
  O  O246  1  0.74557883  0.63342453  0.36687341  1
  O  O247  1  0.75295445  0.62623974  0.64236092  1
  O  O248  1  0.74047892  0.58864647  0.87010725  1
  O  O249  1  0.74051383  0.87599951  0.15760921  1
  O  O250  1  0.73218708  0.86140683  0.35471650  1
  O  O251  1  0.74419512  0.86259086  0.64438227  1
  O  O252  1  0.73486498  0.88278697  0.83701301  1
  O  O253  1  0.12230847  -0.00033885  0.16400072  1
  O  O254  1  0.13989558  0.00242412  0.35432582  1
  O  O255  1  0.13011170  0.00419956  0.63323908  1
  O  O256  1  0.10922341  0.00388573  0.86850999  1
  O  O257  1  0.11310402  0.24009368  0.09913150  1
  O  O258  1  0.10591509  0.25423180  0.39826219  1
  O  O259  1  0.09468580  0.24962510  0.60437708  1
  O  O260  1  0.15560739  0.24229303  0.92272280  1
  O  O261  1  0.16291714  0.49497652  0.15349971  1
  O  O262  1  0.16629400  0.51049450  0.34288838  1
  O  O263  1  0.14046357  0.50534584  0.65465216  1
  O  O264  1  0.07869406  0.50019979  0.85131438  1
  O  O265  1  0.11862652  0.75820439  0.11846450  1
  O  O266  1  0.11340639  0.75681209  0.40531628  1
  O  O267  1  0.10635940  0.73775589  0.60016331  1
  O  O268  1  0.14713572  0.73042901  0.91168612  1
  O  O269  1  0.40432156  0.00385557  0.14871687  1
  O  O270  1  0.36544479  0.00786107  0.34627141  1
  O  O271  1  0.33988833  -0.01217100  0.63467796  1
  O  O272  1  0.39165030  -0.00237952  0.84593062  1
  O  O273  1  0.37984890  0.24766877  0.10117896  1
  O  O274  1  0.37432057  0.25108675  0.38953348  1
  O  O275  1  0.38000879  0.25287282  0.60319727  1
  O  O276  1  0.35598471  0.24147570  0.88784701  1
  O  O277  1  0.34699768  0.49490956  0.14005830  1
  O  O278  1  0.34336793  0.49371959  0.35528200  1
  O  O279  1  0.35793563  0.50023518  0.64614488  1
  O  O280  1  0.39687936  0.49108899  0.85176839  1
  O  O281  1  0.36393473  0.74447569  0.12154819  1
  O  O282  1  0.38060321  0.74192919  0.37084350  1
  O  O283  1  0.38501364  0.74220900  0.59269856  1
  O  O284  1  0.35451946  0.74137515  0.91326194  1
  O  O285  1  0.61919582  -0.00614824  0.09995840  1
  O  O286  1  0.63267610  0.00487518  0.39851376  1
  O  O287  1  0.62232708  -0.00983121  0.61834713  1
  O  O288  1  0.60253701  -0.00698755  0.89717846  1
  O  O289  1  0.60115174  0.26081783  0.14016981  1
  O  O290  1  0.60466369  0.25039998  0.35223486  1
  O  O291  1  0.58981804  0.26258349  0.64493304  1
  O  O292  1  0.63644596  0.24946661  0.84468144  1
  O  O293  1  0.60387131  0.49541849  0.10293606  1
  O  O294  1  0.63293740  0.48953553  0.40188601  1
  O  O295  1  0.63346130  0.49471127  0.59639204  1
  O  O296  1  0.58549991  0.49289047  0.89353170  1
  O  O297  1  0.63233298  0.75249948  0.15201182  1
  O  O298  1  0.58977677  0.76126200  0.36052794  1
  O  O299  1  0.59352951  0.75253234  0.63066390  1
  O  O300  1  0.64053192  0.73983564  0.84976569  1
  O  O301  1  0.85911833  0.00389608  0.12110864  1
  O  O302  1  0.85164213  -0.00040405  0.39069921  1
  O  O303  1  0.85383229  -0.00287951  0.61536322  1
  O  O304  1  0.89947711  0.00586192  0.89723445  1
  O  O305  1  0.88650201  0.26071839  0.15652830  1
  O  O306  1  0.89053905  0.25297227  0.35321939  1
  O  O307  1  0.88623586  0.24938088  0.65119668  1
  O  O308  1  0.84357466  0.23620387  0.85425084  1
  O  O309  1  0.87650978  0.50302816  0.09652398  1
  O  O310  1  0.85561393  0.50014460  0.40156182  1
  O  O311  1  0.85086740  0.48885577  0.60269104  1
  O  O312  1  0.88866294  0.49400575  0.89268105  1
  O  O313  1  0.85717083  0.74967257  0.12364553  1
  O  O314  1  0.87270045  0.76383577  0.36898133  1
  O  O315  1  0.87900565  0.74841609  0.64031242  1
  O  O316  1  0.84236030  0.74848239  0.86968822  1
