# generated using pymatgen
data_Mg32Ti42(Bi17O64)3
_symmetry_space_group_name_H-M   'P 1'
_cell_length_a   15.94445902
_cell_length_b   16.07945390
_cell_length_c   15.95824103
_cell_angle_alpha   89.72894617
_cell_angle_beta   90.07319422
_cell_angle_gamma   90.11327057
_symmetry_Int_Tables_number   1
_chemical_formula_structural   Mg32Ti42(Bi17O64)3
_chemical_formula_sum   'Mg32 Ti42 Bi51 O192'
_cell_volume   4091.28794378
_cell_formula_units_Z   1
loop_
 _symmetry_equiv_pos_site_id
 _symmetry_equiv_pos_as_xyz
  1  'x, y, z'
loop_
 _atom_site_type_symbol
 _atom_site_label
 _atom_site_symmetry_multiplicity
 _atom_site_fract_x
 _atom_site_fract_y
 _atom_site_fract_z
 _atom_site_occupancy
  Mg  Mg0  1  0.88528890  0.37533886  0.62589630  1
  Mg  Mg1  1  0.88189094  0.88485813  0.62738079  1
  Mg  Mg2  1  0.37318966  0.63072883  0.12645681  1
  Mg  Mg3  1  0.62430120  0.38037902  0.62155242  1
  Mg  Mg4  1  0.11765319  0.87169624  0.37386132  1
  Mg  Mg5  1  0.38245984  0.87925449  0.86770526  1
  Mg  Mg6  1  0.37229718  0.88470775  0.37626788  1
  Mg  Mg7  1  0.62588995  0.86761881  0.62707461  1
  Mg  Mg8  1  0.12135009  0.88075588  0.63354988  1
  Mg  Mg9  1  0.12329870  0.64438322  0.11150085  1
  Mg  Mg10  1  0.36975052  0.87730199  0.13015412  1
  Mg  Mg11  1  0.37211834  0.13054266  0.11966233  1
  Mg  Mg12  1  0.86902694  0.88257442  0.37973942  1
  Mg  Mg13  1  0.87144421  0.13473886  0.12598940  1
  Mg  Mg14  1  0.61827348  0.13854791  0.12779688  1
  Mg  Mg15  1  0.36851886  0.37168693  0.62954615  1
  Mg  Mg16  1  0.87969062  0.38914387  0.12801443  1
  Mg  Mg17  1  0.62732054  0.12844101  0.63233890  1
  Mg  Mg18  1  0.61633018  0.38434462  0.15065347  1
  Mg  Mg19  1  0.43387277  0.24295076  0.26442555  1
  Mg  Mg20  1  0.71361737  0.74337461  0.73971665  1
  Mg  Mg21  1  0.75081184  0.54167127  0.77025654  1
  Mg  Mg22  1  0.42855186  0.47593087  0.49161331  1
  Mg  Mg23  1  0.07509454  0.47044791  0.76367734  1
  Mg  Mg24  1  0.81359287  0.27646876  0.24804832  1
  Mg  Mg25  1  0.21818357  0.02559203  0.00612419  1
  Mg  Mg26  1  -0.00257504  0.04174618  0.44971384  1
  Mg  Mg27  1  0.50504771  0.04870033  0.77099815  1
  Mg  Mg28  1  0.25227414  0.29620932  -0.03745135  1
  Mg  Mg29  1  -0.01463123  0.78268401  0.01626721  1
  Mg  Mg30  1  0.46938581  0.44906599  0.31513952  1
  Mg  Mg31  1  0.26033226  0.45524206  0.42820587  1
  Ti  Ti32  1  0.87834451  0.62122875  0.64156224  1
  Ti  Ti33  1  0.13683213  0.36773852  0.61598209  1
  Ti  Ti34  1  0.86742654  0.87339766  0.12242238  1
  Ti  Ti35  1  0.86037204  0.12868728  0.87258509  1
  Ti  Ti36  1  0.36053186  0.13058029  0.63035899  1
  Ti  Ti37  1  0.62708534  0.39399083  0.86989458  1
  Ti  Ti38  1  0.61918925  0.13883920  0.37149734  1
  Ti  Ti39  1  0.12390775  0.13372537  0.11541460  1
  Ti  Ti40  1  0.62047699  0.62338707  0.13496348  1
  Ti  Ti41  1  0.11636360  0.37769183  0.37102150  1
  Ti  Ti42  1  0.61449623  0.86506407  0.86448073  1
  Ti  Ti43  1  0.37325191  0.12528518  0.88503344  1
  Ti  Ti44  1  0.63584507  0.37732013  0.36623279  1
  Ti  Ti45  1  0.37105393  0.62020220  0.60717559  1
  Ti  Ti46  1  0.12826303  0.62249942  0.38826830  1
  Ti  Ti47  1  0.12179526  0.88826923  0.87932923  1
  Ti  Ti48  1  0.87527569  0.63663846  0.12152012  1
  Ti  Ti49  1  0.85666950  0.12136533  0.37858032  1
  Ti  Ti50  1  0.86708811  0.87632516  0.88220996  1
  Ti  Ti51  1  0.11899559  0.62586680  0.87354466  1
  Ti  Ti52  1  0.37937214  0.63330184  0.87814941  1
  Ti  Ti53  1  0.62394824  0.88807646  0.37501586  1
  Ti  Ti54  1  0.12335269  0.12914141  0.87562848  1
  Ti  Ti55  1  0.37956113  0.11998802  0.38664869  1
  Ti  Ti56  1  0.37851596  0.37844944  0.13595550  1
  Ti  Ti57  1  0.87044992  0.39719576  0.86814080  1
  Ti  Ti58  1  0.11847343  0.87850040  0.12489576  1
  Ti  Ti59  1  0.61939706  0.63113979  0.87186470  1
  Ti  Ti60  1  0.12285151  0.37579719  0.11849275  1
  Ti  Ti61  1  0.87321158  0.63853110  0.87365381  1
  Ti  Ti62  1  0.62579722  0.86908510  0.13667782  1
  Ti  Ti63  1  0.62187455  0.14053330  0.87586003  1
  Ti  Ti64  1  0.87778708  0.62731514  0.39044425  1
  Ti  Ti65  1  0.36970084  0.61487859  0.37434955  1
  Ti  Ti66  1  0.87825810  0.11699894  0.62053883  1
  Ti  Ti67  1  0.38867003  0.38449149  0.88040348  1
  Ti  Ti68  1  0.11847080  0.62375108  0.62610167  1
  Ti  Ti69  1  0.61409720  0.60853149  0.38254131  1
  Ti  Ti70  1  0.88515840  0.37762417  0.37405377  1
  Ti  Ti71  1  0.36692121  0.88337704  0.62032275  1
  Ti  Ti72  1  0.12502071  0.11421376  0.64013866  1
  Ti  Ti73  1  0.63151371  0.61837057  0.61677007  1
  Bi  Bi74  1  -0.03119039  0.27389763  0.00645567  1
  Bi  Bi75  1  0.48672360  0.00927115  0.24836759  1
  Bi  Bi76  1  0.73259289  0.01376979  0.01451378  1
  Bi  Bi77  1  0.76442079  0.50605816  0.27710724  1
  Bi  Bi78  1  -0.02116410  0.01854006  0.01288897  1
  Bi  Bi79  1  0.50160848  0.01845271  0.54347230  1
  Bi  Bi80  1  0.24437438  0.77160210  0.77041364  1
  Bi  Bi81  1  0.23307076  0.27829492  0.77258692  1
  Bi  Bi82  1  0.20270887  0.02849218  0.47605816  1
  Bi  Bi83  1  0.76636430  0.48860363  0.52542451  1
  Bi  Bi84  1  -0.01957267  0.77242181  0.26539295  1
  Bi  Bi85  1  0.26137042  0.03740526  0.24162445  1
  Bi  Bi86  1  0.75242987  0.26208890  0.52439511  1
  Bi  Bi87  1  0.28076188  0.26869018  0.48099154  1
  Bi  Bi88  1  0.73759990  0.27657389  0.03338318  1
  Bi  Bi89  1  0.47487855  0.75700417  0.72460187  1
  Bi  Bi90  1  -0.02154952  0.01167873  0.75532787  1
  Bi  Bi91  1  0.03079860  0.01911392  0.25466299  1
  Bi  Bi92  1  -0.01072798  0.26956684  0.77137480  1
  Bi  Bi93  1  0.49969331  0.00987054  0.01805392  1
  Bi  Bi94  1  0.47069869  0.74738131  0.26066099  1
  Bi  Bi95  1  0.01330999  0.23075162  0.27770750  1
  Bi  Bi96  1  0.22835229  0.77818212  0.50415695  1
  Bi  Bi97  1  0.01605849  0.48508089  0.52167338  1
  Bi  Bi98  1  0.71817758  0.74799451  0.00462455  1
  Bi  Bi99  1  0.48294227  0.51746263  0.02304645  1
  Bi  Bi100  1  0.23530650  0.53843999  0.22797809  1
  Bi  Bi101  1  0.23121390  0.26649538  0.24942810  1
  Bi  Bi102  1  0.76729838  0.76394621  0.53033697  1
  Bi  Bi103  1  0.74231964  0.49572465  0.02586871  1
  Bi  Bi104  1  0.00835686  0.53256126  0.24478057  1
  Bi  Bi105  1  0.27079830  0.00999577  0.76882040  1
  Bi  Bi106  1  0.48301359  0.77546403  0.01762575  1
  Bi  Bi107  1  0.50003677  0.52053047  0.72315681  1
  Bi  Bi108  1  0.51332253  0.28161308  0.48948117  1
  Bi  Bi109  1  0.23592808  0.77599903  0.00869881  1
  Bi  Bi110  1  -0.01077168  0.52971039  0.00304051  1
  Bi  Bi111  1  0.24671134  0.77382156  0.26035919  1
  Bi  Bi112  1  0.22318486  0.49309906  -0.03276185  1
  Bi  Bi113  1  0.75044952  0.28720585  0.73657896  1
  Bi  Bi114  1  0.72908232  0.74367823  0.28825232  1
  Bi  Bi115  1  0.26449557  0.52518356  0.74243290  1
  Bi  Bi116  1  0.73871793  0.03556421  0.23588706  1
  Bi  Bi117  1  0.49654084  0.27317488  0.02231207  1
  Bi  Bi118  1  0.01977981  0.23314612  0.51936882  1
  Bi  Bi119  1  0.50398686  0.27632451  0.74197220  1
  Bi  Bi120  1  -0.00593526  0.77560820  0.75653685  1
  Bi  Bi121  1  0.72368507  -0.00400264  0.52053115  1
  Bi  Bi122  1  0.49518907  0.78203090  0.48723225  1
  Bi  Bi123  1  0.71436629  -0.00412343  0.76330422  1
  Bi  Bi124  1  0.00174456  0.77748259  0.50353413  1
  O  O125  1  0.11446031  0.10000844  -0.00199232  1
  O  O126  1  0.12022676  0.12717346  0.24213473  1
  O  O127  1  0.09229032  0.09938894  0.51311951  1
  O  O128  1  0.15156407  0.14259776  0.75406006  1
  O  O129  1  0.16375145  0.37214150  0.01248442  1
  O  O130  1  0.11056037  0.35425379  0.25090571  1
  O  O131  1  0.14404726  0.39828650  0.49578885  1
  O  O132  1  0.10561404  0.34974842  0.74215615  1
  O  O133  1  0.13003743  0.60268667  -0.00812890  1
  O  O134  1  0.12193071  0.62049057  0.25621953  1
  O  O135  1  0.11816960  0.60040478  0.50518853  1
  O  O136  1  0.14188944  0.60550852  0.74826563  1
  O  O137  1  0.16940375  0.90320326  -0.00463935  1
  O  O138  1  0.11302979  0.84669678  0.24055962  1
  O  O139  1  0.11965529  0.86387746  0.50491023  1
  O  O140  1  0.11446890  0.84962473  0.75947014  1
  O  O141  1  0.39230593  0.09908986  -0.00282344  1
  O  O142  1  0.34316429  0.15205356  0.24993712  1
  O  O143  1  0.39786982  0.10341135  0.49977449  1
  O  O144  1  0.34282990  0.13704265  0.74461536  1
  O  O145  1  0.36584956  0.35614107  -0.00271839  1
  O  O146  1  0.40548408  0.36520315  0.24599543  1
  O  O147  1  0.33642851  0.39005303  0.50608123  1
  O  O148  1  0.39396649  0.35506089  0.75869663  1
  O  O149  1  0.39358019  0.63151371  -0.00556975  1
  O  O150  1  0.37630170  0.64165272  0.25635415  1
  O  O151  1  0.39119938  0.59787531  0.49698481  1
  O  O152  1  0.37652532  0.61299273  0.74616558  1
  O  O153  1  0.38499597  0.87225580  -0.00310364  1
  O  O154  1  0.37037031  0.84126391  0.25656005  1
  O  O155  1  0.39211456  0.87598984  0.50100412  1
  O  O156  1  0.36797882  0.84745758  0.73774345  1
  O  O157  1  0.61219725  0.09594363  -0.00636690  1
  O  O158  1  0.64457781  0.12776853  0.25206376  1
  O  O159  1  0.59294511  0.11411752  0.49201471  1
  O  O160  1  0.63018963  0.11877830  0.75833117  1
  O  O161  1  0.66068483  0.38202583  -0.01740404  1
  O  O162  1  0.57934383  0.39749223  0.26896172  1
  O  O163  1  0.64752762  0.35344734  0.49528095  1
  O  O164  1  0.61440654  0.35979942  0.75194549  1
  O  O165  1  0.62944255  0.63409477  -0.00704978  1
  O  O166  1  0.63889911  0.62417229  0.24761774  1
  O  O167  1  0.63021521  0.61336820  0.50068620  1
  O  O168  1  0.65554364  0.62577353  0.75453122  1
  O  O169  1  0.62889327  0.86577438  -0.01242101  1
  O  O170  1  0.62433793  0.85815215  0.24919252  1
  O  O171  1  0.61534172  0.88233354  0.49425785  1
  O  O172  1  0.65657644  0.86032248  0.74882060  1
  O  O173  1  0.89144166  0.13233060  -0.00905483  1
  O  O174  1  0.83623682  0.13545217  0.25601085  1
  O  O175  1  0.90175102  0.13423596  0.49865704  1
  O  O176  1  0.86767449  0.09944694  0.75221306  1
  O  O177  1  0.85581382  0.35649953  -0.01365237  1
  O  O178  1  0.88273909  0.39647333  0.25419206  1
  O  O179  1  0.84635496  0.36676708  0.48864882  1
  O  O180  1  0.89817868  0.37663501  0.75186602  1
  O  O181  1  0.90851962  0.64722395  -0.00596397  1
  O  O182  1  0.88132598  0.60110681  0.23829331  1
  O  O183  1  0.87266890  0.64874501  0.50154132  1
  O  O184  1  0.86773765  0.59819982  0.75287320  1
  O  O185  1  0.87325905  0.84866005  -0.00370785  1
  O  O186  1  0.89556333  0.87973501  0.23883176  1
  O  O187  1  0.88172534  0.84461487  0.50401395  1
  O  O188  1  0.90655653  0.88559784  0.75977576  1
  O  O189  1  -0.00099154  0.10627441  0.13008264  1
  O  O190  1  -0.01759181  0.11770287  0.34633386  1
  O  O191  1  0.00538245  0.15246008  0.64406683  1
  O  O192  1  0.00846076  0.14288874  0.85939500  1
  O  O193  1  0.00689061  0.38179969  0.09152351  1
  O  O194  1  -0.00220170  0.39967212  0.39087898  1
  O  O195  1  0.00538355  0.36051275  0.59049642  1
  O  O196  1  -0.01318184  0.34639232  0.88672160  1
  O  O197  1  0.00425084  0.60645590  0.12653327  1
  O  O198  1  -0.00051919  0.60475819  0.37182250  1
  O  O199  1  -0.00087270  0.63880746  0.63554459  1
  O  O200  1  0.00792698  0.63591799  0.86332505  1
  O  O201  1  0.00370641  0.88775300  0.09542895  1
  O  O202  1  -0.00617683  0.85162162  0.37753935  1
  O  O203  1  -0.00013541  0.83772027  0.63009316  1
  O  O204  1  0.01548097  0.84096646  0.90025003  1
  O  O205  1  0.24282388  0.10770873  0.10828350  1
  O  O206  1  0.25697993  0.12282479  0.39589811  1
  O  O207  1  0.24374911  0.10707909  0.59828534  1
  O  O208  1  0.25419748  0.07629222  0.89242270  1
  O  O209  1  0.25912977  0.36055728  0.15432919  1
  O  O210  1  0.23817876  0.34581610  0.36357290  1
  O  O211  1  0.24351935  0.38099679  0.65820309  1
  O  O212  1  0.26530636  0.38566291  0.86448888  1
  O  O213  1  0.24639563  0.64025634  0.13520214  1
  O  O214  1  0.25241747  0.62767569  0.37785106  1
  O  O215  1  0.25635093  0.59813905  0.62197118  1
  O  O216  1  0.26357357  0.59420374  0.86913804  1
  O  O217  1  0.24422555  0.84622889  0.13673058  1
  O  O218  1  0.24593841  0.85869251  0.37526967  1
  O  O219  1  0.25062279  0.87114688  0.61075195  1
  O  O220  1  0.24929932  0.88539548  0.84805793  1
  O  O221  1  0.50095321  0.09048093  0.13151116  1
  O  O222  1  0.49334093  0.12657198  0.32982133  1
  O  O223  1  0.49008399  0.10910974  0.64948257  1
  O  O224  1  0.49822329  0.13793274  0.86217015  1
  O  O225  1  0.50146551  0.39047225  0.09176806  1
  O  O226  1  0.50567067  0.40001588  0.42671805  1
  O  O227  1  0.50071222  0.34340739  0.61981607  1
  O  O228  1  0.50950752  0.35307634  0.88251050  1
  O  O229  1  0.50694448  0.60873507  0.12670455  1
  O  O230  1  0.50737069  0.57985342  0.36287489  1
  O  O231  1  0.51003635  0.63417187  0.64220700  1
  O  O232  1  0.50540292  0.64372804  0.85917055  1
  O  O233  1  0.50932466  0.88714764  0.11527688  1
  O  O234  1  0.50416029  0.86750754  0.36979006  1
  O  O235  1  0.49904343  0.85481122  0.63091378  1
  O  O236  1  0.50508539  0.84047754  0.85388596  1
  O  O237  1  0.74577522  0.11425224  0.10875504  1
  O  O238  1  0.74109803  0.13363431  0.39903062  1
  O  O239  1  0.76121275  0.09948712  0.60517780  1
  O  O240  1  0.74631870  0.09581962  0.88570471  1
  O  O241  1  0.74814025  0.38028922  0.12427922  1
  O  O242  1  0.74372722  0.35494773  0.32782589  1
  O  O243  1  0.75540864  0.38393891  0.62857472  1
  O  O244  1  0.75276536  0.41445098  0.83219173  1
  O  O245  1  0.75918842  0.64166718  0.10873960  1
  O  O246  1  0.75680709  0.62761642  0.36338359  1
  O  O247  1  0.75345200  0.58428694  0.62864904  1
  O  O248  1  0.76315088  0.60600193  0.88396391  1
  O  O249  1  0.75371177  0.85269294  0.12351429  1
  O  O250  1  0.74263198  0.85507198  0.37598178  1
  O  O251  1  0.75641058  0.88945839  0.60162738  1
  O  O252  1  0.75835237  0.90344212  0.87362891  1
  O  O253  1  0.13297194  -0.00817892  0.14354967  1
  O  O254  1  0.09988266  -0.00462452  0.37725923  1
  O  O255  1  0.11472410  0.00427214  0.65838870  1
  O  O256  1  0.10325743  -0.00307657  0.86102548  1
  O  O257  1  0.12208769  0.24591511  0.11947594  1
  O  O258  1  0.09143757  0.25820234  0.38696099  1
  O  O259  1  0.13931941  0.25165199  0.59545791  1
  O  O260  1  0.16449309  0.23430340  0.89336501  1
  O  O261  1  0.13588630  0.48951975  0.14292392  1
  O  O262  1  0.15298513  0.49205026  0.35950560  1
  O  O263  1  0.09762613  0.49031162  0.64004079  1
  O  O264  1  0.12043641  0.49924744  0.87403202  1
  O  O265  1  0.10814553  0.76243483  0.06955816  1
  O  O266  1  0.12486901  0.73524908  0.39491223  1
  O  O267  1  0.14661740  0.73316701  0.61794698  1
  O  O268  1  0.16264580  0.73995525  0.88425628  1
  O  O269  1  0.36845528  -0.00094196  0.16427084  1
  O  O270  1  0.37415995  0.00639435  0.34290715  1
  O  O271  1  0.37336931  -0.00588393  0.63641010  1
  O  O272  1  0.39653924  0.00412765  0.83128071  1
  O  O273  1  0.41067318  0.25136954  0.12934849  1
  O  O274  1  0.38985558  0.24146495  0.39357743  1
  O  O275  1  0.36131168  0.24108730  0.60344810  1
  O  O276  1  0.34327896  0.23319164  0.88933234  1
  O  O277  1  0.37287077  0.49582725  0.11101698  1
  O  O278  1  0.36254770  0.49705358  0.36878267  1
  O  O279  1  0.40567158  0.49579964  0.62644422  1
  O  O280  1  0.40361276  0.49527958  0.88515147  1
  O  O281  1  0.40605058  0.75208719  0.12534982  1
  O  O282  1  0.40498826  0.73311103  0.38977822  1
  O  O283  1  0.37798469  0.73613858  0.60936013  1
  O  O284  1  0.34957697  0.74289499  0.86864373  1
  O  O285  1  0.64725277  -0.01363688  0.12791191  1
  O  O286  1  0.63235508  -0.00084184  0.35816332  1
  O  O287  1  0.62718537  -0.00091687  0.62400528  1
  O  O288  1  0.60146003  -0.01477638  0.84435438  1
  O  O289  1  0.61364085  0.26060600  0.10638307  1
  O  O290  1  0.60415883  0.25037625  0.37413445  1
  O  O291  1  0.65934989  0.24791989  0.63078690  1
  O  O292  1  0.64882795  0.24686431  0.88462741  1
  O  O293  1  0.64387131  0.50830761  0.11923112  1
  O  O294  1  0.66334692  0.49386365  0.37975926  1
  O  O295  1  0.60464831  0.50185608  0.63416448  1
  O  O296  1  0.60957587  0.50466534  0.87117926  1
  O  O297  1  0.61840857  0.74824584  0.11070857  1
  O  O298  1  0.61767922  0.73046392  0.37405126  1
  O  O299  1  0.65308167  0.73898836  0.62498094  1
  O  O300  1  0.65854810  0.74658887  0.86683961  1
  O  O301  1  0.86290232  -0.00884463  0.09714748  1
  O  O302  1  0.87457938  0.00840406  0.39390230  1
  O  O303  1  0.91206713  0.00630086  0.62229827  1
  O  O304  1  0.90390721  -0.00600671  0.88666880  1
  O  O305  1  0.87269199  0.25972055  0.13246488  1
  O  O306  1  0.88871791  0.25849444  0.35515001  1
  O  O307  1  0.85205905  0.24393657  0.63561716  1
  O  O308  1  0.85365593  0.23855447  0.85271906  1
  O  O309  1  0.87288442  0.51006687  0.08939869  1
  O  O310  1  0.85247432  0.50075955  0.38716592  1
  O  O311  1  0.89011389  0.50277182  0.59446750  1
  O  O312  1  0.89672210  0.50209284  0.89241966  1
  O  O313  1  0.90581934  0.75069278  0.12846871  1
  O  O314  1  0.87271704  0.73805249  0.34826148  1
  O  O315  1  0.83236042  0.73507485  0.65044010  1
  O  O316  1  0.86200115  0.75033241  0.85169983  1
