# generated using pymatgen
data_Mg32Ti42(Bi17O64)3
_symmetry_space_group_name_H-M   'P 1'
_cell_length_a   16.01173501
_cell_length_b   15.98759694
_cell_length_c   15.98496950
_cell_angle_alpha   90.00774601
_cell_angle_beta   89.87825363
_cell_angle_gamma   89.82528612
_symmetry_Int_Tables_number   1
_chemical_formula_structural   Mg32Ti42(Bi17O64)3
_chemical_formula_sum   'Mg32 Ti42 Bi51 O192'
_cell_volume   4091.95070292
_cell_formula_units_Z   1
loop_
 _symmetry_equiv_pos_site_id
 _symmetry_equiv_pos_as_xyz
  1  'x, y, z'
loop_
 _atom_site_type_symbol
 _atom_site_label
 _atom_site_symmetry_multiplicity
 _atom_site_fract_x
 _atom_site_fract_y
 _atom_site_fract_z
 _atom_site_occupancy
  Mg  Mg0  1  0.88015309  0.63305893  0.37868151  1
  Mg  Mg1  1  0.12010144  0.12364244  0.63417378  1
  Mg  Mg2  1  0.12751129  0.38106291  0.12395991  1
  Mg  Mg3  1  0.88564630  0.12594835  0.37706177  1
  Mg  Mg4  1  0.87894377  0.11900611  0.87965382  1
  Mg  Mg5  1  0.86995664  0.87913294  0.12271220  1
  Mg  Mg6  1  0.62012857  0.87917707  0.37579044  1
  Mg  Mg7  1  0.62819031  0.12604716  0.13320270  1
  Mg  Mg8  1  0.61862849  0.61974591  0.87260156  1
  Mg  Mg9  1  0.13667197  0.11538814  0.12485320  1
  Mg  Mg10  1  0.12161316  0.63704652  0.11993875  1
  Mg  Mg11  1  0.62615954  0.88495093  0.62296018  1
  Mg  Mg12  1  0.36335269  0.13280633  0.61368697  1
  Mg  Mg13  1  0.64250502  0.38097397  0.62981275  1
  Mg  Mg14  1  0.36446027  0.12556942  0.87889545  1
  Mg  Mg15  1  0.62607286  0.87303065  0.87791630  1
  Mg  Mg16  1  0.37264796  0.86881999  0.86865381  1
  Mg  Mg17  1  0.89131941  0.37762889  0.38499022  1
  Mg  Mg18  1  0.62538531  0.63366026  0.12646856  1
  Mg  Mg19  1  0.26735628  0.25313306  0.70262197  1
  Mg  Mg20  1  0.03179602  0.81149279  0.53514855  1
  Mg  Mg21  1  0.27213693  0.73400082  0.25413906  1
  Mg  Mg22  1  0.70513668  0.20211649  -0.02757939  1
  Mg  Mg23  1  0.29382656  0.04465161  0.24905232  1
  Mg  Mg24  1  0.00217374  0.55110413  0.24037519  1
  Mg  Mg25  1  0.70865460  0.03027679  0.81969173  1
  Mg  Mg26  1  0.26933725  0.28612542  0.47638554  1
  Mg  Mg27  1  0.79810870  0.48618917  0.52865841  1
  Mg  Mg28  1  0.26918690  0.49401630  0.45506755  1
  Mg  Mg29  1  0.47588329  0.45392403  -0.04299454  1
  Mg  Mg30  1  0.17548342  0.80196231  0.68891111  1
  Mg  Mg31  1  0.78903110  0.47897795  0.74947415  1
  Ti  Ti32  1  0.38352983  0.63319936  0.85190651  1
  Ti  Ti33  1  0.37698566  0.87766657  0.13656035  1
  Ti  Ti34  1  0.64130673  0.36710712  0.12658127  1
  Ti  Ti35  1  0.63124983  0.12747919  0.37815145  1
  Ti  Ti36  1  0.12411444  0.35316910  0.62563758  1
  Ti  Ti37  1  0.62272923  0.37454372  0.38072659  1
  Ti  Ti38  1  0.88174769  0.38442921  0.12307620  1
  Ti  Ti39  1  0.87165955  0.87055181  0.63762557  1
  Ti  Ti40  1  0.12045820  0.63925201  0.37722453  1
  Ti  Ti41  1  0.13425598  0.87763038  0.88554483  1
  Ti  Ti42  1  0.86570087  0.88459406  0.87845769  1
  Ti  Ti43  1  0.37456904  0.87597080  0.63371866  1
  Ti  Ti44  1  0.37660632  0.87771137  0.36216199  1
  Ti  Ti45  1  0.88167807  0.11244106  0.63084999  1
  Ti  Ti46  1  0.64190650  0.12477728  0.61782936  1
  Ti  Ti47  1  0.88467335  0.62829681  0.61887019  1
  Ti  Ti48  1  0.11614257  0.35329076  0.87303739  1
  Ti  Ti49  1  0.86858334  0.61796034  0.12114064  1
  Ti  Ti50  1  0.13547222  0.87260066  0.12681600  1
  Ti  Ti51  1  0.86442910  0.13286036  0.12062762  1
  Ti  Ti52  1  0.13966055  0.37987215  0.37108353  1
  Ti  Ti53  1  0.88755465  0.86905099  0.38078741  1
  Ti  Ti54  1  0.87566887  0.37554917  0.88919984  1
  Ti  Ti55  1  0.37849059  0.13178273  0.37848812  1
  Ti  Ti56  1  0.37519807  0.62649071  0.37403957  1
  Ti  Ti57  1  0.87991909  0.37293996  0.63201829  1
  Ti  Ti58  1  0.36198719  0.37053281  0.61255237  1
  Ti  Ti59  1  0.37426872  0.38939096  0.12921267  1
  Ti  Ti60  1  0.14020004  0.64371522  0.86463306  1
  Ti  Ti61  1  0.12503682  0.11687235  0.87732373  1
  Ti  Ti62  1  0.38779072  0.62211121  0.13485349  1
  Ti  Ti63  1  0.63847968  0.62100043  0.37453913  1
  Ti  Ti64  1  0.37834031  0.38434638  0.36142979  1
  Ti  Ti65  1  0.63176633  0.87331379  0.12679074  1
  Ti  Ti66  1  0.12137740  0.63187007  0.61143721  1
  Ti  Ti67  1  0.87751459  0.60478111  0.87245495  1
  Ti  Ti68  1  0.65159425  0.61029221  0.62423266  1
  Ti  Ti69  1  0.13158733  0.87488139  0.36066862  1
  Ti  Ti70  1  0.63644910  0.37435320  0.86518851  1
  Ti  Ti71  1  0.35894136  0.62137667  0.60930186  1
  Ti  Ti72  1  0.14110129  0.11745376  0.36603810  1
  Ti  Ti73  1  0.38094235  0.13517895  0.12283627  1
  Bi  Bi74  1  -0.01153577  0.74206957  0.75852435  1
  Bi  Bi75  1  0.78747412  0.49903775  0.27530282  1
  Bi  Bi76  1  0.73552428  0.01082887  0.00787288  1
  Bi  Bi77  1  0.00926006  0.22432812  0.01533442  1
  Bi  Bi78  1  0.00505502  0.76770334  0.23212864  1
  Bi  Bi79  1  0.22439551  0.53603895  0.23512577  1
  Bi  Bi80  1  -0.00878846  0.51714049  0.48356564  1
  Bi  Bi81  1  0.01161088  0.49130458  0.73689614  1
  Bi  Bi82  1  -0.02740625  0.23994640  0.76209712  1
  Bi  Bi83  1  0.73490316  0.74957750  0.76277338  1
  Bi  Bi84  1  -0.00488243  -0.00542994  -0.00568943  1
  Bi  Bi85  1  0.71422076  0.50666363  -0.00991335  1
  Bi  Bi86  1  0.02614958  -0.02676534  0.73537566  1
  Bi  Bi87  1  0.50677619  0.77160776  0.74807416  1
  Bi  Bi88  1  0.75144071  0.22986522  0.75834437  1
  Bi  Bi89  1  0.01515611  -0.00267202  0.24162831  1
  Bi  Bi90  1  0.46094054  0.26802250  0.78986403  1
  Bi  Bi91  1  0.01385310  0.23465639  0.23188761  1
  Bi  Bi92  1  0.77900494  0.00848440  0.26090433  1
  Bi  Bi93  1  0.48537473  0.02016687  0.51548061  1
  Bi  Bi94  1  0.26246997  0.02975763  0.75067368  1
  Bi  Bi95  1  0.24202275  -0.00031343  0.51515758  1
  Bi  Bi96  1  0.27293725  0.29317788  -0.03324402  1
  Bi  Bi97  1  0.27130008  0.50787366  -0.03708803  1
  Bi  Bi98  1  0.51537234  0.01264451  0.23859897  1
  Bi  Bi99  1  0.53411730  0.25623144  0.52162608  1
  Bi  Bi100  1  0.51402456  0.26849121  0.01412344  1
  Bi  Bi101  1  0.52465008  0.76477437  0.24924085  1
  Bi  Bi102  1  0.49074315  0.47661477  0.72203309  1
  Bi  Bi103  1  0.23144639  0.49514198  0.72909660  1
  Bi  Bi104  1  0.72629967  0.76851046  0.49621763  1
  Bi  Bi105  1  0.26885594  0.73010279  0.02091088  1
  Bi  Bi106  1  0.78565705  0.26533472  0.26781079  1
  Bi  Bi107  1  0.51709444  0.02032539  -0.01855902  1
  Bi  Bi108  1  0.51377387  0.25129669  0.25482019  1
  Bi  Bi109  1  0.51120193  0.75417104  0.51375742  1
  Bi  Bi110  1  0.53641788  0.50460201  0.23660940  1
  Bi  Bi111  1  0.01280613  0.00361670  0.50188082  1
  Bi  Bi112  1  0.03290957  0.24703016  0.47188341  1
  Bi  Bi113  1  0.48592859  0.75725225  -0.01791937  1
  Bi  Bi114  1  0.27214440  0.77489724  0.49730550  1
  Bi  Bi115  1  0.51594058  0.04370700  0.76254837  1
  Bi  Bi116  1  0.23122510  0.25586895  0.22855913  1
  Bi  Bi117  1  0.51512031  0.51659845  0.50109959  1
  Bi  Bi118  1  0.03624488  0.50699701  0.02020755  1
  Bi  Bi119  1  0.74965658  0.72246655  -0.01527540  1
  Bi  Bi120  1  0.29161461  -0.00924626  -0.01035347  1
  Bi  Bi121  1  0.00490851  0.76254689  -0.01408529  1
  Bi  Bi122  1  0.74266543  -0.01228246  0.49265336  1
  Bi  Bi123  1  0.77168106  0.76028258  0.23788185  1
  Bi  Bi124  1  0.79001328  0.24310086  0.49990155  1
  O  O125  1  0.10154363  0.12299154  0.00093985  1
  O  O126  1  0.12514683  0.14701572  0.25098089  1
  O  O127  1  0.13016593  0.08920615  0.48718728  1
  O  O128  1  0.13258398  0.08923504  0.75908931  1
  O  O129  1  0.11429441  0.38605572  -0.00894867  1
  O  O130  1  0.12945995  0.36546555  0.25719378  1
  O  O131  1  0.14460888  0.34973557  0.51102596  1
  O  O132  1  0.10709847  0.38266501  0.75751815  1
  O  O133  1  0.12768923  0.61470639  -0.01383624  1
  O  O134  1  0.10884558  0.61459313  0.25319128  1
  O  O135  1  0.11210705  0.60731214  0.49971867  1
  O  O136  1  0.12392525  0.70331947  0.75679506  1
  O  O137  1  0.08684808  0.88476167  0.00741045  1
  O  O138  1  0.14433647  0.83549802  0.24396950  1
  O  O139  1  0.09895724  0.89848089  0.47688921  1
  O  O140  1  0.13272200  0.88820227  0.76660950  1
  O  O141  1  0.37278777  0.10655665  0.00991479  1
  O  O142  1  0.39589088  0.12855218  0.25531910  1
  O  O143  1  0.35632117  0.08431691  0.49230220  1
  O  O144  1  0.33500858  0.14857132  0.74416439  1
  O  O145  1  0.35395279  0.40104262  0.00333968  1
  O  O146  1  0.39275205  0.35913118  0.24662548  1
  O  O147  1  0.34001952  0.39747046  0.49913725  1
  O  O148  1  0.35791607  0.33912879  0.73639661  1
  O  O149  1  0.34847324  0.61047578  0.02030583  1
  O  O150  1  0.38116071  0.64799837  0.25638961  1
  O  O151  1  0.33049640  0.59590224  0.49579889  1
  O  O152  1  0.39177597  0.63817965  0.74123002  1
  O  O153  1  0.39610526  0.89012292  0.01470586  1
  O  O154  1  0.35084301  0.83251753  0.25093134  1
  O  O155  1  0.36836136  0.87996561  0.49383246  1
  O  O156  1  0.38248324  0.84466332  0.74516015  1
  O  O157  1  0.62189493  0.10604580  0.00673346  1
  O  O158  1  0.60153480  0.13045975  0.26023203  1
  O  O159  1  0.62881594  0.15259002  0.49708165  1
  O  O160  1  0.64198174  0.10202659  0.73797410  1
  O  O161  1  0.64480479  0.33687984  0.00846784  1
  O  O162  1  0.59308618  0.36781121  0.24637159  1
  O  O163  1  0.62388254  0.37134112  0.49864278  1
  O  O164  1  0.61137220  0.38852126  0.75525948  1
  O  O165  1  0.64456959  0.62583916  0.00352853  1
  O  O166  1  0.60360306  0.62944598  0.25589346  1
  O  O167  1  0.62968956  0.58928567  0.49332116  1
  O  O168  1  0.64725845  0.62917158  0.74049341  1
  O  O169  1  0.61183626  0.90947209  0.01143246  1
  O  O170  1  0.63642065  0.84612117  0.25518277  1
  O  O171  1  0.61874405  0.85669783  0.49986478  1
  O  O172  1  0.63101414  0.84719978  0.74335618  1
  O  O173  1  0.90419678  0.13442934  0.00565755  1
  O  O174  1  0.86190587  0.12606282  0.24584391  1
  O  O175  1  0.88595156  0.14209351  0.50897329  1
  O  O176  1  0.85688983  0.12934904  0.75046623  1
  O  O177  1  0.86719470  0.36591861  0.00228221  1
  O  O178  1  0.87304467  0.38599682  0.25542394  1
  O  O179  1  0.85817335  0.36541457  0.50949728  1
  O  O180  1  0.88380822  0.39476110  0.75062378  1
  O  O181  1  0.87145605  0.63915662  0.00403956  1
  O  O182  1  0.88416333  0.59262681  0.25142720  1
  O  O183  1  0.91089165  0.63186513  0.50608735  1
  O  O184  1  0.85760228  0.59190714  0.75558548  1
  O  O185  1  0.89226066  0.87404949  -0.00358020  1
  O  O186  1  0.84110759  0.88613527  0.25315630  1
  O  O187  1  0.92155521  0.86451175  0.49351987  1
  O  O188  1  0.84865534  0.87697802  0.74770103  1
  O  O189  1  -0.00157340  0.13223897  0.13853473  1
  O  O190  1  0.01220076  0.14019107  0.37385250  1
  O  O191  1  -0.00784220  0.14493906  0.64754230  1
  O  O192  1  0.00271705  0.15520462  0.86429739  1
  O  O193  1  -0.00748471  0.41119106  0.12633261  1
  O  O194  1  0.01849422  0.36213268  0.39467124  1
  O  O195  1  0.00219631  0.35840542  0.62481934  1
  O  O196  1  -0.00761539  0.34398192  0.87698546  1
  O  O197  1  -0.00725146  0.59879096  0.12266823  1
  O  O198  1  0.00593408  0.59124247  0.36797785  1
  O  O199  1  0.00366923  0.62765790  0.65494344  1
  O  O200  1  -0.01288069  0.65629193  0.87114804  1
  O  O201  1  -0.00613740  0.88654239  0.15918286  1
  O  O202  1  -0.00181258  0.88381905  0.33280837  1
  O  O203  1  -0.00929247  0.85582245  0.65028205  1
  O  O204  1  -0.01068607  0.84315737  0.86193861  1
  O  O205  1  0.26166265  0.13444505  0.15081624  1
  O  O206  1  0.25670467  0.11195749  0.35079300  1
  O  O207  1  0.24201531  0.08358455  0.62187717  1
  O  O208  1  0.23934948  0.09421951  0.88867361  1
  O  O209  1  0.25963580  0.35150497  0.13045231  1
  O  O210  1  0.25706758  0.35480199  0.36821891  1
  O  O211  1  0.23967988  0.38702070  0.64582922  1
  O  O212  1  0.23361156  0.38974894  0.87480639  1
  O  O213  1  0.24543727  0.65462320  0.15623557  1
  O  O214  1  0.23866579  0.64510134  0.34727683  1
  O  O215  1  0.23660250  0.61491312  0.64288316  1
  O  O216  1  0.25429431  0.62284073  0.86229522  1
  O  O217  1  0.24527370  0.85710475  0.09888151  1
  O  O218  1  0.24262137  0.86542732  0.38569757  1
  O  O219  1  0.25551959  0.87113132  0.61880823  1
  O  O220  1  0.24517934  0.88805800  0.89677036  1
  O  O221  1  0.49507493  0.08748413  0.12447163  1
  O  O222  1  0.49466674  0.10485666  0.40079107  1
  O  O223  1  0.49423658  0.12890008  0.60172817  1
  O  O224  1  0.48945835  0.13300723  0.85707151  1
  O  O225  1  0.49106947  0.39014454  0.07729327  1
  O  O226  1  0.48860361  0.38347187  0.38947155  1
  O  O227  1  0.48177383  0.37233460  0.62594154  1
  O  O228  1  0.51177125  0.35364753  0.88881846  1
  O  O229  1  0.49646147  0.60598407  0.12479018  1
  O  O230  1  0.48699235  0.60893197  0.39567070  1
  O  O231  1  0.47877517  0.62186943  0.58334118  1
  O  O232  1  0.49759730  0.65557197  0.88005950  1
  O  O233  1  0.49230428  0.88590174  0.16347261  1
  O  O234  1  0.49288969  0.86999849  0.35595780  1
  O  O235  1  0.49839216  0.84664194  0.62248781  1
  O  O236  1  0.50154045  0.84036888  0.87061053  1
  O  O237  1  0.75296606  0.15436445  0.09206216  1
  O  O238  1  0.74394554  0.14432005  0.37131514  1
  O  O239  1  0.75475620  0.12138680  0.60937351  1
  O  O240  1  0.75736216  0.10408060  0.90493731  1
  O  O241  1  0.74912633  0.35549993  0.14789573  1
  O  O242  1  0.73587303  0.36123863  0.36053772  1
  O  O243  1  0.76103715  0.41875589  0.63876424  1
  O  O244  1  0.75343416  0.41790085  0.86246386  1
  O  O245  1  0.75393110  0.64939050  0.13850516  1
  O  O246  1  0.74954157  0.62814078  0.36196216  1
  O  O247  1  0.76304485  0.59580916  0.59895205  1
  O  O248  1  0.75613445  0.60228660  0.89419094  1
  O  O249  1  0.74351931  0.84950162  0.11659018  1
  O  O250  1  0.75827837  0.87326573  0.40963094  1
  O  O251  1  0.75707174  0.87676707  0.58919202  1
  O  O252  1  0.74967035  0.92407936  0.88462497  1
  O  O253  1  0.12371661  -0.00997565  0.14798449  1
  O  O254  1  0.12541356  -0.00636257  0.33532480  1
  O  O255  1  0.08354720  0.00051325  0.61718124  1
  O  O256  1  0.08931835  -0.00279892  0.89074590  1
  O  O257  1  0.11379328  0.25478891  0.13168951  1
  O  O258  1  0.14790286  0.23610355  0.39808167  1
  O  O259  1  0.14965107  0.24502756  0.65360185  1
  O  O260  1  0.14637388  0.24301173  0.87537829  1
  O  O261  1  0.14070273  0.50623519  0.11985965  1
  O  O262  1  0.16019237  0.49152433  0.38684783  1
  O  O263  1  0.11597635  0.50295647  0.64459233  1
  O  O264  1  0.11062857  0.53871591  0.82604656  1
  O  O265  1  0.08820846  0.75661331  0.11113719  1
  O  O266  1  0.10003149  0.74930912  0.38984722  1
  O  O267  1  0.12100210  0.74674797  0.59246413  1
  O  O268  1  0.12851666  0.76116987  0.91205775  1
  O  O269  1  0.34785776  -0.01243801  0.15153322  1
  O  O270  1  0.36486023  -0.01362343  0.34039092  1
  O  O271  1  0.39071542  -0.01051070  0.64019960  1
  O  O272  1  0.37558662  -0.00416518  0.87494935  1
  O  O273  1  0.40064319  0.24732763  0.11193935  1
  O  O274  1  0.37281347  0.24194214  0.39992367  1
  O  O275  1  0.33029306  0.25509662  0.58826812  1
  O  O276  1  0.37367975  0.24886044  0.89302279  1
  O  O277  1  0.35866853  0.50095132  0.15274393  1
  O  O278  1  0.35215022  0.49846556  0.35696685  1
  O  O279  1  0.37073497  0.49753829  0.64725242  1
  O  O280  1  0.38880183  0.51678322  0.88248352  1
  O  O281  1  0.38259254  0.74562524  0.10170098  1
  O  O282  1  0.37275831  0.74059545  0.40329808  1
  O  O283  1  0.36468675  0.73892830  0.59675798  1
  O  O284  1  0.36421248  0.74478653  0.91207401  1
  O  O285  1  0.63601871  -0.00670615  0.16189749  1
  O  O286  1  0.64306977  0.00626012  0.38893009  1
  O  O287  1  0.62219505  0.00774914  0.58978978  1
  O  O288  1  0.59440077  -0.00647922  0.85977606  1
  O  O289  1  0.59065360  0.24912421  0.13433334  1
  O  O290  1  0.59546031  0.25342528  0.37263631  1
  O  O291  1  0.62505741  0.24923351  0.62784796  1
  O  O292  1  0.66553191  0.25878608  0.86612052  1
  O  O293  1  0.63284199  0.48841897  0.13652170  1
  O  O294  1  0.62078820  0.49407292  0.35269155  1
  O  O295  1  0.59112293  0.50423366  0.62987958  1
  O  O296  1  0.60059827  0.48882692  0.91252290  1
  O  O297  1  0.59311005  0.75958650  0.12175670  1
  O  O298  1  0.61772792  0.73544956  0.39461823  1
  O  O299  1  0.62592113  0.72357831  0.59844733  1
  O  O300  1  0.65870103  0.74847538  0.87810841  1
  O  O301  1  0.84969200  0.01186082  0.12679590  1
  O  O302  1  0.86436734  0.00003335  0.37710172  1
  O  O303  1  0.89121164  -0.00317210  0.61979831  1
  O  O304  1  0.90975317  -0.00552041  0.87925513  1
  O  O305  1  0.89609646  0.25978307  0.14042830  1
  O  O306  1  0.87178778  0.25367693  0.37717015  1
  O  O307  1  0.85050281  0.25815166  0.63870558  1
  O  O308  1  0.85004107  0.25949826  0.85224552  1
  O  O309  1  0.84120207  0.49896801  0.12078655  1
  O  O310  1  0.85825005  0.49892088  0.40841306  1
  O  O311  1  0.90243626  0.50001524  0.60456831  1
  O  O312  1  0.90701160  0.49692115  0.89118246  1
  O  O313  1  0.88742628  0.74542482  0.15321301  1
  O  O314  1  0.87901026  0.75647758  0.35165891  1
  O  O315  1  0.86274123  0.74279397  0.63384507  1
  O  O316  1  0.83393925  0.75788429  0.87023389  1
