# generated using pymatgen
data_Mg32Ti42(Bi17O64)3
_symmetry_space_group_name_H-M   'P 1'
_cell_length_a   15.98172909
_cell_length_b   15.91851689
_cell_length_c   15.91782025
_cell_angle_alpha   89.92461717
_cell_angle_beta   90.31123173
_cell_angle_gamma   89.94473358
_symmetry_Int_Tables_number   1
_chemical_formula_structural   Mg32Ti42(Bi17O64)3
_chemical_formula_sum   'Mg32 Ti42 Bi51 O192'
_cell_volume   4049.51465732
_cell_formula_units_Z   1
loop_
 _symmetry_equiv_pos_site_id
 _symmetry_equiv_pos_as_xyz
  1  'x, y, z'
loop_
 _atom_site_type_symbol
 _atom_site_label
 _atom_site_symmetry_multiplicity
 _atom_site_fract_x
 _atom_site_fract_y
 _atom_site_fract_z
 _atom_site_occupancy
  Mg  Mg0  1  0.36608770  0.87935766  0.37337085  1
  Mg  Mg1  1  0.87725458  0.37296114  0.38027110  1
  Mg  Mg2  1  0.89188310  0.62907328  0.36741753  1
  Mg  Mg3  1  0.12077302  0.86727619  0.63131785  1
  Mg  Mg4  1  0.37124047  0.38416498  0.12605207  1
  Mg  Mg5  1  0.11904255  0.35211969  0.87094625  1
  Mg  Mg6  1  0.87611433  0.37368876  0.12453793  1
  Mg  Mg7  1  0.63079186  0.62110534  0.62334837  1
  Mg  Mg8  1  0.36217580  0.61293510  0.63782292  1
  Mg  Mg9  1  0.62195806  0.13019374  0.36962239  1
  Mg  Mg10  1  0.36966478  0.62306550  0.37055223  1
  Mg  Mg11  1  0.37525494  0.37424301  0.86388376  1
  Mg  Mg12  1  0.88088130  0.87661403  0.36868381  1
  Mg  Mg13  1  0.13021961  0.37616545  0.37744780  1
  Mg  Mg14  1  0.62702868  0.12977386  0.63361956  1
  Mg  Mg15  1  0.88820656  0.37726259  0.87483981  1
  Mg  Mg16  1  0.87650944  0.87381026  0.62903676  1
  Mg  Mg17  1  0.38643152  0.87800868  0.88044931  1
  Mg  Mg18  1  0.38806940  0.62732933  0.88358369  1
  Mg  Mg19  1  0.05139711  0.24610256  0.47844177  1
  Mg  Mg20  1  0.13152898  0.11860722  0.38175350  1
  Mg  Mg21  1  0.02853150  0.72919330  0.72641513  1
  Mg  Mg22  1  0.73899939  0.25601063  0.00619759  1
  Mg  Mg23  1  0.27541725  -0.04181129  0.52792424  1
  Mg  Mg24  1  -0.03036800  0.76938836  0.19934785  1
  Mg  Mg25  1  0.29558606  0.74594593  0.20293358  1
  Mg  Mg26  1  -0.02430165  0.18947172  0.78140036  1
  Mg  Mg27  1  0.24760706  0.47989317  0.77073721  1
  Mg  Mg28  1  -0.02634501  0.18477005  -0.04696836  1
  Mg  Mg29  1  0.55420125  0.52437206  0.00351178  1
  Mg  Mg30  1  0.48477904  -0.06607736  0.73368932  1
  Mg  Mg31  1  0.49247061  0.77753500  0.02966573  1
  Ti  Ti32  1  0.62943317  0.87062536  0.38136085  1
  Ti  Ti33  1  0.87891621  0.12494939  0.38091626  1
  Ti  Ti34  1  0.36733981  0.37670291  0.62203774  1
  Ti  Ti35  1  0.63638401  0.87076007  0.63095614  1
  Ti  Ti36  1  0.61306242  0.86644888  0.88048619  1
  Ti  Ti37  1  0.14473857  0.62053393  0.64290925  1
  Ti  Ti38  1  0.62855527  0.63902490  0.12668795  1
  Ti  Ti39  1  0.63065090  0.38852113  0.12743372  1
  Ti  Ti40  1  0.62502715  0.37524860  0.38235967  1
  Ti  Ti41  1  0.37552967  0.37950283  0.38153688  1
  Ti  Ti42  1  0.88428473  0.62446694  0.12525300  1
  Ti  Ti43  1  0.38200360  0.12596156  0.38949872  1
  Ti  Ti44  1  0.11245159  0.12404062  0.62958684  1
  Ti  Ti45  1  0.13130436  0.36055105  0.12103647  1
  Ti  Ti46  1  0.38260099  0.12227822  0.12154094  1
  Ti  Ti47  1  0.88374041  0.62650278  0.87426788  1
  Ti  Ti48  1  0.39080249  0.61786438  0.11568465  1
  Ti  Ti49  1  0.62791124  0.87163514  0.12886473  1
  Ti  Ti50  1  0.63117251  0.62901926  0.38439789  1
  Ti  Ti51  1  0.86873286  0.89225990  0.12445415  1
  Ti  Ti52  1  0.12240861  0.63087253  0.36008426  1
  Ti  Ti53  1  0.62998831  0.62942490  0.87709233  1
  Ti  Ti54  1  0.88130666  0.13477666  0.13325283  1
  Ti  Ti55  1  0.12725913  0.86438196  0.12356836  1
  Ti  Ti56  1  0.63233977  0.38281338  0.87822591  1
  Ti  Ti57  1  0.63672352  0.38324499  0.62513707  1
  Ti  Ti58  1  0.13792984  0.87401014  0.87102165  1
  Ti  Ti59  1  0.88363315  0.36277151  0.63217780  1
  Ti  Ti60  1  0.37356610  0.88460887  0.12838914  1
  Ti  Ti61  1  0.12873798  0.12395748  0.86013768  1
  Ti  Ti62  1  0.13696700  0.36769799  0.62181989  1
  Ti  Ti63  1  0.14146064  0.63546438  0.87059826  1
  Ti  Ti64  1  0.37693107  0.12943756  0.62571249  1
  Ti  Ti65  1  0.89060320  0.62790284  0.63288157  1
  Ti  Ti66  1  0.12049776  0.63561669  0.11252234  1
  Ti  Ti67  1  0.13007015  0.12764350  0.11577585  1
  Ti  Ti68  1  0.12428305  0.88094421  0.36896946  1
  Ti  Ti69  1  0.87668243  0.12872644  0.62491173  1
  Ti  Ti70  1  0.38756480  0.12068670  0.86682645  1
  Ti  Ti71  1  0.63067037  0.13433232  0.12473726  1
  Ti  Ti72  1  0.61756142  0.13234311  0.88120865  1
  Ti  Ti73  1  0.85849753  0.88001485  0.87463250  1
  Bi  Bi74  1  -0.00491171  0.76571073  0.48650217  1
  Bi  Bi75  1  0.49356008  0.51389901  0.76826415  1
  Bi  Bi76  1  0.77420912  0.75039298  0.01387498  1
  Bi  Bi77  1  0.52010183  0.00336139  0.01800707  1
  Bi  Bi78  1  0.48773395  0.27295271  0.23729601  1
  Bi  Bi79  1  0.01238863  0.47586019  0.25327959  1
  Bi  Bi80  1  0.48335580  0.75121806  0.28556101  1
  Bi  Bi81  1  0.76977294  0.75070635  0.26753428  1
  Bi  Bi82  1  0.76408357  0.73382668  0.74101462  1
  Bi  Bi83  1  0.78058575  0.75188525  0.50003101  1
  Bi  Bi84  1  0.01442120  0.47123437  -0.00091969  1
  Bi  Bi85  1  0.23532900  0.52186761  0.22116469  1
  Bi  Bi86  1  0.23001382  0.76189617  0.48433492  1
  Bi  Bi87  1  0.51642520  0.25063727  0.52674091  1
  Bi  Bi88  1  0.72994005  -0.00478203  0.51504020  1
  Bi  Bi89  1  0.26764138  0.48938645  -0.02500454  1
  Bi  Bi90  1  0.77097804  0.03715213  -0.01103330  1
  Bi  Bi91  1  0.49582248  0.28458699  0.00605437  1
  Bi  Bi92  1  0.26837198  0.01330050  -0.01408788  1
  Bi  Bi93  1  -0.00419601  -0.03858980  0.74093614  1
  Bi  Bi94  1  0.51162030  -0.00228998  0.28196231  1
  Bi  Bi95  1  0.02136279  0.47944536  0.74438472  1
  Bi  Bi96  1  0.76688702  0.25910753  0.25381951  1
  Bi  Bi97  1  0.28838252  0.75256062  -0.01368800  1
  Bi  Bi98  1  0.73615127  0.22497307  0.49011570  1
  Bi  Bi99  1  0.50780546  0.51494872  0.27425096  1
  Bi  Bi100  1  0.78314811  0.49801018  0.49220937  1
  Bi  Bi101  1  0.28251129  0.78105706  0.71905684  1
  Bi  Bi102  1  0.02040602  -0.00128799  -0.01642875  1
  Bi  Bi103  1  0.25605772  0.25013180  0.73962988  1
  Bi  Bi104  1  0.26918577  -0.00326968  0.72498958  1
  Bi  Bi105  1  0.77425566  0.49063735  0.00733917  1
  Bi  Bi106  1  0.48720460  -0.01259620  0.53651474  1
  Bi  Bi107  1  0.45164247  0.77074235  0.52110636  1
  Bi  Bi108  1  0.26387670  0.25321623  0.28728933  1
  Bi  Bi109  1  0.01647865  0.24763208  0.26592172  1
  Bi  Bi110  1  0.03126957  0.00689989  0.23985800  1
  Bi  Bi111  1  0.24589832  0.52105788  0.48058696  1
  Bi  Bi112  1  0.52617815  0.27055147  0.75425009  1
  Bi  Bi113  1  0.27680687  0.26138978  -0.01166612  1
  Bi  Bi114  1  0.48641586  0.52506550  0.52536087  1
  Bi  Bi115  1  0.73003909  -0.00001901  0.77107758  1
  Bi  Bi116  1  0.76333277  0.49168354  0.26896207  1
  Bi  Bi117  1  0.01652690  0.49201379  0.50046878  1
  Bi  Bi118  1  0.00171388  0.01320865  0.50527760  1
  Bi  Bi119  1  0.75781375  0.01068591  0.26932354  1
  Bi  Bi120  1  0.78198400  0.23690781  0.80038356  1
  Bi  Bi121  1  0.26391764  0.02311072  0.26580781  1
  Bi  Bi122  1  0.51143943  0.72875332  0.73367226  1
  Bi  Bi123  1  0.76846751  0.49550555  0.74638486  1
  Bi  Bi124  1  0.00858873  0.75587358  -0.03008090  1
  O  O125  1  0.08344664  0.13994563  0.00781956  1
  O  O126  1  0.13807525  0.10083860  0.24581989  1
  O  O127  1  0.09434670  0.13321622  0.50940339  1
  O  O128  1  0.15980367  0.10300415  0.74732616  1
  O  O129  1  0.10203302  0.36297988  0.00552000  1
  O  O130  1  0.13362921  0.40522337  0.24353710  1
  O  O131  1  0.08567200  0.36306628  0.50707089  1
  O  O132  1  0.14438357  0.40122483  0.74303713  1
  O  O133  1  0.12890156  0.66034148  -0.00197307  1
  O  O134  1  0.10574821  0.60386859  0.25082602  1
  O  O135  1  0.16593597  0.63082980  0.51923994  1
  O  O136  1  0.09696627  0.61694651  0.75923703  1
  O  O137  1  0.11368625  0.86125280  0.00340586  1
  O  O138  1  0.12800663  0.89430825  0.25232613  1
  O  O139  1  0.11369343  0.84132704  0.50540034  1
  O  O140  1  0.13038786  0.90744471  0.75988614  1
  O  O141  1  0.38471452  0.09822567  -0.00098253  1
  O  O142  1  0.34368046  0.13636429  0.23625054  1
  O  O143  1  0.39346273  0.11151095  0.50237333  1
  O  O144  1  0.34787058  0.13478153  0.75109724  1
  O  O145  1  0.38390151  0.37177368  -0.00261006  1
  O  O146  1  0.36722891  0.34396534  0.24830332  1
  O  O147  1  0.39416668  0.38532861  0.49692182  1
  O  O148  1  0.33338938  0.37364895  0.73876829  1
  O  O149  1  0.34042573  0.61188628  0.00417277  1
  O  O150  1  0.38123709  0.65198379  0.23800272  1
  O  O151  1  0.36159538  0.59601626  0.50090632  1
  O  O152  1  0.41199659  0.63475585  0.75765442  1
  O  O153  1  0.35383440  0.89294945  0.00756502  1
  O  O154  1  0.36628133  0.84403349  0.24404903  1
  O  O155  1  0.38370797  0.89719276  0.50299402  1
  O  O156  1  0.38391772  0.86231988  0.75417398  1
  O  O157  1  0.59124100  0.12487245  0.00101073  1
  O  O158  1  0.64678371  0.11164481  0.23971451  1
  O  O159  1  0.61526195  0.15393755  0.49655361  1
  O  O160  1  0.65307190  0.12445159  0.76165063  1
  O  O161  1  0.58667093  0.39637519  -0.00923565  1
  O  O162  1  0.65309953  0.38599197  0.24160187  1
  O  O163  1  0.60601446  0.37136783  0.49772809  1
  O  O164  1  0.63607003  0.36487294  0.74795494  1
  O  O165  1  0.64006064  0.62417428  -0.00728692  1
  O  O166  1  0.60679355  0.61969948  0.23728057  1
  O  O167  1  0.64771483  0.62329371  0.49591968  1
  O  O168  1  0.59253443  0.61830552  0.75189494  1
  O  O169  1  0.59779418  0.85834578  -0.00611622  1
  O  O170  1  0.61772845  0.88326152  0.24114315  1
  O  O171  1  0.63879026  0.86800207  0.49745798  1
  O  O172  1  0.61978548  0.90385982  0.74406180  1
  O  O173  1  0.89304948  0.11231086  0.01734119  1
  O  O174  1  0.83533311  0.12880524  0.25327287  1
  O  O175  1  0.91517787  0.12974055  0.49559371  1
  O  O176  1  0.86280451  0.13691867  0.73960554  1
  O  O177  1  0.88890180  0.40727813  0.00054710  1
  O  O178  1  0.84363814  0.37757200  0.25003361  1
  O  O179  1  0.88628576  0.40540787  0.51161908  1
  O  O180  1  0.84613325  0.36704478  0.74856429  1
  O  O181  1  0.84543579  0.61542652  -0.00162431  1
  O  O182  1  0.89359259  0.66241080  0.23846462  1
  O  O183  1  0.86156910  0.62598320  0.51241510  1
  O  O184  1  0.89810589  0.66418152  0.75869604  1
  O  O185  1  0.85067100  0.89141886  0.00612265  1
  O  O186  1  0.87340344  0.84545381  0.24043943  1
  O  O187  1  0.88042939  0.86004708  0.50041888  1
  O  O188  1  0.86914385  0.88322448  0.75918253  1
  O  O189  1  -0.00692310  0.11925016  0.15892878  1
  O  O190  1  -0.00745328  0.13441653  0.34577918  1
  O  O191  1  0.00875535  0.15181271  0.66327396  1
  O  O192  1  0.00792629  0.09440584  0.86617129  1
  O  O193  1  0.00353457  0.40000008  0.13725145  1
  O  O194  1  -0.00087041  0.36854890  0.34714577  1
  O  O195  1  -0.00367804  0.36749194  0.65648446  1
  O  O196  1  0.00934979  0.41184118  0.86836800  1
  O  O197  1  -0.00474127  0.60465650  0.11007947  1
  O  O198  1  0.01326260  0.64320119  0.40217213  1
  O  O199  1  0.00195183  0.64707165  0.62288729  1
  O  O200  1  -0.00617587  0.62165873  0.90386676  1
  O  O201  1  -0.01503409  0.89114579  0.13217561  1
  O  O202  1  0.00754004  0.84692669  0.37480282  1
  O  O203  1  0.00065189  0.84554518  0.66453912  1
  O  O204  1  -0.01416764  0.89550311  0.88622095  1
  O  O205  1  0.24134362  0.12820783  0.09515709  1
  O  O206  1  0.25786801  0.11840083  0.37402609  1
  O  O207  1  0.26340318  0.06754146  0.60346276  1
  O  O208  1  0.23809517  0.14086359  0.90367103  1
  O  O209  1  0.24473449  0.36174183  0.10672671  1
  O  O210  1  0.25807967  0.37249333  0.37799310  1
  O  O211  1  0.24448798  0.39075535  0.59503523  1
  O  O212  1  0.24402543  0.35348074  0.89171177  1
  O  O213  1  0.23209385  0.65094610  0.15108004  1
  O  O214  1  0.24437003  0.59941219  0.36509413  1
  O  O215  1  0.24504872  0.57782177  0.67807943  1
  O  O216  1  0.24730470  0.67104929  0.86209569  1
  O  O217  1  0.23863354  0.84207165  0.13096211  1
  O  O218  1  0.24155327  0.89325819  0.41108450  1
  O  O219  1  0.24601069  0.88680523  0.62969199  1
  O  O220  1  0.24754465  0.85267507  0.87471935  1
  O  O221  1  0.49418736  0.09159867  0.13541304  1
  O  O222  1  0.49539166  0.12610068  0.34856175  1
  O  O223  1  0.49375424  0.15697530  0.63014967  1
  O  O224  1  0.49891194  0.11165730  0.85219754  1
  O  O225  1  0.50387524  0.37565266  0.14094073  1
  O  O226  1  0.50746966  0.36685674  0.34417913  1
  O  O227  1  0.48379892  0.34447281  0.63957542  1
  O  O228  1  0.50001067  0.37761473  0.84076878  1
  O  O229  1  0.49869628  0.59789157  0.09286944  1
  O  O230  1  0.50190339  0.62432157  0.36734901  1
  O  O231  1  0.50019600  0.64353081  0.60346212  1
  O  O232  1  0.51036813  0.57689982  0.89493114  1
  O  O233  1  0.48796529  0.88933397  0.11528889  1
  O  O234  1  0.50247027  0.87598004  0.36429008  1
  O  O235  1  0.51356268  0.87227349  0.61818547  1
  O  O236  1  0.50714375  0.90987363  0.86001199  1
  O  O237  1  0.74070894  0.15403091  0.09377248  1
  O  O238  1  0.75327958  0.11515137  0.40578391  1
  O  O239  1  0.76160586  0.11485297  0.59292335  1
  O  O240  1  0.73828748  0.15984379  0.91698976  1
  O  O241  1  0.73805901  0.35568183  0.08692788  1
  O  O242  1  0.74474405  0.40387764  0.39168631  1
  O  O243  1  0.74754049  0.40552706  0.61071203  1
  O  O244  1  0.74201030  0.34513336  0.90610702  1
  O  O245  1  0.74309403  0.66090924  0.13308694  1
  O  O246  1  0.74365938  0.62196916  0.35120673  1
  O  O247  1  0.75402549  0.61660082  0.66512867  1
  O  O248  1  0.74431376  0.63937527  0.84864444  1
  O  O249  1  0.74209804  0.84722583  0.12629385  1
  O  O250  1  0.74524937  0.87575608  0.35797591  1
  O  O251  1  0.75173242  0.90341674  0.62252471  1
  O  O252  1  0.73723416  0.85862026  0.86933005  1
  O  O253  1  0.11430275  -0.00168252  0.11515203  1
  O  O254  1  0.10159645  -0.00560766  0.38718606  1
  O  O255  1  0.08836243  0.00379008  0.61729551  1
  O  O256  1  0.13678835  -0.00333662  0.90517348  1
  O  O257  1  0.11923968  0.24751177  0.15219557  1
  O  O258  1  0.11589166  0.24741916  0.36742449  1
  O  O259  1  0.15108831  0.24913287  0.63477885  1
  O  O260  1  0.08925153  0.23228650  0.84287503  1
  O  O261  1  0.14657518  0.51518133  0.10734036  1
  O  O262  1  0.11214206  0.50339010  0.39888947  1
  O  O263  1  0.09986117  0.50033573  0.61147573  1
  O  O264  1  0.16564252  0.51993065  0.88123110  1
  O  O265  1  0.08304761  0.75359950  0.14484433  1
  O  O266  1  0.15474655  0.74605222  0.36763396  1
  O  O267  1  0.14495045  0.73769173  0.65618185  1
  O  O268  1  0.08727028  0.76044919  0.85214999  1
  O  O269  1  0.34709325  -0.00271628  0.14358890  1
  O  O270  1  0.38211175  0.00481037  0.34787184  1
  O  O271  1  0.41728827  0.01258638  0.65500560  1
  O  O272  1  0.34499336  0.00664363  0.86781679  1
  O  O273  1  0.39868773  0.23830916  0.11009165  1
  O  O274  1  0.37239092  0.24507658  0.37755549  1
  O  O275  1  0.33941648  0.24468628  0.62644317  1
  O  O276  1  0.38275899  0.23984262  0.89121209  1
  O  O277  1  0.35363563  0.50806978  0.14065489  1
  O  O278  1  0.38915051  0.49208556  0.35305545  1
  O  O279  1  0.40226553  0.49110767  0.63241746  1
  O  O280  1  0.34219573  0.50090332  0.85941344  1
  O  O281  1  0.38510921  0.74742271  0.10046012  1
  O  O282  1  0.38286393  0.75058535  0.39120995  1
  O  O283  1  0.34980872  0.73648872  0.60736899  1
  O  O284  1  0.41042264  0.75353413  0.92452514  1
  O  O285  1  0.63296482  -0.00823858  0.10067739  1
  O  O286  1  0.61810350  -0.00274575  0.37642589  1
  O  O287  1  0.62217009  0.00651231  0.60112998  1
  O  O288  1  0.65463445  0.00822790  0.88859301  1
  O  O289  1  0.60131017  0.24719147  0.12525589  1
  O  O290  1  0.65413491  0.26013326  0.36644535  1
  O  O291  1  0.62743934  0.26006472  0.61879680  1
  O  O292  1  0.60204291  0.25132058  0.88148414  1
  O  O293  1  0.64015167  0.50263761  0.10807946  1
  O  O294  1  0.61012724  0.50145004  0.36700528  1
  O  O295  1  0.59329678  0.49251355  0.62625552  1
  O  O296  1  0.65421061  0.49534250  0.86758247  1
  O  O297  1  0.58760007  0.74964499  0.11717609  1
  O  O298  1  0.62292055  0.74901427  0.36413747  1
  O  O299  1  0.64503192  0.75533068  0.64770097  1
  O  O300  1  0.59853017  0.74728555  0.85632163  1
  O  O301  1  0.84209054  0.00310994  0.14768293  1
  O  O302  1  0.87493801  0.00446885  0.36144374  1
  O  O303  1  0.90807896  0.01021831  0.62037256  1
  O  O304  1  0.83499387  -0.00040764  0.87375007  1
  O  O305  1  0.87865497  0.24865909  0.14161920  1
  O  O306  1  0.84986113  0.24792717  0.37244744  1
  O  O307  1  0.86612324  0.25334613  0.60842534  1
  O  O308  1  0.90334257  0.24970791  0.86924934  1
  O  O309  1  0.84025233  0.51081322  0.13469321  1
  O  O310  1  0.87217420  0.50582158  0.36933357  1
  O  O311  1  0.88531813  0.51019288  0.65832072  1
  O  O312  1  0.85731328  0.51099146  0.85689753  1
  O  O313  1  0.88914557  0.74734371  0.09414829  1
  O  O314  1  0.85584682  0.74730476  0.38383958  1
  O  O315  1  0.84806811  0.74788954  0.62370178  1
  O  O316  1  0.87567680  0.75477527  0.90239553  1
