# generated using pymatgen
data_Mg32Ti42(Bi17O64)3
_symmetry_space_group_name_H-M   'P 1'
_cell_length_a   15.94807939
_cell_length_b   15.97299287
_cell_length_c   15.96806152
_cell_angle_alpha   90.05778500
_cell_angle_beta   89.84863770
_cell_angle_gamma   89.98343587
_symmetry_Int_Tables_number   1
_chemical_formula_structural   Mg32Ti42(Bi17O64)3
_chemical_formula_sum   'Mg32 Ti42 Bi51 O192'
_cell_volume   4067.66453644
_cell_formula_units_Z   1
loop_
 _symmetry_equiv_pos_site_id
 _symmetry_equiv_pos_as_xyz
  1  'x, y, z'
loop_
 _atom_site_type_symbol
 _atom_site_label
 _atom_site_symmetry_multiplicity
 _atom_site_fract_x
 _atom_site_fract_y
 _atom_site_fract_z
 _atom_site_occupancy
  Mg  Mg0  1  0.87833041  0.13024534  0.12482177  1
  Mg  Mg1  1  0.37082209  0.88156701  0.88111678  1
  Mg  Mg2  1  0.87067007  0.63503319  0.63002381  1
  Mg  Mg3  1  0.62383368  0.63096784  0.12100727  1
  Mg  Mg4  1  0.37817241  0.37911046  0.87616570  1
  Mg  Mg5  1  0.12169231  0.62365195  0.11687746  1
  Mg  Mg6  1  0.62624565  0.36791395  0.13173813  1
  Mg  Mg7  1  0.13045690  0.12678779  0.12715071  1
  Mg  Mg8  1  0.37309100  0.61789202  0.12883570  1
  Mg  Mg9  1  0.87678581  0.37489052  0.88757871  1
  Mg  Mg10  1  0.86849852  0.11191567  0.61567857  1
  Mg  Mg11  1  0.12543821  0.13553223  0.86910441  1
  Mg  Mg12  1  0.63197672  0.62578722  0.87379971  1
  Mg  Mg13  1  0.61225334  0.36853972  0.38304875  1
  Mg  Mg14  1  0.63166061  0.88495475  0.37590039  1
  Mg  Mg15  1  0.62596095  0.11583505  0.87369564  1
  Mg  Mg16  1  0.61464783  0.38529784  0.87926244  1
  Mg  Mg17  1  0.12359421  0.61549968  0.62406613  1
  Mg  Mg18  1  0.37286863  0.39075872  0.14216398  1
  Mg  Mg19  1  -0.04835326  0.45350727  0.75236966  1
  Mg  Mg20  1  0.80483908  0.75405101  0.79323574  1
  Mg  Mg21  1  0.48831592  0.32290173  0.02233161  1
  Mg  Mg22  1  0.80965695  0.47808821  0.45601910  1
  Mg  Mg23  1  0.00896286  0.47769275  0.05490139  1
  Mg  Mg24  1  0.25127248  0.28351518  0.80192904  1
  Mg  Mg25  1  0.74830059  -0.02639186  0.53418545  1
  Mg  Mg26  1  0.26158922  0.28804728  0.29902268  1
  Mg  Mg27  1  0.48294496  0.31282818  0.51220441  1
  Mg  Mg28  1  0.21350464  0.50660662  0.21597456  1
  Mg  Mg29  1  0.75344733  0.06449671  0.23187691  1
  Mg  Mg30  1  0.54451082  0.47565957  0.22659339  1
  Mg  Mg31  1  0.54611654  0.49785107  0.03360437  1
  Ti  Ti32  1  0.13054103  0.37629425  0.39043053  1
  Ti  Ti33  1  0.62313089  0.87674060  0.62919655  1
  Ti  Ti34  1  0.36783413  0.87640658  0.37736032  1
  Ti  Ti35  1  0.37739280  0.88821531  0.62527972  1
  Ti  Ti36  1  0.37458720  0.39196471  0.38188670  1
  Ti  Ti37  1  0.11847220  0.86968806  0.37380128  1
  Ti  Ti38  1  0.12239699  0.87954475  0.62991966  1
  Ti  Ti39  1  0.61942665  0.13229111  0.12980578  1
  Ti  Ti40  1  0.37285771  0.37307133  0.63673396  1
  Ti  Ti41  1  0.85921048  0.11200602  0.37067198  1
  Ti  Ti42  1  0.37395132  0.87550370  0.11806715  1
  Ti  Ti43  1  0.36418554  0.61864528  0.37574291  1
  Ti  Ti44  1  0.62046521  0.63237917  0.63137875  1
  Ti  Ti45  1  0.13690777  0.36693115  0.63277356  1
  Ti  Ti46  1  0.12086609  0.87155873  0.88178748  1
  Ti  Ti47  1  0.12152493  0.61758461  0.86787651  1
  Ti  Ti48  1  0.13105636  0.36849700  0.13701821  1
  Ti  Ti49  1  0.63303245  0.13468543  0.61647906  1
  Ti  Ti50  1  0.39448365  0.12915614  0.62816908  1
  Ti  Ti51  1  0.61186390  0.38625514  0.62399062  1
  Ti  Ti52  1  0.88203393  0.61925600  0.12928446  1
  Ti  Ti53  1  0.11965750  0.87703200  0.12035249  1
  Ti  Ti54  1  0.62653478  0.87129120  0.13006593  1
  Ti  Ti55  1  0.13802552  0.11132826  0.37409567  1
  Ti  Ti56  1  0.62297792  0.12844908  0.37716043  1
  Ti  Ti57  1  0.88266084  0.88143684  0.89371796  1
  Ti  Ti58  1  0.36735630  0.62383295  0.87696247  1
  Ti  Ti59  1  0.87432005  0.36349874  0.12116880  1
  Ti  Ti60  1  0.63733542  0.87398064  0.87784507  1
  Ti  Ti61  1  0.11505368  0.37355233  0.87795562  1
  Ti  Ti62  1  0.12189191  0.61229393  0.37526239  1
  Ti  Ti63  1  0.87812867  0.13124543  0.88199649  1
  Ti  Ti64  1  0.12864835  0.12811350  0.62817917  1
  Ti  Ti65  1  0.86190562  0.87585527  0.37231137  1
  Ti  Ti66  1  0.85959755  0.87680371  0.12815993  1
  Ti  Ti67  1  0.37977883  0.12762515  0.13433931  1
  Ti  Ti68  1  0.37433970  0.12577241  0.87011144  1
  Ti  Ti69  1  0.38041561  0.12563190  0.38327161  1
  Ti  Ti70  1  0.86417557  0.86662125  0.63557924  1
  Ti  Ti71  1  0.88369523  0.62810810  0.37776525  1
  Ti  Ti72  1  0.37879041  0.63607987  0.62239511  1
  Ti  Ti73  1  0.88185720  0.61404636  0.87107364  1
  Bi  Bi74  1  0.70858502  0.27097359  -0.00427837  1
  Bi  Bi75  1  0.49010166  0.73213964  0.27331014  1
  Bi  Bi76  1  0.74959825  0.51419000  0.03974442  1
  Bi  Bi77  1  0.78028387  0.29466703  0.52831183  1
  Bi  Bi78  1  -0.00636677  0.21402340  0.49343094  1
  Bi  Bi79  1  0.70809431  0.73516741  0.27164150  1
  Bi  Bi80  1  0.26402912  0.50152356  0.53118030  1
  Bi  Bi81  1  -0.01093472  0.75179369  0.24391906  1
  Bi  Bi82  1  0.50560271  0.52977369  0.77198047  1
  Bi  Bi83  1  0.03220191  0.23482916  0.26470599  1
  Bi  Bi84  1  0.26345097  0.23651312  0.51163449  1
  Bi  Bi85  1  0.28952799  0.25728820  0.01125875  1
  Bi  Bi86  1  0.51517054  0.25202532  0.78245645  1
  Bi  Bi87  1  -0.04231395  0.26713790  0.71970129  1
  Bi  Bi88  1  0.76588910  0.28154480  0.30088669  1
  Bi  Bi89  1  0.24442968  0.03310078  0.00049848  1
  Bi  Bi90  1  0.50731688  0.76168636  0.78430274  1
  Bi  Bi91  1  -0.02275791  0.47370334  0.55234439  1
  Bi  Bi92  1  0.72328316  0.70993453  0.48704161  1
  Bi  Bi93  1  0.52782874  -0.00938254  0.49804661  1
  Bi  Bi94  1  0.26269156  0.75809045  0.76994512  1
  Bi  Bi95  1  0.01618641  0.73199032  0.73553616  1
  Bi  Bi96  1  0.01145301  0.02602154  -0.00178748  1
  Bi  Bi97  1  0.75886044  0.49428614  0.70953991  1
  Bi  Bi98  1  0.51918528  0.00022109  0.01828943  1
  Bi  Bi99  1  0.23100711  0.73014388  0.24483757  1
  Bi  Bi100  1  0.73593530  0.27030574  0.77568751  1
  Bi  Bi101  1  0.00260820  0.72843500  -0.00032142  1
  Bi  Bi102  1  0.25533434  0.73463691  0.01005633  1
  Bi  Bi103  1  0.48402803  0.76139505  0.49428699  1
  Bi  Bi104  1  -0.01211712  0.74448593  0.51002634  1
  Bi  Bi105  1  -0.01360355  -0.00450644  0.23116492  1
  Bi  Bi106  1  0.49101335  0.26518735  0.26445378  1
  Bi  Bi107  1  0.26151352  0.48138237  0.01941011  1
  Bi  Bi108  1  0.49783106  0.73222989  0.01581377  1
  Bi  Bi109  1  0.74701779  0.02627463  0.01085096  1
  Bi  Bi110  1  0.52981930  0.53522707  0.46088338  1
  Bi  Bi111  1  0.24831238  0.48753724  0.77452679  1
  Bi  Bi112  1  0.23746075  -0.01218807  0.51304080  1
  Bi  Bi113  1  0.23680491  0.00187760  0.77467385  1
  Bi  Bi114  1  0.75479471  0.72741455  -0.01879817  1
  Bi  Bi115  1  -0.02351488  -0.01969994  0.49610690  1
  Bi  Bi116  1  0.00463049  0.26470744  0.00668509  1
  Bi  Bi117  1  -0.02925148  0.46099450  0.27027253  1
  Bi  Bi118  1  0.50065406  -0.00488951  0.76867715  1
  Bi  Bi119  1  0.72738976  0.50887302  0.28629511  1
  Bi  Bi120  1  0.24206027  -0.01904748  0.23736534  1
  Bi  Bi121  1  0.49412380  -0.01884961  0.25981397  1
  Bi  Bi122  1  0.23020791  0.73798870  0.51452375  1
  Bi  Bi123  1  -0.01325097  0.02886468  0.74478044  1
  Bi  Bi124  1  0.74888094  0.02944611  0.75220416  1
  O  O125  1  0.12264302  0.11412782  -0.00203478  1
  O  O126  1  0.11852386  0.11393105  0.25418121  1
  O  O127  1  0.11406101  0.14410148  0.49351045  1
  O  O128  1  0.13044110  0.10350697  0.74246213  1
  O  O129  1  0.09232690  0.37919250  -0.00551276  1
  O  O130  1  0.16978976  0.38756304  0.24373341  1
  O  O131  1  0.10401904  0.35933770  0.49799858  1
  O  O132  1  0.16281813  0.37042891  0.74457246  1
  O  O133  1  0.14127876  0.65426167  -0.01250374  1
  O  O134  1  0.14499849  0.61048238  0.25020858  1
  O  O135  1  0.12320051  0.64846127  0.49128931  1
  O  O136  1  0.09652971  0.62166940  0.75012190  1
  O  O137  1  0.13666607  0.85596004  0.00191869  1
  O  O138  1  0.11180050  0.90369618  0.25181131  1
  O  O139  1  0.15433978  0.86425900  0.49142892  1
  O  O140  1  0.10654087  0.89324908  0.74141902  1
  O  O141  1  0.37920043  0.10375562  -0.01580862  1
  O  O142  1  0.37212009  0.15111216  0.24237155  1
  O  O143  1  0.38612877  0.10705777  0.49398778  1
  O  O144  1  0.36937330  0.14861526  0.73584849  1
  O  O145  1  0.37172240  0.38438009  0.00239687  1
  O  O146  1  0.36907683  0.34709159  0.26064477  1
  O  O147  1  0.39041197  0.39916852  0.49786859  1
  O  O148  1  0.34598562  0.35433783  0.74543957  1
  O  O149  1  0.33998322  0.61730359  -0.01023669  1
  O  O150  1  0.37771767  0.65053363  0.25521907  1
  O  O151  1  0.37155678  0.60027554  0.49591334  1
  O  O152  1  0.38044029  0.64592701  0.73775050  1
  O  O153  1  0.35354409  0.89294746  0.00715111  1
  O  O154  1  0.40536143  0.86671871  0.25471298  1
  O  O155  1  0.35665456  0.89915501  0.49552831  1
  O  O156  1  0.38118071  0.85081990  0.73516115  1
  O  O157  1  0.62301253  0.09809568  -0.00026394  1
  O  O158  1  0.63930511  0.12622470  0.24443073  1
  O  O159  1  0.61567457  0.10688004  0.49466390  1
  O  O160  1  0.65690938  0.13332375  0.73988535  1
  O  O161  1  0.61062868  0.37373072  0.00471302  1
  O  O162  1  0.60403297  0.35953573  0.25331980  1
  O  O163  1  0.59184709  0.38294096  0.50931782  1
  O  O164  1  0.62777873  0.35344106  0.74940345  1
  O  O165  1  0.65946097  0.61116409  -0.00237100  1
  O  O166  1  0.60340385  0.65093261  0.24175610  1
  O  O167  1  0.64199359  0.59946729  0.50974818  1
  O  O168  1  0.59698544  0.64092929  0.74875128  1
  O  O169  1  0.63369992  0.90190024  -0.01089708  1
  O  O170  1  0.60882178  0.85462034  0.24283311  1
  O  O171  1  0.64359714  0.91121753  0.50225468  1
  O  O172  1  0.61223623  0.84780676  0.74165231  1
  O  O173  1  0.88234498  0.09395689  -0.00185668  1
  O  O174  1  0.85999063  0.13654696  0.25428363  1
  O  O175  1  0.89916858  0.10624071  0.49214606  1
  O  O176  1  0.87129799  0.12409952  0.75256170  1
  O  O177  1  0.92051454  0.38585422  0.00782063  1
  O  O178  1  0.87013263  0.36997164  0.24080217  1
  O  O179  1  0.88098316  0.39233848  0.50575872  1
  O  O180  1  0.86019039  0.35630284  0.75590685  1
  O  O181  1  0.84713124  0.61791802  -0.00421083  1
  O  O182  1  0.89870469  0.64024311  0.24247956  1
  O  O183  1  0.86604207  0.59144116  0.49005551  1
  O  O184  1  0.89187356  0.66349841  0.76041026  1
  O  O185  1  0.86538064  0.89972227  0.00823666  1
  O  O186  1  0.90237373  0.86156482  0.24908871  1
  O  O187  1  0.85390248  0.90801226  0.49285822  1
  O  O188  1  0.88029845  0.84191387  0.74544769  1
  O  O189  1  0.00127790  0.09114962  0.12269002  1
  O  O190  1  0.00059938  0.15081958  0.36919217  1
  O  O191  1  0.00317883  0.12514305  0.63298804  1
  O  O192  1  -0.00151043  0.11102558  0.87138478  1
  O  O193  1  0.01008529  0.39189699  0.15058196  1
  O  O194  1  0.01795148  0.35744134  0.34537871  1
  O  O195  1  0.01047409  0.38395743  0.65378417  1
  O  O196  1  0.00695379  0.37541089  0.83702624  1
  O  O197  1  -0.00126821  0.60925473  0.08337369  1
  O  O198  1  0.00191543  0.62946639  0.37122043  1
  O  O199  1  -0.00046662  0.65365476  0.61632368  1
  O  O200  1  -0.00087030  0.62925794  0.89716606  1
  O  O201  1  0.00684455  0.90702842  0.11623470  1
  O  O202  1  0.00418167  0.86640045  0.39861507  1
  O  O203  1  0.00525245  0.85661148  0.59677845  1
  O  O204  1  0.00128749  0.87531210  0.89174857  1
  O  O205  1  0.26112557  0.13744353  0.10108313  1
  O  O206  1  0.25238334  0.10182252  0.37717957  1
  O  O207  1  0.24974034  0.11866579  0.60095843  1
  O  O208  1  0.25112994  0.10661447  0.87017018  1
  O  O209  1  0.24490209  0.35952541  0.09806594  1
  O  O210  1  0.25386408  0.38229512  0.39069360  1
  O  O211  1  0.25352705  0.36088558  0.59457407  1
  O  O212  1  0.24724904  0.39280993  0.87958435  1
  O  O213  1  0.24596846  0.65971250  0.12418501  1
  O  O214  1  0.24852411  0.62833540  0.37789259  1
  O  O215  1  0.25295410  0.62321933  0.60928578  1
  O  O216  1  0.24425136  0.62502419  0.84265112  1
  O  O217  1  0.25502553  0.86090191  0.15792741  1
  O  O218  1  0.25320283  0.88602487  0.35020984  1
  O  O219  1  0.25283646  0.90047061  0.62770028  1
  O  O220  1  0.24476919  0.87478865  0.84919413  1
  O  O221  1  0.50145731  0.09599597  0.12363531  1
  O  O222  1  0.50105600  0.15285719  0.35996435  1
  O  O223  1  0.51072685  0.13835957  0.63518618  1
  O  O224  1  0.49839390  0.12029983  0.84907460  1
  O  O225  1  0.49484721  0.41466741  0.12354742  1
  O  O226  1  0.48690861  0.33687159  0.38288645  1
  O  O227  1  0.49199376  0.35861057  0.63893258  1
  O  O228  1  0.49443465  0.33888095  0.88373007  1
  O  O229  1  0.49741707  0.60982594  0.08114799  1
  O  O230  1  0.48959154  0.64721787  0.38781150  1
  O  O231  1  0.49872059  0.62461829  0.60667273  1
  O  O232  1  0.48431667  0.63607470  0.87501216  1
  O  O233  1  0.50019097  0.88861312  0.10571985  1
  O  O234  1  0.49816622  0.86868692  0.40224211  1
  O  O235  1  0.49915603  0.86456995  0.59803678  1
  O  O236  1  0.50074427  0.88472397  0.86683119  1
  O  O237  1  0.74584539  0.12490589  0.11276544  1
  O  O238  1  0.74646796  0.08657550  0.36578946  1
  O  O239  1  0.74585541  0.07969624  0.60594425  1
  O  O240  1  0.75681719  0.10598575  0.88424855  1
  O  O241  1  0.75868151  0.35820761  0.10349682  1
  O  O242  1  0.73828844  0.40136366  0.37984252  1
  O  O243  1  0.73515826  0.40066565  0.61213353  1
  O  O244  1  0.74744192  0.35877645  0.89165185  1
  O  O245  1  0.76138994  0.62198452  0.13506418  1
  O  O246  1  0.75358907  0.62847179  0.35543314  1
  O  O247  1  0.74278387  0.61420119  0.64625926  1
  O  O248  1  0.75817767  0.65618654  0.85932260  1
  O  O249  1  0.74986237  0.84681775  0.13067328  1
  O  O250  1  0.75567460  0.88121344  0.34720570  1
  O  O251  1  0.74878745  0.88982022  0.63419456  1
  O  O252  1  0.75437280  0.85024821  0.86663975  1
  O  O253  1  0.16009836  -0.00686195  0.11817847  1
  O  O254  1  0.11517610  0.00048390  0.39490214  1
  O  O255  1  0.11937070  -0.00110433  0.59731318  1
  O  O256  1  0.13574999  -0.01054979  0.88036016  1
  O  O257  1  0.10405260  0.25373781  0.12225803  1
  O  O258  1  0.14754657  0.25314181  0.34771632  1
  O  O259  1  0.12411107  0.24634880  0.63118250  1
  O  O260  1  0.14333965  0.25939872  0.87151469  1
  O  O261  1  0.13767364  0.49548231  0.10964767  1
  O  O262  1  0.11792193  0.49793006  0.38478646  1
  O  O263  1  0.14041206  0.48917358  0.61177118  1
  O  O264  1  0.13067381  0.50336865  0.86907873  1
  O  O265  1  0.10647457  0.75909720  0.15028854  1
  O  O266  1  0.12646882  0.75485832  0.34970313  1
  O  O267  1  0.14831618  0.75984640  0.62975194  1
  O  O268  1  0.12753458  0.75475916  0.84793800  1
  O  O269  1  0.36132813  0.00046723  0.14609739  1
  O  O270  1  0.39371454  0.00359819  0.35088583  1
  O  O271  1  0.39566596  0.00232330  0.63814549  1
  O  O272  1  0.37249255  0.00282985  0.83695377  1
  O  O273  1  0.40273449  0.24378131  0.09032064  1
  O  O274  1  0.34368599  0.24058313  0.39089828  1
  O  O275  1  0.38162005  0.24978046  0.58360419  1
  O  O276  1  0.34941273  0.24322147  0.87593807  1
  O  O277  1  0.31851761  0.50480515  0.14402143  1
  O  O278  1  0.39130438  0.50297381  0.35472350  1
  O  O279  1  0.35630978  0.49229827  0.63854499  1
  O  O280  1  0.37556543  0.50612468  0.84802470  1
  O  O281  1  0.38980034  0.75478469  0.10443619  1
  O  O282  1  0.37063378  0.75725404  0.39524709  1
  O  O283  1  0.36931770  0.75016227  0.59216282  1
  O  O284  1  0.35597742  0.74963145  0.87747829  1
  O  O285  1  0.63443171  -0.00963463  0.12635553  1
  O  O286  1  0.58732299  0.00478194  0.36426179  1
  O  O287  1  0.60173884  -0.00919638  0.64038895  1
  O  O288  1  0.63198529  -0.00928143  0.83920605  1
  O  O289  1  0.60317625  0.24286301  0.10723623  1
  O  O290  1  0.65535651  0.24129505  0.38469716  1
  O  O291  1  0.65208539  0.24672910  0.61059231  1
  O  O292  1  0.63063911  0.24055944  0.87168860  1
  O  O293  1  0.63608983  0.50101422  0.13194323  1
  O  O294  1  0.59439644  0.49738647  0.34425526  1
  O  O295  1  0.61097696  0.49867881  0.65711021  1
  O  O296  1  0.58798918  0.50485554  0.87647895  1
  O  O297  1  0.60954805  0.75602786  0.09214443  1
  O  O298  1  0.64042139  0.75681891  0.38987456  1
  O  O299  1  0.63285797  0.74574801  0.59387078  1
  O  O300  1  0.60879800  0.75578649  0.88761440  1
  O  O301  1  0.85011563  -0.00976799  0.16188947  1
  O  O302  1  0.90093611  -0.00346185  0.36214267  1
  O  O303  1  0.89931511  -0.01458952  0.63676220  1
  O  O304  1  0.87676104  -0.01227912  0.84927005  1
  O  O305  1  0.90583827  0.25185734  0.10801224  1
  O  O306  1  0.84652736  0.23514640  0.39829656  1
  O  O307  1  0.87042123  0.23981008  0.61284509  1
  O  O308  1  0.88485623  0.24234401  0.89874176  1
  O  O309  1  0.88108030  0.50000163  0.12782807  1
  O  O310  1  0.86248811  0.51077822  0.34751505  1
  O  O311  1  0.89145989  0.51168200  0.65728751  1
  O  O312  1  0.88008058  0.50395209  0.84809690  1
  O  O313  1  0.91056736  0.75288015  0.11738884  1
  O  O314  1  0.87329287  0.75063712  0.38815528  1
  O  O315  1  0.86699413  0.75671975  0.58836583  1
  O  O316  1  0.88207896  0.75572061  0.90966514  1
