# generated using pymatgen
data_Mg32Ti42(Bi17O64)3
_symmetry_space_group_name_H-M   'P 1'
_cell_length_a   15.93630830
_cell_length_b   15.92848205
_cell_length_c   15.98152627
_cell_angle_alpha   89.95219983
_cell_angle_beta   90.00701317
_cell_angle_gamma   90.00679972
_symmetry_Int_Tables_number   1
_chemical_formula_structural   Mg32Ti42(Bi17O64)3
_chemical_formula_sum   'Mg32 Ti42 Bi51 O192'
_cell_volume   4056.76834568
_cell_formula_units_Z   1
loop_
 _symmetry_equiv_pos_site_id
 _symmetry_equiv_pos_as_xyz
  1  'x, y, z'
loop_
 _atom_site_type_symbol
 _atom_site_label
 _atom_site_symmetry_multiplicity
 _atom_site_fract_x
 _atom_site_fract_y
 _atom_site_fract_z
 _atom_site_occupancy
  Mg  Mg0  1  0.88074091  0.62825917  0.87215979  1
  Mg  Mg1  1  0.12609230  0.88017170  0.37440228  1
  Mg  Mg2  1  0.38454973  0.87976438  0.36977996  1
  Mg  Mg3  1  0.37756676  0.62749191  0.62768658  1
  Mg  Mg4  1  0.12307938  0.87114129  0.61750635  1
  Mg  Mg5  1  0.62568957  0.12801950  0.63429381  1
  Mg  Mg6  1  0.62505480  0.61682642  0.37250776  1
  Mg  Mg7  1  0.12150434  0.37931569  0.14108669  1
  Mg  Mg8  1  0.12617495  0.62738792  0.86655009  1
  Mg  Mg9  1  0.62181794  0.61986839  0.88175885  1
  Mg  Mg10  1  0.87613819  0.87837630  0.37870526  1
  Mg  Mg11  1  0.37829511  0.87466529  0.63076226  1
  Mg  Mg12  1  0.87217571  0.37382805  0.62440332  1
  Mg  Mg13  1  0.63245862  0.87271148  0.62758475  1
  Mg  Mg14  1  0.12823880  0.88738972  0.87583726  1
  Mg  Mg15  1  0.63769651  0.12034924  0.11702785  1
  Mg  Mg16  1  0.63220845  0.13403835  0.37158495  1
  Mg  Mg17  1  0.63079501  0.63241097  0.63760607  1
  Mg  Mg18  1  0.88364459  0.87159978  0.87727175  1
  Mg  Mg19  1  0.73328718  0.33797300  0.02435860  1
  Mg  Mg20  1  0.05502034  0.19850121  0.71753199  1
  Mg  Mg21  1  0.70623113  0.75985874  0.82545099  1
  Mg  Mg22  1  0.55202291  0.81201710  -0.01387787  1
  Mg  Mg23  1  0.30222333  0.26123089  0.23937180  1
  Mg  Mg24  1  0.20604474  0.24996224  0.05038378  1
  Mg  Mg25  1  0.00332220  0.47457298  0.30376811  1
  Mg  Mg26  1  0.77508326  -0.05746805  -0.00381767  1
  Mg  Mg27  1  0.18961451  0.02220240  0.69877878  1
  Mg  Mg28  1  0.01434895  0.53431739  0.74847794  1
  Mg  Mg29  1  0.56523783  0.25358303  0.00300383  1
  Mg  Mg30  1  0.21468927  0.22008064  0.56073750  1
  Mg  Mg31  1  0.77265736  0.55486431  -0.00273822  1
  Ti  Ti32  1  0.62287177  0.36941711  0.63142703  1
  Ti  Ti33  1  0.12632273  0.63105788  0.62840450  1
  Ti  Ti34  1  0.12030040  0.38923538  0.64253884  1
  Ti  Ti35  1  0.36141540  0.36800505  0.11635038  1
  Ti  Ti36  1  0.62970938  0.63873018  0.11561193  1
  Ti  Ti37  1  0.61326101  0.36671357  0.37879161  1
  Ti  Ti38  1  0.12303821  0.36894287  0.87262755  1
  Ti  Ti39  1  0.86708494  0.37620036  0.37976664  1
  Ti  Ti40  1  0.37039834  0.12814303  0.63424522  1
  Ti  Ti41  1  0.88894497  0.38862298  0.12771105  1
  Ti  Ti42  1  0.86878247  0.12392088  0.88974948  1
  Ti  Ti43  1  0.62560120  0.88532015  0.37963253  1
  Ti  Ti44  1  0.38974717  0.87336481  0.12105014  1
  Ti  Ti45  1  0.36436681  0.12393319  0.88250842  1
  Ti  Ti46  1  0.38114057  0.63321199  0.12144457  1
  Ti  Ti47  1  0.13194088  0.61044073  0.38442214  1
  Ti  Ti48  1  0.13859617  0.36982279  0.37249244  1
  Ti  Ti49  1  0.87818510  0.12693165  0.38576477  1
  Ti  Ti50  1  0.12488879  0.11689703  0.88238218  1
  Ti  Ti51  1  0.87440363  0.13509553  0.63746626  1
  Ti  Ti52  1  0.12300974  0.87383718  0.12770297  1
  Ti  Ti53  1  0.37518980  0.36747953  0.62892517  1
  Ti  Ti54  1  0.12336361  0.11652672  0.13099416  1
  Ti  Ti55  1  0.13445739  0.13490132  0.36751789  1
  Ti  Ti56  1  0.36826096  0.88477773  0.87487638  1
  Ti  Ti57  1  0.87442803  0.11833337  0.11675550  1
  Ti  Ti58  1  0.36796811  0.12505364  0.12223917  1
  Ti  Ti59  1  0.87410517  0.62306696  0.62966340  1
  Ti  Ti60  1  0.37637746  0.13519129  0.37279974  1
  Ti  Ti61  1  0.63643597  0.13295852  0.87841607  1
  Ti  Ti62  1  0.62640072  0.37894773  0.86870715  1
  Ti  Ti63  1  0.37589217  0.36898017  0.37963600  1
  Ti  Ti64  1  0.87738929  0.37114455  0.89071070  1
  Ti  Ti65  1  0.38098307  0.61853931  0.37880402  1
  Ti  Ti66  1  0.88356530  0.61862199  0.13765581  1
  Ti  Ti67  1  0.37952121  0.64339723  0.88158134  1
  Ti  Ti68  1  0.87185891  0.62075412  0.37583569  1
  Ti  Ti69  1  0.12329784  0.61350185  0.13077798  1
  Ti  Ti70  1  0.37127747  0.36368996  0.88283551  1
  Ti  Ti71  1  0.87927074  0.86903161  0.13427972  1
  Ti  Ti72  1  0.88381189  0.88613019  0.62459384  1
  Ti  Ti73  1  0.63484039  0.88500956  0.12488878  1
  Bi  Bi74  1  0.74150652  -0.04431544  0.78889119  1
  Bi  Bi75  1  -0.00269051  0.00919374  0.28209714  1
  Bi  Bi76  1  0.23937670  0.79267197  0.74592201  1
  Bi  Bi77  1  0.03590601  0.03636097  0.51805767  1
  Bi  Bi78  1  0.50413773  0.47540066  0.22706326  1
  Bi  Bi79  1  0.76152207  0.75308186  0.53025972  1
  Bi  Bi80  1  0.77882234  0.74149325  0.00997481  1
  Bi  Bi81  1  0.27572391  0.50251091  0.25900724  1
  Bi  Bi82  1  0.02346185  0.51172133  -0.02120712  1
  Bi  Bi83  1  -0.01436754  0.01335106  0.75953467  1
  Bi  Bi84  1  0.01345715  0.25524846  0.02003718  1
  Bi  Bi85  1  -0.00186098  -0.01559010  0.01989463  1
  Bi  Bi86  1  0.78175033  0.26241469  0.76211597  1
  Bi  Bi87  1  -0.00089531  0.77956719  0.76180409  1
  Bi  Bi88  1  0.02728795  0.73797454  0.26753472  1
  Bi  Bi89  1  0.26082265  -0.01535179  -0.00046417  1
  Bi  Bi90  1  0.27205854  0.77385672  0.50684474  1
  Bi  Bi91  1  0.50521434  -0.00655893  0.53693128  1
  Bi  Bi92  1  0.26282899  0.49580374  0.53188128  1
  Bi  Bi93  1  0.77117671  0.50271136  0.76915547  1
  Bi  Bi94  1  0.51832311  0.00712827  0.77794179  1
  Bi  Bi95  1  0.26002580  0.53304908  0.75850308  1
  Bi  Bi96  1  0.72591793  0.47376438  0.22869506  1
  Bi  Bi97  1  -0.00150265  0.26649336  0.26570520  1
  Bi  Bi98  1  0.76366316  0.24638023  0.23163935  1
  Bi  Bi99  1  0.72544714  0.51754122  0.49889925  1
  Bi  Bi100  1  0.51635533  0.23545866  0.51570409  1
  Bi  Bi101  1  0.74001684  0.25144331  0.50634016  1
  Bi  Bi102  1  0.02060153  0.26864610  0.50962096  1
  Bi  Bi103  1  0.74395278  0.75985850  0.27792412  1
  Bi  Bi104  1  0.52955347  0.76665247  0.77814241  1
  Bi  Bi105  1  0.53589317  0.48681502  0.01839965  1
  Bi  Bi106  1  0.51909469  0.03298954  0.25274498  1
  Bi  Bi107  1  0.27500086  0.00127890  0.26231001  1
  Bi  Bi108  1  0.51030556  0.51725854  0.52757159  1
  Bi  Bi109  1  0.24237757  0.24839752  0.76369953  1
  Bi  Bi110  1  0.50953771  0.74807858  0.52751378  1
  Bi  Bi111  1  0.76470197  0.01006322  0.25620837  1
  Bi  Bi112  1  0.00417653  0.76779904  0.48657933  1
  Bi  Bi113  1  0.74285421  0.00773965  0.53318393  1
  Bi  Bi114  1  0.24238499  0.75127398  0.02219331  1
  Bi  Bi115  1  0.01500503  0.74653649  -0.01712507  1
  Bi  Bi116  1  0.51688592  0.00263273  -0.00661134  1
  Bi  Bi117  1  0.52382285  0.74883178  0.27499089  1
  Bi  Bi118  1  0.25999084  0.76873948  0.27195409  1
  Bi  Bi119  1  0.25884817  0.51560332  0.01074568  1
  Bi  Bi120  1  0.47594784  0.50111934  0.78176893  1
  Bi  Bi121  1  0.52388659  0.24811453  0.20493478  1
  Bi  Bi122  1  -0.01410117  0.50925760  0.52129424  1
  Bi  Bi123  1  0.27284268  0.00924616  0.50879270  1
  Bi  Bi124  1  0.50813853  0.24599194  0.75943438  1
  O  O125  1  0.12126746  0.16191007  -0.01025630  1
  O  O126  1  0.12106367  0.09860719  0.24312525  1
  O  O127  1  0.12326135  0.14961062  0.48824055  1
  O  O128  1  0.10788709  0.09192684  0.75957146  1
  O  O129  1  0.13029333  0.33127941  -0.01655293  1
  O  O130  1  0.09031716  0.38962526  0.26068326  1
  O  O131  1  0.14056443  0.33360877  0.48905022  1
  O  O132  1  0.09106874  0.41863159  0.74810031  1
  O  O133  1  0.10757899  0.63398710  -0.00549632  1
  O  O134  1  0.13043105  0.60594554  0.24334840  1
  O  O135  1  0.12269833  0.63842785  0.49629381  1
  O  O136  1  0.12559150  0.59752010  0.74334643  1
  O  O137  1  0.09339958  0.86281978  -0.00009193  1
  O  O138  1  0.12537732  0.87609649  0.24131479  1
  O  O139  1  0.11567342  0.84295192  0.49500612  1
  O  O140  1  0.16269541  0.90516528  0.75075279  1
  O  O141  1  0.36223320  0.11326774  -0.00177439  1
  O  O142  1  0.34551548  0.13641100  0.24146823  1
  O  O143  1  0.36363716  0.11959084  0.48770280  1
  O  O144  1  0.38808887  0.13050184  0.74619683  1
  O  O145  1  0.34894340  0.37549630  -0.00436983  1
  O  O146  1  0.37122957  0.37672384  0.24119909  1
  O  O147  1  0.35972453  0.38488954  0.49014384  1
  O  O148  1  0.38620377  0.35738412  0.74295015  1
  O  O149  1  0.36375898  0.61559958  -0.00446992  1
  O  O150  1  0.36056794  0.62513665  0.23799813  1
  O  O151  1  0.37952005  0.60072170  0.49069191  1
  O  O152  1  0.37997915  0.61529847  0.75506338  1
  O  O153  1  0.38057655  0.90310854  0.00236479  1
  O  O154  1  0.37270400  0.86293999  0.23769692  1
  O  O155  1  0.35442488  0.88526855  0.49244967  1
  O  O156  1  0.36415932  0.86224186  0.75818116  1
  O  O157  1  0.60941846  0.12482190  -0.00604061  1
  O  O158  1  0.61004839  0.13946486  0.24551782  1
  O  O159  1  0.62378019  0.14718599  0.49770166  1
  O  O160  1  0.59579681  0.13168434  0.75800040  1
  O  O161  1  0.61850043  0.37564096  -0.00748878  1
  O  O162  1  0.61138566  0.39008891  0.25705000  1
  O  O163  1  0.62675973  0.34471908  0.50350942  1
  O  O164  1  0.60508068  0.35749408  0.75001311  1
  O  O165  1  0.63960678  0.58097037  0.00222694  1
  O  O166  1  0.62932112  0.65009961  0.23712623  1
  O  O167  1  0.62132457  0.60816349  0.50058707  1
  O  O168  1  0.62505926  0.66699072  0.75778947  1
  O  O169  1  0.62838009  0.91286747  0.00671521  1
  O  O170  1  0.62631888  0.84532622  0.23882109  1
  O  O171  1  0.62803801  0.90131131  0.49000313  1
  O  O172  1  0.64255018  0.85141659  0.75198050  1
  O  O173  1  0.86778933  0.14922304  -0.00013934  1
  O  O174  1  0.88414133  0.08881150  0.24105852  1
  O  O175  1  0.87805368  0.15184977  0.49576197  1
  O  O176  1  0.86804911  0.10848774  0.75119466  1
  O  O177  1  0.85537726  0.35491173  0.00524460  1
  O  O178  1  0.91200009  0.39482763  0.24430577  1
  O  O179  1  0.84723363  0.35393131  0.49004163  1
  O  O180  1  0.85159532  0.38991005  0.76104506  1
  O  O181  1  0.87642362  0.63936182  0.00628255  1
  O  O182  1  0.86374764  0.60580665  0.25010092  1
  O  O183  1  0.89252267  0.62481122  0.49595148  1
  O  O184  1  0.87706493  0.59473082  0.74593022  1
  O  O185  1  0.88558211  0.86156102  0.00553004  1
  O  O186  1  0.86941174  0.90438328  0.24606872  1
  O  O187  1  0.89680476  0.85605360  0.50357738  1
  O  O188  1  0.86369292  0.88627424  0.74364681  1
  O  O189  1  -0.00112421  0.10670236  0.10496410  1
  O  O190  1  0.00049287  0.14090119  0.35486622  1
  O  O191  1  -0.00507765  0.12867377  0.62999290  1
  O  O192  1  -0.01069431  0.10050006  0.87591363  1
  O  O193  1  -0.00031078  0.37916526  0.09573799  1
  O  O194  1  -0.00373069  0.34221400  0.39141552  1
  O  O195  1  0.00321597  0.37717628  0.59721436  1
  O  O196  1  -0.00829604  0.38970959  0.89431055  1
  O  O197  1  -0.00086080  0.61536476  0.13206372  1
  O  O198  1  0.00206028  0.63451714  0.35690333  1
  O  O199  1  0.00188084  0.60506568  0.63304438  1
  O  O200  1  0.00017011  0.58257029  0.86483238  1
  O  O201  1  -0.00283704  0.89743116  0.13242307  1
  O  O202  1  -0.00007139  0.83575217  0.36316236  1
  O  O203  1  -0.00059408  0.88723666  0.64339726  1
  O  O204  1  0.00388779  0.89876483  0.84314744  1
  O  O205  1  0.23864051  0.14275817  0.11144202  1
  O  O206  1  0.24393185  0.09861541  0.36959606  1
  O  O207  1  0.25099927  0.11169987  0.62686858  1
  O  O208  1  0.24285373  0.14475245  0.85943827  1
  O  O209  1  0.24493450  0.33659859  0.13762508  1
  O  O210  1  0.24823810  0.39348363  0.35619986  1
  O  O211  1  0.24466348  0.39298689  0.63180765  1
  O  O212  1  0.24275418  0.35545075  0.85062539  1
  O  O213  1  0.24396612  0.62920571  0.10318703  1
  O  O214  1  0.24767212  0.59209754  0.37369678  1
  O  O215  1  0.24791378  0.61226215  0.62516947  1
  O  O216  1  0.25494331  0.62905872  0.86265775  1
  O  O217  1  0.24326998  0.87073625  0.10039434  1
  O  O218  1  0.25150814  0.88088690  0.35305652  1
  O  O219  1  0.25196404  0.85160459  0.62228729  1
  O  O220  1  0.25237317  0.86030638  0.90581222  1
  O  O221  1  0.48850558  0.12342212  0.13257430  1
  O  O222  1  0.49087584  0.13857738  0.36217236  1
  O  O223  1  0.49068136  0.12185129  0.60339389  1
  O  O224  1  0.48416558  0.09108432  0.87982903  1
  O  O225  1  0.48598446  0.38874192  0.11961562  1
  O  O226  1  0.49647667  0.35212168  0.37784396  1
  O  O227  1  0.48988609  0.36957973  0.60296808  1
  O  O228  1  0.49040126  0.39237031  0.88029171  1
  O  O229  1  0.49389904  0.61958425  0.11770246  1
  O  O230  1  0.49634478  0.63941304  0.36572151  1
  O  O231  1  0.50384640  0.62999801  0.61202702  1
  O  O232  1  0.49248559  0.59392575  0.88004696  1
  O  O233  1  0.50326644  0.86929445  0.10718227  1
  O  O234  1  0.50778410  0.85120380  0.37240471  1
  O  O235  1  0.50377499  0.87177939  0.61133896  1
  O  O236  1  0.49308764  0.90476088  0.88171864  1
  O  O237  1  0.75796766  0.12547704  0.14678927  1
  O  O238  1  0.76163297  0.10174776  0.36659913  1
  O  O239  1  0.75176240  0.13216147  0.61252247  1
  O  O240  1  0.74650197  0.15064928  0.86784684  1
  O  O241  1  0.75964209  0.36806534  0.14570603  1
  O  O242  1  0.75782012  0.39555183  0.34379292  1
  O  O243  1  0.73692276  0.34668037  0.62753318  1
  O  O244  1  0.73634413  0.34440230  0.88314334  1
  O  O245  1  0.74932113  0.63306521  0.10895582  1
  O  O246  1  0.75514544  0.59567359  0.38634929  1
  O  O247  1  0.75563796  0.62190289  0.60624791  1
  O  O248  1  0.75323956  0.66015178  0.89240493  1
  O  O249  1  0.75248698  0.87840814  0.11319429  1
  O  O250  1  0.74747010  0.88065049  0.35861776  1
  O  O251  1  0.75768834  0.87948127  0.59832837  1
  O  O252  1  0.75706115  0.86068697  0.88633857  1
  O  O253  1  0.12849404  -0.00064277  0.09700949  1
  O  O254  1  0.09871331  0.00653260  0.39004016  1
  O  O255  1  0.13984450  -0.00778780  0.58942211  1
  O  O256  1  0.14078144  0.00927795  0.91111009  1
  O  O257  1  0.09743202  0.24248415  0.13017833  1
  O  O258  1  0.13947299  0.24812934  0.33737237  1
  O  O259  1  0.13174168  0.26393477  0.64543664  1
  O  O260  1  0.11045317  0.25239933  0.82088128  1
  O  O261  1  0.14071269  0.49878185  0.09902135  1
  O  O262  1  0.10127022  0.49247221  0.38732329  1
  O  O263  1  0.12437013  0.49733759  0.59248313  1
  O  O264  1  0.13788175  0.48477315  0.90336048  1
  O  O265  1  0.12555866  0.74945366  0.12141216  1
  O  O266  1  0.14142446  0.73555653  0.34837664  1
  O  O267  1  0.12242999  0.74349469  0.65286109  1
  O  O268  1  0.09674246  0.75332630  0.86083675  1
  O  O269  1  0.36181299  0.00140483  0.13656724  1
  O  O270  1  0.38142360  0.00720460  0.34721809  1
  O  O271  1  0.37515600  0.00213945  0.61229347  1
  O  O272  1  0.34090123  0.00116862  0.86960577  1
  O  O273  1  0.38463899  0.24998475  0.12688368  1
  O  O274  1  0.34921897  0.25375407  0.35947743  1
  O  O275  1  0.34346409  0.24751511  0.60869157  1
  O  O276  1  0.38288364  0.24445302  0.87341998  1
  O  O277  1  0.34892924  0.49703033  0.11969805  1
  O  O278  1  0.38474293  0.49678128  0.34910535  1
  O  O279  1  0.37349244  0.49345765  0.62413770  1
  O  O280  1  0.35747990  0.48484063  0.85729185  1
  O  O281  1  0.36464218  0.75222616  0.10293209  1
  O  O282  1  0.34931726  0.73884455  0.37563937  1
  O  O283  1  0.38081005  0.74790307  0.59174731  1
  O  O284  1  0.39823468  0.75396033  0.88691665  1
  O  O285  1  0.62093555  -0.00293322  0.15366807  1
  O  O286  1  0.61579525  -0.00030832  0.34810165  1
  O  O287  1  0.62486144  0.00303578  0.62051099  1
  O  O288  1  0.62954116  0.01163311  0.86122511  1
  O  O289  1  0.61984755  0.24894733  0.11142138  1
  O  O290  1  0.66136637  0.25932847  0.37024657  1
  O  O291  1  0.58995665  0.24837699  0.63276199  1
  O  O292  1  0.58750601  0.24772736  0.88077734  1
  O  O293  1  0.61093157  0.50822320  0.14137052  1
  O  O294  1  0.61781784  0.48489542  0.40055515  1
  O  O295  1  0.61959172  0.48884319  0.62017029  1
  O  O296  1  0.63768758  0.49199978  0.84794636  1
  O  O297  1  0.62113026  0.75022288  0.07940095  1
  O  O298  1  0.63977002  0.74851562  0.37069311  1
  O  O299  1  0.63559974  0.75280580  0.59207132  1
  O  O300  1  0.59500112  0.74805437  0.89371967  1
  O  O301  1  0.86409550  0.00135961  0.08732019  1
  O  O302  1  0.90573829  0.00676521  0.38987126  1
  O  O303  1  0.86840244  0.00398903  0.60435378  1
  O  O304  1  0.83762537  0.00648400  0.89680440  1
  O  O305  1  0.88251556  0.24654999  0.15213062  1
  O  O306  1  0.86375579  0.24869984  0.33869575  1
  O  O307  1  0.87808401  0.25026010  0.65331052  1
  O  O308  1  0.88271106  0.25431731  0.85674928  1
  O  O309  1  0.85774850  0.50178864  0.10490629  1
  O  O310  1  0.90600837  0.49002145  0.38596112  1
  O  O311  1  0.87357420  0.49778401  0.60413171  1
  O  O312  1  0.82849724  0.49531566  0.89407443  1
  O  O313  1  0.87568305  0.75212074  0.14447404  1
  O  O314  1  0.85174255  0.73765003  0.36952583  1
  O  O315  1  0.87011941  0.74363843  0.62900612  1
  O  O316  1  0.91714591  0.74918501  0.86723098  1
