# generated using pymatgen
data_Mg32Ti42(Bi17O64)3
_symmetry_space_group_name_H-M   'P 1'
_cell_length_a   15.93938921
_cell_length_b   15.97293103
_cell_length_c   15.93248935
_cell_angle_alpha   89.94016042
_cell_angle_beta   89.96132407
_cell_angle_gamma   89.87563635
_symmetry_Int_Tables_number   1
_chemical_formula_structural   Mg32Ti42(Bi17O64)3
_chemical_formula_sum   'Mg32 Ti42 Bi51 O192'
_cell_volume   4056.37941797
_cell_formula_units_Z   1
loop_
 _symmetry_equiv_pos_site_id
 _symmetry_equiv_pos_as_xyz
  1  'x, y, z'
loop_
 _atom_site_type_symbol
 _atom_site_label
 _atom_site_symmetry_multiplicity
 _atom_site_fract_x
 _atom_site_fract_y
 _atom_site_fract_z
 _atom_site_occupancy
  Mg  Mg0  1  0.13556100  0.36924557  0.37091223  1
  Mg  Mg1  1  0.36815021  0.62689648  0.61912329  1
  Mg  Mg2  1  0.61700285  0.37443911  0.37191908  1
  Mg  Mg3  1  0.61813743  0.12366437  0.86888132  1
  Mg  Mg4  1  0.37818898  0.87888173  0.87502931  1
  Mg  Mg5  1  0.62651696  0.63524707  0.62421984  1
  Mg  Mg6  1  0.13129052  0.88329465  0.36408549  1
  Mg  Mg7  1  0.63287953  0.86134316  0.11971060  1
  Mg  Mg8  1  0.62723578  0.86450624  0.86695329  1
  Mg  Mg9  1  0.36264302  0.87447147  0.62885770  1
  Mg  Mg10  1  0.86671964  0.37388428  0.12654473  1
  Mg  Mg11  1  0.87461109  0.88969014  0.63146104  1
  Mg  Mg12  1  0.12114164  0.38402378  0.62520037  1
  Mg  Mg13  1  0.63188363  0.12505979  0.11876452  1
  Mg  Mg14  1  0.11968763  0.86705888  0.87563308  1
  Mg  Mg15  1  0.62057537  0.87943199  0.38117747  1
  Mg  Mg16  1  0.88069888  0.87437301  0.88041160  1
  Mg  Mg17  1  0.37522390  0.87939802  0.37631533  1
  Mg  Mg18  1  0.85970990  0.12732218  0.62987736  1
  Mg  Mg19  1  0.73355247  0.19628515  -0.01731791  1
  Mg  Mg20  1  0.75521125  -0.04639210  0.79211059  1
  Mg  Mg21  1  0.49641712  -0.04826176  0.55239189  1
  Mg  Mg22  1  0.48034780  0.22644294  0.72271214  1
  Mg  Mg23  1  0.01314231  0.56979282  0.51278907  1
  Mg  Mg24  1  0.29673201  0.76827454  -0.00469709  1
  Mg  Mg25  1  0.55600845  -0.01227059  0.21025800  1
  Mg  Mg26  1  -0.03055639  0.70203642  -0.00255788  1
  Mg  Mg27  1  0.68938820  0.49486047  0.73598738  1
  Mg  Mg28  1  0.77961549  0.74877560  0.70610429  1
  Mg  Mg29  1  0.49871385  0.51872568  0.00178607  1
  Mg  Mg30  1  0.79788051  0.79654741  0.50029647  1
  Mg  Mg31  1  0.49711375  0.53994601  0.70361687  1
  Ti  Ti32  1  0.13074054  0.13561739  0.62844686  1
  Ti  Ti33  1  0.11236261  0.63069362  0.87377309  1
  Ti  Ti34  1  0.37747482  0.62502400  0.12484094  1
  Ti  Ti35  1  0.87064305  0.85232801  0.11373328  1
  Ti  Ti36  1  0.64128366  0.62904787  0.12248968  1
  Ti  Ti37  1  0.37391207  0.37812522  0.11132809  1
  Ti  Ti38  1  0.11899239  0.12851537  0.11834284  1
  Ti  Ti39  1  0.37883290  0.37823629  0.35292902  1
  Ti  Ti40  1  0.38947530  0.86896944  0.13017814  1
  Ti  Ti41  1  0.37434643  0.38232197  0.63921406  1
  Ti  Ti42  1  0.86825490  0.37539101  0.38097521  1
  Ti  Ti43  1  0.60911342  0.36857931  0.63677517  1
  Ti  Ti44  1  0.62510493  0.36920701  0.87820495  1
  Ti  Ti45  1  0.87334799  0.62134196  0.14170504  1
  Ti  Ti46  1  0.13240264  0.38437212  0.12707914  1
  Ti  Ti47  1  0.87552447  0.13409370  0.38435447  1
  Ti  Ti48  1  0.61635642  0.61397990  0.87319722  1
  Ti  Ti49  1  0.37902593  0.38828969  0.86849038  1
  Ti  Ti50  1  0.86759201  0.61603587  0.86669072  1
  Ti  Ti51  1  0.12694838  0.38595328  0.87924042  1
  Ti  Ti52  1  0.12554388  0.85509315  0.12617243  1
  Ti  Ti53  1  0.11861075  0.12332018  0.36593481  1
  Ti  Ti54  1  0.11899612  0.13501121  0.87402615  1
  Ti  Ti55  1  0.37927404  0.12215590  0.86050064  1
  Ti  Ti56  1  0.38110102  0.11961515  0.61878837  1
  Ti  Ti57  1  0.86969720  0.38213375  0.62355406  1
  Ti  Ti58  1  0.86888213  0.36596482  0.87675409  1
  Ti  Ti59  1  0.13013678  0.88030461  0.62835374  1
  Ti  Ti60  1  0.61671828  0.11960363  0.62362584  1
  Ti  Ti61  1  0.62669328  0.61672081  0.38070500  1
  Ti  Ti62  1  0.61724207  0.11849112  0.38124099  1
  Ti  Ti63  1  0.62252673  0.36217528  0.11858265  1
  Ti  Ti64  1  0.37248974  0.62763860  0.37500328  1
  Ti  Ti65  1  0.86867373  0.12891383  0.11494672  1
  Ti  Ti66  1  0.86551701  0.61588311  0.62954666  1
  Ti  Ti67  1  0.37801653  0.11870111  0.38059489  1
  Ti  Ti68  1  0.12003782  0.62452212  0.11485940  1
  Ti  Ti69  1  0.86642450  0.61098395  0.39422852  1
  Ti  Ti70  1  0.64363116  0.86215275  0.62531758  1
  Ti  Ti71  1  0.12042467  0.63736078  0.63605100  1
  Ti  Ti72  1  0.86981410  0.12808056  0.87278918  1
  Ti  Ti73  1  0.37808265  0.62543021  0.87302143  1
  Bi  Bi74  1  0.25388424  0.77220364  0.76511132  1
  Bi  Bi75  1  0.24527321  0.00477089  0.76788335  1
  Bi  Bi76  1  0.23689163  0.24883426  0.47763649  1
  Bi  Bi77  1  0.51348634  0.48996200  0.22271738  1
  Bi  Bi78  1  0.44691659  0.04143712  0.02981788  1
  Bi  Bi79  1  0.73430158  0.46831451  0.25011990  1
  Bi  Bi80  1  -0.02383591  0.25405910  0.73332345  1
  Bi  Bi81  1  -0.00268203  -0.01559131  0.02681181  1
  Bi  Bi82  1  0.51764204  0.76890696  -0.01451717  1
  Bi  Bi83  1  0.76388894  0.75553676  0.30694623  1
  Bi  Bi84  1  -0.01304935  0.01572361  0.76534860  1
  Bi  Bi85  1  -0.01478187  0.78147279  0.50940703  1
  Bi  Bi86  1  0.72275823  0.49150169  0.53128448  1
  Bi  Bi87  1  0.25249568  -0.00187965  0.22448036  1
  Bi  Bi88  1  -0.02130331  0.76956278  0.75924327  1
  Bi  Bi89  1  0.26763887  0.75631682  0.24718215  1
  Bi  Bi90  1  0.74158093  0.22737074  0.25052657  1
  Bi  Bi91  1  0.26004625  0.22533159  0.24295949  1
  Bi  Bi92  1  0.22821241  0.52543418  0.27653291  1
  Bi  Bi93  1  0.25934512  0.53329567  -0.00238997  1
  Bi  Bi94  1  0.23517591  0.50378008  0.74832594  1
  Bi  Bi95  1  0.23151579  -0.03715412  -0.00692280  1
  Bi  Bi96  1  0.47025855  0.49638531  0.49146239  1
  Bi  Bi97  1  -0.02224739  0.25202126  0.24445885  1
  Bi  Bi98  1  0.52944204  0.74792992  0.26464147  1
  Bi  Bi99  1  0.49829721  0.76782457  0.48347696  1
  Bi  Bi100  1  0.76680679  -0.01626894  0.46605009  1
  Bi  Bi101  1  0.70800165  -0.01427265  -0.01000527  1
  Bi  Bi102  1  0.25444645  0.24228804  0.01002982  1
  Bi  Bi103  1  0.24725373  -0.00746056  0.48654423  1
  Bi  Bi104  1  0.24933580  0.25131523  0.74335704  1
  Bi  Bi105  1  0.74635401  -0.01841470  0.23641752  1
  Bi  Bi106  1  -0.01052425  0.48685518  0.76374169  1
  Bi  Bi107  1  0.48021479  0.26651867  0.48237032  1
  Bi  Bi108  1  0.72757148  0.23082609  0.73730977  1
  Bi  Bi109  1  0.47796312  0.74257579  0.73258601  1
  Bi  Bi110  1  -0.02427804  0.49928613  0.02272643  1
  Bi  Bi111  1  0.48839369  0.25340639  -0.03396748  1
  Bi  Bi112  1  0.52878964  -0.02579838  0.75566583  1
  Bi  Bi113  1  -0.00894344  0.02588488  0.52979533  1
  Bi  Bi114  1  0.00683563  0.27673777  0.01695359  1
  Bi  Bi115  1  -0.03718062  -0.04316665  0.27248489  1
  Bi  Bi116  1  0.20773726  0.52264535  0.50299635  1
  Bi  Bi117  1  0.03550885  0.71901220  0.28886513  1
  Bi  Bi118  1  0.71922367  0.25304837  0.48892365  1
  Bi  Bi119  1  0.01107638  0.49476906  0.29929751  1
  Bi  Bi120  1  0.01584682  0.28148985  0.49247412  1
  Bi  Bi121  1  0.21909872  0.75906377  0.48038768  1
  Bi  Bi122  1  0.48310249  0.20760504  0.22365303  1
  Bi  Bi123  1  0.73672763  0.49824424  -0.01378545  1
  Bi  Bi124  1  0.75831865  0.74909598  -0.03267051  1
  O  O125  1  0.13633995  0.14190256  -0.00334044  1
  O  O126  1  0.14014526  0.13101009  0.24864999  1
  O  O127  1  0.14851186  0.13668856  0.50629304  1
  O  O128  1  0.11494005  0.10580357  0.74912866  1
  O  O129  1  0.13703647  0.35191437  -0.00517626  1
  O  O130  1  0.12082801  0.38978624  0.24182274  1
  O  O131  1  0.13642995  0.35047709  0.50237455  1
  O  O132  1  0.12449346  0.40782192  0.75254255  1
  O  O133  1  0.09067833  0.64796047  -0.00531860  1
  O  O134  1  0.11922636  0.60481203  0.23924225  1
  O  O135  1  0.13090986  0.64022546  0.50868111  1
  O  O136  1  0.12490906  0.59516181  0.74976363  1
  O  O137  1  0.10252312  0.89110993  0.00621541  1
  O  O138  1  0.16049472  0.88836318  0.23579006  1
  O  O139  1  0.10793535  0.84685695  0.50165445  1
  O  O140  1  0.15785173  0.88729929  0.74500733  1
  O  O141  1  0.36894111  0.14921728  -0.00914415  1
  O  O142  1  0.36767861  0.13177700  0.25715096  1
  O  O143  1  0.36902899  0.15491818  0.50114249  1
  O  O144  1  0.40466821  0.11631232  0.74577525  1
  O  O145  1  0.37060448  0.34819781  -0.00264020  1
  O  O146  1  0.39081509  0.39539869  0.24113416  1
  O  O147  1  0.38837589  0.37223748  0.51702885  1
  O  O148  1  0.39758724  0.41569943  0.75882481  1
  O  O149  1  0.35567835  0.65133250  0.00568662  1
  O  O150  1  0.35014277  0.61303123  0.24337174  1
  O  O151  1  0.38708363  0.62555681  0.49108757  1
  O  O152  1  0.40278666  0.60615564  0.76189667  1
  O  O153  1  0.39370772  0.85548281  0.00917704  1
  O  O154  1  0.33828510  0.88102449  0.24566401  1
  O  O155  1  0.40973513  0.86550161  0.50812062  1
  O  O156  1  0.33210390  0.88837163  0.75341172  1
  O  O157  1  0.64640503  0.10778875  -0.00409319  1
  O  O158  1  0.63967079  0.12295554  0.25716079  1
  O  O159  1  0.64536208  0.12965749  0.50434372  1
  O  O160  1  0.59876675  0.16178983  0.74514234  1
  O  O161  1  0.65061720  0.39309244  0.00549387  1
  O  O162  1  0.60348832  0.37817903  0.24188592  1
  O  O163  1  0.63715792  0.37986918  0.50876637  1
  O  O164  1  0.62905259  0.37252353  0.75673682  1
  O  O165  1  0.62665958  0.58103136  0.00346746  1
  O  O166  1  0.63045875  0.64966627  0.23788962  1
  O  O167  1  0.62044158  0.60541715  0.49445376  1
  O  O168  1  0.60475738  0.59969630  0.75921999  1
  O  O169  1  0.60415508  0.88307753  -0.00425097  1
  O  O170  1  0.63999215  0.88480707  0.24981504  1
  O  O171  1  0.58939327  0.86884256  0.51326337  1
  O  O172  1  0.65146960  0.89815086  0.73902929  1
  O  O173  1  0.85864586  0.13385599  -0.00522500  1
  O  O174  1  0.86888191  0.15572432  0.24676144  1
  O  O175  1  0.87286785  0.11553243  0.50028155  1
  O  O176  1  0.90330055  0.13367648  0.75267009  1
  O  O177  1  0.88147756  0.38454553  -0.00525745  1
  O  O178  1  0.89437514  0.36150934  0.25536853  1
  O  O179  1  0.84879215  0.38199938  0.50421182  1
  O  O180  1  0.90210796  0.37322980  0.75250925  1
  O  O181  1  0.88514895  0.60753285  -0.01098367  1
  O  O182  1  0.87189339  0.64080031  0.25326211  1
  O  O183  1  0.87926667  0.58759037  0.50617224  1
  O  O184  1  0.86172524  0.65393440  0.74634419  1
  O  O185  1  0.89916194  0.89187684  0.00471453  1
  O  O186  1  0.85544423  0.87527191  0.23663582  1
  O  O187  1  0.89766258  0.88511729  0.50569497  1
  O  O188  1  0.84947076  0.84640002  0.74554422  1
  O  O189  1  0.00199528  0.10748706  0.11998362  1
  O  O190  1  0.00215437  0.11363611  0.36871726  1
  O  O191  1  0.01180003  0.14214017  0.60659852  1
  O  O192  1  0.00667659  0.10004882  0.88532725  1
  O  O193  1  0.00793319  0.38754050  0.10531007  1
  O  O194  1  -0.00452576  0.38779861  0.39645837  1
  O  O195  1  -0.00693457  0.35284104  0.61226168  1
  O  O196  1  0.01006624  0.39584939  0.88112436  1
  O  O197  1  -0.00696184  0.60327207  0.12370624  1
  O  O198  1  -0.00770075  0.61029492  0.38572050  1
  O  O199  1  0.00088330  0.64557502  0.62034080  1
  O  O200  1  -0.00261301  0.61306415  0.85689431  1
  O  O201  1  0.00161478  0.90079463  0.14098905  1
  O  O202  1  0.00894840  0.85481920  0.34609096  1
  O  O203  1  0.00505708  0.84607892  0.63886084  1
  O  O204  1  -0.00039748  0.88103381  0.83865862  1
  O  O205  1  0.24252718  0.16204677  0.12375147  1
  O  O206  1  0.25561491  0.14999035  0.37284034  1
  O  O207  1  0.25838814  0.12658095  0.64802468  1
  O  O208  1  0.25862130  0.14896689  0.84904719  1
  O  O209  1  0.25241704  0.35210763  0.12276951  1
  O  O210  1  0.26415910  0.35673046  0.37163679  1
  O  O211  1  0.25925819  0.40037592  0.64469476  1
  O  O212  1  0.26266319  0.37063303  0.85954640  1
  O  O213  1  0.23395803  0.63838141  0.11024948  1
  O  O214  1  0.25406078  0.60833385  0.38030182  1
  O  O215  1  0.24398222  0.59250810  0.63066280  1
  O  O216  1  0.25514897  0.62106746  0.87066509  1
  O  O217  1  0.23816235  0.83827209  0.08996391  1
  O  O218  1  0.25121495  0.87937249  0.40974848  1
  O  O219  1  0.24199497  0.88449177  0.58891658  1
  O  O220  1  0.24826610  0.84941112  0.90821084  1
  O  O221  1  0.50781592  0.09062408  0.14474138  1
  O  O222  1  0.50325397  0.11101558  0.37774769  1
  O  O223  1  0.49763597  0.15566701  0.61270369  1
  O  O224  1  0.49454991  0.11615226  0.89861032  1
  O  O225  1  0.50084677  0.41652941  0.10248684  1
  O  O226  1  0.49573790  0.38178666  0.39659407  1
  O  O227  1  0.50230373  0.33818045  0.64178811  1
  O  O228  1  0.51290885  0.38938786  0.90327741  1
  O  O229  1  0.48912403  0.59754159  0.11376675  1
  O  O230  1  0.49912935  0.63773262  0.35172346  1
  O  O231  1  0.50147921  0.65415021  0.62965366  1
  O  O232  1  0.50249305  0.61150330  0.90682941  1
  O  O233  1  0.49683698  0.89390543  0.15333347  1
  O  O234  1  0.49750064  0.84628721  0.36481124  1
  O  O235  1  0.50067360  0.87112673  0.66114000  1
  O  O236  1  0.50271705  0.87558019  0.84704777  1
  O  O237  1  0.75442946  0.16860597  0.11850618  1
  O  O238  1  0.75661363  0.15380562  0.37645591  1
  O  O239  1  0.73581703  0.11627790  0.65903004  1
  O  O240  1  0.75763009  0.15131958  0.86326188  1
  O  O241  1  0.74066854  0.36334802  0.15064955  1
  O  O242  1  0.74985721  0.36300380  0.35677898  1
  O  O243  1  0.75354225  0.41192302  0.64615191  1
  O  O244  1  0.75883989  0.35303630  0.87256080  1
  O  O245  1  0.75411937  0.64189066  0.11209419  1
  O  O246  1  0.74671975  0.62271065  0.37255572  1
  O  O247  1  0.74878321  0.58924222  0.63788216  1
  O  O248  1  0.75033823  0.63155219  0.88318845  1
  O  O249  1  0.75856987  0.84854020  0.09584540  1
  O  O250  1  0.74490452  0.86117475  0.40644249  1
  O  O251  1  0.75000605  0.88732425  0.58833177  1
  O  O252  1  0.75325565  0.86317327  0.88920526  1
  O  O253  1  0.15414850  0.01132759  0.11895285  1
  O  O254  1  0.14333542  0.00835444  0.38625427  1
  O  O255  1  0.10852651  -0.00445266  0.61244617  1
  O  O256  1  0.15641447  0.00377621  0.87920171  1
  O  O257  1  0.09534064  0.25272766  0.12708742  1
  O  O258  1  0.11919502  0.24450739  0.38008829  1
  O  O259  1  0.14024780  0.24937804  0.64823265  1
  O  O260  1  0.11459543  0.24906780  0.85502604  1
  O  O261  1  0.13639382  0.49997799  0.09961578  1
  O  O262  1  0.13040953  0.49403805  0.37687677  1
  O  O263  1  0.09754892  0.50553292  0.58622417  1
  O  O264  1  0.14229427  0.50133801  0.89540426  1
  O  O265  1  0.09708518  0.74645355  0.14852749  1
  O  O266  1  0.15062761  0.75402566  0.35221239  1
  O  O267  1  0.15170178  0.74785418  0.64712793  1
  O  O268  1  0.11407199  0.74187218  0.84778543  1
  O  O269  1  0.34511978  -0.01582849  0.11471758  1
  O  O270  1  0.35921776  0.00754371  0.39036560  1
  O  O271  1  0.39189987  0.00819740  0.60215932  1
  O  O272  1  0.35162578  0.00767831  0.88168813  1
  O  O273  1  0.39878915  0.26426912  0.13795008  1
  O  O274  1  0.40246086  0.25447376  0.36521319  1
  O  O275  1  0.36455737  0.26145752  0.66183074  1
  O  O276  1  0.41387912  0.26056852  0.84883057  1
  O  O277  1  0.35017561  0.50232944  0.10321956  1
  O  O278  1  0.37997348  0.49758347  0.38266538  1
  O  O279  1  0.41168441  0.50074696  0.61804543  1
  O  O280  1  0.37836467  0.50118463  0.91854365  1
  O  O281  1  0.38524540  0.74743418  0.14854891  1
  O  O282  1  0.35174966  0.74491025  0.36018928  1
  O  O283  1  0.35837122  0.74857038  0.66250565  1
  O  O284  1  0.38064472  0.74384180  0.86348575  1
  O  O285  1  0.65495319  -0.00368200  0.12999299  1
  O  O286  1  0.65203353  0.00421322  0.38230666  1
  O  O287  1  0.59164065  0.00784346  0.61855502  1
  O  O288  1  0.65251912  0.00040364  0.85973275  1
  O  O289  1  0.59518148  0.25238616  0.11612950  1
  O  O290  1  0.61476190  0.24667158  0.39461792  1
  O  O291  1  0.65359600  0.25742628  0.61662670  1
  O  O292  1  0.62391510  0.25419111  0.90637152  1
  O  O293  1  0.63817761  0.50761071  0.15193269  1
  O  O294  1  0.62706659  0.50332990  0.34845001  1
  O  O295  1  0.60471519  0.49156066  0.63270987  1
  O  O296  1  0.66286373  0.49349746  0.86696822  1
  O  O297  1  0.59930675  0.74006569  0.09560747  1
  O  O298  1  0.62732825  0.74497372  0.36927159  1
  O  O299  1  0.66482672  0.75285776  0.64900790  1
  O  O300  1  0.62483419  0.73546076  0.89350565  1
  O  O301  1  0.85493108  0.01455927  0.13275826  1
  O  O302  1  0.85789050  0.01308950  0.36064782  1
  O  O303  1  0.90749772  0.00750559  0.63612650  1
  O  O304  1  0.86155528  0.00560535  0.84687532  1
  O  O305  1  0.91085353  0.25113905  0.11970649  1
  O  O306  1  0.89687681  0.25375781  0.38597620  1
  O  O307  1  0.85678668  0.25840978  0.64543739  1
  O  O308  1  0.90515282  0.25084961  0.86833361  1
  O  O309  1  0.86284281  0.50326593  0.12483537  1
  O  O310  1  0.86750241  0.49422402  0.35738502  1
  O  O311  1  0.90218912  0.50041280  0.64429199  1
  O  O312  1  0.86983104  0.49947717  0.85252270  1
  O  O313  1  0.90146451  0.74257651  0.10032322  1
  O  O314  1  0.86102460  0.73308656  0.40466913  1
  O  O315  1  0.84775105  0.73389960  0.59778536  1
  O  O316  1  0.89082542  0.74338556  0.89998695  1
