# generated using pymatgen
data_Mg32Ti42(Bi17O64)3
_symmetry_space_group_name_H-M   'P 1'
_cell_length_a   15.88740988
_cell_length_b   15.94929278
_cell_length_c   15.95835112
_cell_angle_alpha   89.89582501
_cell_angle_beta   90.09027493
_cell_angle_gamma   90.01622264
_symmetry_Int_Tables_number   1
_chemical_formula_structural   Mg32Ti42(Bi17O64)3
_chemical_formula_sum   'Mg32 Ti42 Bi51 O192'
_cell_volume   4043.72183146
_cell_formula_units_Z   1
loop_
 _symmetry_equiv_pos_site_id
 _symmetry_equiv_pos_as_xyz
  1  'x, y, z'
loop_
 _atom_site_type_symbol
 _atom_site_label
 _atom_site_symmetry_multiplicity
 _atom_site_fract_x
 _atom_site_fract_y
 _atom_site_fract_z
 _atom_site_occupancy
  Mg  Mg0  1  0.87462183  0.38054803  0.38889951  1
  Mg  Mg1  1  0.62423217  0.11103103  0.62788412  1
  Mg  Mg2  1  0.12235426  0.61821321  0.13292555  1
  Mg  Mg3  1  0.62116178  0.62161197  0.62413731  1
  Mg  Mg4  1  0.37097376  0.87185652  0.62664653  1
  Mg  Mg5  1  0.12337184  0.12881252  0.38030381  1
  Mg  Mg6  1  0.12711980  0.10929008  0.62115956  1
  Mg  Mg7  1  0.87996526  0.10575211  0.62963461  1
  Mg  Mg8  1  0.62585161  0.88152797  0.12670352  1
  Mg  Mg9  1  0.63336831  0.12120717  0.37296911  1
  Mg  Mg10  1  0.87686731  0.87143504  0.12341887  1
  Mg  Mg11  1  0.87579006  0.61867767  0.86996088  1
  Mg  Mg12  1  0.37582418  0.86830719  0.36898233  1
  Mg  Mg13  1  0.62294614  0.62138881  0.87578681  1
  Mg  Mg14  1  0.86662141  0.86632934  0.37741726  1
  Mg  Mg15  1  0.36039342  0.87007151  0.87448923  1
  Mg  Mg16  1  0.36918379  0.13030783  0.37687463  1
  Mg  Mg17  1  0.38341287  0.61951249  0.63597404  1
  Mg  Mg18  1  0.36267564  0.38274777  0.62355938  1
  Mg  Mg19  1  0.01983625  0.07391186  -0.03525003  1
  Mg  Mg20  1  0.27292728  0.49379788  0.25177516  1
  Mg  Mg21  1  0.55266397  0.27012335  0.00625797  1
  Mg  Mg22  1  0.50173386  0.45240922  0.71349209  1
  Mg  Mg23  1  0.44865283  -0.04284498  0.49669123  1
  Mg  Mg24  1  0.08483293  0.72133423  0.54653974  1
  Mg  Mg25  1  -0.01288780  0.26431087  -0.00244478  1
  Mg  Mg26  1  0.26214087  0.72770765  0.68482254  1
  Mg  Mg27  1  0.27786650  0.75962723  0.49230659  1
  Mg  Mg28  1  0.76345024  0.51038530  0.53662367  1
  Mg  Mg29  1  0.77821821  -0.03047510  0.72855852  1
  Mg  Mg30  1  0.68738834  0.49996213  -0.00308400  1
  Mg  Mg31  1  0.02044375  0.52252065  0.71567650  1
  Ti  Ti32  1  0.10612976  0.90465194  0.10726659  1
  Ti  Ti33  1  0.86442288  0.62560120  0.12262273  1
  Ti  Ti34  1  0.12146054  0.87786798  0.88119778  1
  Ti  Ti35  1  0.87566243  0.38033194  0.86373477  1
  Ti  Ti36  1  0.64265559  0.37654905  0.12552790  1
  Ti  Ti37  1  0.11796219  0.38013329  0.63042439  1
  Ti  Ti38  1  0.87993220  0.12046617  0.37573698  1
  Ti  Ti39  1  0.36996018  0.61935791  0.13301780  1
  Ti  Ti40  1  0.38595742  0.13475452  0.87507955  1
  Ti  Ti41  1  0.62283391  0.61607541  0.39068740  1
  Ti  Ti42  1  0.62058153  0.87670460  0.62938481  1
  Ti  Ti43  1  0.38665734  0.36686429  0.11078364  1
  Ti  Ti44  1  0.12889208  0.38439874  0.38871661  1
  Ti  Ti45  1  0.63207127  0.38069666  0.61057778  1
  Ti  Ti46  1  0.37620886  0.62563072  0.36682589  1
  Ti  Ti47  1  0.37584932  0.11446230  0.61756749  1
  Ti  Ti48  1  0.61231204  0.37706214  0.87481507  1
  Ti  Ti49  1  0.87742161  0.86750470  0.87421374  1
  Ti  Ti50  1  0.88452731  0.62780940  0.63804721  1
  Ti  Ti51  1  0.63732095  0.88650545  0.88231022  1
  Ti  Ti52  1  0.62442507  0.62627570  0.12751541  1
  Ti  Ti53  1  0.63750820  0.12874560  0.12234604  1
  Ti  Ti54  1  0.37259601  0.37967224  0.38333375  1
  Ti  Ti55  1  0.37358995  0.89145587  0.12588990  1
  Ti  Ti56  1  0.88578652  0.36620038  0.11863411  1
  Ti  Ti57  1  0.62476042  0.13187749  0.87145128  1
  Ti  Ti58  1  0.85974494  0.11601876  0.86683941  1
  Ti  Ti59  1  0.61595173  0.88024441  0.37703526  1
  Ti  Ti60  1  0.14578042  0.61921821  0.36225241  1
  Ti  Ti61  1  0.37357907  0.13953955  0.12786568  1
  Ti  Ti62  1  0.62797744  0.37775963  0.37954609  1
  Ti  Ti63  1  0.12312951  0.38181567  0.88102237  1
  Ti  Ti64  1  0.38070342  0.38714633  0.87844978  1
  Ti  Ti65  1  0.87909325  0.37914803  0.62297375  1
  Ti  Ti66  1  0.86833049  0.62542563  0.38487994  1
  Ti  Ti67  1  0.14100116  0.87130366  0.64342336  1
  Ti  Ti68  1  0.12453949  0.62696543  0.89004010  1
  Ti  Ti69  1  0.10960620  0.13286969  0.12802584  1
  Ti  Ti70  1  0.12124217  0.37758738  0.13269608  1
  Ti  Ti71  1  0.36138705  0.63132831  0.87178680  1
  Ti  Ti72  1  0.88218141  0.85841153  0.63364929  1
  Ti  Ti73  1  0.88686047  0.13251812  0.11862906  1
  Bi  Bi74  1  0.03621277  0.73499700  0.75464706  1
  Bi  Bi75  1  0.23688292  0.49600404  0.02896604  1
  Bi  Bi76  1  0.50021360  0.74123797  0.77981535  1
  Bi  Bi77  1  0.02350241  -0.06920143  0.49781131  1
  Bi  Bi78  1  0.25764916  0.01900076  0.77181590  1
  Bi  Bi79  1  0.49247051  0.47437288  0.25354023  1
  Bi  Bi80  1  0.49580426  0.01873268  0.27716480  1
  Bi  Bi81  1  0.51039346  0.21590924  0.49812771  1
  Bi  Bi82  1  0.78301062  0.25980374  0.25922210  1
  Bi  Bi83  1  0.00907919  -0.03042018  0.28912363  1
  Bi  Bi84  1  0.01382549  0.26565221  0.27999961  1
  Bi  Bi85  1  0.51223644  0.01804388  0.00809094  1
  Bi  Bi86  1  0.27283720  0.01316011  -0.00491109  1
  Bi  Bi87  1  0.75806574  0.21460902  0.49685152  1
  Bi  Bi88  1  -0.01729124  0.50682361  0.25170635  1
  Bi  Bi89  1  0.72765491  0.49902199  0.74546454  1
  Bi  Bi90  1  -0.02272077  0.52079018  0.00144033  1
  Bi  Bi91  1  0.53242797  0.24170129  0.25032064  1
  Bi  Bi92  1  0.01105667  0.24736162  0.77474640  1
  Bi  Bi93  1  0.47347324  0.51138659  0.51251366  1
  Bi  Bi94  1  0.23745587  0.23783520  0.52664881  1
  Bi  Bi95  1  0.48394143  0.25935356  0.72038885  1
  Bi  Bi96  1  0.49008280  -0.03239586  0.77558672  1
  Bi  Bi97  1  0.77908026  -0.01915241  0.24557690  1
  Bi  Bi98  1  0.23420976  -0.02706591  0.46921717  1
  Bi  Bi99  1  -0.01660918  0.74847065  0.01495390  1
  Bi  Bi100  1  0.46921288  0.76628706  0.00121429  1
  Bi  Bi101  1  0.75328344  0.22560782  0.71787956  1
  Bi  Bi102  1  0.22017680  0.79622118  0.25183608  1
  Bi  Bi103  1  0.25871332  0.27526257  0.26272822  1
  Bi  Bi104  1  0.74311313  0.76451532  0.51919964  1
  Bi  Bi105  1  0.47943526  0.52886753  -0.00242918  1
  Bi  Bi106  1  0.25587767  0.26014859  0.76385652  1
  Bi  Bi107  1  -0.00598026  0.22311134  0.52157862  1
  Bi  Bi108  1  0.49796503  0.76364080  0.22724440  1
  Bi  Bi109  1  0.24610597  0.02115215  0.25591501  1
  Bi  Bi110  1  0.00064003  0.73633843  0.28675848  1
  Bi  Bi111  1  0.74755809  0.49984654  0.26607029  1
  Bi  Bi112  1  0.73796062  0.73213571  0.77032159  1
  Bi  Bi113  1  -0.01378114  0.52094491  0.51207685  1
  Bi  Bi114  1  0.73166378  0.74529600  0.00488552  1
  Bi  Bi115  1  0.21825930  0.23356132  0.00582927  1
  Bi  Bi116  1  0.76050998  0.26603271  -0.02929097  1
  Bi  Bi117  1  0.49121236  0.74946098  0.51841311  1
  Bi  Bi118  1  0.72877665  0.74708736  0.27526288  1
  Bi  Bi119  1  0.23387881  0.75664640  0.02758465  1
  Bi  Bi120  1  0.22153593  0.50818496  0.75250424  1
  Bi  Bi121  1  0.75908683  -0.01359919  0.51992644  1
  Bi  Bi122  1  0.02742880  0.01579191  0.76673707  1
  Bi  Bi123  1  0.22682606  0.53307751  0.53211213  1
  Bi  Bi124  1  0.77862326  -0.01075115  0.01188117  1
  O  O125  1  0.08873420  0.17376581  0.00747406  1
  O  O126  1  0.13348873  0.10322675  0.24272506  1
  O  O127  1  0.12255089  0.16164736  0.50433656  1
  O  O128  1  0.14015237  0.08933059  0.74544709  1
  O  O129  1  0.14867763  0.35813256  -0.00634554  1
  O  O130  1  0.10056228  0.38520673  0.24407579  1
  O  O131  1  0.14918138  0.36383164  0.49977161  1
  O  O132  1  0.09796819  0.41614156  0.74625688  1
  O  O133  1  0.15851303  0.63659667  0.00553771  1
  O  O134  1  0.08801289  0.60844375  0.25488587  1
  O  O135  1  0.17531129  0.65870115  0.48235177  1
  O  O136  1  0.09801396  0.60535021  0.76958069  1
  O  O137  1  0.12818039  0.85118030  0.00056684  1
  O  O138  1  0.12518680  0.89872329  0.22585467  1
  O  O139  1  0.13687980  0.84126850  0.51887641  1
  O  O140  1  0.09892667  0.88505397  0.75809601  1
  O  O141  1  0.38536370  0.10789688  -0.00204616  1
  O  O142  1  0.33909204  0.13547171  0.24153872  1
  O  O143  1  0.39672708  0.13787034  0.49987024  1
  O  O144  1  0.35704291  0.12216196  0.74878670  1
  O  O145  1  0.34723524  0.39213735  -0.00389454  1
  O  O146  1  0.39650095  0.36341566  0.23203625  1
  O  O147  1  0.36291941  0.39949021  0.49373336  1
  O  O148  1  0.40667980  0.37444566  0.75859991  1
  O  O149  1  0.36006898  0.60058928  0.00280290  1
  O  O150  1  0.40153159  0.63483739  0.24450052  1
  O  O151  1  0.35936012  0.58766413  0.48271175  1
  O  O152  1  0.37951956  0.65826553  0.75666993  1
  O  O153  1  0.38047380  0.88182850  0.00417884  1
  O  O154  1  0.39220928  0.86032287  0.24319910  1
  O  O155  1  0.34165259  0.87919094  0.49478952  1
  O  O156  1  0.40192846  0.86713264  0.75053579  1
  O  O157  1  0.58439957  0.13615100  0.00593580  1
  O  O158  1  0.63610781  0.14573363  0.24258173  1
  O  O159  1  0.61494449  0.13157186  0.49948382  1
  O  O160  1  0.64294215  0.14048334  0.75784783  1
  O  O161  1  0.65151533  0.37670822  0.00386888  1
  O  O162  1  0.60822302  0.37497848  0.24233307  1
  O  O163  1  0.64012928  0.39934503  0.49686220  1
  O  O164  1  0.60024830  0.37149146  0.76173336  1
  O  O165  1  0.66037361  0.62172868  -0.00039688  1
  O  O166  1  0.60817200  0.64451855  0.24094982  1
  O  O167  1  0.65690568  0.59015194  0.49589836  1
  O  O168  1  0.61158445  0.65659241  0.74893413  1
  O  O169  1  0.65451994  0.88179693  -0.00429064  1
  O  O170  1  0.60258023  0.85050663  0.25615291  1
  O  O171  1  0.66260901  0.88287730  0.49115592  1
  O  O172  1  0.59751670  0.86445196  0.74173665  1
  O  O173  1  0.91647650  0.14937503  0.00656050  1
  O  O174  1  0.85957024  0.13820457  0.25645299  1
  O  O175  1  0.88181417  0.13282870  0.50290330  1
  O  O176  1  0.83527995  0.09181860  0.75669396  1
  O  O177  1  0.87604661  0.35651379  -0.00072084  1
  O  O178  1  0.89215917  0.35324899  0.24819444  1
  O  O179  1  0.86507837  0.41687418  0.50972123  1
  O  O180  1  0.88431985  0.36961855  0.74808205  1
  O  O181  1  0.85848972  0.59956339  0.00432956  1
  O  O182  1  0.90338143  0.62335581  0.24031471  1
  O  O183  1  0.85020256  0.59865521  0.49619794  1
  O  O184  1  0.92060536  0.62684807  0.74618176  1
  O  O185  1  0.84817511  0.86920354  -0.00659935  1
  O  O186  1  0.88766449  0.89438476  0.24749659  1
  O  O187  1  0.84726159  0.86923645  0.50423682  1
  O  O188  1  0.87958056  0.88420107  0.74953275  1
  O  O189  1  -0.00231641  0.14895955  0.15569472  1
  O  O190  1  -0.00319346  0.15755199  0.37559779  1
  O  O191  1  0.00074853  0.14507957  0.63861786  1
  O  O192  1  -0.01230467  0.13058659  0.84640461  1
  O  O193  1  0.00362788  0.34026486  0.10320608  1
  O  O194  1  0.00963245  0.35875162  0.38668487  1
  O  O195  1  0.00282051  0.34908870  0.61427243  1
  O  O196  1  0.00399259  0.33975591  0.88822969  1
  O  O197  1  -0.00195500  0.63244944  0.09387654  1
  O  O198  1  -0.01228134  0.64688996  0.39226793  1
  O  O199  1  -0.00719740  0.64343023  0.58411058  1
  O  O200  1  0.00429621  0.63330625  0.91418132  1
  O  O201  1  0.00214992  0.85970325  0.11007718  1
  O  O202  1  -0.00409164  0.85910313  0.37127354  1
  O  O203  1  -0.00545913  0.83860047  0.61942500  1
  O  O204  1  -0.01155426  0.84773611  0.88582778  1
  O  O205  1  0.23846509  0.11040958  0.09079100  1
  O  O206  1  0.24768733  0.08666845  0.37937007  1
  O  O207  1  0.25728704  0.11817936  0.60070428  1
  O  O208  1  0.25550742  0.09813776  0.88608593  1
  O  O209  1  0.24580771  0.40537287  0.14409907  1
  O  O210  1  0.24841715  0.39752144  0.33945418  1
  O  O211  1  0.24032213  0.41671435  0.64350245  1
  O  O212  1  0.25009131  0.38325174  0.84221892  1
  O  O213  1  0.25944139  0.58204049  0.14972501  1
  O  O214  1  0.25197136  0.59917508  0.33116074  1
  O  O215  1  0.25595302  0.60208716  0.64655342  1
  O  O216  1  0.24769543  0.61398205  0.86208509  1
  O  O217  1  0.25271330  0.88800504  0.11917704  1
  O  O218  1  0.25250583  0.90928026  0.35112005  1
  O  O219  1  0.25035513  0.86702994  0.66578334  1
  O  O220  1  0.23524521  0.90155352  0.87324583  1
  O  O221  1  0.48523573  0.14798475  0.14827316  1
  O  O222  1  0.49850757  0.14177598  0.34721371  1
  O  O223  1  0.50182586  0.15157197  0.62720391  1
  O  O224  1  0.49904489  0.14326950  0.85791979  1
  O  O225  1  0.49626983  0.34977309  0.09041363  1
  O  O226  1  0.49587194  0.38550486  0.37578641  1
  O  O227  1  0.51301156  0.35615146  0.61891551  1
  O  O228  1  0.49832774  0.35961325  0.90883556  1
  O  O229  1  0.50502723  0.63547985  0.09313917  1
  O  O230  1  0.50016436  0.62570163  0.39464614  1
  O  O231  1  0.49993017  0.62815892  0.58791838  1
  O  O232  1  0.49564713  0.64323172  0.89421119  1
  O  O233  1  0.49840474  0.85331889  0.11591967  1
  O  O234  1  0.50426144  0.86221935  0.40558568  1
  O  O235  1  0.50366303  0.87603790  0.58586111  1
  O  O236  1  0.51095390  0.86556028  0.88094305  1
  O  O237  1  0.74711010  0.11688729  0.10122575  1
  O  O238  1  0.75635401  0.11237166  0.39733005  1
  O  O239  1  0.75283146  0.13146060  0.61621362  1
  O  O240  1  0.74318297  0.12141372  0.90688636  1
  O  O241  1  0.75529047  0.38650926  0.14288189  1
  O  O242  1  0.74399076  0.38822717  0.35402374  1
  O  O243  1  0.75461391  0.41481198  0.63133628  1
  O  O244  1  0.75482611  0.37380583  0.87441024  1
  O  O245  1  0.75190100  0.61213907  0.14934344  1
  O  O246  1  0.74609108  0.61467368  0.34561613  1
  O  O247  1  0.76331365  0.59002478  0.64488547  1
  O  O248  1  0.75247792  0.61406300  0.83479046  1
  O  O249  1  0.74987385  0.90107008  0.13982772  1
  O  O250  1  0.74282340  0.88110925  0.33950472  1
  O  O251  1  0.74233461  0.85474483  0.63591070  1
  O  O252  1  0.74220785  0.91413523  0.83909656  1
  O  O253  1  0.08955856  0.01636866  0.08133307  1
  O  O254  1  0.09716504  0.00102657  0.40371349  1
  O  O255  1  0.11059081  -0.01783039  0.60536809  1
  O  O256  1  0.08250211  -0.01014229  0.89194881  1
  O  O257  1  0.15628890  0.25056370  0.13513079  1
  O  O258  1  0.14605383  0.25933876  0.35005179  1
  O  O259  1  0.15953047  0.26537996  0.64157342  1
  O  O260  1  0.13577783  0.26202913  0.83575767  1
  O  O261  1  0.10660392  0.49070305  0.10050491  1
  O  O262  1  0.11528204  0.50420021  0.39574578  1
  O  O263  1  0.09694676  0.49989987  0.60158541  1
  O  O264  1  0.12194623  0.49741170  0.90093786  1
  O  O265  1  0.15533686  0.74331044  0.14034001  1
  O  O266  1  0.13120570  0.73988996  0.33997006  1
  O  O267  1  0.13809756  0.74519526  0.65937083  1
  O  O268  1  0.12746766  0.74618121  0.86432359  1
  O  O269  1  0.38416490  0.00551390  0.13125693  1
  O  O270  1  0.41009255  0.00006516  0.37958589  1
  O  O271  1  0.39414284  0.00297072  0.60966662  1
  O  O272  1  0.38924803  0.00005737  0.86621925  1
  O  O273  1  0.34475261  0.25170342  0.10412365  1
  O  O274  1  0.34718526  0.26287317  0.37574627  1
  O  O275  1  0.36533784  0.25607224  0.63759600  1
  O  O276  1  0.35250113  0.24765860  0.87663456  1
  O  O277  1  0.40735285  0.49669001  0.12570553  1
  O  O278  1  0.37914812  0.49734311  0.33366711  1
  O  O279  1  0.41350251  0.49739221  0.63521349  1
  O  O280  1  0.39190832  0.50212363  0.86983075  1
  O  O281  1  0.36472661  0.73850617  0.10759996  1
  O  O282  1  0.34888720  0.73650716  0.38805829  1
  O  O283  1  0.35263518  0.74141712  0.59523649  1
  O  O284  1  0.36295458  0.74638531  0.90155459  1
  O  O285  1  0.59917334  0.01196971  0.12167326  1
  O  O286  1  0.60607180  -0.00395379  0.35799386  1
  O  O287  1  0.65707430  -0.00995571  0.63243253  1
  O  O288  1  0.59900158  0.00918255  0.88645468  1
  O  O289  1  0.62853086  0.25463844  0.11539094  1
  O  O290  1  0.62326834  0.26207560  0.37654992  1
  O  O291  1  0.65735303  0.26756176  0.62601771  1
  O  O292  1  0.63139199  0.25221315  0.89845877  1
  O  O293  1  0.61994297  0.49997777  0.11209229  1
  O  O294  1  0.62023527  0.50393244  0.34455691  1
  O  O295  1  0.61012304  0.49619024  0.65795461  1
  O  O296  1  0.62257500  0.49426467  0.88610632  1
  O  O297  1  0.64154538  0.74738842  0.11133740  1
  O  O298  1  0.64537742  0.74104695  0.38803500  1
  O  O299  1  0.61904509  0.75066747  0.59016339  1
  O  O300  1  0.65453409  0.76123234  0.87959592  1
  O  O301  1  0.87577016  0.01374754  0.11526141  1
  O  O302  1  0.89495993  0.00408586  0.37658707  1
  O  O303  1  0.85847713  -0.01807994  0.62291120  1
  O  O304  1  0.88614255  0.00717494  0.90701633  1
  O  O305  1  0.84844763  0.24924523  0.12831018  1
  O  O306  1  0.85124765  0.25392939  0.38566446  1
  O  O307  1  0.85388527  0.26475238  0.61223876  1
  O  O308  1  0.85924293  0.23982730  0.86643241  1
  O  O309  1  0.90025632  0.48796196  0.13217701  1
  O  O310  1  0.87621639  0.50450563  0.34825509  1
  O  O311  1  0.92204946  0.50250773  0.63755188  1
  O  O312  1  0.89729130  0.49024656  0.87393766  1
  O  O313  1  0.86738378  0.74208554  0.10698041  1
  O  O314  1  0.84791786  0.74136508  0.36249468  1
  O  O315  1  0.85187974  0.73981399  0.62638176  1
  O  O316  1  0.84479511  0.75353024  0.86842996  1
