# generated using pymatgen
data_Mg32Ti42(Bi17O64)3
_symmetry_space_group_name_H-M   'P 1'
_cell_length_a   15.93511252
_cell_length_b   15.97382925
_cell_length_c   15.99361016
_cell_angle_alpha   89.97966743
_cell_angle_beta   89.99092174
_cell_angle_gamma   89.96389920
_symmetry_Int_Tables_number   1
_chemical_formula_structural   Mg32Ti42(Bi17O64)3
_chemical_formula_sum   'Mg32 Ti42 Bi51 O192'
_cell_volume   4071.08864915
_cell_formula_units_Z   1
loop_
 _symmetry_equiv_pos_site_id
 _symmetry_equiv_pos_as_xyz
  1  'x, y, z'
loop_
 _atom_site_type_symbol
 _atom_site_label
 _atom_site_symmetry_multiplicity
 _atom_site_fract_x
 _atom_site_fract_y
 _atom_site_fract_z
 _atom_site_occupancy
  Mg  Mg0  1  0.37635602  0.87902233  0.62134400  1
  Mg  Mg1  1  0.62075913  0.37516047  0.87621501  1
  Mg  Mg2  1  0.12896717  0.62241795  0.37572647  1
  Mg  Mg3  1  0.38479650  0.12628366  0.86649843  1
  Mg  Mg4  1  0.12042108  0.88951052  0.38188711  1
  Mg  Mg5  1  0.62489701  0.62623182  0.61859351  1
  Mg  Mg6  1  0.63219124  0.11863557  0.36364293  1
  Mg  Mg7  1  0.37402796  0.88024715  0.12795636  1
  Mg  Mg8  1  0.88168636  0.38003457  0.86532013  1
  Mg  Mg9  1  0.38785052  0.87639842  0.87690629  1
  Mg  Mg10  1  0.87672368  0.12732575  0.63055610  1
  Mg  Mg11  1  0.87860235  0.87022802  0.12717146  1
  Mg  Mg12  1  0.62812926  0.37837665  0.62914942  1
  Mg  Mg13  1  0.38177614  0.62320682  0.87766148  1
  Mg  Mg14  1  0.37642326  0.62046519  0.12338103  1
  Mg  Mg15  1  0.86951805  0.86839092  0.61807861  1
  Mg  Mg16  1  0.37126553  0.62184503  0.62088913  1
  Mg  Mg17  1  0.38575314  0.89533188  0.37285813  1
  Mg  Mg18  1  0.87210639  0.13086644  0.11682414  1
  Mg  Mg19  1  0.25325224  0.01292963  0.43687427  1
  Mg  Mg20  1  -0.09235972  0.47617691  0.25642448  1
  Mg  Mg21  1  0.73725290  -0.00866964  0.66947054  1
  Mg  Mg22  1  -0.04685748  -0.00628154  0.71922787  1
  Mg  Mg23  1  0.25756601  0.82455775  0.49420882  1
  Mg  Mg24  1  0.74016652  0.79003385  0.26473470  1
  Mg  Mg25  1  0.75009424  0.08577727  0.50339670  1
  Mg  Mg26  1  0.70641427  0.51742019  0.29355377  1
  Mg  Mg27  1  0.25251141  0.79869344  0.30674628  1
  Mg  Mg28  1  0.44055935  0.25066730  0.49830292  1
  Mg  Mg29  1  0.00281835  0.47377305  0.69161340  1
  Mg  Mg30  1  0.55900307  -0.02668152  0.25061560  1
  Mg  Mg31  1  0.63397808  0.25306365  0.49386094  1
  Ti  Ti32  1  0.62593628  0.12994945  0.87804076  1
  Ti  Ti33  1  0.37179336  0.13079436  0.37171759  1
  Ti  Ti34  1  0.62311679  0.86269730  0.60782895  1
  Ti  Ti35  1  0.88147549  0.63155453  0.86856514  1
  Ti  Ti36  1  0.62502638  0.87088670  0.87390402  1
  Ti  Ti37  1  0.36624011  0.61991001  0.37928155  1
  Ti  Ti38  1  0.13072301  0.12920825  0.12180295  1
  Ti  Ti39  1  0.37868171  0.37553321  0.86162135  1
  Ti  Ti40  1  0.36389018  0.38116393  0.37909450  1
  Ti  Ti41  1  0.87608613  0.88172108  0.87181264  1
  Ti  Ti42  1  0.35918535  0.11396629  0.61136604  1
  Ti  Ti43  1  0.64499059  0.63709244  0.13468424  1
  Ti  Ti44  1  0.62740931  0.37613817  0.12417582  1
  Ti  Ti45  1  0.13081103  0.37921491  0.87166226  1
  Ti  Ti46  1  0.11997717  0.63317657  0.63236813  1
  Ti  Ti47  1  0.12134053  0.88168025  0.86817740  1
  Ti  Ti48  1  0.12224672  0.11933072  0.86774864  1
  Ti  Ti49  1  0.12795044  0.87779389  0.13312951  1
  Ti  Ti50  1  0.86813446  0.87185392  0.36655838  1
  Ti  Ti51  1  0.87744344  0.62972638  0.12293244  1
  Ti  Ti52  1  0.12772765  0.63055503  0.87579169  1
  Ti  Ti53  1  0.86283203  0.37700009  0.11471964  1
  Ti  Ti54  1  0.63203139  0.87663224  0.38102367  1
  Ti  Ti55  1  0.62777753  0.13906406  0.13613006  1
  Ti  Ti56  1  0.88444474  0.62967761  0.35759989  1
  Ti  Ti57  1  0.87414284  0.12781035  0.37111113  1
  Ti  Ti58  1  0.63336455  0.63384535  0.86681397  1
  Ti  Ti59  1  0.13276275  0.88271452  0.62470982  1
  Ti  Ti60  1  0.13004399  0.36974716  0.61960471  1
  Ti  Ti61  1  0.88125303  0.11909901  0.86363335  1
  Ti  Ti62  1  0.11265581  0.11291714  0.62418584  1
  Ti  Ti63  1  0.36181688  0.37925612  0.61643468  1
  Ti  Ti64  1  0.86643962  0.37028970  0.63556751  1
  Ti  Ti65  1  0.38588862  0.12734904  0.13076355  1
  Ti  Ti66  1  0.11412628  0.12309124  0.37211200  1
  Ti  Ti67  1  0.13239084  0.37440501  0.11393980  1
  Ti  Ti68  1  0.88569188  0.61540638  0.62163269  1
  Ti  Ti69  1  0.61077541  0.64141370  0.37711817  1
  Ti  Ti70  1  0.38359070  0.37467502  0.11815127  1
  Ti  Ti71  1  0.12367968  0.60334793  0.12485926  1
  Ti  Ti72  1  0.63927965  0.86894189  0.12239459  1
  Ti  Ti73  1  0.12454835  0.37695548  0.36787610  1
  Bi  Bi74  1  0.50834942  0.50774937  0.24399486  1
  Bi  Bi75  1  0.26565148  0.52735159  0.75136687  1
  Bi  Bi76  1  0.76604621  0.27195965  -0.02890937  1
  Bi  Bi77  1  0.52924472  0.46020210  0.48481744  1
  Bi  Bi78  1  0.53225090  -0.00817441  0.73275691  1
  Bi  Bi79  1  0.76901202  0.74310201  0.71950780  1
  Bi  Bi80  1  -0.01496097  -0.00582971  0.01274799  1
  Bi  Bi81  1  -0.00732605  0.50464093  -0.02987239  1
  Bi  Bi82  1  0.73328698  0.47424108  0.76869063  1
  Bi  Bi83  1  0.24868442  -0.02081885  -0.00936072  1
  Bi  Bi84  1  0.48500388  0.24487175  0.69439108  1
  Bi  Bi85  1  0.49021988  0.74750378  0.72257284  1
  Bi  Bi86  1  0.26928973  0.22511320  -0.01381878  1
  Bi  Bi87  1  0.46130667  0.76439560  0.25351862  1
  Bi  Bi88  1  0.04728942  0.75128919  0.26752065  1
  Bi  Bi89  1  0.71852391  0.20636234  0.71162157  1
  Bi  Bi90  1  0.00547335  0.76321505  0.48746252  1
  Bi  Bi91  1  -0.00756129  0.25370513  -0.00795918  1
  Bi  Bi92  1  -0.01000620  0.48402056  0.47982758  1
  Bi  Bi93  1  0.51244689  0.51098059  0.72474265  1
  Bi  Bi94  1  -0.00325869  0.77726512  0.73652110  1
  Bi  Bi95  1  -0.00268615  0.03095796  0.23075768  1
  Bi  Bi96  1  0.01031528  0.26853503  0.22997958  1
  Bi  Bi97  1  0.02883540  0.74686556  0.02593784  1
  Bi  Bi98  1  0.75893993  0.70839439  0.48387103  1
  Bi  Bi99  1  0.50840989  0.26591027  -0.01732988  1
  Bi  Bi100  1  0.45707440  0.74836225  0.49394488  1
  Bi  Bi101  1  0.53096102  0.04545106  0.50460622  1
  Bi  Bi102  1  0.26780161  0.50778697  -0.00800012  1
  Bi  Bi103  1  0.76363653  0.29483501  0.28699090  1
  Bi  Bi104  1  0.01375897  0.26336233  0.75359273  1
  Bi  Bi105  1  0.26407595  0.75602769  0.77121962  1
  Bi  Bi106  1  -0.04544741  0.27123080  0.49294051  1
  Bi  Bi107  1  0.26741660  0.26742087  0.23947965  1
  Bi  Bi108  1  0.49346523  0.75598951  0.02264330  1
  Bi  Bi109  1  0.22435672  0.23323123  0.48730767  1
  Bi  Bi110  1  -0.03788792  -0.00253735  0.50738961  1
  Bi  Bi111  1  0.24707013  0.22628445  0.73931809  1
  Bi  Bi112  1  0.75491883  0.46209429  0.46962424  1
  Bi  Bi113  1  0.52818202  0.27728349  0.29371804  1
  Bi  Bi114  1  0.75239420  0.52519400  -0.00698461  1
  Bi  Bi115  1  0.28417990  -0.01670049  0.75951982  1
  Bi  Bi116  1  0.76458001  0.76893249  -0.00700670  1
  Bi  Bi117  1  0.26542031  0.76463355  0.00232462  1
  Bi  Bi118  1  0.21583364  0.51914469  0.51006877  1
  Bi  Bi119  1  0.75942099  0.01835395  0.24689429  1
  Bi  Bi120  1  0.51765490  0.02360080  0.00573158  1
  Bi  Bi121  1  0.74767878  0.01690400  -0.00285232  1
  Bi  Bi122  1  0.25932122  0.52284455  0.24190187  1
  Bi  Bi123  1  0.52233323  0.53266704  -0.00350594  1
  Bi  Bi124  1  0.27085723  0.00362972  0.23337516  1
  O  O125  1  0.13210793  0.13598451  0.00653323  1
  O  O126  1  0.11967656  0.11210715  0.25712078  1
  O  O127  1  0.10639665  0.14797157  0.51276328  1
  O  O128  1  0.14105137  0.11871756  0.75497401  1
  O  O129  1  0.15123338  0.36209625  0.00422853  1
  O  O130  1  0.09876046  0.37825901  0.25614988  1
  O  O131  1  0.15558747  0.36190126  0.50687343  1
  O  O132  1  0.08887078  0.38535613  0.75733452  1
  O  O133  1  0.12243015  0.63465294  0.00391172  1
  O  O134  1  0.13879539  0.60999421  0.24153568  1
  O  O135  1  0.12131917  0.62281689  0.51119020  1
  O  O136  1  0.14146987  0.61923340  0.75774052  1
  O  O137  1  0.13916959  0.88122220  -0.00228438  1
  O  O138  1  0.14054938  0.87365765  0.24978130  1
  O  O139  1  0.11370493  0.85275915  0.50660057  1
  O  O140  1  0.13853906  0.87098439  0.75105629  1
  O  O141  1  0.35996358  0.11833176  0.01449162  1
  O  O142  1  0.36920697  0.15461944  0.25642262  1
  O  O143  1  0.34128179  0.09071627  0.49983232  1
  O  O144  1  0.37391917  0.15334377  0.74027510  1
  O  O145  1  0.35806585  0.39261113  0.00832323  1
  O  O146  1  0.38699410  0.34779313  0.26397882  1
  O  O147  1  0.34962631  0.39661796  0.50356266  1
  O  O148  1  0.39345594  0.34581174  0.75240052  1
  O  O149  1  0.38134651  0.58651712  0.00034832  1
  O  O150  1  0.36218415  0.62185627  0.25245467  1
  O  O151  1  0.39009801  0.62083795  0.49501579  1
  O  O152  1  0.35101941  0.63993814  0.75322538  1
  O  O153  1  0.35606049  0.88650123  0.00167211  1
  O  O154  1  0.35176548  0.85322920  0.25063115  1
  O  O155  1  0.38418395  0.86627143  0.49544609  1
  O  O156  1  0.35536567  0.86088859  0.74986292  1
  O  O157  1  0.62642880  0.11827561  0.01458193  1
  O  O158  1  0.62126532  0.08739091  0.24361937  1
  O  O159  1  0.63562010  0.12744946  0.48833608  1
  O  O160  1  0.62863559  0.10739189  0.76299444  1
  O  O161  1  0.63362827  0.35140607  0.01019336  1
  O  O162  1  0.59036807  0.39209073  0.25033235  1
  O  O163  1  0.64678550  0.37903773  0.49956117  1
  O  O164  1  0.61412892  0.40609586  0.75253441  1
  O  O165  1  0.64134683  0.62547298  0.00926495  1
  O  O166  1  0.62819180  0.60156335  0.24925449  1
  O  O167  1  0.62399787  0.65423908  0.49254306  1
  O  O168  1  0.63247308  0.59936228  0.75589783  1
  O  O169  1  0.61923196  0.83004044  0.00890082  1
  O  O170  1  0.65585285  0.88888525  0.24561384  1
  O  O171  1  0.60618503  0.85345768  0.49452746  1
  O  O172  1  0.64302646  0.91507087  0.76560771  1
  O  O173  1  0.88077157  0.08702431  -0.00834422  1
  O  O174  1  0.87021726  0.11527648  0.25065005  1
  O  O175  1  0.87551388  0.10993833  0.49736252  1
  O  O176  1  0.86153464  0.14155216  0.75594037  1
  O  O177  1  0.84142940  0.38775810  -0.00264770  1
  O  O178  1  0.89235385  0.35171600  0.23552504  1
  O  O179  1  0.86475654  0.38248937  0.50852717  1
  O  O180  1  0.91726906  0.37781492  0.74346707  1
  O  O181  1  0.87520229  0.60673356  0.00633325  1
  O  O182  1  0.88076485  0.60739896  0.24570465  1
  O  O183  1  0.88506593  0.63072064  0.50337606  1
  O  O184  1  0.86530028  0.63878830  0.75479957  1
  O  O185  1  0.89716752  0.89196387  -0.00830485  1
  O  O186  1  0.84605733  0.87008904  0.25165994  1
  O  O187  1  0.90246132  0.86565461  0.49561298  1
  O  O188  1  0.86611239  0.84740580  0.75681804  1
  O  O189  1  0.00283227  0.14244957  0.14052739  1
  O  O190  1  -0.00615105  0.14481014  0.36781045  1
  O  O191  1  0.00044299  0.09704932  0.65148083  1
  O  O192  1  0.00161870  0.13041641  0.87144001  1
  O  O193  1  0.00672553  0.34155645  0.11004420  1
  O  O194  1  0.00774527  0.36768519  0.40633995  1
  O  O195  1  0.00518726  0.37137943  0.59718630  1
  O  O196  1  0.00232974  0.37111714  0.91580053  1
  O  O197  1  0.00390578  0.64568733  0.12267355  1
  O  O198  1  0.00121569  0.66189047  0.36933408  1
  O  O199  1  0.00307014  0.60609189  0.64992746  1
  O  O200  1  0.00346631  0.63063296  0.88379693  1
  O  O201  1  0.00894042  0.85601792  0.12155381  1
  O  O202  1  -0.00149662  0.84031624  0.36496743  1
  O  O203  1  0.00097508  0.88856321  0.65622323  1
  O  O204  1  0.00566961  0.86080888  0.86141660  1
  O  O205  1  0.24644079  0.10660297  0.14018356  1
  O  O206  1  0.23763627  0.12537576  0.38297080  1
  O  O207  1  0.24203529  0.13660588  0.63108332  1
  O  O208  1  0.24880019  0.13802622  0.87875138  1
  O  O209  1  0.24702938  0.38599324  0.15499864  1
  O  O210  1  0.24837955  0.39180930  0.35528260  1
  O  O211  1  0.24682570  0.36821191  0.65533442  1
  O  O212  1  0.24770270  0.37613004  0.86066535  1
  O  O213  1  0.24759105  0.58925002  0.11432183  1
  O  O214  1  0.25445261  0.58998663  0.38412313  1
  O  O215  1  0.24272639  0.60768043  0.62316053  1
  O  O216  1  0.24660269  0.60142876  0.88578054  1
  O  O217  1  0.24576418  0.91616727  0.12191663  1
  O  O218  1  0.24873871  0.89449510  0.39369556  1
  O  O219  1  0.24583077  0.86353131  0.61093021  1
  O  O220  1  0.24884998  0.89740863  0.87362201  1
  O  O221  1  0.50028092  0.13702674  0.11666422  1
  O  O222  1  0.48429180  0.14873606  0.40505773  1
  O  O223  1  0.47901682  0.14622979  0.58774927  1
  O  O224  1  0.50799224  0.11742846  0.89732596  1
  O  O225  1  0.49621451  0.34811963  0.10761051  1
  O  O226  1  0.48763518  0.33878298  0.41251387  1
  O  O227  1  0.48718344  0.35397442  0.60157382  1
  O  O228  1  0.49459822  0.37605193  0.90247535  1
  O  O229  1  0.51350417  0.64370760  0.10889235  1
  O  O230  1  0.49850096  0.64966086  0.36109586  1
  O  O231  1  0.49815195  0.62906149  0.65149098  1
  O  O232  1  0.51371309  0.63070684  0.88944722  1
  O  O233  1  0.50497184  0.83731761  0.13591493  1
  O  O234  1  0.50752336  0.86855428  0.32954897  1
  O  O235  1  0.50642561  0.87545452  0.65480748  1
  O  O236  1  0.51175321  0.85824073  0.86890685  1
  O  O237  1  0.74514049  0.10015245  0.12804944  1
  O  O238  1  0.75757249  0.08902446  0.37288383  1
  O  O239  1  0.74961527  0.11019369  0.62571688  1
  O  O240  1  0.75018910  0.11589576  0.89344307  1
  O  O241  1  0.74611147  0.38243002  0.14545375  1
  O  O242  1  0.76484857  0.41947493  0.33920712  1
  O  O243  1  0.75433685  0.38453031  0.65777479  1
  O  O244  1  0.75267945  0.36543075  0.85328324  1
  O  O245  1  0.75559645  0.59694356  0.12745039  1
  O  O246  1  0.75931692  0.60586922  0.38333579  1
  O  O247  1  0.75687974  0.63828564  0.61640427  1
  O  O248  1  0.75744995  0.61808482  0.88644072  1
  O  O249  1  0.75183716  0.88498131  0.09299743  1
  O  O250  1  0.74986332  0.88676851  0.39028886  1
  O  O251  1  0.74035735  0.86703996  0.62569276  1
  O  O252  1  0.75900510  0.88249233  0.90357200  1
  O  O253  1  0.09573537  0.00440577  0.12770511  1
  O  O254  1  0.11650144  0.01212023  0.40370426  1
  O  O255  1  0.13421490  -0.00229848  0.61143219  1
  O  O256  1  0.11825716  0.00223132  0.88332590  1
  O  O257  1  0.14114298  0.24860313  0.14796871  1
  O  O258  1  0.13974427  0.25544428  0.37528582  1
  O  O259  1  0.11606953  0.24955984  0.65515166  1
  O  O260  1  0.11387493  0.25392013  0.86095949  1
  O  O261  1  0.10563570  0.49132857  0.11287320  1
  O  O262  1  0.11124900  0.49506253  0.40275907  1
  O  O263  1  0.11919480  0.48841766  0.62333264  1
  O  O264  1  0.11323514  0.49690686  0.89261269  1
  O  O265  1  0.14104324  0.75834768  0.11588088  1
  O  O266  1  0.14985533  0.74775843  0.35794144  1
  O  O267  1  0.10602044  0.74696660  0.63777894  1
  O  O268  1  0.14608486  0.74982076  0.87740884  1
  O  O269  1  0.38885770  0.00991563  0.15866296  1
  O  O270  1  0.36511707  0.01543994  0.35541363  1
  O  O271  1  0.37827142  0.00488575  0.64924671  1
  O  O272  1  0.38429247  0.00210977  0.84672150  1
  O  O273  1  0.34677950  0.25124495  0.12193803  1
  O  O274  1  0.34733641  0.25127482  0.40777440  1
  O  O275  1  0.36421041  0.25134493  0.60424332  1
  O  O276  1  0.37982881  0.25356002  0.90533842  1
  O  O277  1  0.39516747  0.48718841  0.15347393  1
  O  O278  1  0.40502805  0.49180739  0.36501020  1
  O  O279  1  0.37735379  0.49223522  0.65133152  1
  O  O280  1  0.37592292  0.49224624  0.84953396  1
  O  O281  1  0.36492757  0.74537361  0.09691012  1
  O  O282  1  0.35504161  0.74146591  0.38058844  1
  O  O283  1  0.39341893  0.74992198  0.61766098  1
  O  O284  1  0.34896348  0.74913878  0.88862318  1
  O  O285  1  0.59772406  -0.02100545  0.11842503  1
  O  O286  1  0.60138618  -0.01000523  0.37817322  1
  O  O287  1  0.61575471  -0.00993172  0.61735205  1
  O  O288  1  0.62151975  -0.01262627  0.91953849  1
  O  O289  1  0.63560244  0.24798904  0.16121453  1
  O  O290  1  0.64424944  0.24723587  0.36439957  1
  O  O291  1  0.62661983  0.25302556  0.62371231  1
  O  O292  1  0.61806293  0.24350923  0.87651078  1
  O  O293  1  0.60020284  0.49118728  0.12054902  1
  O  O294  1  0.61544738  0.51562027  0.38697552  1
  O  O295  1  0.59425131  0.50096699  0.61094257  1
  O  O296  1  0.63858437  0.50291110  0.89714991  1
  O  O297  1  0.66889217  0.74577766  0.15874313  1
  O  O298  1  0.65302271  0.75177607  0.35231597  1
  O  O299  1  0.61572143  0.75335990  0.65247997  1
  O  O300  1  0.65184539  0.74957558  0.85842620  1
  O  O301  1  0.90698082  -0.00171900  0.12956266  1
  O  O302  1  0.90184955  -0.01115791  0.37888727  1
  O  O303  1  0.86566878  -0.00737766  0.62792933  1
  O  O304  1  0.89485400  -0.00506363  0.83686925  1
  O  O305  1  0.86624368  0.25155657  0.07987524  1
  O  O306  1  0.84891079  0.24103735  0.38558855  1
  O  O307  1  0.87686839  0.25462819  0.61830182  1
  O  O308  1  0.88228944  0.24445064  0.89678266  1
  O  O309  1  0.89777191  0.48580198  0.13084209  1
  O  O310  1  0.90986782  0.51286688  0.37363521  1
  O  O311  1  0.88476178  0.49924118  0.63305891  1
  O  O312  1  0.88855929  0.50706520  0.87569579  1
  O  O313  1  0.86130804  0.74186056  0.10947508  1
  O  O314  1  0.84714726  0.74738679  0.36539325  1
  O  O315  1  0.88737477  0.74395906  0.63350799  1
  O  O316  1  0.87128446  0.74950534  0.89805059  1
