# generated using pymatgen
data_Mg32Ti42(Bi17O64)3
_symmetry_space_group_name_H-M   'P 1'
_cell_length_a   15.99273137
_cell_length_b   15.95918952
_cell_length_c   15.94333895
_cell_angle_alpha   90.04948369
_cell_angle_beta   89.86935547
_cell_angle_gamma   90.14176223
_symmetry_Int_Tables_number   1
_chemical_formula_structural   Mg32Ti42(Bi17O64)3
_chemical_formula_sum   'Mg32 Ti42 Bi51 O192'
_cell_volume   4069.21030399
_cell_formula_units_Z   1
loop_
 _symmetry_equiv_pos_site_id
 _symmetry_equiv_pos_as_xyz
  1  'x, y, z'
loop_
 _atom_site_type_symbol
 _atom_site_label
 _atom_site_symmetry_multiplicity
 _atom_site_fract_x
 _atom_site_fract_y
 _atom_site_fract_z
 _atom_site_occupancy
  Mg  Mg0  1  0.61800188  0.86533061  0.37134726  1
  Mg  Mg1  1  0.87460980  0.88202400  0.11956201  1
  Mg  Mg2  1  0.61713696  0.87649557  0.87846666  1
  Mg  Mg3  1  0.63245262  0.63283125  0.87065732  1
  Mg  Mg4  1  0.61324567  0.38815814  0.62145409  1
  Mg  Mg5  1  0.12201577  0.62216708  0.37012213  1
  Mg  Mg6  1  0.88335234  0.86878945  0.36853006  1
  Mg  Mg7  1  0.37592569  0.38328274  0.89064577  1
  Mg  Mg8  1  0.62706820  0.36989914  0.87661370  1
  Mg  Mg9  1  0.61752108  0.11609722  0.37650178  1
  Mg  Mg10  1  0.12448879  0.13090070  0.37231181  1
  Mg  Mg11  1  0.62249339  0.62167977  0.13567709  1
  Mg  Mg12  1  0.87826443  0.62736258  0.12325890  1
  Mg  Mg13  1  0.86719898  0.37526172  0.12371346  1
  Mg  Mg14  1  0.36652338  0.39102246  0.62841367  1
  Mg  Mg15  1  0.61745239  0.86517915  0.12582923  1
  Mg  Mg16  1  0.87002481  0.12336268  0.37728236  1
  Mg  Mg17  1  0.88871570  0.37764653  0.62839072  1
  Mg  Mg18  1  0.36242896  0.61410429  0.87710062  1
  Mg  Mg19  1  0.71014046  0.72802822  0.02388803  1
  Mg  Mg20  1  -0.02004548  0.77929230  0.21155389  1
  Mg  Mg21  1  0.53532093  -0.02362505  0.48585893  1
  Mg  Mg22  1  0.49053113  0.69732668  0.46843089  1
  Mg  Mg23  1  0.50565672  0.53291767  0.29137169  1
  Mg  Mg24  1  0.48884174  0.07467032  0.76261804  1
  Mg  Mg25  1  0.53381157  0.55310541  -0.00509882  1
  Mg  Mg26  1  0.55771582  0.47770508  0.45694233  1
  Mg  Mg27  1  0.24017748  0.42747756  0.79792035  1
  Mg  Mg28  1  0.67264258  0.29085513  0.46196252  1
  Mg  Mg29  1  0.75476796  0.25802043  0.63534248  1
  Mg  Mg30  1  0.67227323  0.76967058  0.51047650  1
  Mg  Mg31  1  0.75838695  0.46617791  0.49650236  1
  Ti  Ti32  1  0.64210168  0.63165501  0.39273354  1
  Ti  Ti33  1  0.12177507  0.86622606  0.36810407  1
  Ti  Ti34  1  0.36540833  0.62923853  0.36950137  1
  Ti  Ti35  1  0.11457685  0.63370918  0.12476865  1
  Ti  Ti36  1  0.12539060  0.36449433  0.62289711  1
  Ti  Ti37  1  0.11327927  0.37901012  0.37705697  1
  Ti  Ti38  1  0.86390873  0.12665639  0.11978759  1
  Ti  Ti39  1  0.63475898  0.12525638  0.87089589  1
  Ti  Ti40  1  0.86209981  0.37137748  0.87228192  1
  Ti  Ti41  1  0.36939223  0.62340956  0.11257116  1
  Ti  Ti42  1  0.12533673  0.37183985  0.12637078  1
  Ti  Ti43  1  0.12855523  0.62006630  0.62824684  1
  Ti  Ti44  1  0.37623638  0.39535025  0.12042582  1
  Ti  Ti45  1  0.38163976  0.88063667  0.86485724  1
  Ti  Ti46  1  0.11564811  0.12341562  0.87116316  1
  Ti  Ti47  1  0.60342415  0.88894791  0.62682225  1
  Ti  Ti48  1  0.37004428  0.87145860  0.38002915  1
  Ti  Ti49  1  0.87180451  0.11975262  0.63323291  1
  Ti  Ti50  1  0.13384089  0.13808894  0.12583911  1
  Ti  Ti51  1  0.61327744  0.38434319  0.11865892  1
  Ti  Ti52  1  0.85631337  0.62979262  0.62770543  1
  Ti  Ti53  1  0.61712604  0.61535114  0.61500093  1
  Ti  Ti54  1  0.12598036  0.87754912  0.11971124  1
  Ti  Ti55  1  0.37726900  0.87538219  0.61223754  1
  Ti  Ti56  1  0.86741707  0.62351001  0.87569948  1
  Ti  Ti57  1  0.86982212  0.12906484  0.87049743  1
  Ti  Ti58  1  0.38140277  0.13047204  0.13863862  1
  Ti  Ti59  1  0.87150557  0.88128428  0.87431609  1
  Ti  Ti60  1  0.37603699  0.40179094  0.37654779  1
  Ti  Ti61  1  0.38062187  0.11702749  0.61476088  1
  Ti  Ti62  1  0.62047519  0.11722631  0.60776684  1
  Ti  Ti63  1  0.87793420  0.86983754  0.62171565  1
  Ti  Ti64  1  0.37211602  0.87586417  0.12200959  1
  Ti  Ti65  1  0.13145223  0.87021488  0.61278621  1
  Ti  Ti66  1  0.38081394  0.62002265  0.61136148  1
  Ti  Ti67  1  0.12169484  0.12355119  0.61982210  1
  Ti  Ti68  1  0.87135678  0.37080938  0.38406242  1
  Ti  Ti69  1  0.87166030  0.62630034  0.36650250  1
  Ti  Ti70  1  0.61489280  0.11714526  0.12719602  1
  Ti  Ti71  1  0.12546983  0.87553710  0.86656742  1
  Ti  Ti72  1  0.38073082  0.12195612  0.37179550  1
  Ti  Ti73  1  0.12886993  0.63167766  0.88042685  1
  Bi  Bi74  1  0.47840317  0.28824800  0.25863589  1
  Bi  Bi75  1  0.23328913  0.73225267  0.49355492  1
  Bi  Bi76  1  0.24613858  0.76318126  -0.01770729  1
  Bi  Bi77  1  0.75240201  0.47246613  0.72200768  1
  Bi  Bi78  1  0.73674776  0.50608143  0.01244881  1
  Bi  Bi79  1  -0.01799950  0.76519197  -0.01201491  1
  Bi  Bi80  1  0.47772904  0.01369864  -0.01919425  1
  Bi  Bi81  1  -0.02150904  0.49763967  -0.01001955  1
  Bi  Bi82  1  0.24173036  0.01865571  -0.01771677  1
  Bi  Bi83  1  0.73275126  -0.00698243  0.73821353  1
  Bi  Bi84  1  0.49515673  0.73964131  -0.00186634  1
  Bi  Bi85  1  -0.01075287  0.01325011  -0.01181726  1
  Bi  Bi86  1  0.23781331  0.01518773  0.47490667  1
  Bi  Bi87  1  0.23895368  0.01295044  0.24175779  1
  Bi  Bi88  1  0.75700332  0.77437617  0.22693921  1
  Bi  Bi89  1  0.52292178  0.50117760  0.78870582  1
  Bi  Bi90  1  -0.01171040  0.73921047  0.47438815  1
  Bi  Bi91  1  0.26550309  0.72805833  0.74241223  1
  Bi  Bi92  1  0.76391088  -0.02255662  0.47777847  1
  Bi  Bi93  1  -0.03046955  0.51735489  0.50705787  1
  Bi  Bi94  1  0.03018267  0.28025058  0.77004067  1
  Bi  Bi95  1  0.50405607  -0.02063347  0.26925061  1
  Bi  Bi96  1  0.72533960  -0.02910131  0.01115400  1
  Bi  Bi97  1  0.49367043  0.27169563  0.52695569  1
  Bi  Bi98  1  0.22322108  0.47735102  -0.02074803  1
  Bi  Bi99  1  0.03298958  0.50095650  0.76486975  1
  Bi  Bi100  1  0.26601552  -0.01252983  0.73116022  1
  Bi  Bi101  1  -0.02530431  0.24281869  0.24265949  1
  Bi  Bi102  1  0.00664844  -0.01442057  0.72197069  1
  Bi  Bi103  1  -0.01809563  0.00892855  0.23632131  1
  Bi  Bi104  1  0.27628947  0.26013700  0.50720156  1
  Bi  Bi105  1  0.71805417  0.25298376  0.01055640  1
  Bi  Bi106  1  0.22353542  0.50781470  0.23458184  1
  Bi  Bi107  1  -0.00663892  0.25813563  -0.00535025  1
  Bi  Bi108  1  0.48439874  0.75493861  0.23566732  1
  Bi  Bi109  1  0.71331932  0.25609548  0.25929682  1
  Bi  Bi110  1  0.46392836  0.28344185  0.75542250  1
  Bi  Bi111  1  -0.02089806  0.48527041  0.23638836  1
  Bi  Bi112  1  0.74057407  0.00635065  0.27371616  1
  Bi  Bi113  1  -0.00749606  0.01233978  0.47487869  1
  Bi  Bi114  1  0.71532514  0.77029228  0.74695871  1
  Bi  Bi115  1  0.26830606  0.21123728  0.75479435  1
  Bi  Bi116  1  0.27808942  0.24673128  -0.01832941  1
  Bi  Bi117  1  0.48800876  0.72038487  0.75848414  1
  Bi  Bi118  1  0.22399470  0.49125071  0.50165241  1
  Bi  Bi119  1  -0.02803539  0.24399499  0.50645557  1
  Bi  Bi120  1  0.72475277  0.49600153  0.27784599  1
  Bi  Bi121  1  0.23578973  0.75421334  0.23805046  1
  Bi  Bi122  1  0.49405637  0.23596075  -0.03340651  1
  Bi  Bi123  1  -0.01888800  0.73736833  0.75035205  1
  Bi  Bi124  1  0.24102040  0.26236645  0.28384383  1
  O  O125  1  0.11283830  0.10345544  0.00915100  1
  O  O126  1  0.15740151  0.13141290  0.24571761  1
  O  O127  1  0.11702246  0.10588092  0.50427210  1
  O  O128  1  0.13770039  0.14380529  0.75668730  1
  O  O129  1  0.09907523  0.39410476  0.01735652  1
  O  O130  1  0.15575145  0.37312908  0.25343064  1
  O  O131  1  0.11178106  0.39851651  0.49742333  1
  O  O132  1  0.15361772  0.35080117  0.73971327  1
  O  O133  1  0.12035061  0.60934801  -0.00194909  1
  O  O134  1  0.14017077  0.63008699  0.24402622  1
  O  O135  1  0.15218919  0.61497700  0.50170834  1
  O  O136  1  0.13908921  0.65150645  0.74390616  1
  O  O137  1  0.15718889  0.88831379  0.00847602  1
  O  O138  1  0.10479013  0.83793225  0.25380946  1
  O  O139  1  0.15401199  0.89097024  0.50167742  1
  O  O140  1  0.10706913  0.86957225  0.75442096  1
  O  O141  1  0.39899673  0.13667383  0.01982644  1
  O  O142  1  0.35689117  0.09861188  0.25393392  1
  O  O143  1  0.38499327  0.12483398  0.49891006  1
  O  O144  1  0.36540280  0.10805862  0.74410581  1
  O  O145  1  0.38695601  0.34738912  0.01564257  1
  O  O146  1  0.36479370  0.37940649  0.25481127  1
  O  O147  1  0.38965226  0.35647214  0.49249568  1
  O  O148  1  0.35125640  0.36725435  0.75323812  1
  O  O149  1  0.36604607  0.65909149  0.00187200  1
  O  O150  1  0.40482178  0.60033228  0.26058425  1
  O  O151  1  0.37165905  0.65226548  0.49316783  1
  O  O152  1  0.37765932  0.62979526  0.73879494  1
  O  O153  1  0.35485942  0.85044174  0.00778328  1
  O  O154  1  0.40020903  0.86967104  0.25420169  1
  O  O155  1  0.35803450  0.85711510  0.50066029  1
  O  O156  1  0.38504855  0.91256851  0.75421887  1
  O  O157  1  0.61337189  0.15170542  0.00910657  1
  O  O158  1  0.66054257  0.12112045  0.23925551  1
  O  O159  1  0.59617046  0.08765970  0.50206740  1
  O  O160  1  0.62328832  0.09688564  0.75808268  1
  O  O161  1  0.60905663  0.34210354  0.00613506  1
  O  O162  1  0.65020755  0.38746179  0.24032044  1
  O  O163  1  0.58465154  0.36655992  0.49795526  1
  O  O164  1  0.63526568  0.40695692  0.74780543  1
  O  O165  1  0.61388935  0.65531162  -0.00661508  1
  O  O166  1  0.61714545  0.58391386  0.25987954  1
  O  O167  1  0.66429842  0.64694633  0.50692322  1
  O  O168  1  0.60818334  0.60678579  0.73773610  1
  O  O169  1  0.66113710  0.84886724  -0.00003597  1
  O  O170  1  0.58253704  0.86124978  0.25015032  1
  O  O171  1  0.63315047  0.88819762  0.50481687  1
  O  O172  1  0.62718339  0.89549314  0.74644754  1
  O  O173  1  0.90829327  0.13805189  0.00391286  1
  O  O174  1  0.87461450  0.10959459  0.24508644  1
  O  O175  1  0.89648470  0.12154165  0.51082780  1
  O  O176  1  0.86601553  0.12242557  0.75797654  1
  O  O177  1  0.90631436  0.37173244  -0.00536670  1
  O  O178  1  0.86422484  0.39410000  0.26404231  1
  O  O179  1  0.91510709  0.37080790  0.50242257  1
  O  O180  1  0.84228738  0.37504465  0.75181916  1
  O  O181  1  0.90354506  0.62756107  -0.00955276  1
  O  O182  1  0.88165424  0.59229866  0.25794843  1
  O  O183  1  0.88146446  0.64068164  0.50950850  1
  O  O184  1  0.88650851  0.62239761  0.74926523  1
  O  O185  1  0.86790672  0.85359492  -0.00736076  1
  O  O186  1  0.91231992  0.88733895  0.24605565  1
  O  O187  1  0.86372110  0.86205355  0.50978034  1
  O  O188  1  0.91610565  0.87429191  0.75858354  1
  O  O189  1  0.01578925  0.14463155  0.15008125  1
  O  O190  1  0.00317651  0.09982301  0.36828342  1
  O  O191  1  0.00458274  0.11524574  0.64426991  1
  O  O192  1  0.00097692  0.09315325  0.86939954  1
  O  O193  1  0.00857342  0.35589988  0.16159167  1
  O  O194  1  0.00255066  0.38971191  0.35630236  1
  O  O195  1  0.01218405  0.38801229  0.65513617  1
  O  O196  1  -0.00434814  0.39253788  0.84181582  1
  O  O197  1  0.00716752  0.66392953  0.14015644  1
  O  O198  1  -0.00163995  0.61223227  0.40043352  1
  O  O199  1  0.01388450  0.61484016  0.62219133  1
  O  O200  1  0.01206760  0.61090819  0.85612026  1
  O  O201  1  0.01176148  0.85324362  0.10700831  1
  O  O202  1  0.01213241  0.88426319  0.40056736  1
  O  O203  1  0.00915283  0.89334528  0.61515103  1
  O  O204  1  0.00968208  0.88677419  0.90565284  1
  O  O205  1  0.25706980  0.10538645  0.11355307  1
  O  O206  1  0.25244426  0.13517196  0.39398182  1
  O  O207  1  0.24553074  0.14206513  0.62553476  1
  O  O208  1  0.23664780  0.13985458  0.89573151  1
  O  O209  1  0.25281549  0.40021355  0.11654858  1
  O  O210  1  0.25685113  0.35426789  0.39434888  1
  O  O211  1  0.24641763  0.36597884  0.59186488  1
  O  O212  1  0.24298188  0.35784213  0.90812470  1
  O  O213  1  0.25506861  0.59866649  0.12343674  1
  O  O214  1  0.25668202  0.65477336  0.36262195  1
  O  O215  1  0.26114689  0.65439196  0.62057952  1
  O  O216  1  0.24552752  0.66107310  0.87228142  1
  O  O217  1  0.25267861  0.87795619  0.15786526  1
  O  O218  1  0.25397817  0.84152746  0.35891564  1
  O  O219  1  0.25148377  0.86983306  0.64957421  1
  O  O220  1  0.24966193  0.85487635  0.86667384  1
  O  O221  1  0.50483832  0.12408233  0.15519868  1
  O  O222  1  0.49087185  0.09718188  0.36143367  1
  O  O223  1  0.50128628  0.11622179  0.64319428  1
  O  O224  1  0.50819630  0.10957954  0.88059312  1
  O  O225  1  0.50007559  0.37564647  0.14850794  1
  O  O226  1  0.49060344  0.42138045  0.35331447  1
  O  O227  1  0.49248635  0.35713283  0.64003221  1
  O  O228  1  0.49685001  0.37369789  0.85579542  1
  O  O229  1  0.49579517  0.64219826  0.10283700  1
  O  O230  1  0.52312628  0.59030379  0.40560683  1
  O  O231  1  0.50506033  0.64657882  0.59203775  1
  O  O232  1  0.48902885  0.61151171  0.87774394  1
  O  O233  1  0.49121819  0.83437051  0.10874673  1
  O  O234  1  0.48742002  0.91006488  0.39242117  1
  O  O235  1  0.49532488  0.91517911  0.59973040  1
  O  O236  1  0.49331608  0.89460551  0.89773338  1
  O  O237  1  0.75535420  0.11824744  0.09713995  1
  O  O238  1  0.74743063  0.09207142  0.38847678  1
  O  O239  1  0.75426365  0.12946587  0.62910909  1
  O  O240  1  0.75626565  0.13991125  0.89434013  1
  O  O241  1  0.74586931  0.39606737  0.09616233  1
  O  O242  1  0.76381590  0.36093002  0.42103963  1
  O  O243  1  0.74395466  0.38373398  0.60833085  1
  O  O244  1  0.75384894  0.35894872  0.90127499  1
  O  O245  1  0.75260078  0.61019950  0.09668075  1
  O  O246  1  0.75595136  0.64878184  0.35928015  1
  O  O247  1  0.74616343  0.63767466  0.64455100  1
  O  O248  1  0.75801613  0.64542170  0.88817620  1
  O  O249  1  0.75022953  0.89119836  0.15430638  1
  O  O250  1  0.75069137  0.88634242  0.37084552  1
  O  O251  1  0.76475209  0.87474200  0.65440686  1
  O  O252  1  0.76142401  0.87148471  0.84361950  1
  O  O253  1  0.11776239  -0.00912434  0.15080162  1
  O  O254  1  0.15367768  -0.01159233  0.36293978  1
  O  O255  1  0.13655266  0.00349011  0.64612644  1
  O  O256  1  0.14774361  -0.00238222  0.87261177  1
  O  O257  1  0.14746259  0.25272759  0.11271031  1
  O  O258  1  0.12110259  0.25826609  0.36791490  1
  O  O259  1  0.10857347  0.25059797  0.60458612  1
  O  O260  1  0.08841702  0.23870884  0.89133529  1
  O  O261  1  0.11075123  0.50089243  0.15042919  1
  O  O262  1  0.15182488  0.49633794  0.36783226  1
  O  O263  1  0.15010490  0.50404939  0.63242812  1
  O  O264  1  0.14929911  0.51016852  0.85033541  1
  O  O265  1  0.15556895  0.74592346  0.11219173  1
  O  O266  1  0.11451290  0.74887005  0.40330335  1
  O  O267  1  0.12433892  0.75528275  0.60015151  1
  O  O268  1  0.10903185  0.75439571  0.89838492  1
  O  O269  1  0.39091176  -0.01242330  0.11547965  1
  O  O270  1  0.33935522  -0.01222456  0.37932008  1
  O  O271  1  0.34468637  0.00174851  0.61567260  1
  O  O272  1  0.36113304  -0.00558547  0.90760243  1
  O  O273  1  0.37906650  0.24281405  0.16197048  1
  O  O274  1  0.38620164  0.24050731  0.35839895  1
  O  O275  1  0.37256855  0.24018800  0.62594309  1
  O  O276  1  0.37468807  0.24830290  0.88041135  1
  O  O277  1  0.39672819  0.50272321  0.09622073  1
  O  O278  1  0.34694965  0.50845996  0.39422766  1
  O  O279  1  0.37002222  0.51165087  0.60242995  1
  O  O280  1  0.32584798  0.49558113  0.88164949  1
  O  O281  1  0.35860658  0.73744036  0.15764029  1
  O  O282  1  0.41552254  0.74398119  0.36803114  1
  O  O283  1  0.39406188  0.76994780  0.64920934  1
  O  O284  1  0.39366054  0.76052045  0.85113019  1
  O  O285  1  0.61913978  0.00053465  0.10135940  1
  O  O286  1  0.62163826  -0.00795764  0.34498346  1
  O  O287  1  0.65416011  0.00021341  0.62518478  1
  O  O288  1  0.64221181  0.00332254  0.90722059  1
  O  O289  1  0.64164562  0.25376654  0.14183251  1
  O  O290  1  0.62435292  0.24048729  0.36046435  1
  O  O291  1  0.64124204  0.23549407  0.58378876  1
  O  O292  1  0.61379730  0.24064292  0.86866125  1
  O  O293  1  0.61114784  0.49943576  0.08339043  1
  O  O294  1  0.67181620  0.50783673  0.40698592  1
  O  O295  1  0.61325928  0.50802362  0.58349141  1
  O  O296  1  0.60942857  0.50187429  0.89535499  1
  O  O297  1  0.65918803  0.74272428  0.14151896  1
  O  O298  1  0.60017247  0.74476123  0.40495722  1
  O  O299  1  0.62578392  0.77117132  0.62966597  1
  O  O300  1  0.61051464  0.75467843  0.83963860  1
  O  O301  1  0.90303018  0.00835713  0.11360412  1
  O  O302  1  0.87864254  -0.00693871  0.39853257  1
  O  O303  1  0.87874948  -0.00216411  0.63931860  1
  O  O304  1  0.86959219  -0.00031218  0.89745332  1
  O  O305  1  0.87201988  0.24767243  0.14502061  1
  O  O306  1  0.89268804  0.25094370  0.38219741  1
  O  O307  1  0.87917460  0.24714796  0.61968388  1
  O  O308  1  0.90614061  0.25039891  0.87717472  1
  O  O309  1  0.91177913  0.49826952  0.11384453  1
  O  O310  1  0.86012816  0.50209323  0.41446862  1
  O  O311  1  0.86069741  0.50752485  0.60776999  1
  O  O312  1  0.86926898  0.49767981  0.88516647  1
  O  O313  1  0.86446727  0.75188808  0.14951896  1
  O  O314  1  0.90775618  0.74299080  0.35931341  1
  O  O315  1  0.89130159  0.75110876  0.64301395  1
  O  O316  1  0.90171977  0.74794165  0.86529426  1
