# generated using pymatgen
data_Mg32Ti42(Bi17O64)3
_symmetry_space_group_name_H-M   'P 1'
_cell_length_a   15.97622991
_cell_length_b   15.96528151
_cell_length_c   15.96858250
_cell_angle_alpha   90.01415162
_cell_angle_beta   89.87248777
_cell_angle_gamma   89.83998321
_symmetry_Int_Tables_number   1
_chemical_formula_structural   Mg32Ti42(Bi17O64)3
_chemical_formula_sum   'Mg32 Ti42 Bi51 O192'
_cell_volume   4073.00052190
_cell_formula_units_Z   1
loop_
 _symmetry_equiv_pos_site_id
 _symmetry_equiv_pos_as_xyz
  1  'x, y, z'
loop_
 _atom_site_type_symbol
 _atom_site_label
 _atom_site_symmetry_multiplicity
 _atom_site_fract_x
 _atom_site_fract_y
 _atom_site_fract_z
 _atom_site_occupancy
  Mg  Mg0  1  0.36355377  0.88119704  0.12205827  1
  Mg  Mg1  1  0.12749979  0.62010759  0.88379182  1
  Mg  Mg2  1  0.12421051  0.13319212  0.62434530  1
  Mg  Mg3  1  0.11006594  0.87979408  0.86702755  1
  Mg  Mg4  1  0.11638873  0.13930283  0.37067362  1
  Mg  Mg5  1  0.11984382  0.63273396  0.62748040  1
  Mg  Mg6  1  0.88046231  0.37488137  0.62585052  1
  Mg  Mg7  1  0.37697480  0.37537760  0.12685664  1
  Mg  Mg8  1  0.37554098  0.63033900  0.63273561  1
  Mg  Mg9  1  0.36941057  0.62802220  0.13720575  1
  Mg  Mg10  1  0.62982349  0.37294324  0.61440110  1
  Mg  Mg11  1  0.86788565  0.87775555  0.37138935  1
  Mg  Mg12  1  0.37687890  0.62822868  0.37744475  1
  Mg  Mg13  1  0.37133017  0.37777742  0.87812286  1
  Mg  Mg14  1  0.12541751  0.61926450  0.37316348  1
  Mg  Mg15  1  0.38618080  0.11869273  0.37265827  1
  Mg  Mg16  1  0.87290430  0.62147214  0.38317195  1
  Mg  Mg17  1  0.37012619  0.37221980  0.62357250  1
  Mg  Mg18  1  0.11779045  0.63737486  0.12563229  1
  Mg  Mg19  1  0.48091429  0.76023948  0.18532866  1
  Mg  Mg20  1  0.49140807  0.56003549  0.04755401  1
  Mg  Mg21  1  0.77373268  0.28714992  0.49659085  1
  Mg  Mg22  1  0.05072636  0.51326209  0.24458604  1
  Mg  Mg23  1  0.50412459  0.82026436  -0.00395943  1
  Mg  Mg24  1  0.04079737  0.75343461  -0.03996863  1
  Mg  Mg25  1  0.02771994  0.00822240  0.70112964  1
  Mg  Mg26  1  0.74835137  0.75161591  0.49498038  1
  Mg  Mg27  1  0.08390775  0.80265387  0.29217112  1
  Mg  Mg28  1  0.23353274  0.70117295  0.23767427  1
  Mg  Mg29  1  0.77833137  0.49233777  0.53687759  1
  Mg  Mg30  1  -0.02419683  -0.05377320  0.24626450  1
  Mg  Mg31  1  0.19958980  -0.04615630  -0.00554831  1
  Ti  Ti32  1  0.13497472  0.37216313  0.11837899  1
  Ti  Ti33  1  0.38221144  0.11817600  0.13389129  1
  Ti  Ti34  1  0.63385152  0.86466059  0.11371751  1
  Ti  Ti35  1  0.10798375  0.12552923  0.88230895  1
  Ti  Ti36  1  0.62025283  0.38482676  0.86479610  1
  Ti  Ti37  1  0.87673927  0.11866556  0.61746454  1
  Ti  Ti38  1  0.62891918  0.87677643  0.86629147  1
  Ti  Ti39  1  0.86928876  0.13714780  0.36200936  1
  Ti  Ti40  1  0.88017590  0.35871025  0.87061815  1
  Ti  Ti41  1  0.87630907  0.11879983  0.86569823  1
  Ti  Ti42  1  0.61363281  0.61785259  0.89395718  1
  Ti  Ti43  1  0.37573826  0.61743857  0.87891160  1
  Ti  Ti44  1  0.63326963  0.13588650  0.86392179  1
  Ti  Ti45  1  0.88867565  0.62029309  0.13636361  1
  Ti  Ti46  1  0.13554636  0.12269416  0.11992220  1
  Ti  Ti47  1  0.38510950  0.87481001  0.36297081  1
  Ti  Ti48  1  0.36509089  0.37939909  0.37473957  1
  Ti  Ti49  1  0.87634124  0.86369204  0.13002849  1
  Ti  Ti50  1  0.63064812  0.63557743  0.13280866  1
  Ti  Ti51  1  0.62263871  0.13065959  0.37279988  1
  Ti  Ti52  1  0.61816199  0.39206456  0.12458062  1
  Ti  Ti53  1  0.87391645  0.38332952  0.12384355  1
  Ti  Ti54  1  0.63247560  0.86397805  0.61816763  1
  Ti  Ti55  1  0.87270843  0.88180070  0.87724203  1
  Ti  Ti56  1  0.35654764  0.87777695  0.63064219  1
  Ti  Ti57  1  0.62983964  0.38322090  0.38458532  1
  Ti  Ti58  1  0.62924136  0.62921758  0.63006755  1
  Ti  Ti59  1  0.87523630  0.38693425  0.37413961  1
  Ti  Ti60  1  0.37362974  0.12425296  0.61704748  1
  Ti  Ti61  1  0.87884194  0.88459251  0.63202646  1
  Ti  Ti62  1  0.62695382  0.12640106  0.13186632  1
  Ti  Ti63  1  0.11671166  0.86399163  0.63195537  1
  Ti  Ti64  1  0.86609058  0.63949500  0.61411577  1
  Ti  Ti65  1  0.12227069  0.37782270  0.87785827  1
  Ti  Ti66  1  0.12462933  0.86247047  0.12051138  1
  Ti  Ti67  1  0.12331884  0.37358496  0.61322787  1
  Ti  Ti68  1  0.12222327  0.37951833  0.37822560  1
  Ti  Ti69  1  0.62282910  0.12687033  0.61085216  1
  Ti  Ti70  1  0.87126161  0.13487415  0.12594980  1
  Ti  Ti71  1  0.63317455  0.63206900  0.39315530  1
  Ti  Ti72  1  0.62590841  0.86918845  0.37065837  1
  Ti  Ti73  1  0.36926199  0.87212396  0.87304570  1
  Bi  Bi74  1  -0.03178239  0.53856070  0.77278853  1
  Bi  Bi75  1  0.79239624  0.73969228  0.00336262  1
  Bi  Bi76  1  0.48665809  0.26970082  0.50542239  1
  Bi  Bi77  1  0.01401872  0.25620500  0.01329894  1
  Bi  Bi78  1  0.72622909  -0.00011263  0.73169246  1
  Bi  Bi79  1  -0.02026599  0.00448474  0.46322065  1
  Bi  Bi80  1  0.25385826  0.22013779  0.49352865  1
  Bi  Bi81  1  0.73855733  0.28022087  0.24608327  1
  Bi  Bi82  1  0.73930971  0.02271594  -0.00142288  1
  Bi  Bi83  1  0.21353275  0.49698168  0.72835148  1
  Bi  Bi84  1  0.76155823  0.72601392  0.78107213  1
  Bi  Bi85  1  0.20708010  -0.00596823  0.28107973  1
  Bi  Bi86  1  0.24408619  0.24467453  0.77139480  1
  Bi  Bi87  1  0.01147967  0.27548152  0.25154547  1
  Bi  Bi88  1  0.74129725  0.49278970  0.72465637  1
  Bi  Bi89  1  0.48160119  0.51276657  0.51565176  1
  Bi  Bi90  1  0.23350181  0.71963497  0.76824686  1
  Bi  Bi91  1  0.46317276  0.24535288  0.76316363  1
  Bi  Bi92  1  0.51040369  0.73551833  0.77388300  1
  Bi  Bi93  1  0.48943477  0.28016575  0.25373503  1
  Bi  Bi94  1  0.76383035  0.51433079  0.25924267  1
  Bi  Bi95  1  0.00903058  0.54160545  0.49967795  1
  Bi  Bi96  1  0.72889803  -0.00356605  0.48683514  1
  Bi  Bi97  1  0.78182025  0.51396691  -0.03594335  1
  Bi  Bi98  1  0.25393530  0.52904661  0.51085368  1
  Bi  Bi99  1  0.50279433  0.27395319  0.00135726  1
  Bi  Bi100  1  0.74755670  0.27844824  -0.01180324  1
  Bi  Bi101  1  0.47248726  0.49398600  0.74989471  1
  Bi  Bi102  1  0.01785317  0.52337635  0.00835630  1
  Bi  Bi103  1  0.26967417  0.22024207  0.25585200  1
  Bi  Bi104  1  0.23859311  0.77299915  0.45599637  1
  Bi  Bi105  1  0.48995691  0.03892504  -0.02859443  1
  Bi  Bi106  1  0.46507902  0.76048590  0.51072222  1
  Bi  Bi107  1  0.28928726  0.74501819  0.01374922  1
  Bi  Bi108  1  0.26135973  0.51186220  0.26701362  1
  Bi  Bi109  1  0.47288258  0.00520074  0.74619239  1
  Bi  Bi110  1  0.21905804  0.00953404  0.78139472  1
  Bi  Bi111  1  -0.02760823  0.77158792  0.47968360  1
  Bi  Bi112  1  0.50695552  -0.01972343  0.21259876  1
  Bi  Bi113  1  0.00222577  0.24252574  0.50025180  1
  Bi  Bi114  1  0.48761665  -0.01817536  0.49378324  1
  Bi  Bi115  1  0.28586902  0.22497818  -0.01937357  1
  Bi  Bi116  1  0.51479298  0.53332879  0.26746699  1
  Bi  Bi117  1  -0.01768505  0.00229663  0.03777111  1
  Bi  Bi118  1  0.75769897  0.24774450  0.71273212  1
  Bi  Bi119  1  0.74610830  0.00102253  0.24994653  1
  Bi  Bi120  1  0.20742095  -0.01398988  0.50489102  1
  Bi  Bi121  1  0.26260617  0.50863391  0.02870603  1
  Bi  Bi122  1  0.76988877  0.74471921  0.27542342  1
  Bi  Bi123  1  -0.00695761  0.74952537  0.76923407  1
  Bi  Bi124  1  0.01590263  0.26602031  0.73667148  1
  O  O125  1  0.12265631  0.15555756  -0.00463706  1
  O  O126  1  0.13258903  0.10760151  0.23952450  1
  O  O127  1  0.12092751  0.17106853  0.49928371  1
  O  O128  1  0.10585919  0.09445484  0.75152618  1
  O  O129  1  0.12836795  0.34142065  -0.00005852  1
  O  O130  1  0.09115253  0.39304731  0.23344252  1
  O  O131  1  0.12438926  0.36156621  0.49471861  1
  O  O132  1  0.09093278  0.39081171  0.76364131  1
  O  O133  1  0.08399869  0.64579545  0.00530766  1
  O  O134  1  0.14906248  0.59478051  0.24462874  1
  O  O135  1  0.13571893  0.60887650  0.50314560  1
  O  O136  1  0.13539182  0.61216124  0.75467751  1
  O  O137  1  0.11264252  0.85057053  0.00297698  1
  O  O138  1  0.10568120  0.91405199  0.23947451  1
  O  O139  1  0.14017455  0.86542092  0.50748577  1
  O  O140  1  0.10510892  0.91362533  0.74380733  1
  O  O141  1  0.38915735  0.14437447  0.01292336  1
  O  O142  1  0.34967140  0.10674749  0.24985028  1
  O  O143  1  0.37757927  0.14441346  0.49829393  1
  O  O144  1  0.39329366  0.11710644  0.73920595  1
  O  O145  1  0.37202543  0.33514750  0.00156337  1
  O  O146  1  0.40100603  0.38944819  0.25598511  1
  O  O147  1  0.36888383  0.34717990  0.49140052  1
  O  O148  1  0.39920247  0.37552949  0.74963491  1
  O  O149  1  0.38725521  0.63893419  -0.00154956  1
  O  O150  1  0.33606445  0.62734619  0.25620343  1
  O  O151  1  0.36977147  0.61249651  0.50530877  1
  O  O152  1  0.39812018  0.62159394  0.75591556  1
  O  O153  1  0.38385552  0.85459698  -0.00839513  1
  O  O154  1  0.41145451  0.86264233  0.25322222  1
  O  O155  1  0.37727425  0.87624268  0.50892267  1
  O  O156  1  0.38880596  0.89054894  0.74719367  1
  O  O157  1  0.64113576  0.12546322  0.00932222  1
  O  O158  1  0.63087496  0.08502778  0.25506218  1
  O  O159  1  0.65264029  0.12839398  0.49596976  1
  O  O160  1  0.62412112  0.10660100  0.75140426  1
  O  O161  1  0.62527168  0.35745316  0.00667683  1
  O  O162  1  0.61492270  0.37555697  0.24948810  1
  O  O163  1  0.66628204  0.35338023  0.48930400  1
  O  O164  1  0.61299865  0.39583556  0.75199045  1
  O  O165  1  0.60133063  0.62894732  0.00973440  1
  O  O166  1  0.63253200  0.59860161  0.24926779  1
  O  O167  1  0.66036120  0.65432459  0.50164372  1
  O  O168  1  0.59921170  0.61473597  0.74363830  1
  O  O169  1  0.62851988  0.84588559  0.00003266  1
  O  O170  1  0.61214788  0.88766493  0.25811336  1
  O  O171  1  0.66985865  0.85286324  0.50573353  1
  O  O172  1  0.62168359  0.89529240  0.74864879  1
  O  O173  1  0.86016651  0.09488373  0.00729257  1
  O  O174  1  0.87465044  0.15232434  0.24875379  1
  O  O175  1  0.87120219  0.08968217  0.50433946  1
  O  O176  1  0.88089497  0.14240383  0.75559588  1
  O  O177  1  0.84656508  0.38426730  0.00223586  1
  O  O178  1  0.88185697  0.35317161  0.24250141  1
  O  O179  1  0.84743744  0.39359304  0.49130230  1
  O  O180  1  0.88563128  0.34618101  0.75667430  1
  O  O181  1  0.86958578  0.61397412  0.01141827  1
  O  O182  1  0.86178037  0.63974282  0.24963242  1
  O  O183  1  0.85429583  0.58848560  0.50691147  1
  O  O184  1  0.89229012  0.65062618  0.73764392  1
  O  O185  1  0.86097288  0.87796761  -0.00107822  1
  O  O186  1  0.87400596  0.85232268  0.24533201  1
  O  O187  1  0.88781602  0.89832069  0.50080740  1
  O  O188  1  0.88332474  0.84533046  0.74645410  1
  O  O189  1  -0.00774116  0.12329897  0.11054285  1
  O  O190  1  -0.01173014  0.14308830  0.39237085  1
  O  O191  1  -0.00862781  0.15391545  0.61753097  1
  O  O192  1  -0.00863834  0.13375566  0.89295477  1
  O  O193  1  -0.01166466  0.37497840  0.09960824  1
  O  O194  1  -0.01121742  0.35029241  0.37814008  1
  O  O195  1  0.00177788  0.34750141  0.61702262  1
  O  O196  1  -0.00735899  0.35230561  0.89872437  1
  O  O197  1  -0.00081869  0.59152824  0.15244601  1
  O  O198  1  -0.00289292  0.64208224  0.40471250  1
  O  O199  1  -0.00880984  0.63454244  0.60298834  1
  O  O200  1  0.00173458  0.63958571  0.86055818  1
  O  O201  1  -0.00260087  0.88040000  0.12532109  1
  O  O202  1  -0.00444266  0.84383031  0.36622735  1
  O  O203  1  0.00187559  0.85199724  0.61817494  1
  O  O204  1  -0.01013828  0.83981389  0.88084870  1
  O  O205  1  0.25015996  0.13517536  0.11253199  1
  O  O206  1  0.24840301  0.13920846  0.38179024  1
  O  O207  1  0.25511828  0.12693710  0.60929008  1
  O  O208  1  0.23567781  0.12948658  0.85712448  1
  O  O209  1  0.24697504  0.38960959  0.12812152  1
  O  O210  1  0.24433629  0.38993431  0.36669446  1
  O  O211  1  0.24143936  0.38961742  0.63256499  1
  O  O212  1  0.23775672  0.36753493  0.85727027  1
  O  O213  1  0.24395692  0.62754682  0.09933087  1
  O  O214  1  0.24912517  0.58152520  0.38384504  1
  O  O215  1  0.25114885  0.59724314  0.63731602  1
  O  O216  1  0.25648046  0.62213333  0.88063731  1
  O  O217  1  0.23836515  0.88590407  0.09950483  1
  O  O218  1  0.26495729  0.88572413  0.37646168  1
  O  O219  1  0.24614967  0.89661866  0.63668800  1
  O  O220  1  0.25593040  0.90416146  0.88500787  1
  O  O221  1  0.50547638  0.12088518  0.13928511  1
  O  O222  1  0.51207147  0.14098209  0.37474507  1
  O  O223  1  0.51023313  0.12237897  0.60636463  1
  O  O224  1  0.51705383  0.14153004  0.88668940  1
  O  O225  1  0.50457409  0.35093053  0.12101028  1
  O  O226  1  0.51237767  0.35088047  0.39071233  1
  O  O227  1  0.50852464  0.37811732  0.58521412  1
  O  O228  1  0.50639604  0.34777712  0.88415192  1
  O  O229  1  0.49393817  0.63311745  0.15753428  1
  O  O230  1  0.51130909  0.62947005  0.37137296  1
  O  O231  1  0.51541406  0.62529345  0.59697779  1
  O  O232  1  0.49977573  0.65079135  0.87964750  1
  O  O233  1  0.50455670  0.86287518  0.11553970  1
  O  O234  1  0.50846262  0.86046140  0.40946335  1
  O  O235  1  0.51843376  0.87005428  0.59606533  1
  O  O236  1  0.50674146  0.84581832  0.87445740  1
  O  O237  1  0.75127772  0.09969284  0.13452371  1
  O  O238  1  0.75868027  0.08487615  0.36401237  1
  O  O239  1  0.75789082  0.10944260  0.64496672  1
  O  O240  1  0.75075943  0.09714767  0.87775942  1
  O  O241  1  0.74079392  0.37692330  0.13728705  1
  O  O242  1  0.75088222  0.38892920  0.34202018  1
  O  O243  1  0.75317473  0.37386857  0.64851849  1
  O  O244  1  0.74420499  0.38431217  0.87949708  1
  O  O245  1  0.74355596  0.63000937  0.12598912  1
  O  O246  1  0.74663076  0.61167335  0.35879728  1
  O  O247  1  0.75299162  0.62923104  0.66094179  1
  O  O248  1  0.73354998  0.61213648  0.86805291  1
  O  O249  1  0.75048098  0.86381022  0.13119275  1
  O  O250  1  0.74432130  0.90218794  0.36293766  1
  O  O251  1  0.76346643  0.89705305  0.63797942  1
  O  O252  1  0.74844067  0.88307620  0.86313071  1
  O  O253  1  0.12113280  0.00874796  0.08515207  1
  O  O254  1  0.12884785  0.01260009  0.39238031  1
  O  O255  1  0.10616885  0.00635922  0.59682596  1
  O  O256  1  0.13016824  0.00512391  0.89575351  1
  O  O257  1  0.10747177  0.25118222  0.13697888  1
  O  O258  1  0.12235957  0.26501863  0.34001567  1
  O  O259  1  0.13379090  0.25879081  0.65727927  1
  O  O260  1  0.12093930  0.24583008  0.84574205  1
  O  O261  1  0.12516761  0.49295843  0.09104012  1
  O  O262  1  0.08697952  0.49159496  0.36874480  1
  O  O263  1  0.11048918  0.49133199  0.63029389  1
  O  O264  1  0.11358053  0.49282943  0.90700235  1
  O  O265  1  0.13120914  0.75842100  0.17458851  1
  O  O266  1  0.17009614  0.73608033  0.34595172  1
  O  O267  1  0.14045891  0.75506641  0.65518330  1
  O  O268  1  0.13591477  0.75465959  0.85627827  1
  O  O269  1  0.39156862  0.00199862  0.12122214  1
  O  O270  1  0.40451925  -0.00843940  0.38036065  1
  O  O271  1  0.39246683  0.00083190  0.62121582  1
  O  O272  1  0.41035003  -0.00772004  0.87296407  1
  O  O273  1  0.37602706  0.24403547  0.16200503  1
  O  O274  1  0.37174193  0.25448637  0.34537228  1
  O  O275  1  0.38856261  0.24524049  0.63768179  1
  O  O276  1  0.35923255  0.24952624  0.85544284  1
  O  O277  1  0.38211562  0.50280774  0.09840311  1
  O  O278  1  0.39437806  0.49093281  0.38680576  1
  O  O279  1  0.39939781  0.49817132  0.62638153  1
  O  O280  1  0.39136090  0.50254440  0.87782781  1
  O  O281  1  0.35962469  0.75412092  0.13140098  1
  O  O282  1  0.37049068  0.75434001  0.39507518  1
  O  O283  1  0.37468668  0.75894380  0.62581692  1
  O  O284  1  0.35681292  0.75557788  0.85582791  1
  O  O285  1  0.61850741  -0.01462065  0.11749077  1
  O  O286  1  0.61183406  -0.00959599  0.41053565  1
  O  O287  1  0.63882309  -0.00186213  0.61384447  1
  O  O288  1  0.61013111  -0.00855496  0.89783486  1
  O  O289  1  0.63747356  0.23674168  0.14791044  1
  O  O290  1  0.64936685  0.24057428  0.35270577  1
  O  O291  1  0.63979648  0.24129609  0.63640429  1
  O  O292  1  0.65284199  0.24800485  0.86544391  1
  O  O293  1  0.59205141  0.50184620  0.11507893  1
  O  O294  1  0.61374091  0.49814438  0.38998855  1
  O  O295  1  0.66448957  0.50805003  0.60513819  1
  O  O296  1  0.60521368  0.50041766  0.88966210  1
  O  O297  1  0.61492919  0.74847055  0.15351777  1
  O  O298  1  0.64876708  0.74972263  0.36459814  1
  O  O299  1  0.63696217  0.75202098  0.64675193  1
  O  O300  1  0.63505374  0.74466757  0.85274277  1
  O  O301  1  0.88968087  -0.00837967  0.14859930  1
  O  O302  1  0.91306162  -0.00083887  0.34497706  1
  O  O303  1  0.91009800  -0.00114263  0.65192398  1
  O  O304  1  0.88889859  -0.00531588  0.86199267  1
  O  O305  1  0.86120501  0.24661277  0.10271961  1
  O  O306  1  0.84061726  0.24406446  0.39697070  1
  O  O307  1  0.84221850  0.24141377  0.59857292  1
  O  O308  1  0.85347265  0.24290457  0.89738036  1
  O  O309  1  0.86286590  0.49886207  0.13912553  1
  O  O310  1  0.88345729  0.49627081  0.34553768  1
  O  O311  1  0.86172255  0.50094720  0.64947942  1
  O  O312  1  0.87957849  0.48727941  0.86748045  1
  O  O313  1  0.88608144  0.74352405  0.10764572  1
  O  O314  1  0.83823921  0.75116408  0.40025224  1
  O  O315  1  0.84769496  0.75066224  0.58252246  1
  O  O316  1  0.85352502  0.75078135  0.88353126  1
