# generated using pymatgen
data_Mg32Ti42(Bi17O64)3
_symmetry_space_group_name_H-M   'P 1'
_cell_length_a   15.92435959
_cell_length_b   15.96509761
_cell_length_c   15.90655945
_cell_angle_alpha   89.89792758
_cell_angle_beta   89.90823015
_cell_angle_gamma   89.99805979
_symmetry_Int_Tables_number   1
_chemical_formula_structural   Mg32Ti42(Bi17O64)3
_chemical_formula_sum   'Mg32 Ti42 Bi51 O192'
_cell_volume   4043.97591612
_cell_formula_units_Z   1
loop_
 _symmetry_equiv_pos_site_id
 _symmetry_equiv_pos_as_xyz
  1  'x, y, z'
loop_
 _atom_site_type_symbol
 _atom_site_label
 _atom_site_symmetry_multiplicity
 _atom_site_fract_x
 _atom_site_fract_y
 _atom_site_fract_z
 _atom_site_occupancy
  Mg  Mg0  1  0.35906192  0.38197521  0.36795773  1
  Mg  Mg1  1  0.11714647  0.88377136  0.62772437  1
  Mg  Mg2  1  0.38100218  0.86261261  0.87631382  1
  Mg  Mg3  1  0.37050260  0.12882894  0.87772555  1
  Mg  Mg4  1  0.12243525  0.38925428  0.12844036  1
  Mg  Mg5  1  0.38073117  0.88277908  0.62467301  1
  Mg  Mg6  1  0.38553292  0.62332903  0.13354493  1
  Mg  Mg7  1  0.36900412  0.36945575  0.13384019  1
  Mg  Mg8  1  0.37722000  0.37609877  0.62836401  1
  Mg  Mg9  1  0.12309813  0.11836430  0.12412078  1
  Mg  Mg10  1  0.62716499  0.12391834  0.61605881  1
  Mg  Mg11  1  0.13111226  0.87793356  0.87654352  1
  Mg  Mg12  1  0.13181926  0.13370755  0.37747578  1
  Mg  Mg13  1  0.61548855  0.12469949  0.88442063  1
  Mg  Mg14  1  0.12390312  0.87877657  0.37318889  1
  Mg  Mg15  1  0.63335385  0.36924505  0.12459042  1
  Mg  Mg16  1  0.37380734  0.87910382  0.12614939  1
  Mg  Mg17  1  0.62167235  0.63128207  0.13074212  1
  Mg  Mg18  1  0.88042074  0.12094665  0.87690115  1
  Mg  Mg19  1  0.01064923  0.02883480  0.78837057  1
  Mg  Mg20  1  0.51022819  0.79272203  0.54000568  1
  Mg  Mg21  1  0.46068621  0.50940896  0.72395038  1
  Mg  Mg22  1  -0.06187185  0.45997733  0.74101759  1
  Mg  Mg23  1  0.71051224  0.50457141  0.19879008  1
  Mg  Mg24  1  0.50914971  0.72431937  0.26958493  1
  Mg  Mg25  1  -0.05936094  0.20752720  0.48716497  1
  Mg  Mg26  1  0.02318782  0.80095098  0.76352936  1
  Mg  Mg27  1  0.46932611  0.02612435  0.01111383  1
  Mg  Mg28  1  0.21570472  0.24814819  0.23148807  1
  Mg  Mg29  1  0.29535849  0.25685511  0.79304266  1
  Mg  Mg30  1  0.50815293  0.45805073  0.22619421  1
  Mg  Mg31  1  0.78384191  0.45853725  0.55566030  1
  Ti  Ti32  1  0.37034826  0.12042377  0.12614167  1
  Ti  Ti33  1  0.86980644  0.87202393  0.85672857  1
  Ti  Ti34  1  0.13009017  0.62403277  0.86211347  1
  Ti  Ti35  1  0.62783715  0.86252330  0.37673667  1
  Ti  Ti36  1  0.63538859  0.86858884  0.12072345  1
  Ti  Ti37  1  0.13032986  0.62669157  0.38842646  1
  Ti  Ti38  1  0.87837128  0.11416125  0.63694906  1
  Ti  Ti39  1  0.63156265  0.88648956  0.63271394  1
  Ti  Ti40  1  0.61775616  0.61427468  0.61499939  1
  Ti  Ti41  1  0.38548967  0.62180662  0.87468798  1
  Ti  Ti42  1  0.12364958  0.37503551  0.37794644  1
  Ti  Ti43  1  0.61705365  0.62188428  0.88194045  1
  Ti  Ti44  1  0.63479633  0.61605226  0.37645895  1
  Ti  Ti45  1  0.88343910  0.86454958  0.37170358  1
  Ti  Ti46  1  0.39203974  0.37780380  0.87423320  1
  Ti  Ti47  1  0.88241283  0.11752175  0.12349318  1
  Ti  Ti48  1  0.88164192  0.61460219  0.13301064  1
  Ti  Ti49  1  0.87557105  0.38068023  0.13711545  1
  Ti  Ti50  1  0.87959106  0.62095774  0.38577005  1
  Ti  Ti51  1  0.87166118  0.63076816  0.63067389  1
  Ti  Ti52  1  0.61909229  0.13638283  0.36993875  1
  Ti  Ti53  1  0.62500982  0.11421629  0.13022987  1
  Ti  Ti54  1  0.12176130  0.37396950  0.61849140  1
  Ti  Ti55  1  0.38289107  0.62338350  0.37116751  1
  Ti  Ti56  1  0.11732547  0.62478867  0.62945648  1
  Ti  Ti57  1  0.38915560  0.85807735  0.37614085  1
  Ti  Ti58  1  0.87025922  0.88140237  0.62465398  1
  Ti  Ti59  1  0.13501282  0.87516389  0.11857724  1
  Ti  Ti60  1  0.87805738  0.35749106  0.87848769  1
  Ti  Ti61  1  0.62438909  0.86752906  0.88075541  1
  Ti  Ti62  1  0.60853547  0.37972902  0.61711444  1
  Ti  Ti63  1  0.87628598  0.86133502  0.12079578  1
  Ti  Ti64  1  0.88261927  0.62377056  0.86484137  1
  Ti  Ti65  1  0.62388688  0.36938283  0.87126992  1
  Ti  Ti66  1  0.11625758  0.12578593  0.61853009  1
  Ti  Ti67  1  0.12777899  0.13457664  0.87690186  1
  Ti  Ti68  1  0.37546856  0.62881288  0.61218948  1
  Ti  Ti69  1  0.87854066  0.38653434  0.37686814  1
  Ti  Ti70  1  0.63235861  0.38149142  0.35854449  1
  Ti  Ti71  1  0.36063133  0.12228277  0.63874865  1
  Ti  Ti72  1  0.12196097  0.61882087  0.11626128  1
  Ti  Ti73  1  0.13414674  0.37110880  0.86800529  1
  Bi  Bi74  1  0.76300812  0.02799849  0.46953864  1
  Bi  Bi75  1  0.27263304  0.49669944  -0.00116950  1
  Bi  Bi76  1  0.77735093  0.22973809  0.25014689  1
  Bi  Bi77  1  0.25161588  0.22775974  0.01970522  1
  Bi  Bi78  1  0.48033910  0.00169111  0.78247340  1
  Bi  Bi79  1  0.47711639  0.01514768  0.47338573  1
  Bi  Bi80  1  0.44023848  0.23606515  0.28819968  1
  Bi  Bi81  1  -0.00369446  0.76836056  0.52862051  1
  Bi  Bi82  1  0.50261535  0.25447440  0.03099806  1
  Bi  Bi83  1  0.01054301  0.25355903  0.74056418  1
  Bi  Bi84  1  0.49352675  0.48146321  0.45987022  1
  Bi  Bi85  1  0.26265958  0.74071684  -0.01125621  1
  Bi  Bi86  1  0.51814865  0.22412532  0.73615769  1
  Bi  Bi87  1  0.73519228  0.74287197  0.52143058  1
  Bi  Bi88  1  0.52250180  -0.01921490  0.24801328  1
  Bi  Bi89  1  0.01262338  0.48784669  -0.02719090  1
  Bi  Bi90  1  0.72790824  0.02961233  0.75487597  1
  Bi  Bi91  1  0.25926758  0.25925275  0.50093312  1
  Bi  Bi92  1  0.23079832  0.77675763  0.49697508  1
  Bi  Bi93  1  0.49220633  0.75361292  0.03900076  1
  Bi  Bi94  1  0.23836805  0.76397253  0.72786748  1
  Bi  Bi95  1  0.76785489  0.27286697  0.70991789  1
  Bi  Bi96  1  0.25413265  0.48487561  0.74807084  1
  Bi  Bi97  1  0.74557747  0.26047312  0.48061205  1
  Bi  Bi98  1  0.75168853  0.72316333  0.26312809  1
  Bi  Bi99  1  0.51134695  0.48380383  0.02664207  1
  Bi  Bi100  1  0.28804328  0.01184823  0.27559807  1
  Bi  Bi101  1  0.47489130  0.22666548  0.50757045  1
  Bi  Bi102  1  0.23373416  0.00022783  0.74527356  1
  Bi  Bi103  1  -0.01543873  0.48646907  0.53629107  1
  Bi  Bi104  1  0.02396791  0.25857731  0.02482034  1
  Bi  Bi105  1  0.23262494  0.01626550  0.48560264  1
  Bi  Bi106  1  0.74484106  0.23489625  0.00659420  1
  Bi  Bi107  1  0.26182625  0.74787622  0.26202150  1
  Bi  Bi108  1  0.72924369  0.50426269  0.75080676  1
  Bi  Bi109  1  -0.01219840  0.02033259  0.46670994  1
  Bi  Bi110  1  -0.00738345  -0.02369466  -0.01961749  1
  Bi  Bi111  1  0.74785461  0.01333357  -0.02302644  1
  Bi  Bi112  1  0.76047146  0.47770437  -0.01199368  1
  Bi  Bi113  1  0.02819685  0.73674770  0.24717429  1
  Bi  Bi114  1  0.76552664  -0.02051808  0.24415683  1
  Bi  Bi115  1  0.75688896  0.71527991  0.01334130  1
  Bi  Bi116  1  0.02294294  -0.02092180  0.23210082  1
  Bi  Bi117  1  0.01967818  0.50588967  0.27618148  1
  Bi  Bi118  1  0.73052124  0.74231566  0.76673102  1
  Bi  Bi119  1  0.26214492  0.48963672  0.50964225  1
  Bi  Bi120  1  0.00782676  0.73824224  -0.02712447  1
  Bi  Bi121  1  0.48334450  0.75887222  0.73676113  1
  Bi  Bi122  1  0.00526758  0.22338115  0.27682349  1
  Bi  Bi123  1  0.27249645  -0.02313727  -0.01919357  1
  Bi  Bi124  1  0.26532771  0.50252498  0.22897021  1
  O  O125  1  0.13928998  0.14333699  -0.00455212  1
  O  O126  1  0.10357039  0.12936962  0.24947839  1
  O  O127  1  0.15423647  0.14319511  0.50801266  1
  O  O128  1  0.08151872  0.13038590  0.74518386  1
  O  O129  1  0.09749480  0.37626041  -0.00761033  1
  O  O130  1  0.13384614  0.41054225  0.25820400  1
  O  O131  1  0.09535509  0.37069096  0.50207509  1
  O  O132  1  0.15188115  0.37981616  0.74950285  1
  O  O133  1  0.12421431  0.64801452  -0.00017746  1
  O  O134  1  0.11595391  0.61618992  0.24421056  1
  O  O135  1  0.12737503  0.64698404  0.50403925  1
  O  O136  1  0.14044444  0.60748269  0.74994730  1
  O  O137  1  0.09231200  0.86564097  0.00003122  1
  O  O138  1  0.14046000  0.90234501  0.24335322  1
  O  O139  1  0.10995909  0.85146675  0.50455021  1
  O  O140  1  0.15269711  0.87843120  0.75066309  1
  O  O141  1  0.34795889  0.10697902  0.00197645  1
  O  O142  1  0.37571757  0.12644697  0.24702388  1
  O  O143  1  0.37788153  0.11244936  0.51550223  1
  O  O144  1  0.38412703  0.16405841  0.75154729  1
  O  O145  1  0.38312142  0.40659336  -0.00545567  1
  O  O146  1  0.32973276  0.31728230  0.25256427  1
  O  O147  1  0.38503435  0.40858724  0.50067982  1
  O  O148  1  0.34532951  0.36700519  0.75505094  1
  O  O149  1  0.37781259  0.59005778  0.00313132  1
  O  O150  1  0.36930553  0.65896325  0.25543746  1
  O  O151  1  0.37937836  0.60785463  0.49817617  1
  O  O152  1  0.39716788  0.63798269  0.75467847  1
  O  O153  1  0.39638331  0.92133540  -0.00470529  1
  O  O154  1  0.34165358  0.86144472  0.25465136  1
  O  O155  1  0.41754074  0.87453471  0.49306637  1
  O  O156  1  0.37095500  0.83581903  0.74906423  1
  O  O157  1  0.65546163  0.12057828  0.00536807  1
  O  O158  1  0.58729645  0.11431032  0.24705320  1
  O  O159  1  0.64015953  0.12486440  0.48936859  1
  O  O160  1  0.60500213  0.11367729  0.75694833  1
  O  O161  1  0.61947455  0.39832224  -0.00495744  1
  O  O162  1  0.65199935  0.39271571  0.24850993  1
  O  O163  1  0.58346020  0.37643403  0.50187194  1
  O  O164  1  0.65481987  0.38321555  0.75368518  1
  O  O165  1  0.62590505  0.63692072  -0.00298299  1
  O  O166  1  0.66458908  0.61241884  0.25086722  1
  O  O167  1  0.62168444  0.62656366  0.49456840  1
  O  O168  1  0.64390837  0.61641097  0.74293639  1
  O  O169  1  0.62481808  0.85932104  -0.00330658  1
  O  O170  1  0.64032914  0.89859627  0.24470326  1
  O  O171  1  0.60788842  0.85312812  0.49189421  1
  O  O172  1  0.65154609  0.86943361  0.74599004  1
  O  O173  1  0.83917275  0.12305446  0.00974261  1
  O  O174  1  0.88680968  0.14899314  0.24368101  1
  O  O175  1  0.84114758  0.13336684  0.50982855  1
  O  O176  1  0.90328314  0.08687953  0.74756842  1
  O  O177  1  0.88565651  0.39650716  -0.00196151  1
  O  O178  1  0.85364018  0.35841455  0.25124795  1
  O  O179  1  0.88262030  0.40484321  0.49536134  1
  O  O180  1  0.85522785  0.36906546  0.76071572  1
  O  O181  1  0.88010370  0.63991819  -0.00953998  1
  O  O182  1  0.86505127  0.63296504  0.24501496  1
  O  O183  1  0.89136191  0.60703472  0.49858083  1
  O  O184  1  0.86865777  0.64262312  0.74548386  1
  O  O185  1  0.89954323  0.86428461  0.00412504  1
  O  O186  1  0.85348344  0.87136368  0.25237226  1
  O  O187  1  0.90883570  0.87105024  0.49708154  1
  O  O188  1  0.85001913  0.88562730  0.74311035  1
  O  O189  1  -0.00741341  0.14428742  0.10733159  1
  O  O190  1  0.00470298  0.14794470  0.39789051  1
  O  O191  1  -0.00402139  0.12466001  0.58108465  1
  O  O192  1  0.00632038  0.09742138  0.89573780  1
  O  O193  1  -0.01186248  0.34287047  0.13270633  1
  O  O194  1  -0.00487053  0.37274405  0.35678489  1
  O  O195  1  0.01320468  0.40895123  0.65297661  1
  O  O196  1  -0.00788731  0.40114768  0.85262371  1
  O  O197  1  -0.00296886  0.65453354  0.12675395  1
  O  O198  1  -0.00122763  0.63446879  0.35782719  1
  O  O199  1  0.00380946  0.61374698  0.62761101  1
  O  O200  1  0.00383145  0.61403337  0.87967274  1
  O  O201  1  -0.00716943  0.86386506  0.15421909  1
  O  O202  1  -0.00302999  0.87626072  0.34711449  1
  O  O203  1  -0.01001774  0.85497635  0.64716475  1
  O  O204  1  0.00196641  0.91339173  0.84657110  1
  O  O205  1  0.25174169  0.14581278  0.13871084  1
  O  O206  1  0.25382800  0.09708108  0.37706991  1
  O  O207  1  0.24379890  0.13175453  0.65090432  1
  O  O208  1  0.24102959  0.16242129  0.85566445  1
  O  O209  1  0.25041213  0.41731271  0.11731779  1
  O  O210  1  0.23854298  0.38888812  0.40983539  1
  O  O211  1  0.24493723  0.37153967  0.59048314  1
  O  O212  1  0.24461027  0.35850498  0.89224989  1
  O  O213  1  0.24459029  0.59898766  0.12413298  1
  O  O214  1  0.24313399  0.61296630  0.37266227  1
  O  O215  1  0.26419887  0.65818402  0.62353814  1
  O  O216  1  0.25166373  0.63939216  0.87976335  1
  O  O217  1  0.24617657  0.88490701  0.09057043  1
  O  O218  1  0.25361944  0.89086520  0.40986811  1
  O  O219  1  0.25620935  0.85032743  0.61455400  1
  O  O220  1  0.25447922  0.85590180  0.90680005  1
  O  O221  1  0.49621423  0.12760261  0.09122437  1
  O  O222  1  0.49885147  0.13508791  0.39499994  1
  O  O223  1  0.49578430  0.13960203  0.62783334  1
  O  O224  1  0.49307184  0.08170729  0.89711002  1
  O  O225  1  0.50078096  0.36870600  0.12216084  1
  O  O226  1  0.50178691  0.39243260  0.34153878  1
  O  O227  1  0.50346089  0.40251787  0.65978262  1
  O  O228  1  0.50535213  0.39829366  0.85870199  1
  O  O229  1  0.50539131  0.67150435  0.14948966  1
  O  O230  1  0.50009107  0.63450350  0.35966060  1
  O  O231  1  0.50849005  0.58657585  0.63223534  1
  O  O232  1  0.50437142  0.59987974  0.87863829  1
  O  O233  1  0.51160615  0.85466009  0.13195562  1
  O  O234  1  0.49447017  0.83794906  0.33221850  1
  O  O235  1  0.51149266  0.87374599  0.64285798  1
  O  O236  1  0.50872227  0.88024525  0.85239827  1
  O  O237  1  0.74165563  0.11410845  0.16013722  1
  O  O238  1  0.73086946  0.09975968  0.35133683  1
  O  O239  1  0.75550752  0.12911680  0.65804031  1
  O  O240  1  0.75055685  0.11310616  0.86533447  1
  O  O241  1  0.75405878  0.41413600  0.11313797  1
  O  O242  1  0.74204297  0.38229169  0.40624645  1
  O  O243  1  0.74380865  0.34790568  0.59723698  1
  O  O244  1  0.75284933  0.36555779  0.90136702  1
  O  O245  1  0.75964535  0.60190284  0.10442976  1
  O  O246  1  0.75403993  0.63521508  0.38553662  1
  O  O247  1  0.75382976  0.63453846  0.61044533  1
  O  O248  1  0.75851370  0.65252769  0.87589156  1
  O  O249  1  0.75533074  0.90496765  0.11805684  1
  O  O250  1  0.74181999  0.87981800  0.38442235  1
  O  O251  1  0.74930393  0.85880986  0.60021643  1
  O  O252  1  0.75829079  0.83858222  0.87904189  1
  O  O253  1  0.09968349  -0.00516159  0.11304293  1
  O  O254  1  0.11502454  0.00403661  0.40744964  1
  O  O255  1  0.12746457  0.00950621  0.62507610  1
  O  O256  1  0.14842079  0.01407771  0.85915325  1
  O  O257  1  0.14200984  0.26330977  0.11836930  1
  O  O258  1  0.14478573  0.26292599  0.34473736  1
  O  O259  1  0.10493172  0.25737292  0.63767246  1
  O  O260  1  0.09525376  0.25653435  0.86485343  1
  O  O261  1  0.09136086  0.51006232  0.10362385  1
  O  O262  1  0.09999580  0.50720951  0.39082030  1
  O  O263  1  0.15390772  0.50697896  0.61233731  1
  O  O264  1  0.13268439  0.50186123  0.88838558  1
  O  O265  1  0.13498900  0.75669480  0.14571394  1
  O  O266  1  0.13490528  0.74857450  0.35622711  1
  O  O267  1  0.11474095  0.74363035  0.65353549  1
  O  O268  1  0.10035152  0.74784150  0.85758172  1
  O  O269  1  0.38144920  0.00569201  0.14112247  1
  O  O270  1  0.39886158  -0.01700387  0.35995711  1
  O  O271  1  0.37060543  0.00642341  0.65683276  1
  O  O272  1  0.34916222  -0.00192968  0.84211040  1
  O  O273  1  0.37969789  0.24701111  0.09701157  1
  O  O274  1  0.37697247  0.26049923  0.40824683  1
  O  O275  1  0.36712928  0.25267886  0.59599093  1
  O  O276  1  0.38894921  0.26301041  0.88917897  1
  O  O277  1  0.39636616  0.49516810  0.17359423  1
  O  O278  1  0.37657805  0.50821019  0.35759010  1
  O  O279  1  0.35494868  0.50735639  0.64802690  1
  O  O280  1  0.36004686  0.50195543  0.84981050  1
  O  O281  1  0.36598632  0.75420282  0.09077322  1
  O  O282  1  0.34318246  0.74781651  0.38772882  1
  O  O283  1  0.42227823  0.73761641  0.61076568  1
  O  O284  1  0.38631921  0.73719859  0.91102814  1
  O  O285  1  0.60308748  0.00008703  0.11581772  1
  O  O286  1  0.58549059  -0.01404082  0.37542435  1
  O  O287  1  0.63911337  -0.00244352  0.62551089  1
  O  O288  1  0.64738689  -0.01645654  0.87515980  1
  O  O289  1  0.63195994  0.24422788  0.10625751  1
  O  O290  1  0.63379879  0.25299755  0.36501488  1
  O  O291  1  0.61257993  0.25824918  0.63513860  1
  O  O292  1  0.61104819  0.25661759  0.88165694  1
  O  O293  1  0.59392677  0.50552913  0.13957853  1
  O  O294  1  0.62226515  0.50175997  0.37560158  1
  O  O295  1  0.66622581  0.49256611  0.61492245  1
  O  O296  1  0.65640277  0.50772898  0.87248129  1
  O  O297  1  0.66301181  0.75655850  0.13390802  1
  O  O298  1  0.62829184  0.74571262  0.34432675  1
  O  O299  1  0.61692583  0.73760522  0.61458717  1
  O  O300  1  0.61760634  0.74283506  0.85277622  1
  O  O301  1  0.89027953  0.00400282  0.13871095  1
  O  O302  1  0.87135312  -0.00705493  0.38342115  1
  O  O303  1  0.86716887  -0.00591081  0.60193876  1
  O  O304  1  0.86471460  -0.01163826  0.89781540  1
  O  O305  1  0.83232598  0.25662130  0.11878307  1
  O  O306  1  0.86230992  0.26480746  0.40034008  1
  O  O307  1  0.88956416  0.23396150  0.64471196  1
  O  O308  1  0.89394303  0.24779152  0.88590322  1
  O  O309  1  0.90105247  0.49964451  0.13713974  1
  O  O310  1  0.88406203  0.50431167  0.35522951  1
  O  O311  1  0.87178627  0.50639905  0.63547566  1
  O  O312  1  0.86411457  0.51160499  0.85487574  1
  O  O313  1  0.85069116  0.74999292  0.12366006  1
  O  O314  1  0.87137512  0.74869408  0.38023795  1
  O  O315  1  0.87049533  0.74821338  0.60208516  1
  O  O316  1  0.92202220  0.76491787  0.85309806  1
