# generated using pymatgen
data_Mg32Ti42(Bi17O64)3
_symmetry_space_group_name_H-M   'P 1'
_cell_length_a   15.95456419
_cell_length_b   15.97861751
_cell_length_c   15.93716369
_cell_angle_alpha   89.94981562
_cell_angle_beta   89.94824531
_cell_angle_gamma   90.13302304
_symmetry_Int_Tables_number   1
_chemical_formula_structural   Mg32Ti42(Bi17O64)3
_chemical_formula_sum   'Mg32 Ti42 Bi51 O192'
_cell_volume   4062.87690730
_cell_formula_units_Z   1
loop_
 _symmetry_equiv_pos_site_id
 _symmetry_equiv_pos_as_xyz
  1  'x, y, z'
loop_
 _atom_site_type_symbol
 _atom_site_label
 _atom_site_symmetry_multiplicity
 _atom_site_fract_x
 _atom_site_fract_y
 _atom_site_fract_z
 _atom_site_occupancy
  Mg  Mg0  1  0.87424110  0.62284110  0.12383843  1
  Mg  Mg1  1  0.12165741  0.87874678  0.62707753  1
  Mg  Mg2  1  0.11431551  0.87224327  0.35957587  1
  Mg  Mg3  1  0.63886171  0.86816720  0.12396996  1
  Mg  Mg4  1  0.88103664  0.87695831  0.87052680  1
  Mg  Mg5  1  0.37372071  0.37544113  0.13638701  1
  Mg  Mg6  1  0.86532511  0.12904589  0.37553581  1
  Mg  Mg7  1  0.10902094  0.11434529  0.12351375  1
  Mg  Mg8  1  0.38570900  0.63367584  0.12604083  1
  Mg  Mg9  1  0.87655663  0.61443038  0.86728779  1
  Mg  Mg10  1  0.38158417  0.87057206  0.62077441  1
  Mg  Mg11  1  0.62518641  0.86579584  0.87543612  1
  Mg  Mg12  1  0.63150748  0.37000986  0.12646317  1
  Mg  Mg13  1  0.61763099  0.88333379  0.38123929  1
  Mg  Mg14  1  0.88486059  0.37361510  0.62056421  1
  Mg  Mg15  1  0.12182307  0.12167594  0.88211443  1
  Mg  Mg16  1  0.62696652  0.12974854  0.87505751  1
  Mg  Mg17  1  0.86486353  0.87217417  0.37308534  1
  Mg  Mg18  1  0.38107792  0.62642462  0.87467600  1
  Mg  Mg19  1  0.01555939  -0.04305687  -0.02561149  1
  Mg  Mg20  1  0.68395459  0.52141542  0.72722485  1
  Mg  Mg21  1  0.25556384  -0.03678067  0.69941351  1
  Mg  Mg22  1  0.50756008  0.51344438  0.56847017  1
  Mg  Mg23  1  0.53551106  -0.00934993  0.22815353  1
  Mg  Mg24  1  0.73460743  -0.06183847  0.74787161  1
  Mg  Mg25  1  0.56365537  0.69633889  0.49868748  1
  Mg  Mg26  1  0.77308221  0.48681641  0.24551012  1
  Mg  Mg27  1  0.71402395  0.75196131  0.29985835  1
  Mg  Mg28  1  0.18638498  0.01853215  0.44055005  1
  Mg  Mg29  1  0.03881629  0.07080883  0.28516838  1
  Mg  Mg30  1  0.49177305  0.47393220  0.78372643  1
  Mg  Mg31  1  0.52326033  0.44928793  0.24146471  1
  Ti  Ti32  1  0.37839524  0.11877451  0.88709040  1
  Ti  Ti33  1  0.87970032  0.12363085  0.85830138  1
  Ti  Ti34  1  0.36219923  0.62856102  0.60029444  1
  Ti  Ti35  1  0.38353915  0.88177111  0.12148433  1
  Ti  Ti36  1  0.87209462  0.38521099  0.87525075  1
  Ti  Ti37  1  0.62242866  0.87142142  0.61818685  1
  Ti  Ti38  1  0.13261038  0.38102855  0.36848549  1
  Ti  Ti39  1  0.62215060  0.11157229  0.37346812  1
  Ti  Ti40  1  0.86757193  0.38137946  0.38412210  1
  Ti  Ti41  1  0.37706580  0.37475196  0.62669609  1
  Ti  Ti42  1  0.86860757  0.61440062  0.37045952  1
  Ti  Ti43  1  0.60935755  0.37075971  0.63303111  1
  Ti  Ti44  1  0.86856627  0.86926451  0.62906965  1
  Ti  Ti45  1  0.88195784  0.12015464  0.13452400  1
  Ti  Ti46  1  0.62728093  0.11593290  0.11987287  1
  Ti  Ti47  1  0.62296433  0.37845808  0.88523666  1
  Ti  Ti48  1  0.87644171  0.86933984  0.11465901  1
  Ti  Ti49  1  0.63468347  0.37267112  0.37364739  1
  Ti  Ti50  1  0.37350112  0.11482270  0.64132991  1
  Ti  Ti51  1  0.38992686  0.63646679  0.38103507  1
  Ti  Ti52  1  0.37326341  0.86835473  0.87281295  1
  Ti  Ti53  1  0.13728072  0.11416447  0.62593741  1
  Ti  Ti54  1  0.37889949  0.11680245  0.13205960  1
  Ti  Ti55  1  0.38098821  0.11527654  0.37412501  1
  Ti  Ti56  1  0.12558062  0.62500627  0.37879516  1
  Ti  Ti57  1  0.63062562  0.59712031  0.36219326  1
  Ti  Ti58  1  0.37508097  0.37495102  0.89406708  1
  Ti  Ti59  1  0.63319554  0.12203604  0.63597174  1
  Ti  Ti60  1  0.88456298  0.60686458  0.62579120  1
  Ti  Ti61  1  0.13706650  0.62960745  0.86774269  1
  Ti  Ti62  1  0.12790916  0.87048365  0.86968312  1
  Ti  Ti63  1  0.13062564  0.36323590  0.61096839  1
  Ti  Ti64  1  0.11189255  0.87875479  0.11465926  1
  Ti  Ti65  1  0.12632795  0.62080622  0.62137314  1
  Ti  Ti66  1  0.13830528  0.37230847  0.13871107  1
  Ti  Ti67  1  0.38908449  0.36653692  0.37446436  1
  Ti  Ti68  1  0.61997091  0.61442256  0.88004520  1
  Ti  Ti69  1  0.63773080  0.62297489  0.13949613  1
  Ti  Ti70  1  0.88504662  0.12487636  0.62282940  1
  Ti  Ti71  1  0.37924036  0.88230202  0.38306080  1
  Ti  Ti72  1  0.12703847  0.63460385  0.13556246  1
  Ti  Ti73  1  0.88563219  0.37837014  0.12821097  1
  Bi  Bi74  1  0.76283269  0.74900451  0.49437760  1
  Bi  Bi75  1  0.22667407  0.79193840  0.50104928  1
  Bi  Bi76  1  -0.01704237  0.73089000  -0.02134460  1
  Bi  Bi77  1  0.26841021  0.48319155  0.49687304  1
  Bi  Bi78  1  0.26128746  0.76151768  0.01727364  1
  Bi  Bi79  1  0.52293637  0.74360628  0.00283899  1
  Bi  Bi80  1  0.24620845  -0.02697358  0.24387251  1
  Bi  Bi81  1  0.26812380  0.52460243  0.02014129  1
  Bi  Bi82  1  0.26330248  0.49044913  0.77769400  1
  Bi  Bi83  1  0.03238053  0.47411357  0.76131384  1
  Bi  Bi84  1  0.76807378  0.28309303  0.74486508  1
  Bi  Bi85  1  0.50133476  0.70012954  0.71458430  1
  Bi  Bi86  1  0.72408461  0.50057876  0.53280722  1
  Bi  Bi87  1  0.27777180  0.22719244  0.50521730  1
  Bi  Bi88  1  0.52772529  -0.01756021  0.75490695  1
  Bi  Bi89  1  0.02660450  0.23978721  0.75982839  1
  Bi  Bi90  1  0.75843024  -0.00516829  -0.03384761  1
  Bi  Bi91  1  0.01096416  0.50621520  0.24505783  1
  Bi  Bi92  1  -0.00206232  -0.02733321  0.47301682  1
  Bi  Bi93  1  0.48557727  0.26385130  0.02360131  1
  Bi  Bi94  1  0.27464181  0.74375255  0.25165677  1
  Bi  Bi95  1  0.74712749  0.72553385  -0.02065171  1
  Bi  Bi96  1  0.50762916  0.23690253  0.77147964  1
  Bi  Bi97  1  0.25510687  0.24279431  0.78411875  1
  Bi  Bi98  1  0.76685593  0.48621665  0.02406331  1
  Bi  Bi99  1  0.51944960  -0.00929601  -0.02340222  1
  Bi  Bi100  1  0.02841600  0.21671236  0.47961993  1
  Bi  Bi101  1  0.73328068  0.71679732  0.73370041  1
  Bi  Bi102  1  0.51564527  0.23247104  0.24084101  1
  Bi  Bi103  1  0.01214030  0.47890812  0.50161112  1
  Bi  Bi104  1  -0.04110564  0.76235504  0.24632706  1
  Bi  Bi105  1  0.29366026  0.50856202  0.26055229  1
  Bi  Bi106  1  0.02286804  0.51408140  0.00924000  1
  Bi  Bi107  1  0.23146871  0.23407834  0.02415652  1
  Bi  Bi108  1  0.75406771  0.24017413  0.24080691  1
  Bi  Bi109  1  0.76529290  -0.00794451  0.48377544  1
  Bi  Bi110  1  0.02832962  0.27749828  -0.02218266  1
  Bi  Bi111  1  0.52047377  0.23908250  0.48976861  1
  Bi  Bi112  1  0.76445525  0.23784591  0.51475851  1
  Bi  Bi113  1  0.77854980  0.23284659  -0.00979872  1
  Bi  Bi114  1  -0.01087305  0.73047088  0.74450076  1
  Bi  Bi115  1  0.49475166  0.00234252  0.52257537  1
  Bi  Bi116  1  0.50536146  0.50087984  0.03870050  1
  Bi  Bi117  1  -0.01482321  -0.01616728  0.73777415  1
  Bi  Bi118  1  0.00731934  0.74608847  0.49062348  1
  Bi  Bi119  1  0.76766247  -0.01998315  0.23354036  1
  Bi  Bi120  1  0.51501231  0.77111572  0.25212058  1
  Bi  Bi121  1  0.23875234  -0.00680689  -0.00778329  1
  Bi  Bi122  1  -0.02009424  0.26242376  0.26082135  1
  Bi  Bi123  1  0.26419506  0.76619115  0.73881512  1
  Bi  Bi124  1  0.22513321  0.20511563  0.27477596  1
  O  O125  1  0.11591964  0.16166625  0.00761380  1
  O  O126  1  0.15084637  0.09758260  0.24289452  1
  O  O127  1  0.10537134  0.09936519  0.50883210  1
  O  O128  1  0.13522825  0.15565226  0.74203019  1
  O  O129  1  0.13585758  0.35487511  0.01840373  1
  O  O130  1  0.09303082  0.38139063  0.25492093  1
  O  O131  1  0.13776774  0.40547440  0.48959126  1
  O  O132  1  0.10686235  0.36157490  0.72815066  1
  O  O133  1  0.15175699  0.60801632  -0.01186311  1
  O  O134  1  0.09237290  0.63600009  0.24709348  1
  O  O135  1  0.13137292  0.60177204  0.49471390  1
  O  O136  1  0.10118861  0.63865343  0.73990462  1
  O  O137  1  0.09477674  0.85657992  -0.00312484  1
  O  O138  1  0.14796822  0.87874359  0.23699348  1
  O  O139  1  0.13721173  0.89827355  0.49805048  1
  O  O140  1  0.15864504  0.87388971  0.75771621  1
  O  O141  1  0.40577640  0.13654517  0.00252389  1
  O  O142  1  0.35583988  0.11990540  0.25233562  1
  O  O143  1  0.39219343  0.14235059  0.50052310  1
  O  O144  1  0.35224657  0.12819705  0.75396707  1
  O  O145  1  0.36387361  0.35514681  0.00527012  1
  O  O146  1  0.40418104  0.40716562  0.25942489  1
  O  O147  1  0.34947822  0.37226698  0.49095449  1
  O  O148  1  0.39392662  0.40264625  0.73735509  1
  O  O149  1  0.34338404  0.63660401  -0.00017964  1
  O  O150  1  0.37852951  0.63946478  0.25702794  1
  O  O151  1  0.34188191  0.65144231  0.49284667  1
  O  O152  1  0.43521593  0.58996770  0.75563812  1
  O  O153  1  0.38711440  0.85482852  0.00332081  1
  O  O154  1  0.34792048  0.87408093  0.24202553  1
  O  O155  1  0.38867602  0.87675521  0.49433252  1
  O  O156  1  0.34064011  0.88746275  0.75966946  1
  O  O157  1  0.60835764  0.09991211  0.00769503  1
  O  O158  1  0.63590849  0.15322347  0.26106008  1
  O  O159  1  0.59380539  0.11071705  0.50286079  1
  O  O160  1  0.63035082  0.16018209  0.74589278  1
  O  O161  1  0.63761435  0.39978923  -0.00242537  1
  O  O162  1  0.60415079  0.35075126  0.25384801  1
  O  O163  1  0.64251045  0.40058607  0.49193534  1
  O  O164  1  0.57843948  0.36886770  0.74476197  1
  O  O165  1  0.66846718  0.60665898  -0.00772765  1
  O  O166  1  0.62718171  0.66137336  0.25068343  1
  O  O167  1  0.63215088  0.58961528  0.48074116  1
  O  O168  1  0.62152254  0.63529432  0.75509444  1
  O  O169  1  0.60215441  0.88741087  0.00341179  1
  O  O170  1  0.63547739  0.83738736  0.25213055  1
  O  O171  1  0.61332534  0.92089286  0.50768950  1
  O  O172  1  0.62333829  0.86904158  0.74709223  1
  O  O173  1  0.88656601  0.15487058  0.02072583  1
  O  O174  1  0.82888412  0.12041963  0.25141203  1
  O  O175  1  0.88583501  0.15928974  0.50176037  1
  O  O176  1  0.85966062  0.11574942  0.74619557  1
  O  O177  1  0.85219599  0.35921959  0.00345402  1
  O  O178  1  0.88701961  0.41230531  0.24545475  1
  O  O179  1  0.83815668  0.36608194  0.49418022  1
  O  O180  1  0.87849162  0.36841673  0.75439386  1
  O  O181  1  0.86177600  0.64750596  -0.00461805  1
  O  O182  1  0.89403569  0.61399111  0.25476593  1
  O  O183  1  0.84321826  0.63693368  0.50442303  1
  O  O184  1  0.91508863  0.61426135  0.74356123  1
  O  O185  1  0.91011849  0.87634798  0.00240485  1
  O  O186  1  0.87021370  0.87420155  0.24790274  1
  O  O187  1  0.86304167  0.85968421  0.50831594  1
  O  O188  1  0.86349787  0.91356468  0.74512890  1
  O  O189  1  -0.00815305  0.13016108  0.17886101  1
  O  O190  1  -0.01056422  0.15720633  0.35719402  1
  O  O191  1  0.00025680  0.13934390  0.63793765  1
  O  O192  1  -0.00407059  0.12726438  0.85149705  1
  O  O193  1  -0.00142177  0.35903389  0.11608779  1
  O  O194  1  -0.01265952  0.36274241  0.39601301  1
  O  O195  1  0.00842677  0.36391813  0.58610297  1
  O  O196  1  -0.01148589  0.38663087  0.88578564  1
  O  O197  1  0.00990809  0.62880352  0.08891106  1
  O  O198  1  -0.01571143  0.64958539  0.39345321  1
  O  O199  1  -0.00322768  0.64300607  0.59951593  1
  O  O200  1  0.00829514  0.61230949  0.90046245  1
  O  O201  1  0.00264372  0.85532696  0.14915110  1
  O  O202  1  -0.01048552  0.85550681  0.38890207  1
  O  O203  1  -0.00536106  0.88080148  0.64207163  1
  O  O204  1  0.00883023  0.90027537  0.84902621  1
  O  O205  1  0.26343173  0.12150894  0.10399423  1
  O  O206  1  0.25969771  0.11774439  0.39751586  1
  O  O207  1  0.25262939  0.12929413  0.60547889  1
  O  O208  1  0.25452185  0.15507439  0.89471021  1
  O  O209  1  0.24880412  0.39588126  0.15247323  1
  O  O210  1  0.24524598  0.40588101  0.35517804  1
  O  O211  1  0.25021408  0.39913155  0.62140006  1
  O  O212  1  0.26189313  0.36839767  0.85041177  1
  O  O213  1  0.24336932  0.60553540  0.14147277  1
  O  O214  1  0.23424823  0.61868144  0.34704264  1
  O  O215  1  0.24572479  0.62197847  0.63842951  1
  O  O216  1  0.24963862  0.62720386  0.83818176  1
  O  O217  1  0.24480749  0.88950287  0.09568351  1
  O  O218  1  0.25231300  0.92424878  0.37428951  1
  O  O219  1  0.25288639  0.85806547  0.62321435  1
  O  O220  1  0.24646670  0.87392589  0.91085746  1
  O  O221  1  0.50466652  0.10123866  0.16618180  1
  O  O222  1  0.50052120  0.15482641  0.37014457  1
  O  O223  1  0.49562989  0.10680749  0.63934623  1
  O  O224  1  0.49321239  0.11793754  0.85261848  1
  O  O225  1  0.50117166  0.37927553  0.11025841  1
  O  O226  1  0.49955307  0.35674711  0.39494397  1
  O  O227  1  0.49386644  0.38576123  0.59221151  1
  O  O228  1  0.49285882  0.40281034  0.88988285  1
  O  O229  1  0.51080367  0.63896312  0.09929437  1
  O  O230  1  0.50131610  0.65086049  0.39239402  1
  O  O231  1  0.48950165  0.63776333  0.58879840  1
  O  O232  1  0.50970718  0.62344408  0.91431770  1
  O  O233  1  0.49847746  0.87991308  0.15824060  1
  O  O234  1  0.49332022  0.86278438  0.35093815  1
  O  O235  1  0.50376039  0.90232667  0.63260997  1
  O  O236  1  0.48914666  0.89113831  0.86673935  1
  O  O237  1  0.74228585  0.14649529  0.11614028  1
  O  O238  1  0.73745226  0.10747181  0.40477649  1
  O  O239  1  0.74419608  0.12573791  0.60114188  1
  O  O240  1  0.75245461  0.11850460  0.90021631  1
  O  O241  1  0.75410129  0.40318905  0.14273674  1
  O  O242  1  0.74544908  0.39948416  0.34360053  1
  O  O243  1  0.72957565  0.39067504  0.66073455  1
  O  O244  1  0.73665122  0.36515493  0.86081852  1
  O  O245  1  0.74851887  0.58450712  0.14481361  1
  O  O246  1  0.74493163  0.58478616  0.34193804  1
  O  O247  1  0.76384354  0.60244979  0.66440057  1
  O  O248  1  0.75264314  0.64983969  0.85267599  1
  O  O249  1  0.76225735  0.88493490  0.11396295  1
  O  O250  1  0.74252945  0.90544054  0.37867078  1
  O  O251  1  0.74587087  0.87929485  0.63149168  1
  O  O252  1  0.75234743  0.89246595  0.87300081  1
  O  O253  1  0.09775823  -0.00823197  0.08747571  1
  O  O254  1  0.08316426  -0.00457604  0.36891065  1
  O  O255  1  0.14265215  0.00464523  0.65590490  1
  O  O256  1  0.12740811  -0.00352920  0.90421078  1
  O  O257  1  0.14960634  0.25209585  0.15336493  1
  O  O258  1  0.13717276  0.26415715  0.37966893  1
  O  O259  1  0.14270216  0.25257903  0.59002182  1
  O  O260  1  0.10949077  0.25329916  0.86793734  1
  O  O261  1  0.10535541  0.49925238  0.12984987  1
  O  O262  1  0.09014249  0.50689282  0.36223735  1
  O  O263  1  0.10037265  0.50464118  0.63287824  1
  O  O264  1  0.13591111  0.50589676  0.84289281  1
  O  O265  1  0.14789441  0.74603051  0.11704109  1
  O  O266  1  0.12432941  0.74784869  0.39992630  1
  O  O267  1  0.12575198  0.74808569  0.58809873  1
  O  O268  1  0.11245577  0.74925806  0.87002038  1
  O  O269  1  0.38015888  -0.00257452  0.11176704  1
  O  O270  1  0.40460359  0.00574046  0.37937891  1
  O  O271  1  0.35780107  0.00287824  0.63083133  1
  O  O272  1  0.35732035  0.00614031  0.89598968  1
  O  O273  1  0.40122791  0.24118855  0.13350442  1
  O  O274  1  0.35968167  0.25699970  0.36385214  1
  O  O275  1  0.36528973  0.25881824  0.62782812  1
  O  O276  1  0.38966960  0.25773615  0.85941306  1
  O  O277  1  0.38543914  0.50702164  0.11122130  1
  O  O278  1  0.37190833  0.51882263  0.38593060  1
  O  O279  1  0.38003374  0.51074958  0.59107293  1
  O  O280  1  0.35013919  0.49839300  0.88884551  1
  O  O281  1  0.35311811  0.75619089  0.13004623  1
  O  O282  1  0.34993952  0.76104041  0.36693308  1
  O  O283  1  0.37490284  0.74136410  0.65175696  1
  O  O284  1  0.37195729  0.75503330  0.85373258  1
  O  O285  1  0.63971783  0.00124336  0.15644259  1
  O  O286  1  0.59602083  0.00717726  0.33977929  1
  O  O287  1  0.64204452  0.00954902  0.66900958  1
  O  O288  1  0.61686895  0.00072649  0.87056463  1
  O  O289  1  0.59519786  0.23931594  0.11677008  1
  O  O290  1  0.63605150  0.25725357  0.40288999  1
  O  O291  1  0.62274226  0.25537927  0.60155002  1
  O  O292  1  0.59537000  0.26038419  0.88073420  1
  O  O293  1  0.59307007  0.50909469  0.14969011  1
  O  O294  1  0.59059785  0.49544076  0.33801493  1
  O  O295  1  0.61531702  0.49684966  0.62702744  1
  O  O296  1  0.62197093  0.50029295  0.83906512  1
  O  O297  1  0.63962951  0.73908072  0.09073018  1
  O  O298  1  0.64589021  0.74621810  0.40779841  1
  O  O299  1  0.61650714  0.76069662  0.59591287  1
  O  O300  1  0.62126374  0.74235825  0.89881801  1
  O  O301  1  0.87083770  0.00586739  0.12935090  1
  O  O302  1  0.88198606  0.00346845  0.40018737  1
  O  O303  1  0.88304971  0.01034635  0.60513990  1
  O  O304  1  0.88188812  0.01099061  0.90509712  1
  O  O305  1  0.86985274  0.25792714  0.15941571  1
  O  O306  1  0.85555171  0.26414574  0.34302670  1
  O  O307  1  0.84743046  0.25261659  0.62995715  1
  O  O308  1  0.86180224  0.24484365  0.87453527  1
  O  O309  1  0.89710139  0.49759705  0.09236090  1
  O  O310  1  0.88765981  0.50238117  0.39465423  1
  O  O311  1  0.89490919  0.49756681  0.60520676  1
  O  O312  1  0.85310569  0.49409491  0.89093691  1
  O  O313  1  0.87567814  0.75051859  0.13565275  1
  O  O314  1  0.82371591  0.74077381  0.36670932  1
  O  O315  1  0.86752724  0.75542369  0.65255970  1
  O  O316  1  0.90548085  0.75044224  0.85886922  1
