# generated using pymatgen
data_Mg32Ti42(Bi17O64)3
_symmetry_space_group_name_H-M   'P 1'
_cell_length_a   15.96113080
_cell_length_b   15.95157528
_cell_length_c   15.89288674
_cell_angle_alpha   89.90236520
_cell_angle_beta   90.06329912
_cell_angle_gamma   89.88977427
_symmetry_Int_Tables_number   1
_chemical_formula_structural   Mg32Ti42(Bi17O64)3
_chemical_formula_sum   'Mg32 Ti42 Bi51 O192'
_cell_volume   4046.39543454
_cell_formula_units_Z   1
loop_
 _symmetry_equiv_pos_site_id
 _symmetry_equiv_pos_as_xyz
  1  'x, y, z'
loop_
 _atom_site_type_symbol
 _atom_site_label
 _atom_site_symmetry_multiplicity
 _atom_site_fract_x
 _atom_site_fract_y
 _atom_site_fract_z
 _atom_site_occupancy
  Mg  Mg0  1  0.86497837  0.39591026  0.87878369  1
  Mg  Mg1  1  0.11158686  0.62885862  0.12435038  1
  Mg  Mg2  1  0.37489023  0.62706688  0.62084044  1
  Mg  Mg3  1  0.38287243  0.37110727  0.37326294  1
  Mg  Mg4  1  0.12799913  0.87491823  0.87700920  1
  Mg  Mg5  1  0.12917605  0.12346672  0.13265635  1
  Mg  Mg6  1  0.12127798  0.37170788  0.37997724  1
  Mg  Mg7  1  0.11936230  0.86768353  0.12813702  1
  Mg  Mg8  1  0.13203274  0.37505394  0.11856520  1
  Mg  Mg9  1  0.62424384  0.87283626  0.37252236  1
  Mg  Mg10  1  0.36763707  0.87819525  0.38140324  1
  Mg  Mg11  1  0.12301644  0.63053641  0.61441403  1
  Mg  Mg12  1  0.87797973  0.12383804  0.12675918  1
  Mg  Mg13  1  0.12616324  0.13811930  0.87034755  1
  Mg  Mg14  1  0.61608747  0.13232563  0.87024552  1
  Mg  Mg15  1  0.87400761  0.87038844  0.37589989  1
  Mg  Mg16  1  0.38261702  0.61982211  0.11456820  1
  Mg  Mg17  1  0.37769353  0.62136888  0.36727443  1
  Mg  Mg18  1  0.63453886  0.63235166  0.86945015  1
  Mg  Mg19  1  0.80863506  0.47661181  0.71022160  1
  Mg  Mg20  1  0.24383922  0.01876579  0.83021867  1
  Mg  Mg21  1  0.49013053  0.79150036  -0.02894630  1
  Mg  Mg22  1  0.31413359  0.03554420  0.47223105  1
  Mg  Mg23  1  0.75195459  0.79004782  0.76398730  1
  Mg  Mg24  1  0.54845612  0.53254748  -0.00370882  1
  Mg  Mg25  1  -0.01023901  0.79388574  -0.00712907  1
  Mg  Mg26  1  0.20712456  -0.00562609  0.03123797  1
  Mg  Mg27  1  0.51154919  0.04502910  0.06501918  1
  Mg  Mg28  1  0.22901260  0.20684096  0.01713981  1
  Mg  Mg29  1  0.25342045  0.69704336  0.22030707  1
  Mg  Mg30  1  0.76260170  0.51962204  0.04200420  1
  Mg  Mg31  1  -0.03479849  0.75926524  0.50717933  1
  Ti  Ti32  1  0.62094323  0.87230272  0.87423613  1
  Ti  Ti33  1  0.87777606  0.88037760  0.12278136  1
  Ti  Ti34  1  0.87206100  0.63716040  0.13745687  1
  Ti  Ti35  1  0.87721317  0.11876359  0.63068751  1
  Ti  Ti36  1  0.87187791  0.11248600  0.37422125  1
  Ti  Ti37  1  0.37209538  0.38633967  0.88286283  1
  Ti  Ti38  1  0.38154202  0.37678475  0.62375527  1
  Ti  Ti39  1  0.62487076  0.11994637  0.63167069  1
  Ti  Ti40  1  0.37585135  0.13794779  0.88364748  1
  Ti  Ti41  1  0.62032789  0.36975488  0.63206367  1
  Ti  Ti42  1  0.85971749  0.63232450  0.87048803  1
  Ti  Ti43  1  0.36491534  0.87823474  0.87456573  1
  Ti  Ti44  1  0.62926141  0.12321766  0.38095049  1
  Ti  Ti45  1  0.87796249  0.62646242  0.37559419  1
  Ti  Ti46  1  0.37460329  0.11994608  0.64200323  1
  Ti  Ti47  1  0.86592176  0.87501445  0.63086254  1
  Ti  Ti48  1  0.62867566  0.62301651  0.36644330  1
  Ti  Ti49  1  0.62457362  0.39050825  0.88611816  1
  Ti  Ti50  1  0.88136014  0.37760119  0.12812275  1
  Ti  Ti51  1  0.87815813  0.37668953  0.37347789  1
  Ti  Ti52  1  0.38115167  0.37049640  0.11267246  1
  Ti  Ti53  1  0.12486099  0.87140153  0.38116625  1
  Ti  Ti54  1  0.36935033  0.88576855  0.11217807  1
  Ti  Ti55  1  0.60850314  0.86948130  0.12209242  1
  Ti  Ti56  1  0.63259259  0.62633626  0.12228738  1
  Ti  Ti57  1  0.15831673  0.10092045  0.62322906  1
  Ti  Ti58  1  0.12342832  0.62875359  0.87216020  1
  Ti  Ti59  1  0.61816515  0.37302861  0.38013617  1
  Ti  Ti60  1  0.12685176  0.39376811  0.62149171  1
  Ti  Ti61  1  0.88048112  0.13309719  0.88402556  1
  Ti  Ti62  1  0.62297456  0.38080814  0.12492630  1
  Ti  Ti63  1  0.87366185  0.88351997  0.88085194  1
  Ti  Ti64  1  0.38266844  0.62415467  0.88457239  1
  Ti  Ti65  1  0.11487922  0.62006991  0.37045614  1
  Ti  Ti66  1  0.88073608  0.63673532  0.63009693  1
  Ti  Ti67  1  0.11987900  0.11363817  0.38615568  1
  Ti  Ti68  1  0.63085527  0.85886428  0.63004562  1
  Ti  Ti69  1  0.13156811  0.87074363  0.62304188  1
  Ti  Ti70  1  0.64433412  0.62209598  0.63342756  1
  Ti  Ti71  1  0.36253052  0.13433056  0.10868752  1
  Ti  Ti72  1  0.12849977  0.37801352  0.88080867  1
  Ti  Ti73  1  0.36046924  0.88233297  0.63037135  1
  Bi  Bi74  1  0.28326034  0.50093570  0.49053126  1
  Bi  Bi75  1  0.72620876  0.02728873  0.22089561  1
  Bi  Bi76  1  0.71281938  0.02738090  -0.00005127  1
  Bi  Bi77  1  0.48886132  -0.00634905  0.77382139  1
  Bi  Bi78  1  -0.01807008  0.52082225  0.01507213  1
  Bi  Bi79  1  -0.00220321  0.77108041  0.77384174  1
  Bi  Bi80  1  0.72908308  0.75797184  -0.01056738  1
  Bi  Bi81  1  0.75552897  0.47853732  0.50946066  1
  Bi  Bi82  1  0.26685170  0.47880372  0.23443053  1
  Bi  Bi83  1  0.74847377  0.02820512  0.77053935  1
  Bi  Bi84  1  0.24380172  0.73861732  0.73686885  1
  Bi  Bi85  1  0.53001198  0.23361385  0.02465878  1
  Bi  Bi86  1  0.00224767  0.24266385  0.27001147  1
  Bi  Bi87  1  0.24322605  0.52010718  0.75941958  1
  Bi  Bi88  1  0.01869834  0.24740347  0.03920047  1
  Bi  Bi89  1  0.74506092  -0.00473364  0.49154163  1
  Bi  Bi90  1  0.02828172  0.48502752  0.25472013  1
  Bi  Bi91  1  0.49910094  -0.01943003  0.52412418  1
  Bi  Bi92  1  0.02589832  0.23966069  0.54805165  1
  Bi  Bi93  1  0.76444833  0.27583958  0.72736438  1
  Bi  Bi94  1  0.46886739  0.22356555  0.26904847  1
  Bi  Bi95  1  0.01856676  0.02229434  -0.01643631  1
  Bi  Bi96  1  0.75001170  0.76521742  0.48314450  1
  Bi  Bi97  1  -0.01662477  0.27919023  0.76845850  1
  Bi  Bi98  1  0.25729503  0.27302915  0.50187184  1
  Bi  Bi99  1  0.74695497  0.78033579  0.23961808  1
  Bi  Bi100  1  0.75366130  0.49275042  0.26751468  1
  Bi  Bi101  1  0.02143029  0.00824103  0.23632349  1
  Bi  Bi102  1  0.25949541  0.25427072  0.27922157  1
  Bi  Bi103  1  0.02638409  0.01098399  0.73962265  1
  Bi  Bi104  1  0.23932769  0.28034160  0.75210565  1
  Bi  Bi105  1  0.24640892  0.72899977  0.45565488  1
  Bi  Bi106  1  0.47682149  0.74748880  0.73994832  1
  Bi  Bi107  1  0.74188355  0.25192246  0.26088353  1
  Bi  Bi108  1  0.23197504  0.51800343  0.01943092  1
  Bi  Bi109  1  0.52442028  0.51937999  0.51044280  1
  Bi  Bi110  1  -0.00311625  -0.03183131  0.49839696  1
  Bi  Bi111  1  0.22655492  0.75773414  0.02207001  1
  Bi  Bi112  1  0.49711947  0.73897066  0.48087699  1
  Bi  Bi113  1  0.50253175  0.26692856  0.78165998  1
  Bi  Bi114  1  0.26495054  0.01516962  0.27333580  1
  Bi  Bi115  1  -0.00598058  0.51563432  0.76302152  1
  Bi  Bi116  1  0.77125630  0.23031681  0.50690916  1
  Bi  Bi117  1  0.48473960  0.21666720  0.51576367  1
  Bi  Bi118  1  0.50242356  0.52137020  0.23100270  1
  Bi  Bi119  1  0.00202059  0.76710592  0.24586439  1
  Bi  Bi120  1  0.76831587  0.28255823  0.00811559  1
  Bi  Bi121  1  -0.01969633  0.51594670  0.51378515  1
  Bi  Bi122  1  0.48631001  -0.01041732  0.28156107  1
  Bi  Bi123  1  0.51650078  0.51721166  0.76443146  1
  Bi  Bi124  1  0.46025862  0.75600592  0.23997371  1
  O  O125  1  0.09698911  0.13893587  -0.00363678  1
  O  O126  1  0.13605324  0.09106276  0.25551073  1
  O  O127  1  0.11023166  0.12781776  0.50338933  1
  O  O128  1  0.15268448  0.07544753  0.74890215  1
  O  O129  1  0.10884455  0.35819291  -0.01057092  1
  O  O130  1  0.13939538  0.40219929  0.24458678  1
  O  O131  1  0.11790195  0.34141517  0.50607803  1
  O  O132  1  0.15274834  0.39302499  0.74089953  1
  O  O133  1  0.15156574  0.64096147  -0.00749339  1
  O  O134  1  0.09758107  0.61232953  0.25061421  1
  O  O135  1  0.15809264  0.63143918  0.48748436  1
  O  O136  1  0.11482296  0.59945656  0.75034469  1
  O  O137  1  0.11670612  0.83463506  0.00009947  1
  O  O138  1  0.08781532  0.88376952  0.25630670  1
  O  O139  1  0.13461771  0.87624923  0.50440850  1
  O  O140  1  0.09868188  0.88983498  0.74312409  1
  O  O141  1  0.40992983  0.11546835  -0.00770913  1
  O  O142  1  0.34986901  0.13570072  0.22890281  1
  O  O143  1  0.41215568  0.10085633  0.50964850  1
  O  O144  1  0.34200958  0.13000737  0.74885359  1
  O  O145  1  0.38299644  0.39196133  -0.00370817  1
  O  O146  1  0.35439503  0.35142997  0.23874621  1
  O  O147  1  0.36233813  0.36582463  0.49939008  1
  O  O148  1  0.35902912  0.36550817  0.74010452  1
  O  O149  1  0.34674346  0.62444008  -0.00650360  1
  O  O150  1  0.40604887  0.62449361  0.24447240  1
  O  O151  1  0.33981270  0.62875450  0.49439407  1
  O  O152  1  0.40836252  0.62702093  0.74820706  1
  O  O153  1  0.37626155  0.85823187  -0.00810456  1
  O  O154  1  0.39540446  0.88313993  0.23883429  1
  O  O155  1  0.36717566  0.91449674  0.51216460  1
  O  O156  1  0.39831336  0.87172452  0.75285812  1
  O  O157  1  0.59744420  0.10450362  -0.00630677  1
  O  O158  1  0.65460871  0.13884558  0.26014758  1
  O  O159  1  0.59765323  0.12636631  0.50062804  1
  O  O160  1  0.65272388  0.13308946  0.74553392  1
  O  O161  1  0.59137581  0.41167248  -0.00220405  1
  O  O162  1  0.64830071  0.36047924  0.24231274  1
  O  O163  1  0.62330608  0.39468788  0.49783199  1
  O  O164  1  0.61609024  0.36235332  0.74889580  1
  O  O165  1  0.65862930  0.59668216  0.00707699  1
  O  O166  1  0.60269032  0.63698269  0.25123718  1
  O  O167  1  0.64615178  0.59116575  0.50390513  1
  O  O168  1  0.59820403  0.63455885  0.74295666  1
  O  O169  1  0.65015734  0.87862005  0.00539848  1
  O  O170  1  0.61781353  0.84948488  0.24255878  1
  O  O171  1  0.65340205  0.88135141  0.51225057  1
  O  O172  1  0.62572273  0.83933686  0.76044006  1
  O  O173  1  0.90284396  0.11848719  -0.00204582  1
  O  O174  1  0.84111031  0.11712470  0.25931352  1
  O  O175  1  0.88679662  0.13692936  0.50548047  1
  O  O176  1  0.84405936  0.13255886  0.75004607  1
  O  O177  1  0.88302368  0.38067810  0.00357363  1
  O  O178  1  0.84321693  0.37767658  0.24301015  1
  O  O179  1  0.88334119  0.40227198  0.48671748  1
  O  O180  1  0.86368726  0.36493968  0.75542267  1
  O  O181  1  0.84748997  0.59346177  -0.01962144  1
  O  O182  1  0.89185864  0.65492204  0.25027597  1
  O  O183  1  0.85702361  0.58878115  0.49133835  1
  O  O184  1  0.91212317  0.64796586  0.74129899  1
  O  O185  1  0.87938338  0.87404367  0.00073200  1
  O  O186  1  0.88849642  0.84671010  0.25000330  1
  O  O187  1  0.83590421  0.88138170  0.51102079  1
  O  O188  1  0.87587113  0.84463910  0.75514700  1
  O  O189  1  0.00096548  0.15087479  0.15258229  1
  O  O190  1  -0.01107168  0.13068050  0.35392087  1
  O  O191  1  -0.01072409  0.13507531  0.65213218  1
  O  O192  1  -0.00181939  0.10521748  0.85664125  1
  O  O193  1  -0.00446390  0.35975779  0.14458518  1
  O  O194  1  -0.00484920  0.37105009  0.34936067  1
  O  O195  1  0.02064603  0.34554923  0.64474128  1
  O  O196  1  0.00646739  0.39220811  0.84817574  1
  O  O197  1  -0.01452638  0.64013942  0.08882631  1
  O  O198  1  -0.00246072  0.63150663  0.39491590  1
  O  O199  1  -0.00891750  0.64969258  0.57962616  1
  O  O200  1  0.01016929  0.59562001  0.88387938  1
  O  O201  1  -0.00776379  0.82872440  0.11932442  1
  O  O202  1  -0.00634510  0.85644533  0.41719593  1
  O  O203  1  -0.01446856  0.85636543  0.59976388  1
  O  O204  1  -0.00363478  0.87646058  0.88001271  1
  O  O205  1  0.24961273  0.09895177  0.08497603  1
  O  O206  1  0.23475996  0.08926435  0.38958590  1
  O  O207  1  0.26550033  0.08412949  0.58842947  1
  O  O208  1  0.25602570  0.14026593  0.90052228  1
  O  O209  1  0.25521470  0.40800821  0.11453886  1
  O  O210  1  0.24595578  0.35344209  0.37963804  1
  O  O211  1  0.24622263  0.36333079  0.61094596  1
  O  O212  1  0.25148912  0.35413925  0.87498475  1
  O  O213  1  0.25071273  0.59203314  0.14307916  1
  O  O214  1  0.24682496  0.64730764  0.34048307  1
  O  O215  1  0.25119285  0.62665377  0.65761059  1
  O  O216  1  0.25487400  0.63648536  0.84071841  1
  O  O217  1  0.25337343  0.89916834  0.10334054  1
  O  O218  1  0.23803669  0.89512243  0.36057752  1
  O  O219  1  0.24774409  0.89192130  0.64463634  1
  O  O220  1  0.25401731  0.87882050  0.85643022  1
  O  O221  1  0.48588956  0.14943454  0.13394667  1
  O  O222  1  0.51353776  0.12151967  0.34960973  1
  O  O223  1  0.50309607  0.15066053  0.64106164  1
  O  O224  1  0.49138149  0.12088404  0.83548517  1
  O  O225  1  0.49860132  0.34494079  0.13157339  1
  O  O226  1  0.50821641  0.35295620  0.36284649  1
  O  O227  1  0.49578165  0.35642970  0.61986011  1
  O  O228  1  0.48887370  0.38945251  0.85239719  1
  O  O229  1  0.51378777  0.60872907  0.10237756  1
  O  O230  1  0.50458902  0.62177215  0.40556900  1
  O  O231  1  0.50167084  0.63873865  0.58457242  1
  O  O232  1  0.49591062  0.59517016  0.89858380  1
  O  O233  1  0.50186936  0.83574096  0.09586657  1
  O  O234  1  0.50187961  0.90154662  0.38842069  1
  O  O235  1  0.51306478  0.86071106  0.61449512  1
  O  O236  1  0.50679938  0.88903547  0.88685212  1
  O  O237  1  0.75429066  0.09824518  0.10944936  1
  O  O238  1  0.75297594  0.12498800  0.41040001  1
  O  O239  1  0.74354740  0.11264681  0.59389491  1
  O  O240  1  0.75258811  0.11580129  0.89223527  1
  O  O241  1  0.74237271  0.39979864  0.08898332  1
  O  O242  1  0.75156127  0.40460099  0.38261985  1
  O  O243  1  0.73955608  0.39802975  0.63764535  1
  O  O244  1  0.73793769  0.37377686  0.89450037  1
  O  O245  1  0.75377543  0.59904373  0.14451124  1
  O  O246  1  0.74793970  0.62104351  0.35343362  1
  O  O247  1  0.75650959  0.59203890  0.64989182  1
  O  O248  1  0.75645814  0.67699142  0.84311106  1
  O  O249  1  0.75753135  0.88653038  0.14741785  1
  O  O250  1  0.74868493  0.85043834  0.36393366  1
  O  O251  1  0.74847719  0.87831251  0.66196414  1
  O  O252  1  0.75497132  0.85232572  0.87452018  1
  O  O253  1  0.09853839  -0.00475450  0.10838451  1
  O  O254  1  0.08334306  -0.00350559  0.38580373  1
  O  O255  1  0.09413081  -0.00168548  0.61349816  1
  O  O256  1  0.14808419  -0.00193408  0.91673377  1
  O  O257  1  0.14150982  0.24818783  0.11000376  1
  O  O258  1  0.11752896  0.23405028  0.35215009  1
  O  O259  1  0.14149472  0.21565940  0.63505879  1
  O  O260  1  0.11620558  0.25954338  0.83664832  1
  O  O261  1  0.10522362  0.50391450  0.09180702  1
  O  O262  1  0.10743501  0.50271561  0.37929295  1
  O  O263  1  0.10799269  0.50208993  0.60116137  1
  O  O264  1  0.15459639  0.49838478  0.88233297  1
  O  O265  1  0.16297776  0.74506717  0.14493555  1
  O  O266  1  0.12484060  0.75552763  0.36971211  1
  O  O267  1  0.13571866  0.75585275  0.64197351  1
  O  O268  1  0.12172371  0.74299185  0.84802436  1
  O  O269  1  0.40428179  -0.00450836  0.11315652  1
  O  O270  1  0.37370500  0.00462926  0.35808659  1
  O  O271  1  0.41109302  0.00045886  0.64816036  1
  O  O272  1  0.36938496  -0.00102592  0.85822887  1
  O  O273  1  0.33690978  0.24628751  0.08557928  1
  O  O274  1  0.36734748  0.23930077  0.36667202  1
  O  O275  1  0.36419715  0.23671947  0.60463668  1
  O  O276  1  0.39427558  0.25356672  0.87654616  1
  O  O277  1  0.39459435  0.48609516  0.14452199  1
  O  O278  1  0.36558898  0.49613845  0.38139190  1
  O  O279  1  0.37474749  0.49412005  0.60498820  1
  O  O280  1  0.35383394  0.50175215  0.86149310  1
  O  O281  1  0.35324969  0.74960176  0.15009067  1
  O  O282  1  0.39291477  0.75444347  0.37200650  1
  O  O283  1  0.36754103  0.76292871  0.63531918  1
  O  O284  1  0.40578886  0.74767389  0.87059439  1
  O  O285  1  0.60256143  -0.01388764  0.13380547  1
  O  O286  1  0.64576491  0.00531477  0.37835597  1
  O  O287  1  0.61189639  0.00293589  0.63707637  1
  O  O288  1  0.63951659  -0.00883318  0.85887013  1
  O  O289  1  0.64710231  0.26552551  0.08880630  1
  O  O290  1  0.65458095  0.25577660  0.38005246  1
  O  O291  1  0.64744176  0.25528593  0.61325574  1
  O  O292  1  0.59751484  0.25937498  0.88549231  1
  O  O293  1  0.61755517  0.49722036  0.14794382  1
  O  O294  1  0.61640077  0.49923447  0.35535756  1
  O  O295  1  0.59645514  0.50194873  0.63647870  1
  O  O296  1  0.62606250  0.50330301  0.85437016  1
  O  O297  1  0.65086128  0.74226757  0.11223015  1
  O  O298  1  0.61677146  0.74034294  0.40292313  1
  O  O299  1  0.65008099  0.74175046  0.61521954  1
  O  O300  1  0.60511655  0.75109612  0.91650965  1
  O  O301  1  0.90479535  -0.01093906  0.13477811  1
  O  O302  1  0.87140396  -0.00102103  0.39158777  1
  O  O303  1  0.87888032  -0.00447153  0.63544647  1
  O  O304  1  0.86259414  -0.00556074  0.86270606  1
  O  O305  1  0.85262220  0.25809656  0.12145133  1
  O  O306  1  0.85863912  0.25876933  0.37066070  1
  O  O307  1  0.85133401  0.24263795  0.62519175  1
  O  O308  1  0.88486728  0.24639911  0.88137820  1
  O  O309  1  0.88836694  0.50351224  0.12557635  1
  O  O310  1  0.88141052  0.50699713  0.33997221  1
  O  O311  1  0.90622049  0.51292691  0.63521969  1
  O  O312  1  0.85959751  0.51660849  0.82452711  1
  O  O313  1  0.84183812  0.74307872  0.10941034  1
  O  O314  1  0.87293908  0.74001039  0.41324306  1
  O  O315  1  0.85347306  0.74728010  0.60102962  1
  O  O316  1  0.91746413  0.73769792  0.89321820  1
