# generated using pymatgen
data_Mg32Ti42(Bi17O64)3
_symmetry_space_group_name_H-M   'P 1'
_cell_length_a   15.96043004
_cell_length_b   15.98981418
_cell_length_c   15.94177969
_cell_angle_alpha   90.05357757
_cell_angle_beta   90.03407140
_cell_angle_gamma   90.09663222
_symmetry_Int_Tables_number   1
_chemical_formula_structural   Mg32Ti42(Bi17O64)3
_chemical_formula_sum   'Mg32 Ti42 Bi51 O192'
_cell_volume   4068.40260811
_cell_formula_units_Z   1
loop_
 _symmetry_equiv_pos_site_id
 _symmetry_equiv_pos_as_xyz
  1  'x, y, z'
loop_
 _atom_site_type_symbol
 _atom_site_label
 _atom_site_symmetry_multiplicity
 _atom_site_fract_x
 _atom_site_fract_y
 _atom_site_fract_z
 _atom_site_occupancy
  Mg  Mg0  1  0.37222981  0.38177505  0.63119743  1
  Mg  Mg1  1  0.37076330  0.87952070  0.62058313  1
  Mg  Mg2  1  0.37766617  0.11927477  0.38097412  1
  Mg  Mg3  1  0.37914603  0.86876923  0.87934019  1
  Mg  Mg4  1  0.88295474  0.13000231  0.36811565  1
  Mg  Mg5  1  0.12530483  0.37306494  0.87807794  1
  Mg  Mg6  1  0.62699423  0.87746997  0.62806422  1
  Mg  Mg7  1  0.62323566  0.62399612  0.62117193  1
  Mg  Mg8  1  0.36693447  0.11687824  0.13128361  1
  Mg  Mg9  1  0.89415872  0.87112683  0.36718337  1
  Mg  Mg10  1  0.87598868  0.12248505  0.62891238  1
  Mg  Mg11  1  0.62296393  0.37215129  0.87303438  1
  Mg  Mg12  1  0.13379958  0.61572919  0.61941968  1
  Mg  Mg13  1  0.87460478  0.62899587  0.36675101  1
  Mg  Mg14  1  0.36332832  0.38159863  0.11545306  1
  Mg  Mg15  1  0.11674994  0.62857353  0.87859730  1
  Mg  Mg16  1  0.88416523  0.87620932  0.12324888  1
  Mg  Mg17  1  0.87856567  0.62292063  0.62729543  1
  Mg  Mg18  1  0.87699334  0.86519682  0.62226058  1
  Mg  Mg19  1  0.75440765  0.72495411  0.70107025  1
  Mg  Mg20  1  -0.01674071  -0.01506732  0.68790991  1
  Mg  Mg21  1  0.27580848  0.44683160  0.27117848  1
  Mg  Mg22  1  -0.06611122  0.74857216  0.49254894  1
  Mg  Mg23  1  0.01686774  0.71201471  0.29434710  1
  Mg  Mg24  1  0.84343533  -0.00135522  0.49699121  1
  Mg  Mg25  1  0.24263240  0.05189394  0.29487456  1
  Mg  Mg26  1  0.28983539  0.20557083  0.00348237  1
  Mg  Mg27  1  0.05381996  0.03003833  0.41725157  1
  Mg  Mg28  1  0.46105177  0.23995637  0.04108494  1
  Mg  Mg29  1  0.07140085  0.19825214  0.27464830  1
  Mg  Mg30  1  0.21586067  0.70018528  0.00367889  1
  Mg  Mg31  1  0.56152914  0.73660643  0.74125625  1
  Ti  Ti32  1  0.87858414  0.37003518  0.12396814  1
  Ti  Ti33  1  0.12358288  0.88047268  0.12386070  1
  Ti  Ti34  1  0.85601646  0.62339967  0.12921447  1
  Ti  Ti35  1  0.37670854  0.61845882  0.63615616  1
  Ti  Ti36  1  0.62267538  0.12266700  0.38867172  1
  Ti  Ti37  1  0.12219911  0.87103716  0.36176354  1
  Ti  Ti38  1  0.12714923  0.88166457  0.62003979  1
  Ti  Ti39  1  0.11422857  0.11225545  0.62891827  1
  Ti  Ti40  1  0.37323119  0.37206039  0.89102996  1
  Ti  Ti41  1  0.62941481  0.14235017  0.11508108  1
  Ti  Ti42  1  0.87861183  0.13536597  0.12862414  1
  Ti  Ti43  1  0.36392753  0.12583702  0.62088700  1
  Ti  Ti44  1  0.38970334  0.62357776  0.11483157  1
  Ti  Ti45  1  0.88100351  0.37499430  0.37671906  1
  Ti  Ti46  1  0.62321438  0.37430173  0.62881581  1
  Ti  Ti47  1  0.62937147  0.37602360  0.12339145  1
  Ti  Ti48  1  0.38489163  0.13366303  0.86735012  1
  Ti  Ti49  1  0.36819204  0.86745032  0.37666854  1
  Ti  Ti50  1  0.86793006  0.64595864  0.86917266  1
  Ti  Ti51  1  0.12882138  0.38071225  0.61990695  1
  Ti  Ti52  1  0.12784612  0.85492293  0.87778803  1
  Ti  Ti53  1  0.87839282  0.12532290  0.86472133  1
  Ti  Ti54  1  0.61874134  0.12923054  0.87428947  1
  Ti  Ti55  1  0.61902921  0.62828878  0.87977667  1
  Ti  Ti56  1  0.37129881  0.63248785  0.35833895  1
  Ti  Ti57  1  0.12081395  0.36076258  0.13159083  1
  Ti  Ti58  1  0.37891084  0.63427199  0.88177348  1
  Ti  Ti59  1  0.87245934  0.37907951  0.86274396  1
  Ti  Ti60  1  0.86824295  0.37798599  0.62805514  1
  Ti  Ti61  1  0.61871071  0.88777362  0.12332629  1
  Ti  Ti62  1  0.62188425  0.63301347  0.37175039  1
  Ti  Ti63  1  0.63135963  0.37932720  0.39191839  1
  Ti  Ti64  1  0.36370122  0.87210751  0.12220411  1
  Ti  Ti65  1  0.13800755  0.12690918  0.11801017  1
  Ti  Ti66  1  0.62208651  0.62135016  0.13329705  1
  Ti  Ti67  1  0.89032846  0.87767705  0.87646039  1
  Ti  Ti68  1  0.62404650  0.11002422  0.62713164  1
  Ti  Ti69  1  0.13719142  0.13504979  0.87599202  1
  Ti  Ti70  1  0.11092279  0.37463282  0.36424715  1
  Ti  Ti71  1  0.62533947  0.89124180  0.37490002  1
  Ti  Ti72  1  0.62442140  0.88689876  0.86873502  1
  Ti  Ti73  1  0.13358457  0.60539643  0.36917913  1
  Bi  Bi74  1  0.77228709  0.02016958  -0.00592435  1
  Bi  Bi75  1  0.49680193  0.73392074  0.53536503  1
  Bi  Bi76  1  0.26774653  -0.02464400  0.75615888  1
  Bi  Bi77  1  0.49390028  0.02455036  0.02415868  1
  Bi  Bi78  1  0.24984708  0.51436152  0.78827655  1
  Bi  Bi79  1  0.23380348  0.01639323  0.49215658  1
  Bi  Bi80  1  0.48485802  0.46357983  0.25873490  1
  Bi  Bi81  1  0.76880448  0.22957020  0.50329665  1
  Bi  Bi82  1  0.75218389  0.77555344  0.23562193  1
  Bi  Bi83  1  0.01991404  0.23416687  0.75132002  1
  Bi  Bi84  1  0.50684607  0.77246131  -0.01297896  1
  Bi  Bi85  1  0.48623214  0.48152871  0.76836706  1
  Bi  Bi86  1  0.20504110  0.51450506  0.04061141  1
  Bi  Bi87  1  -0.00217661  0.52938881  0.50280511  1
  Bi  Bi88  1  0.01024145  0.01992760  0.23098513  1
  Bi  Bi89  1  0.73347077  0.52386737  0.74184778  1
  Bi  Bi90  1  0.49069722  -0.02231288  0.73699537  1
  Bi  Bi91  1  0.24621452  0.27258895  0.74763314  1
  Bi  Bi92  1  0.23484736  0.72630888  0.20891030  1
  Bi  Bi93  1  0.01910762  0.71984821  0.05328782  1
  Bi  Bi94  1  0.28717442  0.25841969  0.23949645  1
  Bi  Bi95  1  -0.00793093  0.26692932  0.52045464  1
  Bi  Bi96  1  0.21853094  0.74921772  0.48272940  1
  Bi  Bi97  1  0.47237272  -0.00773618  0.26105010  1
  Bi  Bi98  1  0.76057100  0.48779256  0.26499763  1
  Bi  Bi99  1  0.73508460  0.23490430  0.73126721  1
  Bi  Bi100  1  0.50162146  0.47238231  0.01487566  1
  Bi  Bi101  1  0.51937920  0.23493854  0.26346420  1
  Bi  Bi102  1  0.73830006  0.78130404  0.49279856  1
  Bi  Bi103  1  0.02645428  0.00563841  -0.02251923  1
  Bi  Bi104  1  0.02890039  0.52188266  0.75085431  1
  Bi  Bi105  1  0.78301095  -0.00436697  0.25377369  1
  Bi  Bi106  1  0.26053517  0.74320265  0.71184570  1
  Bi  Bi107  1  0.00794664  0.26718039  -0.01263590  1
  Bi  Bi108  1  0.73556890  0.51167162  -0.01776155  1
  Bi  Bi109  1  0.48950138  -0.00940366  0.50371569  1
  Bi  Bi110  1  0.25610670  -0.02312625  -0.01290456  1
  Bi  Bi111  1  0.26626717  0.47041067  0.46376159  1
  Bi  Bi112  1  0.76374494  0.53750916  0.49908910  1
  Bi  Bi113  1  0.75296248  0.25971335  -0.02818085  1
  Bi  Bi114  1  0.46233939  0.29024693  0.48295577  1
  Bi  Bi115  1  0.49519135  0.51506480  0.48198532  1
  Bi  Bi116  1  0.23797004  0.24736211  0.46178098  1
  Bi  Bi117  1  0.75127813  0.78216894  0.00924823  1
  Bi  Bi118  1  0.50179376  0.76163611  0.25382421  1
  Bi  Bi119  1  0.01541103  0.75165473  0.70810506  1
  Bi  Bi120  1  0.75963762  0.24230999  0.26334855  1
  Bi  Bi121  1  0.76931580  -0.03710337  0.73993064  1
  Bi  Bi122  1  0.49596657  0.25500401  0.71703920  1
  Bi  Bi123  1  0.00165034  0.51391730  0.21980325  1
  Bi  Bi124  1  -0.02756490  0.50992535  -0.01985829  1
  O  O125  1  0.09506778  0.13641178  0.00085111  1
  O  O126  1  0.14292402  0.09839416  0.23504924  1
  O  O127  1  0.10939230  0.07924061  0.51536143  1
  O  O128  1  0.13864708  0.15374648  0.75323175  1
  O  O129  1  0.12683113  0.34827280  0.01366204  1
  O  O130  1  0.08842674  0.37225971  0.25390232  1
  O  O131  1  0.14349697  0.39148382  0.50040755  1
  O  O132  1  0.11627974  0.34155095  0.74158852  1
  O  O133  1  0.11415471  0.61313849  0.00567324  1
  O  O134  1  0.12988656  0.65267742  0.26054160  1
  O  O135  1  0.12142146  0.60042611  0.49223421  1
  O  O136  1  0.11804392  0.62865133  0.75156365  1
  O  O137  1  0.13308476  0.90282015  -0.00052589  1
  O  O138  1  0.12664699  0.85855848  0.24609364  1
  O  O139  1  0.14624678  0.88627804  0.50718516  1
  O  O140  1  0.11687399  0.84591161  0.76329357  1
  O  O141  1  0.39421892  0.12333424  -0.00161158  1
  O  O142  1  0.33888943  0.13186738  0.25226329  1
  O  O143  1  0.38912443  0.09163600  0.50883219  1
  O  O144  1  0.36478414  0.16022306  0.75349930  1
  O  O145  1  0.35230437  0.41322673  -0.00558038  1
  O  O146  1  0.38031052  0.36793104  0.24280629  1
  O  O147  1  0.37117668  0.39274745  0.50570032  1
  O  O148  1  0.39874252  0.35599924  0.75543436  1
  O  O149  1  0.40634027  0.61533258  0.00068685  1
  O  O150  1  0.36403856  0.65118706  0.24710019  1
  O  O151  1  0.40045705  0.61583915  0.51043992  1
  O  O152  1  0.35331922  0.64411994  0.75828735  1
  O  O153  1  0.36591135  0.89395206  0.00485283  1
  O  O154  1  0.39863038  0.86295068  0.24875545  1
  O  O155  1  0.37775260  0.90241872  0.49094299  1
  O  O156  1  0.37968360  0.88704428  0.75581732  1
  O  O157  1  0.60420539  0.11005512  -0.00314985  1
  O  O158  1  0.63105636  0.15669109  0.23843507  1
  O  O159  1  0.61586008  0.11213063  0.50099935  1
  O  O160  1  0.64196820  0.13380472  0.75412701  1
  O  O161  1  0.63389412  0.40660642  0.00281173  1
  O  O162  1  0.59085775  0.35890596  0.24183233  1
  O  O163  1  0.64702481  0.37251693  0.50325405  1
  O  O164  1  0.60446433  0.36143168  0.74715887  1
  O  O165  1  0.61552048  0.59643857  -0.00438669  1
  O  O166  1  0.63880213  0.62833345  0.25133263  1
  O  O167  1  0.58714239  0.62113240  0.49804255  1
  O  O168  1  0.65818758  0.64768356  0.75182162  1
  O  O169  1  0.63753271  0.87024460  0.00082143  1
  O  O170  1  0.61829587  0.85655132  0.24586839  1
  O  O171  1  0.63746704  0.88215092  0.49247585  1
  O  O172  1  0.58756170  0.86234765  0.75686577  1
  O  O173  1  0.88458338  0.11022929  0.01227877  1
  O  O174  1  0.83872146  0.12693052  0.24706463  1
  O  O175  1  0.86890397  0.13004041  0.49588516  1
  O  O176  1  0.84517533  0.13215685  0.75628498  1
  O  O177  1  0.85716460  0.37953234  0.01040186  1
  O  O178  1  0.88050444  0.40886220  0.25043959  1
  O  O179  1  0.86177309  0.35594052  0.49496264  1
  O  O180  1  0.89135691  0.37914813  0.74809253  1
  O  O181  1  0.89713748  0.62638366  0.00555779  1
  O  O182  1  0.84459090  0.60913490  0.24583976  1
  O  O183  1  0.89026642  0.62107448  0.49424206  1
  O  O184  1  0.84335187  0.64019220  0.75370066  1
  O  O185  1  0.85547679  0.88222117  -0.00245332  1
  O  O186  1  0.85492472  0.86984578  0.24765268  1
  O  O187  1  0.85876614  0.86270672  0.49428866  1
  O  O188  1  0.89677865  0.90017675  0.75829421  1
  O  O189  1  -0.00713639  0.14014211  0.16120526  1
  O  O190  1  0.00417188  0.11214669  0.34088978  1
  O  O191  1  0.00082977  0.10808580  0.65920376  1
  O  O192  1  -0.00689862  0.12139215  0.85484062  1
  O  O193  1  -0.00828414  0.34888876  0.11623424  1
  O  O194  1  -0.00358401  0.39542822  0.39673764  1
  O  O195  1  0.00286559  0.38109524  0.59895682  1
  O  O196  1  -0.00903351  0.37873033  0.89817133  1
  O  O197  1  -0.01636456  0.65404487  0.16869816  1
  O  O198  1  0.01265173  0.59610972  0.36154027  1
  O  O199  1  0.00429064  0.59932093  0.63056730  1
  O  O200  1  -0.01298208  0.60791608  0.86317954  1
  O  O201  1  0.00888466  0.85230926  0.11701566  1
  O  O202  1  0.01670085  0.91402960  0.37936303  1
  O  O203  1  0.00829514  0.87510605  0.63086984  1
  O  O204  1  0.00490025  0.88370653  0.89436733  1
  O  O205  1  0.24447964  0.11492778  0.08502354  1
  O  O206  1  0.24863598  0.12321943  0.40362884  1
  O  O207  1  0.24817771  0.12995224  0.60649876  1
  O  O208  1  0.24765411  0.15676170  0.89597109  1
  O  O209  1  0.23452266  0.39854918  0.15742804  1
  O  O210  1  0.24111220  0.36634757  0.36991163  1
  O  O211  1  0.24696940  0.35250183  0.63559568  1
  O  O212  1  0.25445396  0.37659761  0.84722458  1
  O  O213  1  0.25965709  0.62490512  0.10586670  1
  O  O214  1  0.25423347  0.64793026  0.39106652  1
  O  O215  1  0.25704754  0.63318975  0.62260388  1
  O  O216  1  0.26002434  0.61726400  0.90288730  1
  O  O217  1  0.25065905  0.90313310  0.12728628  1
  O  O218  1  0.25669418  0.83781461  0.37757608  1
  O  O219  1  0.24595768  0.87982221  0.64784150  1
  O  O220  1  0.24722296  0.88569552  0.87448841  1
  O  O221  1  0.50087549  0.14477868  0.12272581  1
  O  O222  1  0.50320948  0.11240935  0.35329971  1
  O  O223  1  0.50668339  0.10286629  0.64117741  1
  O  O224  1  0.50019809  0.12893189  0.85430559  1
  O  O225  1  0.49355007  0.35431539  0.08755794  1
  O  O226  1  0.50833493  0.39582534  0.38826983  1
  O  O227  1  0.50621168  0.37195219  0.61188724  1
  O  O228  1  0.49624890  0.39763037  0.88888062  1
  O  O229  1  0.50493359  0.65196114  0.13947223  1
  O  O230  1  0.49365772  0.59127110  0.36222028  1
  O  O231  1  0.49478561  0.65194761  0.65229736  1
  O  O232  1  0.50681481  0.60997557  0.84814869  1
  O  O233  1  0.50464007  0.85109960  0.11603378  1
  O  O234  1  0.50429510  0.90087475  0.37522692  1
  O  O235  1  0.49770227  0.90666278  0.61638439  1
  O  O236  1  0.50356468  0.88331298  0.90778356  1
  O  O237  1  0.74349956  0.11271691  0.10529553  1
  O  O238  1  0.73734196  0.15787122  0.37998955  1
  O  O239  1  0.74798460  0.15043557  0.61882037  1
  O  O240  1  0.74923701  0.12807669  0.90581485  1
  O  O241  1  0.74168900  0.38969464  0.14851510  1
  O  O242  1  0.74322414  0.36437917  0.34998387  1
  O  O243  1  0.75378467  0.35715754  0.64106446  1
  O  O244  1  0.75490434  0.35904765  0.86972926  1
  O  O245  1  0.74443003  0.58616051  0.10977090  1
  O  O246  1  0.73684430  0.64642467  0.40586920  1
  O  O247  1  0.75065277  0.63562430  0.60591893  1
  O  O248  1  0.75332447  0.63423740  0.90398642  1
  O  O249  1  0.74136953  0.87402903  0.12870879  1
  O  O250  1  0.73737211  0.84096505  0.36791471  1
  O  O251  1  0.75390570  0.84706959  0.66162482  1
  O  O252  1  0.74384995  0.87310517  0.85555547  1
  O  O253  1  0.09388921  0.00491488  0.11202513  1
  O  O254  1  0.16564121  -0.01547172  0.37142467  1
  O  O255  1  0.11942462  -0.00447239  0.66285139  1
  O  O256  1  0.13095399  0.01710937  0.88171592  1
  O  O257  1  0.13677250  0.24092863  0.15860117  1
  O  O258  1  0.11608959  0.25784810  0.37885297  1
  O  O259  1  0.09820766  0.23641172  0.60627751  1
  O  O260  1  0.09499717  0.25003318  0.87724769  1
  O  O261  1  0.09530079  0.48349376  0.11882569  1
  O  O262  1  0.16183525  0.49773741  0.34376922  1
  O  O263  1  0.13559143  0.48917999  0.65274890  1
  O  O264  1  0.12795081  0.49749789  0.86042792  1
  O  O265  1  0.15233577  0.76260094  0.09811413  1
  O  O266  1  0.10796901  0.75520927  0.39666314  1
  O  O267  1  0.12432564  0.75152095  0.62049703  1
  O  O268  1  0.13682873  0.74903974  0.91211627  1
  O  O269  1  0.40149378  -0.00421823  0.13644568  1
  O  O270  1  0.35770101  -0.00845336  0.34157305  1
  O  O271  1  0.36590798  0.01143606  0.65841415  1
  O  O272  1  0.35808870  0.02013356  0.86481825  1
  O  O273  1  0.34627947  0.25120160  0.10951546  1
  O  O274  1  0.36405350  0.24411532  0.39696029  1
  O  O275  1  0.39688834  0.24268503  0.60779776  1
  O  O276  1  0.38225343  0.25917243  0.92181503  1
  O  O277  1  0.39501695  0.51090016  0.14104866  1
  O  O278  1  0.34869246  0.51215139  0.35260037  1
  O  O279  1  0.38389437  0.50621040  0.65727441  1
  O  O280  1  0.37509239  0.50281440  0.85017535  1
  O  O281  1  0.35538782  0.75588922  0.11291889  1
  O  O282  1  0.40655338  0.75126918  0.38002461  1
  O  O283  1  0.36358569  0.75547356  0.61692231  1
  O  O284  1  0.39349956  0.74618032  0.89516790  1
  O  O285  1  0.60208731  -0.00042205  0.12954975  1
  O  O286  1  0.64346847  0.00477152  0.35884324  1
  O  O287  1  0.64971597  0.00115738  0.64313458  1
  O  O288  1  0.62730310  0.00062974  0.86305704  1
  O  O289  1  0.64006130  0.25584636  0.09613076  1
  O  O290  1  0.59609937  0.25038753  0.37968214  1
  O  O291  1  0.61959386  0.24685134  0.63154011  1
  O  O292  1  0.63351595  0.24465538  0.89019904  1
  O  O293  1  0.59081525  0.49517838  0.14059908  1
  O  O294  1  0.64193152  0.49899074  0.37951881  1
  O  O295  1  0.63631162  0.49628408  0.64224903  1
  O  O296  1  0.65127137  0.50606195  0.85208862  1
  O  O297  1  0.65215670  0.73309793  0.11135384  1
  O  O298  1  0.59146378  0.74397155  0.37441245  1
  O  O299  1  0.61228083  0.75356492  0.61814011  1
  O  O300  1  0.60390486  0.74505907  0.88052006  1
  O  O301  1  0.88377510  0.00561824  0.15005698  1
  O  O302  1  0.85484545  -0.00074696  0.37158991  1
  O  O303  1  0.86884972  -0.00528586  0.62024229  1
  O  O304  1  0.86416637  0.00428567  0.88411937  1
  O  O305  1  0.85107945  0.25216959  0.13285390  1
  O  O306  1  0.87707409  0.26139488  0.35127932  1
  O  O307  1  0.89590832  0.25300022  0.61997919  1
  O  O308  1  0.87674486  0.24830226  0.89056945  1
  O  O309  1  0.90513933  0.50306247  0.11666324  1
  O  O310  1  0.84310840  0.49882050  0.38444318  1
  O  O311  1  0.85966805  0.49271405  0.60882886  1
  O  O312  1  0.86396753  0.49637834  0.88376269  1
  O  O313  1  0.84254100  0.74135323  0.11911644  1
  O  O314  1  0.92158281  0.74664282  0.36833144  1
  O  O315  1  0.90450909  0.74466790  0.61564541  1
  O  O316  1  0.88231947  0.75826965  0.87616135  1
