# generated using pymatgen
data_Mg32Ti42(Bi17O64)3
_symmetry_space_group_name_H-M   'P 1'
_cell_length_a   15.95727697
_cell_length_b   15.92123456
_cell_length_c   15.98942071
_cell_angle_alpha   90.04142396
_cell_angle_beta   89.98904478
_cell_angle_gamma   90.01177912
_symmetry_Int_Tables_number   1
_chemical_formula_structural   Mg32Ti42(Bi17O64)3
_chemical_formula_sum   'Mg32 Ti42 Bi51 O192'
_cell_volume   4062.26380205
_cell_formula_units_Z   1
loop_
 _symmetry_equiv_pos_site_id
 _symmetry_equiv_pos_as_xyz
  1  'x, y, z'
loop_
 _atom_site_type_symbol
 _atom_site_label
 _atom_site_symmetry_multiplicity
 _atom_site_fract_x
 _atom_site_fract_y
 _atom_site_fract_z
 _atom_site_occupancy
  Mg  Mg0  1  0.63366709  0.37966753  0.86257384  1
  Mg  Mg1  1  0.38295040  0.36894283  0.38002072  1
  Mg  Mg2  1  0.37251839  0.62728840  0.13665610  1
  Mg  Mg3  1  0.37128387  0.63017041  0.86712067  1
  Mg  Mg4  1  0.37351262  0.62186528  0.37317299  1
  Mg  Mg5  1  0.38342098  0.37489449  0.12435074  1
  Mg  Mg6  1  0.37768839  0.87048207  0.87896546  1
  Mg  Mg7  1  0.87486923  0.62039194  0.60614798  1
  Mg  Mg8  1  0.61794309  0.62726884  0.61890742  1
  Mg  Mg9  1  0.63222452  0.12954838  0.37515431  1
  Mg  Mg10  1  0.13554992  0.37300700  0.62541844  1
  Mg  Mg11  1  0.37136129  0.37727562  0.86490533  1
  Mg  Mg12  1  0.62500948  0.62232196  0.12036586  1
  Mg  Mg13  1  0.12635496  0.88030874  0.37375047  1
  Mg  Mg14  1  0.87070034  0.86911266  0.13059666  1
  Mg  Mg15  1  0.86726222  0.12981319  0.13235289  1
  Mg  Mg16  1  0.38938539  0.88260810  0.12949614  1
  Mg  Mg17  1  0.12205864  0.61734678  0.37241566  1
  Mg  Mg18  1  0.62863523  0.11647193  0.86527835  1
  Mg  Mg19  1  0.52116700  0.26067579  0.46543303  1
  Mg  Mg20  1  0.25334463  0.50518529  -0.08265550  1
  Mg  Mg21  1  0.72702217  -0.00288725  0.70417413  1
  Mg  Mg22  1  0.49773996  0.49705232  0.84276629  1
  Mg  Mg23  1  0.49743673  0.75021347  0.19003625  1
  Mg  Mg24  1  0.03302722  0.50723970  0.22801918  1
  Mg  Mg25  1  0.51317239  0.24284945  0.78283265  1
  Mg  Mg26  1  0.68951201  0.45321295  0.50228207  1
  Mg  Mg27  1  0.49924145  0.29209512  0.23237274  1
  Mg  Mg28  1  0.28480971  0.79221298  0.23603086  1
  Mg  Mg29  1  0.41261396  0.51180639  0.00921795  1
  Mg  Mg30  1  0.30640808  0.74896293  0.04968409  1
  Mg  Mg31  1  0.72337439  0.27007153  0.22061778  1
  Ti  Ti32  1  0.12679193  0.12353647  0.12532199  1
  Ti  Ti33  1  0.63006042  0.61976186  0.86845503  1
  Ti  Ti34  1  0.63251759  0.36479656  0.35556999  1
  Ti  Ti35  1  0.36911083  0.11718783  0.61414573  1
  Ti  Ti36  1  0.12994323  0.87621980  0.12992187  1
  Ti  Ti37  1  0.35844241  0.87538888  0.61373451  1
  Ti  Ti38  1  0.61852205  0.13390099  0.61789473  1
  Ti  Ti39  1  0.12989653  0.37639874  0.37133703  1
  Ti  Ti40  1  0.62847878  0.60749860  0.37517771  1
  Ti  Ti41  1  0.62321462  0.39238377  0.11916183  1
  Ti  Ti42  1  0.87391975  0.86933364  0.62190260  1
  Ti  Ti43  1  0.63225722  0.88519724  0.86533165  1
  Ti  Ti44  1  0.61802406  0.87577271  0.61916359  1
  Ti  Ti45  1  0.87799395  0.63870210  0.37233273  1
  Ti  Ti46  1  0.37811346  0.64399882  0.62481578  1
  Ti  Ti47  1  0.37625271  0.87997093  0.37571729  1
  Ti  Ti48  1  0.13595116  0.62930338  0.12178355  1
  Ti  Ti49  1  0.87606017  0.38327775  0.86435967  1
  Ti  Ti50  1  0.86310042  0.12551596  0.61770851  1
  Ti  Ti51  1  0.12150075  0.88001328  0.63380481  1
  Ti  Ti52  1  0.11182158  0.61955982  0.88462610  1
  Ti  Ti53  1  0.11666736  0.87057246  0.88258016  1
  Ti  Ti54  1  0.38520584  0.34526723  0.63083040  1
  Ti  Ti55  1  0.38183616  0.13259207  0.37628418  1
  Ti  Ti56  1  0.11639165  0.35566000  0.13885135  1
  Ti  Ti57  1  0.86540807  0.37127698  0.62283131  1
  Ti  Ti58  1  0.12580550  0.62282509  0.61763093  1
  Ti  Ti59  1  0.62779972  0.87588171  0.10659809  1
  Ti  Ti60  1  0.86465905  0.86001458  0.87859354  1
  Ti  Ti61  1  0.12802476  0.11666128  0.87904530  1
  Ti  Ti62  1  0.61938957  0.13884167  0.13167423  1
  Ti  Ti63  1  0.12051010  0.13812060  0.36973057  1
  Ti  Ti64  1  0.12213200  0.12185209  0.64210645  1
  Ti  Ti65  1  0.87541872  0.11162371  0.37525645  1
  Ti  Ti66  1  0.61155773  0.35793483  0.63416848  1
  Ti  Ti67  1  0.11516702  0.38327736  0.86010896  1
  Ti  Ti68  1  0.87426217  0.62248743  0.86418689  1
  Ti  Ti69  1  0.87417770  0.62458321  0.13420450  1
  Ti  Ti70  1  0.38517095  0.12904656  0.12794546  1
  Ti  Ti71  1  0.86799258  0.36458205  0.12022147  1
  Ti  Ti72  1  0.87514052  0.87622457  0.36876571  1
  Ti  Ti73  1  0.62105033  0.87336768  0.37481756  1
  Bi  Bi74  1  0.29457693  0.21033169  0.77625827  1
  Bi  Bi75  1  0.25171549  -0.02007862  0.77955939  1
  Bi  Bi76  1  -0.00277746  0.75509785  0.01279786  1
  Bi  Bi77  1  0.77329503  0.49701243  -0.00171093  1
  Bi  Bi78  1  0.77030075  0.27418029  0.46917756  1
  Bi  Bi79  1  0.73207868  0.50477798  0.71338045  1
  Bi  Bi80  1  0.21688311  0.26644232  -0.02020437  1
  Bi  Bi81  1  0.71955035  0.25667077  -0.01895932  1
  Bi  Bi82  1  0.76944416  0.03335942  -0.02962926  1
  Bi  Bi83  1  0.49565394  0.77690921  0.75594871  1
  Bi  Bi84  1  0.01857369  0.48553433  0.02863296  1
  Bi  Bi85  1  0.49264659  0.28161103  -0.03338445  1
  Bi  Bi86  1  0.47604558  0.00558764  0.74316284  1
  Bi  Bi87  1  0.74460619  -0.00380458  0.48843997  1
  Bi  Bi88  1  -0.02564650  0.22060513  -0.01680364  1
  Bi  Bi89  1  0.26884223  -0.04104091  0.00467592  1
  Bi  Bi90  1  0.47640463  0.04728372  -0.03716319  1
  Bi  Bi91  1  0.00578559  0.26555287  0.52194663  1
  Bi  Bi92  1  0.00879049  -0.01096433  0.50836826  1
  Bi  Bi93  1  0.49811635  0.72649427  0.48475714  1
  Bi  Bi94  1  -0.04141395  0.27045442  0.28385165  1
  Bi  Bi95  1  -0.02894485  0.22335399  0.76044393  1
  Bi  Bi96  1  -0.03063189  -0.00696939  0.02414109  1
  Bi  Bi97  1  0.79451007  0.48065011  0.27311858  1
  Bi  Bi98  1  0.50335931  0.52784886  0.24814664  1
  Bi  Bi99  1  0.00527963  0.48955606  0.70699020  1
  Bi  Bi100  1  0.27055449  0.48952612  0.22308025  1
  Bi  Bi101  1  -0.03036237  0.47562048  0.45376484  1
  Bi  Bi102  1  0.49920973  0.72783501  -0.03216919  1
  Bi  Bi103  1  0.03488036  0.74915626  0.25910171  1
  Bi  Bi104  1  0.74894463  0.72965608  -0.00273532  1
  Bi  Bi105  1  0.50919947  -0.00190329  0.24431813  1
  Bi  Bi106  1  0.25556048  0.49963519  0.47722446  1
  Bi  Bi107  1  0.01727577  0.75341595  0.47614201  1
  Bi  Bi108  1  0.49935354  0.01979271  0.49048256  1
  Bi  Bi109  1  0.22681806  0.24721119  0.51559374  1
  Bi  Bi110  1  0.73093581  0.74649390  0.22871320  1
  Bi  Bi111  1  0.25320799  0.74312359  0.46097424  1
  Bi  Bi112  1  -0.01081072  0.72611155  0.73276190  1
  Bi  Bi113  1  0.48021294  0.47568626  0.52116462  1
  Bi  Bi114  1  0.21932488  0.72572027  0.76178838  1
  Bi  Bi115  1  0.27496838  0.26239603  0.24425841  1
  Bi  Bi116  1  0.23424892  0.00909530  0.47864886  1
  Bi  Bi117  1  0.73656289  0.01041702  0.22552977  1
  Bi  Bi118  1  0.00133745  0.01178671  0.24669683  1
  Bi  Bi119  1  0.28066871  0.50012912  0.71030043  1
  Bi  Bi120  1  0.74530617  0.21480760  0.76353366  1
  Bi  Bi121  1  -0.04497298  -0.01226998  0.76361771  1
  Bi  Bi122  1  0.73742676  0.73974757  0.72187790  1
  Bi  Bi123  1  0.73335698  0.73606018  0.48245082  1
  Bi  Bi124  1  0.26072532  0.02020643  0.23823675  1
  O  O125  1  0.12722025  0.14153369  0.00902445  1
  O  O126  1  0.12395750  0.09444159  0.25350191  1
  O  O127  1  0.12839769  0.14505374  0.49127956  1
  O  O128  1  0.14628084  0.11706062  0.75585205  1
  O  O129  1  0.10095506  0.36069040  0.02166858  1
  O  O130  1  0.11181377  0.40181948  0.25548967  1
  O  O131  1  0.12532955  0.34771024  0.49693031  1
  O  O132  1  0.13157451  0.39562878  0.75064010  1
  O  O133  1  0.10184573  0.63581024  0.00033510  1
  O  O134  1  0.10988003  0.62073634  0.24258688  1
  O  O135  1  0.11547138  0.64801251  0.50738274  1
  O  O136  1  0.12088392  0.62892430  0.75371675  1
  O  O137  1  0.10368016  0.86586209  -0.00099630  1
  O  O138  1  0.13974381  0.86052923  0.24706975  1
  O  O139  1  0.09328711  0.87091331  0.50918963  1
  O  O140  1  0.14181570  0.89537146  0.74901182  1
  O  O141  1  0.39666201  0.14759349  0.01606116  1
  O  O142  1  0.38444099  0.09365950  0.26013836  1
  O  O143  1  0.38047119  0.14342455  0.50098359  1
  O  O144  1  0.35952547  0.09284590  0.73872536  1
  O  O145  1  0.40327156  0.37581217  0.00208156  1
  O  O146  1  0.35803086  0.38570148  0.25377522  1
  O  O147  1  0.42131802  0.34651187  0.50773802  1
  O  O148  1  0.36349785  0.39642535  0.73793768  1
  O  O149  1  0.38500109  0.64544457  0.00539891  1
  O  O150  1  0.37058098  0.58174012  0.25661037  1
  O  O151  1  0.36996043  0.66253672  0.50023703  1
  O  O152  1  0.37315199  0.60013765  0.73864182  1
  O  O153  1  0.36630148  0.85543803  0.00601842  1
  O  O154  1  0.35560371  0.89790872  0.25984719  1
  O  O155  1  0.38249027  0.84792041  0.50196895  1
  O  O156  1  0.36495743  0.90369143  0.74337854  1
  O  O157  1  0.61435818  0.14926083  0.01576002  1
  O  O158  1  0.62030671  0.08512357  0.25489028  1
  O  O159  1  0.61282329  0.16709687  0.50835115  1
  O  O160  1  0.66653022  0.10365403  0.73987738  1
  O  O161  1  0.61040271  0.35197883  0.00582605  1
  O  O162  1  0.65936430  0.39004906  0.24733083  1
  O  O163  1  0.60522770  0.35250186  0.51017662  1
  O  O164  1  0.65478141  0.39369436  0.73857586  1
  O  O165  1  0.62799208  0.65421819  -0.00729007  1
  O  O166  1  0.63342810  0.60289981  0.25895962  1
  O  O167  1  0.61973794  0.65231354  0.49438422  1
  O  O168  1  0.64729629  0.61682157  0.74690955  1
  O  O169  1  0.61578412  0.85500745  -0.00222946  1
  O  O170  1  0.63970040  0.90703046  0.26505623  1
  O  O171  1  0.61824623  0.85107093  0.50669670  1
  O  O172  1  0.65432669  0.90294211  0.74965788  1
  O  O173  1  0.88796330  0.11901818  0.00581976  1
  O  O174  1  0.88953218  0.10594645  0.25567547  1
  O  O175  1  0.89193033  0.11644414  0.50344383  1
  O  O176  1  0.86506441  0.13915481  0.74768754  1
  O  O177  1  0.88285309  0.40459230  0.00500090  1
  O  O178  1  0.84068212  0.35034701  0.24160318  1
  O  O179  1  0.88558308  0.35410510  0.50420943  1
  O  O180  1  0.86753310  0.36295288  0.74965227  1
  O  O181  1  0.85815758  0.61336890  0.00465647  1
  O  O182  1  0.85088088  0.63371091  0.25201508  1
  O  O183  1  0.89178571  0.59827383  0.48226277  1
  O  O184  1  0.86726992  0.63928531  0.74962153  1
  O  O185  1  0.89886332  0.86516088  -0.00043544  1
  O  O186  1  0.85793239  0.87550302  0.25875486  1
  O  O187  1  0.89406150  0.89106706  0.50989289  1
  O  O188  1  0.87430950  0.87093177  0.75562603  1
  O  O189  1  0.01086941  0.09152699  0.12957676  1
  O  O190  1  0.00508440  0.15212148  0.36600555  1
  O  O191  1  0.00511493  0.11716619  0.65017867  1
  O  O192  1  0.01088662  0.13070042  0.86756681  1
  O  O193  1  -0.01088352  0.40472259  0.14518749  1
  O  O194  1  0.00716395  0.34524159  0.38560230  1
  O  O195  1  0.00209493  0.38152491  0.61861536  1
  O  O196  1  -0.00285453  0.39983072  0.86571312  1
  O  O197  1  -0.01711387  0.58333648  0.13334664  1
  O  O198  1  -0.00475468  0.65611714  0.36546301  1
  O  O199  1  0.00109845  0.61800234  0.64114997  1
  O  O200  1  -0.00564346  0.61033161  0.86582122  1
  O  O201  1  0.00516858  0.90785238  0.13952927  1
  O  O202  1  -0.00450068  0.84926089  0.36665772  1
  O  O203  1  -0.00141144  0.91063410  0.64657449  1
  O  O204  1  0.00413509  0.89161050  0.85730326  1
  O  O205  1  0.25602317  0.14061937  0.15126146  1
  O  O206  1  0.25462229  0.10132298  0.37144016  1
  O  O207  1  0.25381988  0.13803656  0.61326328  1
  O  O208  1  0.24560165  0.15648550  0.89163532  1
  O  O209  1  0.23552309  0.35620276  0.13803474  1
  O  O210  1  0.24752027  0.39313045  0.38560146  1
  O  O211  1  0.26813992  0.35666466  0.60514448  1
  O  O212  1  0.24287875  0.37882810  0.89541679  1
  O  O213  1  0.24398051  0.65611657  0.11813815  1
  O  O214  1  0.24644346  0.61042115  0.39452322  1
  O  O215  1  0.24382568  0.64167263  0.63572475  1
  O  O216  1  0.24076250  0.62645583  0.87017107  1
  O  O217  1  0.24328507  0.84444722  0.11639081  1
  O  O218  1  0.25127948  0.89411788  0.40052014  1
  O  O219  1  0.24385422  0.87334708  0.60822963  1
  O  O220  1  0.24524359  0.87596584  0.87622895  1
  O  O221  1  0.50161620  0.09112960  0.13791605  1
  O  O222  1  0.50130975  0.13273549  0.39299002  1
  O  O223  1  0.50601649  0.10094757  0.62811089  1
  O  O224  1  0.50653711  0.11184413  0.84616853  1
  O  O225  1  0.51016597  0.39695318  0.15802063  1
  O  O226  1  0.51663931  0.33341722  0.35265192  1
  O  O227  1  0.50202401  0.39381313  0.64392561  1
  O  O228  1  0.50598409  0.37365095  0.85801926  1
  O  O229  1  0.50055505  0.62070690  0.14962253  1
  O  O230  1  0.50356024  0.63625954  0.37287170  1
  O  O231  1  0.49257210  0.63627634  0.60460435  1
  O  O232  1  0.50639944  0.61777148  0.87650776  1
  O  O233  1  0.51160233  0.88412098  0.14952143  1
  O  O234  1  0.50010494  0.87020546  0.37047373  1
  O  O235  1  0.50476360  0.89082879  0.63939593  1
  O  O236  1  0.50814127  0.89382875  0.84473728  1
  O  O237  1  0.73995606  0.15010211  0.15672599  1
  O  O238  1  0.76008153  0.09165870  0.38259230  1
  O  O239  1  0.75239158  0.15343222  0.60839846  1
  O  O240  1  0.75035541  0.14376645  0.88888897  1
  O  O241  1  0.74430385  0.34239951  0.10803153  1
  O  O242  1  0.74279157  0.39352238  0.40729367  1
  O  O243  1  0.74999171  0.36823088  0.59923201  1
  O  O244  1  0.75663358  0.36545778  0.89766870  1
  O  O245  1  0.74960246  0.65650748  0.12151347  1
  O  O246  1  0.74862951  0.61859231  0.39337290  1
  O  O247  1  0.75255154  0.65401546  0.61423802  1
  O  O248  1  0.74974974  0.64551504  0.88007034  1
  O  O249  1  0.74556396  0.84290587  0.12422513  1
  O  O250  1  0.75342502  0.88915609  0.40145675  1
  O  O251  1  0.75678377  0.85409050  0.62125661  1
  O  O252  1  0.75026406  0.84792636  0.88576329  1
  O  O253  1  0.15695225  -0.00421121  0.12123698  1
  O  O254  1  0.11143012  0.00525552  0.40177038  1
  O  O255  1  0.13245973  0.00759055  0.60241328  1
  O  O256  1  0.14057019  0.00476199  0.89042786  1
  O  O257  1  0.10447181  0.24155600  0.15301359  1
  O  O258  1  0.15195663  0.25033067  0.35115338  1
  O  O259  1  0.12432292  0.24318482  0.62250266  1
  O  O260  1  0.11848088  0.26443738  0.88118783  1
  O  O261  1  0.13017895  0.50804696  0.11672593  1
  O  O262  1  0.10250617  0.49258548  0.39885573  1
  O  O263  1  0.12734183  0.50566825  0.61872982  1
  O  O264  1  0.13074279  0.50242661  0.89903189  1
  O  O265  1  0.09103623  0.75041621  0.12343832  1
  O  O266  1  0.12779920  0.75063185  0.37805365  1
  O  O267  1  0.10907434  0.76060591  0.65039091  1
  O  O268  1  0.11540502  0.75299408  0.86266135  1
  O  O269  1  0.35145484  0.00561107  0.11476733  1
  O  O270  1  0.38899958  -0.00244559  0.40519963  1
  O  O271  1  0.37288007  -0.00163787  0.59759309  1
  O  O272  1  0.36433934  -0.00222791  0.90444220  1
  O  O273  1  0.39752105  0.24522292  0.16683162  1
  O  O274  1  0.36316095  0.24368433  0.35803058  1
  O  O275  1  0.40023329  0.23721393  0.65932352  1
  O  O276  1  0.39913823  0.25347169  0.84569411  1
  O  O277  1  0.35015650  0.49907506  0.11285938  1
  O  O278  1  0.38343516  0.49386886  0.41889476  1
  O  O279  1  0.36047848  0.51276989  0.59458083  1
  O  O280  1  0.37571442  0.50355773  0.89160456  1
  O  O281  1  0.38020576  0.75469505  0.15841584  1
  O  O282  1  0.33732377  0.75774575  0.35119349  1
  O  O283  1  0.37417336  0.75884357  0.65254141  1
  O  O284  1  0.40230936  0.75118796  0.85844074  1
  O  O285  1  0.65740748  -0.00591870  0.11310015  1
  O  O286  1  0.62185440  -0.00162324  0.41816983  1
  O  O287  1  0.64750148  0.00250848  0.60312288  1
  O  O288  1  0.64416792  -0.00423170  0.89897810  1
  O  O289  1  0.59997446  0.24602801  0.16997468  1
  O  O290  1  0.67104374  0.25281901  0.34806751  1
  O  O291  1  0.59755801  0.24601580  0.67044708  1
  O  O292  1  0.62420890  0.24750019  0.85783350  1
  O  O293  1  0.64324463  0.49835237  0.09948977  1
  O  O294  1  0.61389849  0.49356306  0.39963798  1
  O  O295  1  0.64435993  0.50231592  0.60612827  1
  O  O296  1  0.62535163  0.50574877  0.87776737  1
  O  O297  1  0.61354074  0.75475027  0.15572972  1
  O  O298  1  0.64489947  0.75820591  0.36472804  1
  O  O299  1  0.61714858  0.75998964  0.65351440  1
  O  O300  1  0.60063860  0.75505677  0.85153070  1
  O  O301  1  0.85969070  -0.00274480  0.10813601  1
  O  O302  1  0.90999932  -0.00600524  0.38201429  1
  O  O303  1  0.84365959  0.00616581  0.64751783  1
  O  O304  1  0.86105826  -0.01587803  0.88266684  1
  O  O305  1  0.89923011  0.25424173  0.10954443  1
  O  O306  1  0.86059820  0.23241622  0.37112882  1
  O  O307  1  0.89780746  0.24759147  0.62815029  1
  O  O308  1  0.89452199  0.26326354  0.88173295  1
  O  O309  1  0.83143907  0.49645170  0.13840625  1
  O  O310  1  0.92421053  0.50274548  0.32766265  1
  O  O311  1  0.87507480  0.49095302  0.63478931  1
  O  O312  1  0.84791373  0.50398227  0.86709958  1
  O  O313  1  0.90744758  0.73994612  0.12239552  1
  O  O314  1  0.85782773  0.75211436  0.39329958  1
  O  O315  1  0.90678095  0.75655604  0.62165032  1
  O  O316  1  0.89226753  0.74339975  0.88719251  1
