# generated using pymatgen
data_Mg32Ti42(Bi17O64)3
_symmetry_space_group_name_H-M   'P 1'
_cell_length_a   15.92993854
_cell_length_b   15.94100199
_cell_length_c   15.92904243
_cell_angle_alpha   90.05336740
_cell_angle_beta   90.03947294
_cell_angle_gamma   90.12350988
_symmetry_Int_Tables_number   1
_chemical_formula_structural   Mg32Ti42(Bi17O64)3
_chemical_formula_sum   'Mg32 Ti42 Bi51 O192'
_cell_volume   4044.99588473
_cell_formula_units_Z   1
loop_
 _symmetry_equiv_pos_site_id
 _symmetry_equiv_pos_as_xyz
  1  'x, y, z'
loop_
 _atom_site_type_symbol
 _atom_site_label
 _atom_site_symmetry_multiplicity
 _atom_site_fract_x
 _atom_site_fract_y
 _atom_site_fract_z
 _atom_site_occupancy
  Mg  Mg0  1  0.38227849  0.37945984  0.37463035  1
  Mg  Mg1  1  0.62854295  0.37184333  0.62561176  1
  Mg  Mg2  1  0.12606902  0.36577149  0.62249766  1
  Mg  Mg3  1  0.36353428  0.88325694  0.62388230  1
  Mg  Mg4  1  0.36801405  0.36467238  0.87341454  1
  Mg  Mg5  1  0.86769257  0.37397233  0.38011056  1
  Mg  Mg6  1  0.87472565  0.88350393  0.87846525  1
  Mg  Mg7  1  0.11421522  0.37489537  0.12644260  1
  Mg  Mg8  1  0.11974148  0.12557694  0.38130448  1
  Mg  Mg9  1  0.36915576  0.88766953  0.86579109  1
  Mg  Mg10  1  0.37973347  0.62615774  0.86665324  1
  Mg  Mg11  1  0.87347148  0.87002154  0.37790548  1
  Mg  Mg12  1  0.13541326  0.12896658  0.86088831  1
  Mg  Mg13  1  0.61345024  0.61795135  0.64076964  1
  Mg  Mg14  1  0.12655251  0.62027578  0.37759499  1
  Mg  Mg15  1  0.87953287  0.62542978  0.63469920  1
  Mg  Mg16  1  0.12486703  0.12797152  0.12521298  1
  Mg  Mg17  1  0.37748631  0.11754154  0.37476413  1
  Mg  Mg18  1  0.87932660  0.13554407  0.12405045  1
  Mg  Mg19  1  0.25583040  0.22638048  0.70521204  1
  Mg  Mg20  1  0.21651829  0.00871471  0.76427265  1
  Mg  Mg21  1  0.68515084  0.77940895  0.54182607  1
  Mg  Mg22  1  0.74399023  0.55081246  0.01317561  1
  Mg  Mg23  1  0.22867957  0.50908714  0.52772208  1
  Mg  Mg24  1  0.73951218  0.24413581  0.19009291  1
  Mg  Mg25  1  0.03445527  0.20263645  -0.01563693  1
  Mg  Mg26  1  0.48002650  0.75462008  0.21585927  1
  Mg  Mg27  1  0.45966095  0.00781427  0.72776978  1
  Mg  Mg28  1  0.02345277  0.70236217  0.01029824  1
  Mg  Mg29  1  0.81045405  0.19344638  0.53695830  1
  Mg  Mg30  1  -0.07745637  0.01228675  0.73608360  1
  Mg  Mg31  1  0.68689881  0.24320333  0.01568820  1
  Ti  Ti32  1  0.12245656  0.12375266  0.63265567  1
  Ti  Ti33  1  0.12295349  0.62082672  0.62741824  1
  Ti  Ti34  1  0.37230852  0.87221841  0.38273433  1
  Ti  Ti35  1  0.36496496  0.11762528  0.86571484  1
  Ti  Ti36  1  0.87127549  0.36951241  0.88398517  1
  Ti  Ti37  1  0.86714179  0.36793853  0.11909213  1
  Ti  Ti38  1  0.64195623  0.39130890  0.11559766  1
  Ti  Ti39  1  0.11937311  0.62751352  0.86408784  1
  Ti  Ti40  1  0.12040488  0.61322297  0.12878274  1
  Ti  Ti41  1  0.63021418  0.88993947  0.88638262  1
  Ti  Ti42  1  0.36409337  0.63346156  0.12898256  1
  Ti  Ti43  1  0.12580116  0.36273724  0.88035669  1
  Ti  Ti44  1  0.87682659  0.62827930  0.88105075  1
  Ti  Ti45  1  0.12335603  0.87106854  0.12358001  1
  Ti  Ti46  1  0.37147561  0.11997320  0.13491246  1
  Ti  Ti47  1  0.61317485  0.12226117  0.13329968  1
  Ti  Ti48  1  0.63046695  0.62833567  0.36941139  1
  Ti  Ti49  1  0.62057075  0.62445139  0.88386979  1
  Ti  Ti50  1  0.37614356  0.37847284  0.61782804  1
  Ti  Ti51  1  0.87464302  0.86744288  0.61846184  1
  Ti  Ti52  1  0.37202086  0.62163920  0.38005727  1
  Ti  Ti53  1  0.37179855  0.61732983  0.63037920  1
  Ti  Ti54  1  0.12813505  0.38375709  0.37917015  1
  Ti  Ti55  1  0.61757616  0.12880658  0.36497125  1
  Ti  Ti56  1  0.61391938  0.13284669  0.60956612  1
  Ti  Ti57  1  0.61783985  0.87734109  0.12754727  1
  Ti  Ti58  1  0.87223696  0.13329828  0.36903004  1
  Ti  Ti59  1  0.36731479  0.87371507  0.12123628  1
  Ti  Ti60  1  0.86425121  0.37214916  0.62895657  1
  Ti  Ti61  1  0.62373167  0.85853169  0.36824232  1
  Ti  Ti62  1  0.37129638  0.11860810  0.61814382  1
  Ti  Ti63  1  0.63032180  0.35814014  0.38550385  1
  Ti  Ti64  1  0.12057109  0.86863896  0.38046906  1
  Ti  Ti65  1  0.12560271  0.87965614  0.87115255  1
  Ti  Ti66  1  0.62254657  0.13215320  0.88117191  1
  Ti  Ti67  1  0.87152605  0.13399775  0.88838790  1
  Ti  Ti68  1  0.62104254  0.63832770  0.12543223  1
  Ti  Ti69  1  0.12179653  0.87826331  0.63150588  1
  Ti  Ti70  1  0.87237329  0.63003044  0.38077384  1
  Ti  Ti71  1  0.89161497  0.88104833  0.12208390  1
  Ti  Ti72  1  0.87501411  0.61816126  0.12092403  1
  Ti  Ti73  1  0.63864957  0.37929683  0.88021519  1
  Bi  Bi74  1  -0.01745046  0.49030654  0.26548962  1
  Bi  Bi75  1  0.48399566  -0.02030703  0.26142006  1
  Bi  Bi76  1  0.49171379  0.72510468  0.50046773  1
  Bi  Bi77  1  0.23445646  0.26606828  0.02496889  1
  Bi  Bi78  1  0.74268592  0.48131713  0.27107110  1
  Bi  Bi79  1  0.24157740  0.73231897  0.52099713  1
  Bi  Bi80  1  0.02307836  0.02364129  0.24752202  1
  Bi  Bi81  1  0.26674554  0.50633900  -0.02594443  1
  Bi  Bi82  1  0.48970199  0.46729691  -0.00930920  1
  Bi  Bi83  1  0.48841311  0.52258230  0.23428780  1
  Bi  Bi84  1  0.00977781  0.01106197  -0.04883536  1
  Bi  Bi85  1  0.00249412  0.47011393  0.75885118  1
  Bi  Bi86  1  0.74166109  0.54786403  0.51735488  1
  Bi  Bi87  1  0.46492090  0.24885516  -0.00556710  1
  Bi  Bi88  1  0.24761437  0.24527009  0.47608180  1
  Bi  Bi89  1  -0.00983376  0.25700592  0.49598348  1
  Bi  Bi90  1  0.25608677  0.27609216  0.24561413  1
  Bi  Bi91  1  0.75782599  0.77563409  -0.00889683  1
  Bi  Bi92  1  0.48045738  0.76124614  -0.02521533  1
  Bi  Bi93  1  0.22800115  0.74451152  0.26359696  1
  Bi  Bi94  1  0.22142707  0.00472417  0.49553925  1
  Bi  Bi95  1  0.50217115  0.47032630  0.76260405  1
  Bi  Bi96  1  -0.02171901  0.76957412  0.77253988  1
  Bi  Bi97  1  -0.00114171  0.26846109  0.25012625  1
  Bi  Bi98  1  0.48564401  0.23754723  0.74279601  1
  Bi  Bi99  1  0.26334710  0.49129966  0.25599321  1
  Bi  Bi100  1  0.73580515  0.22648719  0.73564765  1
  Bi  Bi101  1  -0.01129519  0.73799429  0.51507289  1
  Bi  Bi102  1  0.25289180  0.77478937  0.75131196  1
  Bi  Bi103  1  0.75454751  0.52457819  0.75757515  1
  Bi  Bi104  1  0.23261863  0.01330990  0.01266013  1
  Bi  Bi105  1  0.24234424  0.00945322  0.25661662  1
  Bi  Bi106  1  -0.02843059  0.21128874  0.73880938  1
  Bi  Bi107  1  -0.02276103  0.01362064  0.53404932  1
  Bi  Bi108  1  0.71980318  -0.01038357  0.71176365  1
  Bi  Bi109  1  0.52255580  0.49033699  0.50179428  1
  Bi  Bi110  1  0.72647052  0.76260983  0.73967796  1
  Bi  Bi111  1  0.48576411  -0.00056784  -0.00176828  1
  Bi  Bi112  1  0.47648515  0.24725180  0.49012678  1
  Bi  Bi113  1  0.24779533  0.46159836  0.73853462  1
  Bi  Bi114  1  0.48988588  0.29315557  0.22709772  1
  Bi  Bi115  1  0.51571000  -0.03787976  0.51515550  1
  Bi  Bi116  1  0.76965951  0.00034543  0.24871337  1
  Bi  Bi117  1  0.74999614  0.02515869  0.01831286  1
  Bi  Bi118  1  -0.02098944  0.48674826  0.51853102  1
  Bi  Bi119  1  0.75000567  -0.00295863  0.47393621  1
  Bi  Bi120  1  0.24533319  0.72665713  -0.01162788  1
  Bi  Bi121  1  0.50778350  0.80000209  0.73338052  1
  Bi  Bi122  1  0.77016712  0.76085755  0.23089750  1
  Bi  Bi123  1  -0.00979807  0.73769790  0.26704671  1
  Bi  Bi124  1  0.00222092  0.47679474  -0.01278931  1
  O  O125  1  0.11902798  0.09797576  -0.00867856  1
  O  O126  1  0.14193336  0.11173887  0.25394089  1
  O  O127  1  0.11058557  0.08779200  0.51317616  1
  O  O128  1  0.16831081  0.14045017  0.73986201  1
  O  O129  1  0.12197899  0.39591190  -0.00304559  1
  O  O130  1  0.12609041  0.33600425  0.25276830  1
  O  O131  1  0.14943461  0.40291269  0.49552271  1
  O  O132  1  0.12241512  0.38361435  0.75711108  1
  O  O133  1  0.13841007  0.62445666  0.00628426  1
  O  O134  1  0.11447411  0.65816587  0.24105029  1
  O  O135  1  0.15601372  0.61080983  0.50359540  1
  O  O136  1  0.10890626  0.63795391  0.74865448  1
  O  O137  1  0.13996624  0.90523254  -0.01171285  1
  O  O138  1  0.13061658  0.85997460  0.24158945  1
  O  O139  1  0.13149967  0.89007525  0.49857156  1
  O  O140  1  0.11696021  0.83964694  0.74409657  1
  O  O141  1  0.39322478  0.10364685  -0.00801586  1
  O  O142  1  0.34470363  0.12658641  0.24587561  1
  O  O143  1  0.40971798  0.11368481  0.50883533  1
  O  O144  1  0.35790648  0.16239438  0.74842652  1
  O  O145  1  0.39305301  0.36747509  0.00161258  1
  O  O146  1  0.37169848  0.35483763  0.24974518  1
  O  O147  1  0.39083191  0.37835644  0.50158892  1
  O  O148  1  0.37975803  0.38830830  0.74916919  1
  O  O149  1  0.35426134  0.61886179  0.01195029  1
  O  O150  1  0.41579993  0.65093912  0.24647239  1
  O  O151  1  0.33426079  0.60450270  0.48690046  1
  O  O152  1  0.38940497  0.61377028  0.74059528  1
  O  O153  1  0.38391651  0.89816383  -0.00257265  1
  O  O154  1  0.40424440  0.85649723  0.24307237  1
  O  O155  1  0.38384304  0.89959993  0.49838643  1
  O  O156  1  0.37658308  0.84334885  0.74555942  1
  O  O157  1  0.61103940  0.13575035  0.00085656  1
  O  O158  1  0.65282783  0.11989666  0.24774214  1
  O  O159  1  0.59405120  0.14339992  0.50050458  1
  O  O160  1  0.66067429  0.10762222  0.76476122  1
  O  O161  1  0.61162764  0.35357947  0.00142693  1
  O  O162  1  0.67013699  0.36917931  0.23333845  1
  O  O163  1  0.60029827  0.35767341  0.49718031  1
  O  O164  1  0.62815529  0.40102399  0.76124958  1
  O  O165  1  0.64901902  0.64294647  0.00743613  1
  O  O166  1  0.61541084  0.60538846  0.24972754  1
  O  O167  1  0.65285802  0.66207043  0.49299603  1
  O  O168  1  0.62682507  0.59044241  0.76593790  1
  O  O169  1  0.61993462  0.85015515  0.00046706  1
  O  O170  1  0.62194046  0.89329627  0.24847074  1
  O  O171  1  0.59718176  0.85396706  0.49392424  1
  O  O172  1  0.64276884  0.88084646  0.76048606  1
  O  O173  1  0.91810712  0.13930767  -0.00100440  1
  O  O174  1  0.83989768  0.12023274  0.25622461  1
  O  O175  1  0.91522197  0.13597898  0.49899822  1
  O  O176  1  0.86464444  0.12965079  0.75746495  1
  O  O177  1  0.90140249  0.36841391  0.00268033  1
  O  O178  1  0.85850670  0.41198841  0.24199402  1
  O  O179  1  0.89533805  0.36738699  0.50398945  1
  O  O180  1  0.88149779  0.39074527  0.75128266  1
  O  O181  1  0.86742922  0.65215266  0.00324094  1
  O  O182  1  0.90021694  0.61358084  0.24251262  1
  O  O183  1  0.86652897  0.64543779  0.49568029  1
  O  O184  1  0.87878358  0.60452120  0.76070782  1
  O  O185  1  0.87314438  0.86391563  0.00860222  1
  O  O186  1  0.85366596  0.88676207  0.24577851  1
  O  O187  1  0.89826586  0.86316891  0.50334247  1
  O  O188  1  0.88765986  0.88288658  0.74676428  1
  O  O189  1  0.00062885  0.11589894  0.15462703  1
  O  O190  1  -0.00577605  0.11048917  0.35019218  1
  O  O191  1  0.01129071  0.08848498  0.66306056  1
  O  O192  1  0.00640913  0.14037671  0.86498696  1
  O  O193  1  -0.01060650  0.37852164  0.15483180  1
  O  O194  1  0.00149497  0.37205417  0.35467857  1
  O  O195  1  0.00397805  0.40198521  0.62818582  1
  O  O196  1  0.00278688  0.37794494  0.87308453  1
  O  O197  1  0.00090364  0.61941267  0.10422789  1
  O  O198  1  -0.00104127  0.64972878  0.38164387  1
  O  O199  1  0.00662528  0.61003747  0.60023503  1
  O  O200  1  0.00466130  0.65898515  0.89398573  1
  O  O201  1  0.00350712  0.90567112  0.12611332  1
  O  O202  1  0.00829413  0.86197211  0.36402382  1
  O  O203  1  0.00855448  0.89931941  0.62540326  1
  O  O204  1  0.00644918  0.86011396  0.87815889  1
  O  O205  1  0.25667528  0.14149889  0.09634003  1
  O  O206  1  0.24929520  0.12409820  0.41274246  1
  O  O207  1  0.25720049  0.15276194  0.59788437  1
  O  O208  1  0.25685660  0.08313559  0.87165927  1
  O  O209  1  0.24156067  0.35225895  0.13144236  1
  O  O210  1  0.24892401  0.37287724  0.35700959  1
  O  O211  1  0.25432797  0.34389644  0.65182980  1
  O  O212  1  0.24417872  0.39589253  0.87696127  1
  O  O213  1  0.24901021  0.64924063  0.14234936  1
  O  O214  1  0.25833505  0.62105639  0.33094753  1
  O  O215  1  0.24966586  0.65452700  0.63834134  1
  O  O216  1  0.24556080  0.61125662  0.88076241  1
  O  O217  1  0.25491319  0.85129626  0.12105659  1
  O  O218  1  0.26028349  0.86717925  0.36312438  1
  O  O219  1  0.24545057  0.84063432  0.62722167  1
  O  O220  1  0.24422432  0.89921980  0.83137657  1
  O  O221  1  0.49955321  0.09399990  0.13387850  1
  O  O222  1  0.50749988  0.11715546  0.34703640  1
  O  O223  1  0.49804830  0.11567685  0.66642865  1
  O  O224  1  0.51150825  0.14907828  0.85405013  1
  O  O225  1  0.52284736  0.39837450  0.14429962  1
  O  O226  1  0.51657669  0.37643968  0.34537051  1
  O  O227  1  0.49475489  0.40469499  0.63663107  1
  O  O228  1  0.50520649  0.37551807  0.87145593  1
  O  O229  1  0.51131430  0.59843802  0.11266783  1
  O  O230  1  0.49675333  0.61728694  0.40604099  1
  O  O231  1  0.49048007  0.60528629  0.59245149  1
  O  O232  1  0.50640307  0.64356693  0.89389373  1
  O  O233  1  0.50299173  0.90174252  0.11487279  1
  O  O234  1  0.50436637  0.90022897  0.37434583  1
  O  O235  1  0.49151134  0.91008197  0.64904678  1
  O  O236  1  0.50849561  0.85477114  0.86764816  1
  O  O237  1  0.74753688  0.14339127  0.09470214  1
  O  O238  1  0.76496505  0.13407881  0.43027970  1
  O  O239  1  0.73349256  0.14877675  0.61905244  1
  O  O240  1  0.75844505  0.12466045  0.91042583  1
  O  O241  1  0.75170278  0.33693656  0.09190434  1
  O  O242  1  0.74487997  0.39762707  0.38267763  1
  O  O243  1  0.75376431  0.34958876  0.63079857  1
  O  O244  1  0.75721423  0.39347218  0.88685753  1
  O  O245  1  0.75469187  0.64926795  0.13884558  1
  O  O246  1  0.75124032  0.62053038  0.35826059  1
  O  O247  1  0.75000356  0.61702630  0.64381393  1
  O  O248  1  0.75844324  0.59390521  0.88556017  1
  O  O249  1  0.73882921  0.84476358  0.11837787  1
  O  O250  1  0.73660615  0.86499807  0.40194223  1
  O  O251  1  0.75805801  0.85068592  0.61743800  1
  O  O252  1  0.74849397  0.88480479  0.89628357  1
  O  O253  1  0.15732610  -0.00390826  0.13192851  1
  O  O254  1  0.14656491  -0.00921192  0.37001580  1
  O  O255  1  0.16344305  -0.00914629  0.64673611  1
  O  O256  1  0.10584742  -0.00466122  0.84283722  1
  O  O257  1  0.10882209  0.24555863  0.08145571  1
  O  O258  1  0.12241279  0.25169917  0.40666942  1
  O  O259  1  0.09656008  0.23637773  0.61246613  1
  O  O260  1  0.13225233  0.25123567  0.89983863  1
  O  O261  1  0.12828414  0.50442651  0.14879090  1
  O  O262  1  0.11892374  0.49622418  0.34741453  1
  O  O263  1  0.15379908  0.50673444  0.63538572  1
  O  O264  1  0.09793697  0.51369273  0.87538599  1
  O  O265  1  0.09983746  0.76503328  0.08898105  1
  O  O266  1  0.14685986  0.75094906  0.38216785  1
  O  O267  1  0.11069754  0.74717007  0.59482183  1
  O  O268  1  0.15223496  0.75343366  0.88731618  1
  O  O269  1  0.35471434  -0.00535019  0.13861494  1
  O  O270  1  0.37155384  -0.00741845  0.34776834  1
  O  O271  1  0.35218158  0.01239338  0.65662215  1
  O  O272  1  0.41348301  0.00936777  0.84411424  1
  O  O273  1  0.40312639  0.23347760  0.11770617  1
  O  O274  1  0.37180611  0.24558530  0.39677871  1
  O  O275  1  0.40263387  0.25388064  0.61493999  1
  O  O276  1  0.36496042  0.23810165  0.89719195  1
  O  O277  1  0.36513534  0.51764753  0.15634287  1
  O  O278  1  0.37641183  0.50519035  0.34340093  1
  O  O279  1  0.33021551  0.49489439  0.61491889  1
  O  O280  1  0.38444991  0.49997793  0.89678397  1
  O  O281  1  0.40262597  0.75355873  0.10899273  1
  O  O282  1  0.38645458  0.74940952  0.39944650  1
  O  O283  1  0.38750525  0.73568747  0.59652398  1
  O  O284  1  0.36184080  0.75228995  0.89946109  1
  O  O285  1  0.64678432  -0.00228847  0.11128392  1
  O  O286  1  0.64373111  0.01089770  0.39004969  1
  O  O287  1  0.63305266  0.01332369  0.61139684  1
  O  O288  1  0.61631955  0.00212526  0.89733683  1
  O  O289  1  0.61821792  0.23904408  0.13300991  1
  O  O290  1  0.63530579  0.24678118  0.36483876  1
  O  O291  1  0.60839022  0.24622510  0.66335164  1
  O  O292  1  0.65179587  0.25174475  0.87380989  1
  O  O293  1  0.66444475  0.50152208  0.10282350  1
  O  O294  1  0.62502854  0.51210707  0.40167995  1
  O  O295  1  0.63278188  0.50043835  0.59138625  1
  O  O296  1  0.61539478  0.49821123  0.90944867  1
  O  O297  1  0.59063782  0.74995064  0.14861134  1
  O  O298  1  0.60523647  0.74843847  0.34691261  1
  O  O299  1  0.62381042  0.74214108  0.64971923  1
  O  O300  1  0.65025308  0.73903139  0.85774607  1
  O  O301  1  0.84566649  -0.00084152  0.12308715  1
  O  O302  1  0.85032592  -0.00046880  0.37818148  1
  O  O303  1  0.86497185  -0.00728266  0.62032624  1
  O  O304  1  0.89350557  0.01128141  0.86750458  1
  O  O305  1  0.87090235  0.25954129  0.16177935  1
  O  O306  1  0.89198800  0.24843371  0.37276755  1
  O  O307  1  0.89442937  0.25371237  0.62077791  1
  O  O308  1  0.87123090  0.25621034  0.86195817  1
  O  O309  1  0.84970414  0.50864796  0.09400734  1
  O  O310  1  0.89580595  0.50883122  0.38195403  1
  O  O311  1  0.86581628  0.49708201  0.60011368  1
  O  O312  1  0.90491648  0.50380010  0.89073688  1
  O  O313  1  0.88721074  0.75822695  0.15169814  1
  O  O314  1  0.87036258  0.74649432  0.34460804  1
  O  O315  1  0.90833354  0.75051139  0.63493140  1
  O  O316  1  0.86157150  0.74641443  0.85716573  1
