# generated using pymatgen
data_Mg32Ti42(Bi17O64)3
_symmetry_space_group_name_H-M   'P 1'
_cell_length_a   15.94823525
_cell_length_b   15.90337777
_cell_length_c   15.96099105
_cell_angle_alpha   90.19226746
_cell_angle_beta   90.06373780
_cell_angle_gamma   89.76309533
_symmetry_Int_Tables_number   1
_chemical_formula_structural   Mg32Ti42(Bi17O64)3
_chemical_formula_sum   'Mg32 Ti42 Bi51 O192'
_cell_volume   4048.13924830
_cell_formula_units_Z   1
loop_
 _symmetry_equiv_pos_site_id
 _symmetry_equiv_pos_as_xyz
  1  'x, y, z'
loop_
 _atom_site_type_symbol
 _atom_site_label
 _atom_site_symmetry_multiplicity
 _atom_site_fract_x
 _atom_site_fract_y
 _atom_site_fract_z
 _atom_site_occupancy
  Mg  Mg0  1  0.86865683  0.37059542  0.88119359  1
  Mg  Mg1  1  0.86863396  0.87346917  0.12184196  1
  Mg  Mg2  1  0.12473567  0.87551975  0.62135697  1
  Mg  Mg3  1  0.62340041  0.61973748  0.37624185  1
  Mg  Mg4  1  0.38653809  0.87755531  0.63329371  1
  Mg  Mg5  1  0.87004416  0.88219991  0.62514463  1
  Mg  Mg6  1  0.37175505  0.11667601  0.62785193  1
  Mg  Mg7  1  0.62158828  0.63053112  0.12401654  1
  Mg  Mg8  1  0.37175310  0.63451368  0.12883146  1
  Mg  Mg9  1  0.38362527  0.88016627  0.87418310  1
  Mg  Mg10  1  0.13578946  0.87738398  0.12602440  1
  Mg  Mg11  1  0.63182200  0.12419517  0.11922224  1
  Mg  Mg12  1  0.37279235  0.62446504  0.36737581  1
  Mg  Mg13  1  0.38287873  0.62210793  0.88552927  1
  Mg  Mg14  1  0.13222731  0.37399486  0.86274922  1
  Mg  Mg15  1  0.87726663  0.62627313  0.37163831  1
  Mg  Mg16  1  0.88877198  0.63131216  0.12730440  1
  Mg  Mg17  1  0.62417532  0.37484015  0.12929966  1
  Mg  Mg18  1  0.88070858  0.62655441  0.87686445  1
  Mg  Mg19  1  0.05771698  -0.02482026  0.48313751  1
  Mg  Mg20  1  0.23716067  0.73496453  0.27082589  1
  Mg  Mg21  1  -0.04236030  0.45562576  0.75898263  1
  Mg  Mg22  1  0.56567302  0.48618355  0.74056761  1
  Mg  Mg23  1  0.74146665  0.23139365  0.44715202  1
  Mg  Mg24  1  0.52796162  0.02274854  0.21371308  1
  Mg  Mg25  1  0.72890515  -0.02101762  0.01638117  1
  Mg  Mg26  1  0.75982561  0.24907054  0.79968555  1
  Mg  Mg27  1  0.78064294  0.71824665  0.00018407  1
  Mg  Mg28  1  0.00614961  0.28586124  -0.04834128  1
  Mg  Mg29  1  0.36205818  0.49738158  0.74596808  1
  Mg  Mg30  1  0.54346920  0.02953137  0.74460386  1
  Mg  Mg31  1  0.01685949  0.78339456  0.20721292  1
  Ti  Ti32  1  0.11911132  0.12455916  0.85896811  1
  Ti  Ti33  1  0.37826422  0.12541395  0.12430585  1
  Ti  Ti34  1  0.12128615  0.62857457  0.85926263  1
  Ti  Ti35  1  0.63500118  0.62497992  0.61833519  1
  Ti  Ti36  1  0.38670514  0.88502698  0.12764422  1
  Ti  Ti37  1  0.87641516  0.11174132  0.38638142  1
  Ti  Ti38  1  0.13255663  0.37870576  0.38692805  1
  Ti  Ti39  1  0.36633179  0.86330628  0.35652239  1
  Ti  Ti40  1  0.87961309  0.37298714  0.11483026  1
  Ti  Ti41  1  0.62531059  0.89037025  0.87191006  1
  Ti  Ti42  1  0.12910102  0.64633228  0.13792966  1
  Ti  Ti43  1  0.12795940  0.88505237  0.87811194  1
  Ti  Ti44  1  0.86600220  0.88123617  0.88856328  1
  Ti  Ti45  1  0.62187767  0.37942938  0.37781183  1
  Ti  Ti46  1  0.62093187  0.87946117  0.11597457  1
  Ti  Ti47  1  0.11760388  0.37988495  0.12830326  1
  Ti  Ti48  1  0.62828710  0.13289109  0.61815789  1
  Ti  Ti49  1  0.60643990  0.11660569  0.37116461  1
  Ti  Ti50  1  0.62613165  0.87261426  0.62669740  1
  Ti  Ti51  1  0.12117475  0.12430118  0.61479492  1
  Ti  Ti52  1  0.12596624  0.85680637  0.36584298  1
  Ti  Ti53  1  0.59964546  0.88171955  0.36237074  1
  Ti  Ti54  1  0.87214403  0.12688853  0.12875127  1
  Ti  Ti55  1  0.62551893  0.36652832  0.62027609  1
  Ti  Ti56  1  0.87713405  0.87071982  0.36983489  1
  Ti  Ti57  1  0.36175055  0.37100492  0.12481322  1
  Ti  Ti58  1  0.85888153  0.12899718  0.61884205  1
  Ti  Ti59  1  0.10513020  0.13125236  0.12688977  1
  Ti  Ti60  1  0.87780122  0.12074454  0.89233416  1
  Ti  Ti61  1  0.11233578  0.62761392  0.62376289  1
  Ti  Ti62  1  0.62797582  0.64294223  0.88387961  1
  Ti  Ti63  1  0.37450392  0.38095908  0.37180395  1
  Ti  Ti64  1  0.63178687  0.12740299  0.88327573  1
  Ti  Ti65  1  0.63269458  0.38485336  0.87593668  1
  Ti  Ti66  1  0.85317241  0.37134370  0.63475371  1
  Ti  Ti67  1  0.87706989  0.62950045  0.62739797  1
  Ti  Ti68  1  0.35301559  0.13435469  0.86557242  1
  Ti  Ti69  1  0.11273460  0.12487773  0.37634850  1
  Ti  Ti70  1  0.12161525  0.62221176  0.38498708  1
  Ti  Ti71  1  0.11226547  0.38203355  0.63218394  1
  Ti  Ti72  1  0.36855754  0.11407111  0.37117440  1
  Ti  Ti73  1  0.36558757  0.37315353  0.88756060  1
  Bi  Bi74  1  -0.02461889  0.23944003  0.75676099  1
  Bi  Bi75  1  0.75798152  0.49413512  0.46648856  1
  Bi  Bi76  1  0.73357737  0.26605559  0.01538035  1
  Bi  Bi77  1  0.73492756  -0.00945301  0.49364581  1
  Bi  Bi78  1  0.26814132  0.74211145  -0.01250335  1
  Bi  Bi79  1  -0.03058790  0.27830329  0.27517709  1
  Bi  Bi80  1  -0.00835350  -0.01914070  0.02365515  1
  Bi  Bi81  1  0.01193483  0.77456274  0.73529427  1
  Bi  Bi82  1  0.00348819  0.01230655  0.72485072  1
  Bi  Bi83  1  0.24792439  -0.00835162  0.00906278  1
  Bi  Bi84  1  0.48674453  0.72501068  0.50559103  1
  Bi  Bi85  1  0.77008401  0.52967097  0.76025762  1
  Bi  Bi86  1  0.24259352  0.51854308  0.26264964  1
  Bi  Bi87  1  0.74183179  0.26457226  0.25229224  1
  Bi  Bi88  1  0.26470146  0.28975368  0.72093588  1
  Bi  Bi89  1  0.47990115  0.25487086  0.25551745  1
  Bi  Bi90  1  0.76353170  0.01423538  0.75246919  1
  Bi  Bi91  1  0.50081834  0.27570403  0.76941801  1
  Bi  Bi92  1  0.01110023  0.49885888  0.25160035  1
  Bi  Bi93  1  0.78346000  0.51016589  0.24002880  1
  Bi  Bi94  1  0.23370427  0.24004179  0.26732083  1
  Bi  Bi95  1  0.21702202  0.25035259  0.01082976  1
  Bi  Bi96  1  0.49377774  0.51310502  0.01532419  1
  Bi  Bi97  1  0.46517603  0.24921634  0.50410066  1
  Bi  Bi98  1  0.47714851  0.01340222  -0.02244830  1
  Bi  Bi99  1  -0.03602881  0.25750652  0.49830790  1
  Bi  Bi100  1  0.75020826  0.52586714  0.00906986  1
  Bi  Bi101  1  0.75196480  0.01468180  0.24250121  1
  Bi  Bi102  1  0.25792779  0.49844560  0.54417811  1
  Bi  Bi103  1  0.27858872  0.70264516  0.73016039  1
  Bi  Bi104  1  0.50200074  0.50576608  0.23692781  1
  Bi  Bi105  1  0.73782964  0.75135700  0.46034118  1
  Bi  Bi106  1  0.50485962  0.72556939  0.26693405  1
  Bi  Bi107  1  -0.00478344  -0.01140657  0.25315855  1
  Bi  Bi108  1  0.49132007  0.75160791  0.00031343  1
  Bi  Bi109  1  -0.02818297  0.77694515  0.50344561  1
  Bi  Bi110  1  0.23866485  0.24638516  0.51888857  1
  Bi  Bi111  1  -0.02753341  0.49238273  0.47518055  1
  Bi  Bi112  1  0.24581879  0.00826244  0.24320983  1
  Bi  Bi113  1  0.24080749  0.52627619  -0.01526984  1
  Bi  Bi114  1  0.27193533  -0.02300713  0.75268044  1
  Bi  Bi115  1  0.47884526  0.47924712  0.54746622  1
  Bi  Bi116  1  0.26282684  -0.02598013  0.51217439  1
  Bi  Bi117  1  0.00347333  0.75265727  -0.01729305  1
  Bi  Bi118  1  0.75281040  0.75982938  0.22277755  1
  Bi  Bi119  1  0.50908222  0.71632790  0.73861128  1
  Bi  Bi120  1  0.76849535  0.76975566  0.74598689  1
  Bi  Bi121  1  0.00979070  0.49094826  -0.02936996  1
  Bi  Bi122  1  0.49469540  0.25526725  0.02345958  1
  Bi  Bi123  1  0.26763997  0.73898738  0.52169543  1
  Bi  Bi124  1  0.49884891  0.00859928  0.52470543  1
  O  O125  1  0.11625404  0.14506881  0.00907306  1
  O  O126  1  0.14886057  0.12122789  0.24954159  1
  O  O127  1  0.10109859  0.13401312  0.49392907  1
  O  O128  1  0.13104768  0.10092934  0.74446302  1
  O  O129  1  0.10776428  0.34371164  0.00401508  1
  O  O130  1  0.13655624  0.40374606  0.24490306  1
  O  O131  1  0.10539727  0.36295527  0.49789318  1
  O  O132  1  0.15960090  0.37804051  0.74099849  1
  O  O133  1  0.15249360  0.63877196  0.02193281  1
  O  O134  1  0.11847299  0.58645654  0.24831159  1
  O  O135  1  0.12021488  0.63860193  0.49774650  1
  O  O136  1  0.11823470  0.61636244  0.74923623  1
  O  O137  1  0.15382067  0.87684852  -0.00150847  1
  O  O138  1  0.08890766  0.88326047  0.25194686  1
  O  O139  1  0.14640208  0.87574477  0.48790498  1
  O  O140  1  0.09252538  0.88414845  0.75886359  1
  O  O141  1  0.38705817  0.12465262  0.00105638  1
  O  O142  1  0.35753926  0.14360264  0.24811982  1
  O  O143  1  0.40622524  0.11669355  0.48447576  1
  O  O144  1  0.35324407  0.13088972  0.75178866  1
  O  O145  1  0.40033175  0.37218040  0.00205019  1
  O  O146  1  0.36634096  0.35222779  0.24536911  1
  O  O147  1  0.39985869  0.37885225  0.48924900  1
  O  O148  1  0.36461118  0.37149409  0.76164914  1
  O  O149  1  0.34060680  0.62175406  0.00743848  1
  O  O150  1  0.41899573  0.61919257  0.24337356  1
  O  O151  1  0.36750236  0.65328639  0.49010754  1
  O  O152  1  0.38568318  0.62237565  0.76077124  1
  O  O153  1  0.36820608  0.91580099  0.00407804  1
  O  O154  1  0.39032977  0.88508612  0.24221643  1
  O  O155  1  0.33948246  0.85798763  0.48028315  1
  O  O156  1  0.38235009  0.90131281  0.75278954  1
  O  O157  1  0.61708884  0.15328458  -0.00664851  1
  O  O158  1  0.63789537  0.09426770  0.25100742  1
  O  O159  1  0.59144556  0.12965854  0.49470841  1
  O  O160  1  0.64749161  0.10551673  0.73247618  1
  O  O161  1  0.61231720  0.34353356  -0.00412831  1
  O  O162  1  0.65546564  0.37610548  0.25876187  1
  O  O163  1  0.58659554  0.37192357  0.50974225  1
  O  O164  1  0.64730509  0.39257237  0.75446010  1
  O  O165  1  0.66773798  0.64961615  -0.00031741  1
  O  O166  1  0.59297291  0.61476775  0.25022896  1
  O  O167  1  0.62948429  0.66063000  0.50749920  1
  O  O168  1  0.59692476  0.60890855  0.76069861  1
  O  O169  1  0.65755037  0.86807085  0.00826158  1
  O  O170  1  0.58854046  0.90982564  0.25426656  1
  O  O171  1  0.65332930  0.85988158  0.51088411  1
  O  O172  1  0.60789911  0.91952768  0.75906533  1
  O  O173  1  0.89595150  0.10523997  0.00223994  1
  O  O174  1  0.85061908  0.12703521  0.24801085  1
  O  O175  1  0.90173302  0.11118337  0.50021278  1
  O  O176  1  0.83496966  0.14819107  0.73541519  1
  O  O177  1  0.91497816  0.36585615  0.00385667  1
  O  O178  1  0.85537207  0.35281591  0.24023038  1
  O  O179  1  0.90095327  0.38205766  0.52074311  1
  O  O180  1  0.85265612  0.33450754  0.75016846  1
  O  O181  1  0.85839524  0.61076775  0.00380417  1
  O  O182  1  0.86174951  0.61963147  0.24904252  1
  O  O183  1  0.87648734  0.58852972  0.51286752  1
  O  O184  1  0.87149449  0.63534559  0.74896494  1
  O  O185  1  0.84551777  0.91884576  -0.00082949  1
  O  O186  1  0.91489927  0.85873092  0.25244963  1
  O  O187  1  0.87021436  0.87458565  0.49833113  1
  O  O188  1  0.89065285  0.84728748  0.76090920  1
  O  O189  1  -0.00427780  0.14942765  0.14733202  1
  O  O190  1  -0.00228459  0.12823476  0.35307416  1
  O  O191  1  -0.01000855  0.13305192  0.65107956  1
  O  O192  1  -0.00743224  0.11040532  0.83800357  1
  O  O193  1  0.00153129  0.35151701  0.15576498  1
  O  O194  1  0.01020346  0.39077511  0.35350842  1
  O  O195  1  0.00337421  0.37552944  0.66857525  1
  O  O196  1  0.00355755  0.39300716  0.86131903  1
  O  O197  1  0.01062115  0.67015541  0.14243287  1
  O  O198  1  0.00436936  0.59224502  0.36883089  1
  O  O199  1  -0.00293671  0.62635702  0.62562765  1
  O  O200  1  0.00624272  0.61678067  0.89704326  1
  O  O201  1  -0.00009535  0.85386280  0.09417452  1
  O  O202  1  0.00618203  0.88164678  0.40794224  1
  O  O203  1  -0.00371548  0.85759327  0.62042150  1
  O  O204  1  -0.00623625  0.87562559  0.91131659  1
  O  O205  1  0.25930404  0.09041210  0.12036241  1
  O  O206  1  0.25066360  0.14466117  0.38195280  1
  O  O207  1  0.23688980  0.11541092  0.59649049  1
  O  O208  1  0.23896269  0.14782578  0.88469992  1
  O  O209  1  0.24906950  0.38844507  0.10580326  1
  O  O210  1  0.25429372  0.35670673  0.38379626  1
  O  O211  1  0.24252774  0.36582796  0.60093644  1
  O  O212  1  0.25485052  0.34492653  0.89413404  1
  O  O213  1  0.25271396  0.62586781  0.17168997  1
  O  O214  1  0.24214724  0.63206510  0.34987942  1
  O  O215  1  0.24075543  0.62142781  0.62221324  1
  O  O216  1  0.24174438  0.63199520  0.88041083  1
  O  O217  1  0.25961560  0.91629128  0.13170722  1
  O  O218  1  0.23940433  0.85955159  0.32887215  1
  O  O219  1  0.24512156  0.90506306  0.63383941  1
  O  O220  1  0.24182788  0.87814317  0.85134390  1
  O  O221  1  0.50062701  0.15373956  0.13774586  1
  O  O222  1  0.49804864  0.09774938  0.33515059  1
  O  O223  1  0.50697915  0.09336306  0.63929727  1
  O  O224  1  0.52246829  0.08954625  0.85459436  1
  O  O225  1  0.49959812  0.33808960  0.13962087  1
  O  O226  1  0.50183793  0.36836593  0.34874515  1
  O  O227  1  0.51065880  0.40138415  0.65867683  1
  O  O228  1  0.50931101  0.38586097  0.85028303  1
  O  O229  1  0.49721118  0.63806847  0.08476836  1
  O  O230  1  0.50062865  0.65161366  0.38902842  1
  O  O231  1  0.50762841  0.64407803  0.61897943  1
  O  O232  1  0.50949760  0.62567527  0.91174460  1
  O  O233  1  0.50267263  0.85846099  0.10489779  1
  O  O234  1  0.48837722  0.87074649  0.39218596  1
  O  O235  1  0.51085047  0.87691611  0.60968742  1
  O  O236  1  0.51197911  0.89392896  0.90131252  1
  O  O237  1  0.75940617  0.07543224  0.11135383  1
  O  O238  1  0.75429185  0.11173783  0.39822259  1
  O  O239  1  0.74502304  0.13461031  0.57726534  1
  O  O240  1  0.75948628  0.14495599  0.88131381  1
  O  O241  1  0.75967395  0.38671421  0.08928923  1
  O  O242  1  0.73006434  0.35482717  0.41694930  1
  O  O243  1  0.74330473  0.37668801  0.60692752  1
  O  O244  1  0.74733419  0.34618939  0.89030493  1
  O  O245  1  0.74129265  0.58636592  0.13334350  1
  O  O246  1  0.74867029  0.62148318  0.39011871  1
  O  O247  1  0.75018301  0.62105201  0.63807979  1
  O  O248  1  0.74685772  0.63076245  0.86067019  1
  O  O249  1  0.74351894  0.89008194  0.16172714  1
  O  O250  1  0.76016300  0.87477612  0.36399789  1
  O  O251  1  0.74823886  0.87879119  0.66219999  1
  O  O252  1  0.75194499  0.86300819  0.85228347  1
  O  O253  1  0.09780660  0.00787195  0.12630081  1
  O  O254  1  0.12426939  0.00764229  0.37854827  1
  O  O255  1  0.08913418  0.00398009  0.60312145  1
  O  O256  1  0.12216784  0.00433400  0.88922996  1
  O  O257  1  0.15218458  0.24879687  0.14136180  1
  O  O258  1  0.11870239  0.25580405  0.35286168  1
  O  O259  1  0.13057994  0.24577699  0.62374491  1
  O  O260  1  0.09027920  0.24153933  0.86065136  1
  O  O261  1  0.09704921  0.49126648  0.09968382  1
  O  O262  1  0.15062365  0.49795393  0.39119605  1
  O  O263  1  0.12800762  0.49772490  0.60989296  1
  O  O264  1  0.13095343  0.50412381  0.89738934  1
  O  O265  1  0.15115798  0.75586511  0.16784483  1
  O  O266  1  0.11352889  0.74167838  0.34932271  1
  O  O267  1  0.12905427  0.74544232  0.64016362  1
  O  O268  1  0.10608767  0.75151481  0.87390873  1
  O  O269  1  0.41879843  0.01085752  0.13791998  1
  O  O270  1  0.34525014  -0.00111120  0.36567350  1
  O  O271  1  0.37652666  -0.00448543  0.59286666  1
  O  O272  1  0.36459777  0.01729375  0.88041144  1
  O  O273  1  0.35510084  0.24865147  0.10799736  1
  O  O274  1  0.39342842  0.24544178  0.38313367  1
  O  O275  1  0.35909057  0.23876322  0.59563701  1
  O  O276  1  0.40927067  0.24585494  0.87485428  1
  O  O277  1  0.40177452  0.48988016  0.12784414  1
  O  O278  1  0.37004821  0.49474101  0.35939124  1
  O  O279  1  0.36536469  0.49763083  0.62321797  1
  O  O280  1  0.35534394  0.49201846  0.87900041  1
  O  O281  1  0.36713154  0.76654490  0.09208004  1
  O  O282  1  0.36432017  0.75114459  0.33324140  1
  O  O283  1  0.35324226  0.75727937  0.63042312  1
  O  O284  1  0.37998673  0.75477629  0.90298068  1
  O  O285  1  0.60690273  -0.00227656  0.10779017  1
  O  O286  1  0.63100964  -0.00681897  0.40154865  1
  O  O287  1  0.63970171  -0.00088921  0.59775734  1
  O  O288  1  0.66469819  0.00195270  0.90385075  1
  O  O289  1  0.66400004  0.24755333  0.13774856  1
  O  O290  1  0.63066406  0.23214211  0.36532695  1
  O  O291  1  0.61050095  0.25008766  0.63315623  1
  O  O292  1  0.62182420  0.24073617  0.83986105  1
  O  O293  1  0.58711692  0.49709640  0.11593137  1
  O  O294  1  0.63274972  0.49365613  0.38872878  1
  O  O295  1  0.62146227  0.50996504  0.62046089  1
  O  O296  1  0.63401948  0.49812751  0.89626390  1
  O  O297  1  0.63557194  0.75738316  0.15445888  1
  O  O298  1  0.63501473  0.76469413  0.36051359  1
  O  O299  1  0.62951072  0.75466282  0.66522443  1
  O  O300  1  0.61288130  0.75610354  0.85942944  1
  O  O301  1  0.91109819  -0.00120001  0.14001090  1
  O  O302  1  0.88341258  -0.00434930  0.35833577  1
  O  O303  1  0.86616414  0.00904266  0.64735411  1
  O  O304  1  0.86893189  0.00137836  0.85097870  1
  O  O305  1  0.84860622  0.24018769  0.11570472  1
  O  O306  1  0.86917589  0.23868952  0.39611164  1
  O  O307  1  0.87738760  0.24927420  0.60333287  1
  O  O308  1  0.90404224  0.24003087  0.88544585  1
  O  O309  1  0.88917158  0.48842306  0.14119781  1
  O  O310  1  0.86515016  0.49151120  0.38084771  1
  O  O311  1  0.87370605  0.48628666  0.66588474  1
  O  O312  1  0.87111041  0.49493264  0.84887992  1
  O  O313  1  0.83202130  0.74955528  0.11137594  1
  O  O314  1  0.88323592  0.75047974  0.39077872  1
  O  O315  1  0.86592903  0.74266979  0.60691902  1
  O  O316  1  0.87384566  0.75893057  0.91993355  1
