# generated using pymatgen
data_Mg32Ti42(Bi17O64)3
_symmetry_space_group_name_H-M   'P 1'
_cell_length_a   15.91876783
_cell_length_b   15.92179948
_cell_length_c   15.94340558
_cell_angle_alpha   90.15731014
_cell_angle_beta   89.99736412
_cell_angle_gamma   90.14705993
_symmetry_Int_Tables_number   1
_chemical_formula_structural   Mg32Ti42(Bi17O64)3
_chemical_formula_sum   'Mg32 Ti42 Bi51 O192'
_cell_volume   4040.91416102
_cell_formula_units_Z   1
loop_
 _symmetry_equiv_pos_site_id
 _symmetry_equiv_pos_as_xyz
  1  'x, y, z'
loop_
 _atom_site_type_symbol
 _atom_site_label
 _atom_site_symmetry_multiplicity
 _atom_site_fract_x
 _atom_site_fract_y
 _atom_site_fract_z
 _atom_site_occupancy
  Mg  Mg0  1  0.63263110  0.37495267  0.37388253  1
  Mg  Mg1  1  0.12115722  0.37377940  0.37132023  1
  Mg  Mg2  1  0.12765642  0.62669868  0.62673988  1
  Mg  Mg3  1  0.87604142  0.62027325  0.37155327  1
  Mg  Mg4  1  0.87485196  0.87332626  0.36709680  1
  Mg  Mg5  1  0.86789102  0.13187045  0.38093110  1
  Mg  Mg6  1  0.37143669  0.87711153  0.12800644  1
  Mg  Mg7  1  0.62209175  0.13103231  0.14306875  1
  Mg  Mg8  1  0.11833572  0.87413045  0.37995007  1
  Mg  Mg9  1  0.63171713  0.62781951  0.61867242  1
  Mg  Mg10  1  0.11585506  0.87747384  0.13427495  1
  Mg  Mg11  1  0.62519291  0.62045393  0.88371463  1
  Mg  Mg12  1  0.38184085  0.38235477  0.38151533  1
  Mg  Mg13  1  0.62286854  0.86392060  0.37171599  1
  Mg  Mg14  1  0.37606096  0.63247640  0.37823549  1
  Mg  Mg15  1  0.38304084  0.38157927  0.12120520  1
  Mg  Mg16  1  0.11622160  0.86379885  0.86676317  1
  Mg  Mg17  1  0.37663272  0.87673325  0.62967847  1
  Mg  Mg18  1  0.62920900  0.87127288  0.86199957  1
  Mg  Mg19  1  -0.05540884  0.77136617  0.75034241  1
  Mg  Mg20  1  0.00170277  0.05320830  0.05406450  1
  Mg  Mg21  1  0.04397877  0.22260015  0.75070426  1
  Mg  Mg22  1  -0.04271843  0.20944620  0.25116903  1
  Mg  Mg23  1  0.53280270  -0.07387011  0.22060768  1
  Mg  Mg24  1  0.70386941  0.52666768  0.74914191  1
  Mg  Mg25  1  0.56347796  0.75058368  0.19947914  1
  Mg  Mg26  1  0.73720024  0.70428750  0.77744543  1
  Mg  Mg27  1  0.77050873  0.23398423  0.53042605  1
  Mg  Mg28  1  0.74437228  0.79607002  0.19242577  1
  Mg  Mg29  1  0.22762079  0.49925987  0.73697847  1
  Mg  Mg30  1  -0.02325749  0.51356475  0.20838989  1
  Mg  Mg31  1  0.73296707  0.27818328  0.22914479  1
  Ti  Ti32  1  0.11359527  0.62342965  0.13519752  1
  Ti  Ti33  1  0.11811581  0.37109146  0.62874612  1
  Ti  Ti34  1  0.14068302  0.12234739  0.62229854  1
  Ti  Ti35  1  0.12053695  0.37845423  0.86560524  1
  Ti  Ti36  1  0.36890155  0.12398244  0.13661392  1
  Ti  Ti37  1  0.87070096  0.63446749  0.87324043  1
  Ti  Ti38  1  0.87671605  0.36918864  0.11825773  1
  Ti  Ti39  1  0.39056549  0.62918556  0.12499443  1
  Ti  Ti40  1  0.64095030  0.12401306  0.61786997  1
  Ti  Ti41  1  0.87826885  0.88836740  0.87314449  1
  Ti  Ti42  1  0.11721437  0.87571965  0.62657015  1
  Ti  Ti43  1  0.88613575  0.13062112  0.88930155  1
  Ti  Ti44  1  0.63702562  0.37525874  0.61604987  1
  Ti  Ti45  1  0.63854224  0.61118784  0.11464365  1
  Ti  Ti46  1  0.64736573  0.14269215  0.37777249  1
  Ti  Ti47  1  0.86842719  0.63200084  0.12401976  1
  Ti  Ti48  1  0.87498770  0.37328554  0.62647275  1
  Ti  Ti49  1  0.88429265  0.37226420  0.86034666  1
  Ti  Ti50  1  0.37833042  0.12845731  0.63649371  1
  Ti  Ti51  1  0.88145715  0.13357610  0.63701006  1
  Ti  Ti52  1  0.88295394  0.88818972  0.12471448  1
  Ti  Ti53  1  0.85866229  0.12778279  0.13256640  1
  Ti  Ti54  1  0.36428452  0.39144218  0.87087559  1
  Ti  Ti55  1  0.11267174  0.37629238  0.14175966  1
  Ti  Ti56  1  0.13092219  0.12296558  0.87385222  1
  Ti  Ti57  1  0.63483147  0.63162842  0.37086541  1
  Ti  Ti58  1  0.36251879  0.13889830  0.87878862  1
  Ti  Ti59  1  0.12853580  0.13040989  0.38831692  1
  Ti  Ti60  1  0.38827416  0.12085725  0.37544619  1
  Ti  Ti61  1  0.37353904  0.62988436  0.88058899  1
  Ti  Ti62  1  0.12286173  0.62322719  0.37333704  1
  Ti  Ti63  1  0.86989386  0.63620408  0.62973159  1
  Ti  Ti64  1  0.36943852  0.61855417  0.63099000  1
  Ti  Ti65  1  0.62914429  0.87404950  0.62712401  1
  Ti  Ti66  1  0.37416209  0.86724170  0.87163917  1
  Ti  Ti67  1  0.12865798  0.13415821  0.15052226  1
  Ti  Ti68  1  0.39130561  0.87451611  0.36792597  1
  Ti  Ti69  1  0.86839088  0.88170126  0.62830846  1
  Ti  Ti70  1  0.87730587  0.37540749  0.35481354  1
  Ti  Ti71  1  0.13796323  0.62638473  0.87070672  1
  Ti  Ti72  1  0.38421039  0.37809585  0.62090469  1
  Ti  Ti73  1  0.61773596  0.37735476  0.13093190  1
  Bi  Bi74  1  0.51412011  0.24103430  0.27390877  1
  Bi  Bi75  1  0.51414848  0.26907681  0.78543344  1
  Bi  Bi76  1  0.69966295  0.02150051  -0.00662226  1
  Bi  Bi77  1  -0.01904824  0.26530072  0.48247371  1
  Bi  Bi78  1  0.52133436  0.73891954  0.77584516  1
  Bi  Bi79  1  0.77097878  0.50024878  0.50663575  1
  Bi  Bi80  1  -0.00546022  0.76009113  0.50010262  1
  Bi  Bi81  1  0.24204836  -0.01977666  0.77414180  1
  Bi  Bi82  1  0.01020073  0.52301805  -0.00878235  1
  Bi  Bi83  1  0.20831789  0.00193059  0.01786569  1
  Bi  Bi84  1  0.51039005  0.03572906  0.78069441  1
  Bi  Bi85  1  0.25794339  0.50893848  0.02654433  1
  Bi  Bi86  1  0.51487995  0.22809961  0.02048119  1
  Bi  Bi87  1  0.27830967  -0.01390332  0.50183714  1
  Bi  Bi88  1  0.24180631  -0.01939280  0.28091696  1
  Bi  Bi89  1  0.50385717  -0.00451907  0.52275566  1
  Bi  Bi90  1  0.50983792  0.51508637  0.74303293  1
  Bi  Bi91  1  0.74804255  0.74612258  0.48049331  1
  Bi  Bi92  1  0.25540687  0.50534391  0.48922727  1
  Bi  Bi93  1  0.72077480  -0.01627607  0.23240541  1
  Bi  Bi94  1  0.25033074  0.74764679  0.51177844  1
  Bi  Bi95  1  0.51164393  0.23298743  0.51671298  1
  Bi  Bi96  1  0.75763298  0.48871853  0.25276957  1
  Bi  Bi97  1  0.73744448  0.02731941  0.77631450  1
  Bi  Bi98  1  0.50770927  0.75147021  0.51866302  1
  Bi  Bi99  1  -0.01942813  0.00938021  0.50135369  1
  Bi  Bi100  1  0.02066584  0.50127555  0.49005155  1
  Bi  Bi101  1  0.52587441  0.50180272  0.49619411  1
  Bi  Bi102  1  0.74104776  0.79419464  -0.00285736  1
  Bi  Bi103  1  0.00280067  0.01898403  0.75397015  1
  Bi  Bi104  1  0.47415817  0.00617503  0.00381607  1
  Bi  Bi105  1  0.77998499  0.50137660  -0.01075551  1
  Bi  Bi106  1  0.03026172  0.26101584  -0.00304480  1
  Bi  Bi107  1  0.25972520  0.27785377  0.73801625  1
  Bi  Bi108  1  0.73700402  -0.01950103  0.47834283  1
  Bi  Bi109  1  0.53830751  0.46304152  -0.03637351  1
  Bi  Bi110  1  0.51624753  0.51637022  0.27463868  1
  Bi  Bi111  1  -0.00614692  0.75514878  0.27067500  1
  Bi  Bi112  1  0.00311153  0.53157139  0.73449599  1
  Bi  Bi113  1  0.72672365  0.27796755  -0.02460936  1
  Bi  Bi114  1  0.25309959  0.27657752  0.02055338  1
  Bi  Bi115  1  0.72724353  0.27107737  0.77096582  1
  Bi  Bi116  1  0.50934282  0.78481986  0.01087490  1
  Bi  Bi117  1  0.26039071  0.75997295  0.25123482  1
  Bi  Bi118  1  0.23335104  0.77476007  0.01681917  1
  Bi  Bi119  1  0.23956864  0.26775530  0.48732966  1
  Bi  Bi120  1  0.28208125  0.27143813  0.26305482  1
  Bi  Bi121  1  0.27979865  0.50919571  0.25407403  1
  Bi  Bi122  1  0.25145865  0.74810715  0.73659844  1
  Bi  Bi123  1  -0.00795161  0.01119503  0.27865799  1
  Bi  Bi124  1  0.00217437  0.77224175  -0.00515177  1
  O  O125  1  0.09619933  0.09928396  -0.01575848  1
  O  O126  1  0.15207904  0.14278109  0.25766702  1
  O  O127  1  0.10425884  0.10716900  0.50611144  1
  O  O128  1  0.14035590  0.13451112  0.74687181  1
  O  O129  1  0.12777976  0.37018590  -0.01362115  1
  O  O130  1  0.11248803  0.35678611  0.24904931  1
  O  O131  1  0.14969510  0.38206160  0.51627885  1
  O  O132  1  0.10709734  0.33261247  0.75061221  1
  O  O133  1  0.13250689  0.59890312  -0.00452836  1
  O  O134  1  0.08179549  0.61879173  0.24795396  1
  O  O135  1  0.15412374  0.63150732  0.49605907  1
  O  O136  1  0.09926519  0.62830167  0.75702487  1
  O  O137  1  0.11249838  0.86327752  -0.00248955  1
  O  O138  1  0.16095313  0.86700045  0.25275355  1
  O  O139  1  0.09120126  0.86590184  0.50666947  1
  O  O140  1  0.16550354  0.86375534  0.74546416  1
  O  O141  1  0.39390009  0.12418124  -0.00306395  1
  O  O142  1  0.35032893  0.12898030  0.24810833  1
  O  O143  1  0.40296684  0.12642795  0.49445828  1
  O  O144  1  0.35876477  0.12366561  0.75081548  1
  O  O145  1  0.34328284  0.38563508  -0.01132274  1
  O  O146  1  0.36754983  0.38242486  0.24816963  1
  O  O147  1  0.35206724  0.38060984  0.50883304  1
  O  O148  1  0.38974483  0.35911183  0.75218623  1
  O  O149  1  0.35200454  0.62058776  -0.00350891  1
  O  O150  1  0.38032575  0.61048944  0.24459678  1
  O  O151  1  0.33869812  0.62789539  0.50631227  1
  O  O152  1  0.40384043  0.63322609  0.74678317  1
  O  O153  1  0.40034251  0.87294259  -0.00101004  1
  O  O154  1  0.34083565  0.87910716  0.25241617  1
  O  O155  1  0.39206382  0.89120805  0.48978476  1
  O  O156  1  0.34934614  0.87144063  0.75405431  1
  O  O157  1  0.59499208  0.10724440  0.01517551  1
  O  O158  1  0.65418054  0.17520203  0.26128277  1
  O  O159  1  0.59633876  0.11496818  0.49679268  1
  O  O160  1  0.65060381  0.13146373  0.73660360  1
  O  O161  1  0.65264282  0.39691918  0.00733286  1
  O  O162  1  0.61617304  0.34764177  0.24341055  1
  O  O163  1  0.63783372  0.40508043  0.49978550  1
  O  O164  1  0.61810430  0.34744684  0.73497563  1
  O  O165  1  0.63462696  0.58685554  0.00344791  1
  O  O166  1  0.60028485  0.64459331  0.25785415  1
  O  O167  1  0.64475559  0.58941804  0.49438684  1
  O  O168  1  0.60370070  0.62451987  0.74529023  1
  O  O169  1  0.61739017  0.86682929  -0.00764895  1
  O  O170  1  0.64676193  0.85628516  0.24835374  1
  O  O171  1  0.61851353  0.90909000  0.49190778  1
  O  O172  1  0.64081234  0.85859292  0.73586951  1
  O  O173  1  0.90480206  0.12913263  0.00584222  1
  O  O174  1  0.86416295  0.10843020  0.24724505  1
  O  O175  1  0.90423996  0.13127243  0.50982294  1
  O  O176  1  0.85420139  0.10517252  0.75152740  1
  O  O177  1  0.85274745  0.35648727  0.00640846  1
  O  O178  1  0.90802166  0.41072419  0.24833045  1
  O  O179  1  0.85328857  0.33934901  0.50399428  1
  O  O180  1  0.89552725  0.37851721  0.74745642  1
  O  O181  1  0.84440870  0.62798506  -0.00663606  1
  O  O182  1  0.89294023  0.60477819  0.23748208  1
  O  O183  1  0.84172740  0.62546403  0.51303062  1
  O  O184  1  0.90825686  0.63672559  0.75306322  1
  O  O185  1  0.88876476  0.85482023  -0.00472988  1
  O  O186  1  0.84610371  0.87247473  0.23706088  1
  O  O187  1  0.90735951  0.86905066  0.50934205  1
  O  O188  1  0.86952927  0.88166191  0.74833124  1
  O  O189  1  0.00724662  0.14482814  0.14996180  1
  O  O190  1  0.00593236  0.13229516  0.34732025  1
  O  O191  1  -0.00248590  0.14334292  0.66056640  1
  O  O192  1  0.00215121  0.13835828  0.84165498  1
  O  O193  1  -0.00465604  0.34449100  0.10653232  1
  O  O194  1  -0.00558713  0.38928695  0.40742456  1
  O  O195  1  0.00040167  0.35820106  0.60587174  1
  O  O196  1  -0.00032889  0.34637390  0.88668633  1
  O  O197  1  -0.00896675  0.63033590  0.09431810  1
  O  O198  1  -0.00053152  0.60017743  0.40290648  1
  O  O199  1  -0.00412464  0.61469281  0.61383359  1
  O  O200  1  -0.01020593  0.63192673  0.90350675  1
  O  O201  1  -0.00725078  0.84403696  0.13219409  1
  O  O202  1  -0.00104983  0.87916697  0.33367414  1
  O  O203  1  0.01027007  0.84074408  0.65710493  1
  O  O204  1  -0.00970846  0.83017130  0.85903914  1
  O  O205  1  0.24634505  0.10997021  0.10375779  1
  O  O206  1  0.24675893  0.13672014  0.40080345  1
  O  O207  1  0.25250601  0.10490566  0.60973203  1
  O  O208  1  0.24861133  0.09336066  0.88666013  1
  O  O209  1  0.23301043  0.38888492  0.11794888  1
  O  O210  1  0.24875789  0.35206748  0.37409536  1
  O  O211  1  0.25097613  0.39074446  0.65972107  1
  O  O212  1  0.24293178  0.39641570  0.83692274  1
  O  O213  1  0.22673534  0.59109605  0.13907780  1
  O  O214  1  0.23405145  0.63132634  0.33744075  1
  O  O215  1  0.25538220  0.59920416  0.65993528  1
  O  O216  1  0.24808391  0.59478687  0.84566607  1
  O  O217  1  0.24610611  0.88784417  0.09772302  1
  O  O218  1  0.24444353  0.89554344  0.39645161  1
  O  O219  1  0.24742771  0.88996700  0.59246152  1
  O  O220  1  0.25829996  0.90284611  0.89201830  1
  O  O221  1  0.49010365  0.16391678  0.14048100  1
  O  O222  1  0.50032125  0.11959487  0.34563490  1
  O  O223  1  0.49890274  0.15288442  0.63956742  1
  O  O224  1  0.48584923  0.14395201  0.85983202  1
  O  O225  1  0.50578002  0.36494621  0.09665698  1
  O  O226  1  0.50493847  0.41719165  0.38195120  1
  O  O227  1  0.50077867  0.36176052  0.60718707  1
  O  O228  1  0.48365449  0.35340826  0.89298665  1
  O  O229  1  0.50240161  0.64842246  0.11893905  1
  O  O230  1  0.50387394  0.60013690  0.39281867  1
  O  O231  1  0.49672333  0.64036624  0.59712144  1
  O  O232  1  0.49207656  0.65179739  0.88606805  1
  O  O233  1  0.49372435  0.83685948  0.14285479  1
  O  O234  1  0.50076377  0.88763916  0.33809068  1
  O  O235  1  0.50695237  0.86118412  0.61570304  1
  O  O236  1  0.49634938  0.84553488  0.86585902  1
  O  O237  1  0.75003950  0.10290902  0.10826654  1
  O  O238  1  0.75052955  0.16645904  0.41959783  1
  O  O239  1  0.75308820  0.11553820  0.59748750  1
  O  O240  1  0.76411201  0.09616548  0.89473596  1
  O  O241  1  0.75449232  0.38256009  0.15178513  1
  O  O242  1  0.76069266  0.35836383  0.32946740  1
  O  O243  1  0.75144272  0.38178318  0.64009248  1
  O  O244  1  0.76143723  0.37101946  0.86454229  1
  O  O245  1  0.75265865  0.58474432  0.13020545  1
  O  O246  1  0.74929058  0.65508561  0.36738137  1
  O  O247  1  0.75570151  0.62157715  0.67070611  1
  O  O248  1  0.75444016  0.59264747  0.84663059  1
  O  O249  1  0.75919891  0.88800303  0.09935224  1
  O  O250  1  0.75366903  0.86663438  0.40207095  1
  O  O251  1  0.75488011  0.88979445  0.59955749  1
  O  O252  1  0.75837836  0.89662793  0.89242126  1
  O  O253  1  0.10692566  0.00926139  0.12438612  1
  O  O254  1  0.11417927  0.00669293  0.36022811  1
  O  O255  1  0.10584072  -0.00421280  0.64178082  1
  O  O256  1  0.11316194  -0.00519200  0.84238803  1
  O  O257  1  0.13625135  0.24716278  0.10408896  1
  O  O258  1  0.11670221  0.24859477  0.41025102  1
  O  O259  1  0.14696585  0.24325080  0.61501745  1
  O  O260  1  0.13822661  0.23855257  0.88822173  1
  O  O261  1  0.07992547  0.49097934  0.13528665  1
  O  O262  1  0.13463074  0.50095387  0.39500651  1
  O  O263  1  0.11795915  0.48822529  0.65692639  1
  O  O264  1  0.09679553  0.49063578  0.85705370  1
  O  O265  1  0.14197678  0.73795685  0.12168039  1
  O  O266  1  0.09285904  0.74315371  0.37390204  1
  O  O267  1  0.16240760  0.74949620  0.62255602  1
  O  O268  1  0.14981557  0.73825976  0.88418109  1
  O  O269  1  0.39972720  0.00810303  0.12371624  1
  O  O270  1  0.36516884  0.00464550  0.36887150  1
  O  O271  1  0.39452608  0.00768310  0.62125839  1
  O  O272  1  0.40905361  -0.00493765  0.87140608  1
  O  O273  1  0.34859865  0.25250495  0.11930361  1
  O  O274  1  0.38650058  0.24998510  0.35996698  1
  O  O275  1  0.35328228  0.25049155  0.62450619  1
  O  O276  1  0.34051312  0.24938629  0.87868071  1
  O  O277  1  0.36848783  0.50832490  0.11652350  1
  O  O278  1  0.34278624  0.50608994  0.38125768  1
  O  O279  1  0.39460458  0.49940400  0.62696539  1
  O  O280  1  0.39683712  0.50202472  0.86724805  1
  O  O281  1  0.33615294  0.73805643  0.12686970  1
  O  O282  1  0.36737884  0.75907537  0.36861345  1
  O  O283  1  0.34530780  0.74709841  0.62286744  1
  O  O284  1  0.34748603  0.74761541  0.87686676  1
  O  O285  1  0.60464838  0.01087065  0.17146249  1
  O  O286  1  0.66461889  0.02069732  0.35882208  1
  O  O287  1  0.60864878  0.00383449  0.62894891  1
  O  O288  1  0.61606774  -0.00104693  0.86078010  1
  O  O289  1  0.63865138  0.25584611  0.09784044  1
  O  O290  1  0.59395412  0.25357798  0.39428879  1
  O  O291  1  0.64577699  0.24853425  0.58690090  1
  O  O292  1  0.63544106  0.24943290  0.87251996  1
  O  O293  1  0.61414110  0.49706506  0.15777312  1
  O  O294  1  0.64438361  0.50550101  0.33992681  1
  O  O295  1  0.62141423  0.49358817  0.65038396  1
  O  O296  1  0.60270832  0.49737905  0.84817237  1
  O  O297  1  0.65849086  0.72897893  0.11890455  1
  O  O298  1  0.61607401  0.74364055  0.41350579  1
  O  O299  1  0.63403125  0.75566442  0.58713332  1
  O  O300  1  0.64427975  0.74226148  0.85783532  1
  O  O301  1  0.90453110  0.00132301  0.11578838  1
  O  O302  1  0.89220593  0.00281175  0.38726400  1
  O  O303  1  0.89813746  -0.00247582  0.61838233  1
  O  O304  1  0.91007240  -0.00359395  0.87838672  1
  O  O305  1  0.85532827  0.24663138  0.16129763  1
  O  O306  1  0.90403766  0.25896107  0.35535110  1
  O  O307  1  0.85258232  0.24428249  0.63601589  1
  O  O308  1  0.86151620  0.24048656  0.87341709  1
  O  O309  1  0.89083816  0.48965404  0.09931973  1
  O  O310  1  0.84506709  0.49348830  0.38915468  1
  O  O311  1  0.87886875  0.48943723  0.60895485  1
  O  O312  1  0.88940742  0.48821886  0.89278455  1
  O  O313  1  0.84363008  0.74096197  0.13097768  1
  O  O314  1  0.90628397  0.74637509  0.38077048  1
  O  O315  1  0.87055348  0.75174228  0.63292790  1
  O  O316  1  0.83899946  0.74320650  0.85138787  1
