# generated using pymatgen
data_Mg32Ti42(Bi17O64)3
_symmetry_space_group_name_H-M   'P 1'
_cell_length_a   15.92651599
_cell_length_b   15.97920451
_cell_length_c   15.95253662
_cell_angle_alpha   90.26469672
_cell_angle_beta   90.01851804
_cell_angle_gamma   89.94727042
_symmetry_Int_Tables_number   1
_chemical_formula_structural   Mg32Ti42(Bi17O64)3
_chemical_formula_sum   'Mg32 Ti42 Bi51 O192'
_cell_volume   4059.76454959
_cell_formula_units_Z   1
loop_
 _symmetry_equiv_pos_site_id
 _symmetry_equiv_pos_as_xyz
  1  'x, y, z'
loop_
 _atom_site_type_symbol
 _atom_site_label
 _atom_site_symmetry_multiplicity
 _atom_site_fract_x
 _atom_site_fract_y
 _atom_site_fract_z
 _atom_site_occupancy
  Mg  Mg0  1  0.87537812  0.36874189  0.13347182  1
  Mg  Mg1  1  0.12487412  0.62212954  0.88987711  1
  Mg  Mg2  1  0.87234276  0.88041670  0.86735796  1
  Mg  Mg3  1  0.87012852  0.37174081  0.38702028  1
  Mg  Mg4  1  0.12459852  0.88383414  0.63416167  1
  Mg  Mg5  1  0.87414211  0.62254787  0.86942704  1
  Mg  Mg6  1  0.12405122  0.37194050  0.38088871  1
  Mg  Mg7  1  0.61975306  0.36141549  0.38357938  1
  Mg  Mg8  1  0.87052948  0.11162515  0.38232043  1
  Mg  Mg9  1  0.36998715  0.62868711  0.36800378  1
  Mg  Mg10  1  0.37304124  0.87493608  0.11947862  1
  Mg  Mg11  1  0.86789946  0.63085138  0.13599009  1
  Mg  Mg12  1  0.37768176  0.62831180  0.62201031  1
  Mg  Mg13  1  0.62479082  0.88278472  0.37475138  1
  Mg  Mg14  1  0.36961754  0.12954810  0.62281046  1
  Mg  Mg15  1  0.63608070  0.13329818  0.88158695  1
  Mg  Mg16  1  0.63501835  0.88235072  0.12662345  1
  Mg  Mg17  1  0.38354142  0.37933887  0.62652653  1
  Mg  Mg18  1  0.38447012  0.13245560  0.13510757  1
  Mg  Mg19  1  0.50266718  0.02133516  0.55848280  1
  Mg  Mg20  1  0.31995089  0.20665151  -0.02075864  1
  Mg  Mg21  1  0.02084625  -0.01097453  0.50692066  1
  Mg  Mg22  1  0.74971922  -0.01639983  0.24256420  1
  Mg  Mg23  1  0.01704783  -0.04074049  0.22961478  1
  Mg  Mg24  1  0.49107039  0.24669934  -0.11686238  1
  Mg  Mg25  1  0.74586754  0.22622201  0.30530894  1
  Mg  Mg26  1  0.57518924  0.19082359  0.72010002  1
  Mg  Mg27  1  0.05489542  0.04843682  0.75682516  1
  Mg  Mg28  1  0.23380216  0.71273210  0.02360949  1
  Mg  Mg29  1  0.72812969  0.46761926  0.49737444  1
  Mg  Mg30  1  -0.03603485  0.46617253  0.27822368  1
  Mg  Mg31  1  0.49716781  0.43965426  0.25039999  1
  Ti  Ti32  1  0.87710212  0.88675923  0.62524227  1
  Ti  Ti33  1  0.87716952  0.87808463  0.12394952  1
  Ti  Ti34  1  0.10749810  0.11572488  0.13864102  1
  Ti  Ti35  1  0.11617997  0.11495434  0.37696477  1
  Ti  Ti36  1  0.37210352  0.63287723  0.13378306  1
  Ti  Ti37  1  0.62849690  0.61965768  0.88386215  1
  Ti  Ti38  1  0.37226036  0.11734829  0.37917079  1
  Ti  Ti39  1  0.61462676  0.86593365  0.61773499  1
  Ti  Ti40  1  0.37129354  0.87410608  0.88516603  1
  Ti  Ti41  1  0.88209357  0.39113549  0.86681424  1
  Ti  Ti42  1  0.37988229  0.88078485  0.37120225  1
  Ti  Ti43  1  0.61651205  0.38315999  0.62394511  1
  Ti  Ti44  1  0.12123643  0.61636384  0.13426072  1
  Ti  Ti45  1  0.62009074  0.36096068  0.11580392  1
  Ti  Ti46  1  0.88167469  0.38744911  0.62401303  1
  Ti  Ti47  1  0.12268439  0.37815957  0.61659881  1
  Ti  Ti48  1  0.13129187  0.12924781  0.62111059  1
  Ti  Ti49  1  0.38034243  0.36173845  0.37993459  1
  Ti  Ti50  1  0.37483403  0.36057816  0.11921821  1
  Ti  Ti51  1  0.87392551  0.11832703  0.13895936  1
  Ti  Ti52  1  0.63162012  0.61734602  0.13165606  1
  Ti  Ti53  1  0.62894688  0.37686643  0.87586731  1
  Ti  Ti54  1  0.63015130  0.10686053  0.37360682  1
  Ti  Ti55  1  0.12994262  0.64358120  0.61180120  1
  Ti  Ti56  1  0.63760076  0.12057283  0.12413873  1
  Ti  Ti57  1  0.87467631  0.89358506  0.37361053  1
  Ti  Ti58  1  0.62342161  0.62596509  0.60883822  1
  Ti  Ti59  1  0.87020558  0.12594769  0.85762162  1
  Ti  Ti60  1  0.13080102  0.62056053  0.36859602  1
  Ti  Ti61  1  0.37770546  0.87985561  0.63075848  1
  Ti  Ti62  1  0.86062404  0.62321907  0.37096337  1
  Ti  Ti63  1  0.88525482  0.11517150  0.62408782  1
  Ti  Ti64  1  0.37848980  0.38708930  0.88305206  1
  Ti  Ti65  1  0.12381037  0.38719862  0.89000164  1
  Ti  Ti66  1  0.37235159  0.62539091  0.88521653  1
  Ti  Ti67  1  0.12684694  0.88239304  0.36590222  1
  Ti  Ti68  1  0.62271615  0.87373406  0.87182057  1
  Ti  Ti69  1  0.62585858  0.61374207  0.36510033  1
  Ti  Ti70  1  0.12377013  0.88062728  0.87200587  1
  Ti  Ti71  1  0.88285256  0.63735896  0.61630264  1
  Ti  Ti72  1  0.12354162  0.87458758  0.11030139  1
  Ti  Ti73  1  0.11555100  0.36986858  0.13701552  1
  Bi  Bi74  1  0.73029646  0.76098908  0.25566437  1
  Bi  Bi75  1  0.27010300  0.51120788  0.74094781  1
  Bi  Bi76  1  0.48752891  0.50977431  0.46832910  1
  Bi  Bi77  1  0.74115167  0.45560335  0.27225823  1
  Bi  Bi78  1  0.26404026  0.75326475  0.49548963  1
  Bi  Bi79  1  0.78356399  0.25487235  0.00284795  1
  Bi  Bi80  1  -0.03861295  0.24450623  0.27015339  1
  Bi  Bi81  1  0.25834155  0.28257931  0.76656959  1
  Bi  Bi82  1  0.76641486  0.76122226  -0.01994547  1
  Bi  Bi83  1  -0.00879578  0.74484111  0.27137065  1
  Bi  Bi84  1  0.49675214  0.03177887  -0.02576229  1
  Bi  Bi85  1  0.03287605  0.25430774  0.76549407  1
  Bi  Bi86  1  0.49436485  0.74875947  0.77609401  1
  Bi  Bi87  1  0.50886298  0.21423651  0.52846462  1
  Bi  Bi88  1  0.75823374  0.26404096  0.51873665  1
  Bi  Bi89  1  0.49323778  0.51327608  0.03246164  1
  Bi  Bi90  1  -0.00185377  0.51257209  0.47828878  1
  Bi  Bi91  1  0.26125205  0.01753695  0.23234279  1
  Bi  Bi92  1  0.00639160  0.76086923  0.78198875  1
  Bi  Bi93  1  0.51985008  0.51000333  0.74906788  1
  Bi  Bi94  1  0.25233198  0.49146338  0.03460791  1
  Bi  Bi95  1  0.76708004  0.01857664  -0.01100326  1
  Bi  Bi96  1  0.45743308  0.03240598  0.75905772  1
  Bi  Bi97  1  -0.00887817  0.22052830  0.49562761  1
  Bi  Bi98  1  0.52650413  0.76311483  0.01785923  1
  Bi  Bi99  1  0.75893087  0.26648456  0.75011783  1
  Bi  Bi100  1  -0.01933691  0.50326484  0.04129749  1
  Bi  Bi101  1  0.75719380  0.77691555  0.49934196  1
  Bi  Bi102  1  0.03195628  0.52822007  0.74956037  1
  Bi  Bi103  1  0.00407363  0.77951094  0.49461826  1
  Bi  Bi104  1  0.53248592  0.22688637  0.25703696  1
  Bi  Bi105  1  0.26622859  0.26325744  0.51709883  1
  Bi  Bi106  1  0.75692813  0.49334241  0.02991442  1
  Bi  Bi107  1  0.49470840  0.00208263  0.23972831  1
  Bi  Bi108  1  0.75042582  0.52211506  0.72785689  1
  Bi  Bi109  1  0.00708993  0.01769394  -0.03176694  1
  Bi  Bi110  1  0.26087242  0.49970847  0.49861274  1
  Bi  Bi111  1  0.01649397  0.24861046  -0.00005966  1
  Bi  Bi112  1  0.50974700  0.77291652  0.24581074  1
  Bi  Bi113  1  0.24750656  0.05699867  0.79397695  1
  Bi  Bi114  1  0.26588046  0.02243689  0.00404203  1
  Bi  Bi115  1  0.48919357  0.74500102  0.49412555  1
  Bi  Bi116  1  0.24768608  -0.01493404  0.52564987  1
  Bi  Bi117  1  0.23470329  0.74386706  0.78748365  1
  Bi  Bi118  1  -0.01344645  0.72420310  0.00834253  1
  Bi  Bi119  1  0.71787838  -0.00242995  0.74786771  1
  Bi  Bi120  1  0.72619364  0.02769127  0.52302228  1
  Bi  Bi121  1  0.23418198  0.24254153  0.27486735  1
  Bi  Bi122  1  0.25771235  0.77051751  0.22965670  1
  Bi  Bi123  1  0.75752006  0.75375907  0.73767710  1
  Bi  Bi124  1  0.25180003  0.46802594  0.26230481  1
  O  O125  1  0.07914980  0.12311359  0.01898390  1
  O  O126  1  0.14705550  0.13688843  0.25312620  1
  O  O127  1  0.10143697  0.09316334  0.49857856  1
  O  O128  1  0.13643403  0.15231394  0.74483740  1
  O  O129  1  0.10868569  0.39011838  0.00591347  1
  O  O130  1  0.14285671  0.36781658  0.25129528  1
  O  O131  1  0.15323710  0.38455503  0.50348856  1
  O  O132  1  0.12910974  0.35096883  0.74512033  1
  O  O133  1  0.10723800  0.62095504  0.01213869  1
  O  O134  1  0.13754335  0.64636422  0.25256107  1
  O  O135  1  0.10066913  0.61028225  0.49551761  1
  O  O136  1  0.14137369  0.63048711  0.73441940  1
  O  O137  1  0.13258405  0.89476550  -0.00214294  1
  O  O138  1  0.09377433  0.85857822  0.25200410  1
  O  O139  1  0.13509588  0.90737581  0.49395294  1
  O  O140  1  0.12170770  0.84779184  0.75347287  1
  O  O141  1  0.38449384  0.10127575  0.01146400  1
  O  O142  1  0.34404601  0.14124040  0.25536277  1
  O  O143  1  0.41512835  0.10426687  0.49025590  1
  O  O144  1  0.36056363  0.12881396  0.74927678  1
  O  O145  1  0.37070978  0.40123422  0.00145587  1
  O  O146  1  0.38314960  0.37585579  0.24416831  1
  O  O147  1  0.35385350  0.38240660  0.49578053  1
  O  O148  1  0.35429070  0.38461918  0.75503361  1
  O  O149  1  0.39570548  0.62319133  -0.00243562  1
  O  O150  1  0.35651326  0.65056043  0.24555913  1
  O  O151  1  0.41516419  0.62528639  0.49404130  1
  O  O152  1  0.34202619  0.63124066  0.74865792  1
  O  O153  1  0.37220564  0.89505683  -0.00458391  1
  O  O154  1  0.37391440  0.84374544  0.25096223  1
  O  O155  1  0.35078389  0.90056404  0.48458284  1
  O  O156  1  0.39321096  0.86411301  0.74108138  1
  O  O157  1  0.60165060  0.11474555  0.00811352  1
  O  O158  1  0.65309433  0.15467043  0.24838825  1
  O  O159  1  0.59755871  0.07783804  0.48480547  1
  O  O160  1  0.66046706  0.11509194  0.75974730  1
  O  O161  1  0.62384942  0.35730619  -0.01130235  1
  O  O162  1  0.61159592  0.38450837  0.23980967  1
  O  O163  1  0.64401098  0.37298227  0.50671235  1
  O  O164  1  0.63312954  0.41245271  0.74500323  1
  O  O165  1  0.59391627  0.63220699  -0.00283841  1
  O  O166  1  0.65081700  0.60074974  0.24532020  1
  O  O167  1  0.60023782  0.62164796  0.49383160  1
  O  O168  1  0.63417576  0.60391860  0.75200203  1
  O  O169  1  0.63376996  0.85114447  -0.00090627  1
  O  O170  1  0.61967704  0.85416718  0.25044501  1
  O  O171  1  0.64303457  0.86195361  0.49846609  1
  O  O172  1  0.62038874  0.87311774  0.74796895  1
  O  O173  1  0.89300394  0.08690881  0.01340348  1
  O  O174  1  0.84766130  0.16744361  0.25034474  1
  O  O175  1  0.91893708  0.09135609  0.50860957  1
  O  O176  1  0.85165243  0.14886153  0.74787473  1
  O  O177  1  0.88007669  0.39582523  -0.01117658  1
  O  O178  1  0.88292625  0.36311451  0.25736265  1
  O  O179  1  0.83817756  0.39570407  0.50782172  1
  O  O180  1  0.87448638  0.34499810  0.74474706  1
  O  O181  1  0.90306137  0.61431230  -0.00116805  1
  O  O182  1  0.86559114  0.65707991  0.25820696  1
  O  O183  1  0.88799634  0.60437409  0.49865759  1
  O  O184  1  0.85212710  0.64527234  0.74053950  1
  O  O185  1  0.84543544  0.89407980  0.01165566  1
  O  O186  1  0.91741038  0.86729321  0.26111409  1
  O  O187  1  0.84408866  0.88663365  0.49954861  1
  O  O188  1  0.87159321  0.84761521  0.73936455  1
  O  O189  1  -0.00959641  0.11669356  0.17006163  1
  O  O190  1  0.00303169  0.13046317  0.36073061  1
  O  O191  1  -0.00643194  0.10960193  0.66199643  1
  O  O192  1  -0.01554823  0.09419950  0.85465182  1
  O  O193  1  0.00432068  0.40585189  0.15261329  1
  O  O194  1  0.00099082  0.40066975  0.38137546  1
  O  O195  1  -0.00189110  0.38617464  0.61324828  1
  O  O196  1  -0.00215840  0.38902190  0.85400263  1
  O  O197  1  0.00231040  0.61821141  0.13793210  1
  O  O198  1  0.00546416  0.58292840  0.35809208  1
  O  O199  1  -0.00106308  0.62271293  0.63939720  1
  O  O200  1  0.00163528  0.62568564  0.84347426  1
  O  O201  1  -0.00423711  0.89473712  0.11382617  1
  O  O202  1  -0.00999967  0.90112283  0.41515685  1
  O  O203  1  -0.01031046  0.90256663  0.60135804  1
  O  O204  1  0.00069058  0.87421371  0.87167865  1
  O  O205  1  0.23794343  0.10583303  0.11187596  1
  O  O206  1  0.25776369  0.11538834  0.39817104  1
  O  O207  1  0.24464648  0.14326886  0.59993016  1
  O  O208  1  0.24642717  0.12362582  0.91356252  1
  O  O209  1  0.25143503  0.38183488  0.12399829  1
  O  O210  1  0.26013713  0.36587821  0.35819568  1
  O  O211  1  0.24513965  0.33792846  0.63160479  1
  O  O212  1  0.23929066  0.36994469  0.87946868  1
  O  O213  1  0.24734730  0.61869857  0.10420131  1
  O  O214  1  0.24303694  0.64858576  0.40146128  1
  O  O215  1  0.24654477  0.64157434  0.58428133  1
  O  O216  1  0.25257604  0.66059090  0.90492917  1
  O  O217  1  0.23910826  0.89121176  0.14668685  1
  O  O218  1  0.24036768  0.86544426  0.35377368  1
  O  O219  1  0.25758450  0.88376398  0.62130133  1
  O  O220  1  0.25108601  0.86207067  0.86890012  1
  O  O221  1  0.51116294  0.11558589  0.15902126  1
  O  O222  1  0.50387713  0.10886205  0.33334331  1
  O  O223  1  0.50380307  0.12477329  0.63874638  1
  O  O224  1  0.50585896  0.11982339  0.86653128  1
  O  O225  1  0.49510314  0.39468852  0.12189383  1
  O  O226  1  0.49544391  0.39389879  0.37097129  1
  O  O227  1  0.50578392  0.41383603  0.62501168  1
  O  O228  1  0.49338420  0.38020473  0.87208055  1
  O  O229  1  0.49460879  0.61201267  0.13534267  1
  O  O230  1  0.51321694  0.57302736  0.34943682  1
  O  O231  1  0.50872040  0.60043451  0.64345993  1
  O  O232  1  0.49054074  0.61989027  0.84561246  1
  O  O233  1  0.50147623  0.85830699  0.12554818  1
  O  O234  1  0.49576964  0.87328851  0.36693822  1
  O  O235  1  0.50273637  0.89296055  0.59243773  1
  O  O236  1  0.50143915  0.87519811  0.87802188  1
  O  O237  1  0.75366981  0.14212004  0.09480134  1
  O  O238  1  0.74337674  0.13849862  0.40224310  1
  O  O239  1  0.75961993  0.13891808  0.59303709  1
  O  O240  1  0.75785569  0.14306482  0.91245234  1
  O  O241  1  0.74356014  0.37496914  0.11139532  1
  O  O242  1  0.74458731  0.34353110  0.35334644  1
  O  O243  1  0.75440616  0.34684664  0.63625872  1
  O  O244  1  0.74993540  0.35497588  0.86630969  1
  O  O245  1  0.74400280  0.62363418  0.09710535  1
  O  O246  1  0.75096809  0.64722775  0.38781320  1
  O  O247  1  0.74567648  0.64810530  0.62105730  1
  O  O248  1  0.74214738  0.64233324  0.89437966  1
  O  O249  1  0.76279709  0.86840896  0.17159386  1
  O  O250  1  0.75964250  0.84143595  0.36341461  1
  O  O251  1  0.74593397  0.84489631  0.62886786  1
  O  O252  1  0.74486844  0.84090085  0.86813677  1
  O  O253  1  0.11085391  0.00160264  0.15015903  1
  O  O254  1  0.11319182  -0.00156498  0.34072737  1
  O  O255  1  0.13299774  0.01258823  0.65360021  1
  O  O256  1  0.12071962  -0.00508084  0.85362175  1
  O  O257  1  0.10422220  0.25481714  0.12218412  1
  O  O258  1  0.13939996  0.23827142  0.38360722  1
  O  O259  1  0.09590456  0.24343126  0.60648512  1
  O  O260  1  0.09976882  0.26299207  0.88558118  1
  O  O261  1  0.14178343  0.50209244  0.13893420  1
  O  O262  1  0.15998714  0.50662143  0.36305846  1
  O  O263  1  0.13746035  0.49188176  0.63696157  1
  O  O264  1  0.12851220  0.50103701  0.85493845  1
  O  O265  1  0.13921818  0.75788586  0.10587887  1
  O  O266  1  0.09394948  0.75659675  0.38522061  1
  O  O267  1  0.11797493  0.75496689  0.60190355  1
  O  O268  1  0.11441466  0.74948229  0.87618866  1
  O  O269  1  0.37845620  0.00051944  0.15758798  1
  O  O270  1  0.37575219  -0.00187409  0.33813110  1
  O  O271  1  0.38426778  0.00167482  0.62822732  1
  O  O272  1  0.36676847  -0.00674520  0.85911943  1
  O  O273  1  0.36794955  0.25175469  0.09303742  1
  O  O274  1  0.38519541  0.24583715  0.38838848  1
  O  O275  1  0.38982188  0.25209646  0.59300838  1
  O  O276  1  0.37158256  0.26660658  0.88715992  1
  O  O277  1  0.36409900  0.50963234  0.12155547  1
  O  O278  1  0.35909358  0.50201324  0.38696596  1
  O  O279  1  0.34179524  0.50240018  0.62029957  1
  O  O280  1  0.35123011  0.50918596  0.86896697  1
  O  O281  1  0.33834214  0.74868524  0.10483205  1
  O  O282  1  0.37871714  0.75640956  0.40319977  1
  O  O283  1  0.38579877  0.75973392  0.59033727  1
  O  O284  1  0.38907552  0.75154917  0.86785498  1
  O  O285  1  0.65534576  0.00736636  0.14454733  1
  O  O286  1  0.65441770  0.00045828  0.33428992  1
  O  O287  1  0.64147310  -0.01309756  0.62507171  1
  O  O288  1  0.64501245  -0.01125882  0.88142994  1
  O  O289  1  0.61000307  0.25050740  0.12492509  1
  O  O290  1  0.60372167  0.23578022  0.37854167  1
  O  O291  1  0.60305103  0.26664891  0.63085941  1
  O  O292  1  0.60326330  0.25799778  0.83424748  1
  O  O293  1  0.62701914  0.49905305  0.09779084  1
  O  O294  1  0.67002943  0.49564945  0.38653211  1
  O  O295  1  0.66908817  0.50513135  0.60624986  1
  O  O296  1  0.62590231  0.49971087  0.88874138  1
  O  O297  1  0.61380552  0.73637903  0.13114971  1
  O  O298  1  0.60630341  0.72903250  0.35602155  1
  O  O299  1  0.59997928  0.74465323  0.62452406  1
  O  O300  1  0.60137706  0.74281264  0.86651534  1
  O  O301  1  0.85276165  0.00608625  0.16118354  1
  O  O302  1  0.84096259  -0.00467154  0.34484936  1
  O  O303  1  0.84353359  -0.00032485  0.64072103  1
  O  O304  1  0.83760999  0.00461908  0.86739599  1
  O  O305  1  0.89012816  0.24534754  0.09645550  1
  O  O306  1  0.88994676  0.24570526  0.39591097  1
  O  O307  1  0.88825685  0.24114067  0.58902144  1
  O  O308  1  0.89314494  0.23818444  0.90262070  1
  O  O309  1  0.86384524  0.50092559  0.12436565  1
  O  O310  1  0.85608718  0.50437508  0.34921433  1
  O  O311  1  0.86842325  0.50005164  0.64269708  1
  O  O312  1  0.85902047  0.49825077  0.84662124  1
  O  O313  1  0.88490485  0.75875798  0.10542066  1
  O  O314  1  0.91213208  0.74357551  0.39071251  1
  O  O315  1  0.88690242  0.75111913  0.59609458  1
  O  O316  1  0.88695551  0.75131497  0.90497165  1
