# generated using pymatgen
data_Mg32Ti42(Bi17O64)3
_symmetry_space_group_name_H-M   'P 1'
_cell_length_a   15.93981909
_cell_length_b   15.93723748
_cell_length_c   15.95273196
_cell_angle_alpha   90.03595948
_cell_angle_beta   90.17334662
_cell_angle_gamma   90.17972315
_symmetry_Int_Tables_number   1
_chemical_formula_structural   Mg32Ti42(Bi17O64)3
_chemical_formula_sum   'Mg32 Ti42 Bi51 O192'
_cell_volume   4052.53979151
_cell_formula_units_Z   1
loop_
 _symmetry_equiv_pos_site_id
 _symmetry_equiv_pos_as_xyz
  1  'x, y, z'
loop_
 _atom_site_type_symbol
 _atom_site_label
 _atom_site_symmetry_multiplicity
 _atom_site_fract_x
 _atom_site_fract_y
 _atom_site_fract_z
 _atom_site_occupancy
  Mg  Mg0  1  0.11876004  0.88287516  0.13225717  1
  Mg  Mg1  1  0.86615704  0.12247087  0.36323428  1
  Mg  Mg2  1  0.12161494  0.13058535  0.37333111  1
  Mg  Mg3  1  0.87033734  0.36432700  0.12292894  1
  Mg  Mg4  1  0.36710691  0.86209942  0.60777778  1
  Mg  Mg5  1  0.62502816  0.86923384  0.11940090  1
  Mg  Mg6  1  0.12765224  0.62550502  0.61847919  1
  Mg  Mg7  1  0.87898778  0.86934225  0.37548510  1
  Mg  Mg8  1  0.62542925  0.62371020  0.38982772  1
  Mg  Mg9  1  0.61857377  0.37221270  0.37583739  1
  Mg  Mg10  1  0.37398573  0.62001543  0.62155781  1
  Mg  Mg11  1  0.62354781  0.11189866  0.87523785  1
  Mg  Mg12  1  0.61535124  0.63389894  0.11176811  1
  Mg  Mg13  1  0.38486262  0.37122379  0.12629337  1
  Mg  Mg14  1  0.37581700  0.11792334  0.36001552  1
  Mg  Mg15  1  0.12874933  0.13943555  0.12312285  1
  Mg  Mg16  1  0.38101606  0.12781274  0.12496990  1
  Mg  Mg17  1  0.13010749  0.36672846  0.62213739  1
  Mg  Mg18  1  0.13231015  0.61995015  0.13230395  1
  Mg  Mg19  1  0.01912251  0.26392876  0.21415035  1
  Mg  Mg20  1  0.27906264  0.17704292  0.72744245  1
  Mg  Mg21  1  0.26916683  0.45745882  0.50068420  1
  Mg  Mg22  1  0.75002663  0.77708867  0.53731432  1
  Mg  Mg23  1  -0.01111710  0.23089045  0.44655531  1
  Mg  Mg24  1  0.51073756  0.21933699  0.23956090  1
  Mg  Mg25  1  0.47754161  0.76105217  -0.00815613  1
  Mg  Mg26  1  0.18537070  0.76367359  0.25003622  1
  Mg  Mg27  1  0.46862494  -0.05910714  0.01181780  1
  Mg  Mg28  1  0.49937496  0.75991498  0.19056319  1
  Mg  Mg29  1  0.23237650  0.04613794  0.25818512  1
  Mg  Mg30  1  -0.04871537  0.53303693  0.06097721  1
  Mg  Mg31  1  0.44027756  0.01136733  0.69775967  1
  Ti  Ti32  1  0.38357589  0.37906982  0.37443415  1
  Ti  Ti33  1  0.61816322  0.12805649  0.36545138  1
  Ti  Ti34  1  0.87571872  0.86941720  0.87537357  1
  Ti  Ti35  1  0.62639656  0.87012760  0.88656807  1
  Ti  Ti36  1  0.37516776  0.10470081  0.88870664  1
  Ti  Ti37  1  0.61820240  0.87173932  0.62412376  1
  Ti  Ti38  1  0.61530109  0.64140443  0.88718832  1
  Ti  Ti39  1  0.87441932  0.62763757  0.61844980  1
  Ti  Ti40  1  0.87250902  0.11979056  0.62846282  1
  Ti  Ti41  1  0.12818544  0.38410684  0.10730057  1
  Ti  Ti42  1  0.12148166  0.12797587  0.61280364  1
  Ti  Ti43  1  0.13130640  0.61226232  0.36587828  1
  Ti  Ti44  1  0.86620652  0.13251014  0.12290662  1
  Ti  Ti45  1  0.61341499  0.36384449  0.61545724  1
  Ti  Ti46  1  0.87186299  0.61826589  0.86720634  1
  Ti  Ti47  1  0.11626822  0.88281330  0.87800247  1
  Ti  Ti48  1  0.37145826  0.62892367  0.37189170  1
  Ti  Ti49  1  0.86084791  0.13294750  0.87434072  1
  Ti  Ti50  1  0.36446336  0.86479156  0.12987989  1
  Ti  Ti51  1  0.36664505  0.37727144  0.87398009  1
  Ti  Ti52  1  0.38005648  0.62306028  0.87433928  1
  Ti  Ti53  1  0.89286494  0.36955535  0.87325777  1
  Ti  Ti54  1  0.13879037  0.12699704  0.87010163  1
  Ti  Ti55  1  0.12727185  0.36672191  0.87406342  1
  Ti  Ti56  1  0.86108477  0.61834386  0.38391588  1
  Ti  Ti57  1  0.87552271  0.36457148  0.62779567  1
  Ti  Ti58  1  0.13028240  0.61435241  0.87386970  1
  Ti  Ti59  1  0.36475920  0.87320205  0.88197563  1
  Ti  Ti60  1  0.11869010  0.87791137  0.60664848  1
  Ti  Ti61  1  0.61732084  0.87274596  0.36836601  1
  Ti  Ti62  1  0.12161550  0.36466211  0.37182011  1
  Ti  Ti63  1  0.38020431  0.63397004  0.11666347  1
  Ti  Ti64  1  0.61887924  0.37353744  0.14194569  1
  Ti  Ti65  1  0.62396499  0.11640227  0.12605195  1
  Ti  Ti66  1  0.36633646  0.37023860  0.63200586  1
  Ti  Ti67  1  0.60602432  0.62490159  0.62707701  1
  Ti  Ti68  1  0.88626137  0.87437616  0.62618634  1
  Ti  Ti69  1  0.88202875  0.88100965  0.13528208  1
  Ti  Ti70  1  0.11672954  0.88863472  0.36317587  1
  Ti  Ti71  1  0.63292193  0.11871099  0.63132766  1
  Ti  Ti72  1  0.36616807  0.86993992  0.36517125  1
  Ti  Ti73  1  0.87432479  0.37200751  0.36820900  1
  Bi  Bi74  1  0.74757888  -0.02502884  0.25264793  1
  Bi  Bi75  1  0.26999620  0.49827657  0.24286228  1
  Bi  Bi76  1  0.48352493  0.75171510  0.48107895  1
  Bi  Bi77  1  -0.00793576  0.47818274  0.23708483  1
  Bi  Bi78  1  0.21990453  0.74157271  0.01330068  1
  Bi  Bi79  1  0.71073557  0.28083479  0.76964564  1
  Bi  Bi80  1  0.25745849  0.25050769  0.01011326  1
  Bi  Bi81  1  0.74955687  0.49576575  0.72897591  1
  Bi  Bi82  1  0.73548341  0.73294832  0.73964165  1
  Bi  Bi83  1  0.01444114  0.73456536  0.73242932  1
  Bi  Bi84  1  0.26240388  0.24295880  0.45944156  1
  Bi  Bi85  1  -0.00471535  0.23099429  0.00759614  1
  Bi  Bi86  1  0.73464812  -0.02706346  0.75720245  1
  Bi  Bi87  1  0.22714749  -0.03546341  0.74033055  1
  Bi  Bi88  1  0.74591592  -0.02543004  0.00942053  1
  Bi  Bi89  1  0.75832491  0.51893502  0.20918745  1
  Bi  Bi90  1  0.47369951  0.00659842  0.23290838  1
  Bi  Bi91  1  0.52050487  0.47885181  0.77909929  1
  Bi  Bi92  1  0.47583629  0.21433619  0.53592736  1
  Bi  Bi93  1  0.71539228  0.72895994  0.26192768  1
  Bi  Bi94  1  0.26112211  0.73311972  0.73046527  1
  Bi  Bi95  1  0.75013222  0.47114658  -0.02979225  1
  Bi  Bi96  1  0.01896102  0.48399326  0.73561347  1
  Bi  Bi97  1  0.01141735  0.04072228  0.24712347  1
  Bi  Bi98  1  0.00343237  0.72254600  -0.01778627  1
  Bi  Bi99  1  0.73541935  0.48082447  0.49641758  1
  Bi  Bi100  1  0.26131341  0.50847036  0.00902420  1
  Bi  Bi101  1  0.78354621  0.71377860  0.02501020  1
  Bi  Bi102  1  -0.01698392  0.01504135  0.48383029  1
  Bi  Bi103  1  0.27810972  0.03111984  0.51563643  1
  Bi  Bi104  1  0.73122302  0.25554781  0.25243974  1
  Bi  Bi105  1  0.52871895  0.47573219  0.00034266  1
  Bi  Bi106  1  0.49888563  0.24422326  -0.03290978  1
  Bi  Bi107  1  0.00527032  0.72819801  0.46711686  1
  Bi  Bi108  1  0.02536091  0.48243821  0.49680082  1
  Bi  Bi109  1  0.77785432  0.23444091  0.49117841  1
  Bi  Bi110  1  0.23244784  0.75455733  0.47882383  1
  Bi  Bi111  1  0.48064735  0.21126022  0.75197744  1
  Bi  Bi112  1  0.71727420  0.25499463  -0.01897151  1
  Bi  Bi113  1  0.25478487  0.48636593  0.72830533  1
  Bi  Bi114  1  0.51732374  -0.00084454  0.49645979  1
  Bi  Bi115  1  -0.03455603  0.70528514  0.23433530  1
  Bi  Bi116  1  0.49782736  0.51334465  0.48227484  1
  Bi  Bi117  1  -0.01845155  0.01335788  0.77092466  1
  Bi  Bi118  1  0.23245221  0.00184151  0.03381535  1
  Bi  Bi119  1  0.27962769  0.25467828  0.23661339  1
  Bi  Bi120  1  0.52076365  0.52410334  0.24276022  1
  Bi  Bi121  1  -0.02076754  0.00263390  0.00789090  1
  Bi  Bi122  1  0.02039074  0.23759273  0.73220482  1
  Bi  Bi123  1  0.48499213  0.78578908  0.75084348  1
  Bi  Bi124  1  0.75691001  -0.02697743  0.48751665  1
  O  O125  1  0.15634191  0.11253168  -0.00674389  1
  O  O126  1  0.08602050  0.15553257  0.24453210  1
  O  O127  1  0.10893705  0.10379832  0.50210049  1
  O  O128  1  0.14350990  0.15832232  0.75051396  1
  O  O129  1  0.15335676  0.39240953  -0.00397822  1
  O  O130  1  0.09612459  0.36066596  0.25544295  1
  O  O131  1  0.14526339  0.41213754  0.50253299  1
  O  O132  1  0.09841732  0.36185124  0.75477851  1
  O  O133  1  0.11060735  0.63080774  -0.00164549  1
  O  O134  1  0.16041265  0.64034329  0.25589773  1
  O  O135  1  0.10401002  0.62165544  0.49251505  1
  O  O136  1  0.13624451  0.65419388  0.76077143  1
  O  O137  1  0.13451451  0.91441928  -0.00126646  1
  O  O138  1  0.10383978  0.85703790  0.25468864  1
  O  O139  1  0.15085344  0.88621061  0.49635358  1
  O  O140  1  0.11922363  0.87439639  0.75629989  1
  O  O141  1  0.37645625  0.15972410  -0.00047707  1
  O  O142  1  0.35551051  0.07393188  0.24230209  1
  O  O143  1  0.37320580  0.13193799  0.48812516  1
  O  O144  1  0.38708770  0.10652318  0.76220378  1
  O  O145  1  0.35504372  0.35846275  -0.00629063  1
  O  O146  1  0.37534418  0.40090082  0.25873575  1
  O  O147  1  0.35024379  0.35330291  0.51250678  1
  O  O148  1  0.39464938  0.41236184  0.75137944  1
  O  O149  1  0.40459676  0.65303600  0.00447521  1
  O  O150  1  0.36043676  0.60153864  0.25517551  1
  O  O151  1  0.40227052  0.63888609  0.49683406  1
  O  O152  1  0.34585117  0.61534502  0.76347700  1
  O  O153  1  0.36979782  0.84911037  0.00143148  1
  O  O154  1  0.40022794  0.87828827  0.24834182  1
  O  O155  1  0.36204835  0.82825684  0.48716534  1
  O  O156  1  0.40701552  0.90416652  0.76852914  1
  O  O157  1  0.61625291  0.16099570  0.01258530  1
  O  O158  1  0.65302493  0.10101036  0.24924866  1
  O  O159  1  0.58166289  0.13609656  0.48813071  1
  O  O160  1  0.63912365  0.10952787  0.74301730  1
  O  O161  1  0.64475841  0.38035904  0.01054276  1
  O  O162  1  0.60454347  0.40419311  0.25249302  1
  O  O163  1  0.65781740  0.36221070  0.50552414  1
  O  O164  1  0.62008120  0.38328425  0.73989912  1
  O  O165  1  0.58795483  0.67369246  -0.00811639  1
  O  O166  1  0.64182326  0.60775551  0.26192083  1
  O  O167  1  0.59334520  0.63698841  0.51170594  1
  O  O168  1  0.65789023  0.61261539  0.74440362  1
  O  O169  1  0.66896920  0.85608153  -0.00638400  1
  O  O170  1  0.62095677  0.90206566  0.25462259  1
  O  O171  1  0.65053154  0.85080080  0.50687050  1
  O  O172  1  0.61682405  0.90007037  0.74461439  1
  O  O173  1  0.88194080  0.14270656  -0.00699418  1
  O  O174  1  0.88179969  0.10941619  0.23799327  1
  O  O175  1  0.89866130  0.15144457  0.51334325  1
  O  O176  1  0.86814032  0.10826875  0.75115746  1
  O  O177  1  0.85739192  0.37725850  -0.00494466  1
  O  O178  1  0.91494998  0.35882095  0.25739705  1
  O  O179  1  0.85283971  0.36842394  0.51013637  1
  O  O180  1  0.89679246  0.39323932  0.75302425  1
  O  O181  1  0.89336315  0.62745689  -0.00126094  1
  O  O182  1  0.85251060  0.62524756  0.26032299  1
  O  O183  1  0.90502991  0.62427099  0.50374285  1
  O  O184  1  0.84895492  0.62930019  0.75259382  1
  O  O185  1  0.86124326  0.88035091  -0.00727339  1
  O  O186  1  0.88026843  0.89932498  0.24837599  1
  O  O187  1  0.84341129  0.85849234  0.50895998  1
  O  O188  1  0.89264018  0.90016552  0.74609069  1
  O  O189  1  0.00545174  0.11110185  0.09563775  1
  O  O190  1  -0.00587560  0.10760683  0.37614247  1
  O  O191  1  -0.00119238  0.10864959  0.65366590  1
  O  O192  1  0.01652377  0.12067238  0.87100632  1
  O  O193  1  0.01447318  0.42340459  0.10870415  1
  O  O194  1  -0.00121636  0.37263493  0.41268243  1
  O  O195  1  -0.00609696  0.40922238  0.61566332  1
  O  O196  1  0.00675506  0.37884827  0.89613656  1
  O  O197  1  0.00845499  0.60218021  0.15074467  1
  O  O198  1  0.00852821  0.62777417  0.35415433  1
  O  O199  1  -0.00559807  0.61686752  0.65846490  1
  O  O200  1  0.00159599  0.63358269  0.86927739  1
  O  O201  1  -0.00459588  0.90875159  0.11240767  1
  O  O202  1  0.00614871  0.89899675  0.39782537  1
  O  O203  1  -0.00136184  0.90010641  0.60225520  1
  O  O204  1  0.00148082  0.89912133  0.88206794  1
  O  O205  1  0.25501844  0.16479826  0.13007486  1
  O  O206  1  0.24625688  0.13896303  0.35718931  1
  O  O207  1  0.23986655  0.13595402  0.61290678  1
  O  O208  1  0.26606358  0.13916657  0.86064340  1
  O  O209  1  0.25080797  0.34269090  0.12963784  1
  O  O210  1  0.24111510  0.35837722  0.37288415  1
  O  O211  1  0.25322895  0.36125615  0.65794969  1
  O  O212  1  0.25100528  0.38041101  0.85293481  1
  O  O213  1  0.25814137  0.63247539  0.09140295  1
  O  O214  1  0.25409936  0.64009245  0.39617147  1
  O  O215  1  0.24898551  0.66072381  0.61864615  1
  O  O216  1  0.24877691  0.63426913  0.90682093  1
  O  O217  1  0.25301471  0.87355709  0.13025920  1
  O  O218  1  0.25449854  0.83627361  0.34958968  1
  O  O219  1  0.24063784  0.85605358  0.64242672  1
  O  O220  1  0.25387307  0.87198096  0.86250123  1
  O  O221  1  0.50943097  0.12056004  0.15032043  1
  O  O222  1  0.50082332  0.12157726  0.33005251  1
  O  O223  1  0.50297484  0.11369993  0.63340048  1
  O  O224  1  0.49769752  0.13124531  0.88348862  1
  O  O225  1  0.50561485  0.37523287  0.09681912  1
  O  O226  1  0.49310185  0.39002650  0.39951325  1
  O  O227  1  0.50134667  0.38248763  0.60760063  1
  O  O228  1  0.49511115  0.39645839  0.88885012  1
  O  O229  1  0.49578621  0.63576123  0.15475856  1
  O  O230  1  0.49529826  0.59122628  0.36772874  1
  O  O231  1  0.50107480  0.59665278  0.64964323  1
  O  O232  1  0.50015758  0.61800893  0.85250988  1
  O  O233  1  0.50337978  0.84436740  0.09519870  1
  O  O234  1  0.50263405  0.88178942  0.40069636  1
  O  O235  1  0.50237945  0.88242047  0.61001297  1
  O  O236  1  0.51551410  0.87123726  0.91668611  1
  O  O237  1  0.75341740  0.15310445  0.11758119  1
  O  O238  1  0.74053349  0.13539242  0.39609328  1
  O  O239  1  0.75050746  0.13845627  0.60638339  1
  O  O240  1  0.74897279  0.14539453  0.88425810  1
  O  O241  1  0.74430752  0.36235244  0.15610213  1
  O  O242  1  0.75713090  0.36337151  0.35034627  1
  O  O243  1  0.75543015  0.36667144  0.65528961  1
  O  O244  1  0.75808564  0.37052931  0.86497321  1
  O  O245  1  0.74090604  0.61360030  0.10392520  1
  O  O246  1  0.75314372  0.63271223  0.40578736  1
  O  O247  1  0.76214290  0.67314306  0.60640262  1
  O  O248  1  0.75378911  0.64290343  0.90140470  1
  O  O249  1  0.75455383  0.89487839  0.13438764  1
  O  O250  1  0.74464846  0.88621234  0.36531479  1
  O  O251  1  0.75059250  0.86338811  0.64821443  1
  O  O252  1  0.76043182  0.86701014  0.84508823  1
  O  O253  1  0.16214736  0.01628824  0.15091032  1
  O  O254  1  0.14097888  0.00169788  0.33778122  1
  O  O255  1  0.13663584  -0.00218687  0.64086846  1
  O  O256  1  0.14356458  0.00827953  0.84964655  1
  O  O257  1  0.09410094  0.26543196  0.10703556  1
  O  O258  1  0.10850099  0.25330824  0.40573534  1
  O  O259  1  0.09015406  0.24469456  0.61240614  1
  O  O260  1  0.13107426  0.25414908  0.89757846  1
  O  O261  1  0.17000661  0.49419217  0.13471478  1
  O  O262  1  0.12489131  0.49797047  0.35959491  1
  O  O263  1  0.13426837  0.50158313  0.65400074  1
  O  O264  1  0.12979019  0.50351763  0.85694989  1
  O  O265  1  0.13001688  0.75242834  0.12029430  1
  O  O266  1  0.11924310  0.75505031  0.38506890  1
  O  O267  1  0.09243642  0.75946695  0.61833781  1
  O  O268  1  0.11588015  0.76740587  0.90179513  1
  O  O269  1  0.40097583  -0.01516717  0.10764193  1
  O  O270  1  0.35978232  -0.01843154  0.39760012  1
  O  O271  1  0.36499243  -0.01384876  0.60397499  1
  O  O272  1  0.38205524  -0.00524219  0.92027221  1
  O  O273  1  0.40128669  0.24861940  0.17745477  1
  O  O274  1  0.37236007  0.25636826  0.37030553  1
  O  O275  1  0.38198837  0.25204996  0.66225645  1
  O  O276  1  0.39661399  0.26312499  0.85529443  1
  O  O277  1  0.35527219  0.50316651  0.11816770  1
  O  O278  1  0.35193024  0.49306337  0.40849709  1
  O  O279  1  0.33385778  0.49466311  0.60840291  1
  O  O280  1  0.37040722  0.50917843  0.90404247  1
  O  O281  1  0.37543611  0.74639418  0.15079519  1
  O  O282  1  0.41028537  0.73871213  0.35859238  1
  O  O283  1  0.38893637  0.74961883  0.66039966  1
  O  O284  1  0.39542393  0.75600481  0.86252044  1
  O  O285  1  0.62855525  0.00523688  0.09440711  1
  O  O286  1  0.62068149  -0.00015573  0.40258705  1
  O  O287  1  0.62825956  0.00055629  0.59594089  1
  O  O288  1  0.65402256  -0.01010360  0.88276972  1
  O  O289  1  0.61357645  0.25415524  0.16606002  1
  O  O290  1  0.61447199  0.24565021  0.34076471  1
  O  O291  1  0.61154695  0.24595867  0.63047765  1
  O  O292  1  0.62037770  0.25071554  0.87730371  1
  O  O293  1  0.61422214  0.50372269  0.12063221  1
  O  O294  1  0.62608574  0.49745117  0.41407429  1
  O  O295  1  0.65606596  0.50390526  0.61469597  1
  O  O296  1  0.62836046  0.51977106  0.89641392  1
  O  O297  1  0.62731560  0.75064053  0.16344545  1
  O  O298  1  0.61785728  0.75422271  0.35750940  1
  O  O299  1  0.61345559  0.74995724  0.65018432  1
  O  O300  1  0.62507041  0.75470716  0.84281904  1
  O  O301  1  0.86600833  0.01202543  0.09714186  1
  O  O302  1  0.86529795  0.00065303  0.40432623  1
  O  O303  1  0.86074701  0.00518338  0.60381694  1
  O  O304  1  0.87583693  0.01083886  0.88057024  1
  O  O305  1  0.91815759  0.24745228  0.12605408  1
  O  O306  1  0.87823618  0.24972199  0.38532475  1
  O  O307  1  0.89147692  0.25345817  0.64425668  1
  O  O308  1  0.89013604  0.25197323  0.86159505  1
  O  O309  1  0.87455363  0.48786954  0.14617137  1
  O  O310  1  0.87421946  0.49634392  0.37672886  1
  O  O311  1  0.84379411  0.51435063  0.62538744  1
  O  O312  1  0.86554593  0.50494139  0.87556859  1
  O  O313  1  0.88252474  0.76387030  0.12669587  1
  O  O314  1  0.89451486  0.74227038  0.37173130  1
  O  O315  1  0.90370730  0.75843736  0.63906570  1
  O  O316  1  0.89598353  0.75628313  0.87576386  1
