# generated using pymatgen
data_Mg32Ti42(Bi17O64)3
_symmetry_space_group_name_H-M   'P 1'
_cell_length_a   15.98471133
_cell_length_b   15.93977952
_cell_length_c   15.98352592
_cell_angle_alpha   90.11825268
_cell_angle_beta   90.03950313
_cell_angle_gamma   90.02928227
_symmetry_Int_Tables_number   1
_chemical_formula_structural   Mg32Ti42(Bi17O64)3
_chemical_formula_sum   'Mg32 Ti42 Bi51 O192'
_cell_volume   4072.47673443
_cell_formula_units_Z   1
loop_
 _symmetry_equiv_pos_site_id
 _symmetry_equiv_pos_as_xyz
  1  'x, y, z'
loop_
 _atom_site_type_symbol
 _atom_site_label
 _atom_site_symmetry_multiplicity
 _atom_site_fract_x
 _atom_site_fract_y
 _atom_site_fract_z
 _atom_site_occupancy
  Mg  Mg0  1  0.37368081  0.62758921  0.62766422  1
  Mg  Mg1  1  0.36642279  0.37050950  0.62703429  1
  Mg  Mg2  1  0.87409978  0.87583893  0.13252740  1
  Mg  Mg3  1  0.61893123  0.37397355  0.87874901  1
  Mg  Mg4  1  0.15439983  0.12309855  0.13354083  1
  Mg  Mg5  1  0.38514026  0.36848846  0.13115428  1
  Mg  Mg6  1  0.62341584  0.12415232  0.86738034  1
  Mg  Mg7  1  0.88163345  0.12161562  0.63579505  1
  Mg  Mg8  1  0.38208435  0.87680850  0.11740330  1
  Mg  Mg9  1  0.89228271  0.61332420  0.87181695  1
  Mg  Mg10  1  0.86847806  0.62494326  0.13150711  1
  Mg  Mg11  1  0.87559261  0.60890112  0.61663300  1
  Mg  Mg12  1  0.12978765  0.87703222  0.12211705  1
  Mg  Mg13  1  0.87820890  0.86742618  0.87044137  1
  Mg  Mg14  1  0.63273021  0.37638972  0.61694519  1
  Mg  Mg15  1  0.12236335  0.37037233  0.12380849  1
  Mg  Mg16  1  0.88216862  0.37472655  0.88027575  1
  Mg  Mg17  1  0.61722931  0.11894617  0.61661891  1
  Mg  Mg18  1  0.86377457  0.38518885  0.38812402  1
  Mg  Mg19  1  -0.00755986  0.29842753  0.44531288  1
  Mg  Mg20  1  0.55166483  0.69881410  0.46601158  1
  Mg  Mg21  1  0.16434728  0.49628587  0.25299554  1
  Mg  Mg22  1  0.26667107  0.03761067  0.31127057  1
  Mg  Mg23  1  0.48283090  0.80598990  0.80774343  1
  Mg  Mg24  1  0.04631059  0.27153042  0.24022324  1
  Mg  Mg25  1  0.81279464  0.25893580  0.27261312  1
  Mg  Mg26  1  0.02572773  0.50952452  0.43587184  1
  Mg  Mg27  1  0.24994267  0.32241861  0.24219577  1
  Mg  Mg28  1  0.05006256  0.47158810  0.75468742  1
  Mg  Mg29  1  -0.03982940  0.45968266  0.25770798  1
  Mg  Mg30  1  0.46504916  0.07041532  0.44459303  1
  Mg  Mg31  1  0.49995475  0.24468980  0.02791762  1
  Ti  Ti32  1  0.38417531  0.12476453  0.63579812  1
  Ti  Ti33  1  0.86775576  0.13401727  0.13107823  1
  Ti  Ti34  1  0.38759433  0.87340603  0.62322416  1
  Ti  Ti35  1  0.38802754  0.61521622  0.86798930  1
  Ti  Ti36  1  0.37359630  0.62318746  0.14263140  1
  Ti  Ti37  1  0.86678588  0.12423260  0.89026242  1
  Ti  Ti38  1  0.87883877  0.87315270  0.37999590  1
  Ti  Ti39  1  0.12586120  0.13599050  0.63249480  1
  Ti  Ti40  1  0.11922450  0.87222969  0.63122272  1
  Ti  Ti41  1  0.62550000  0.63263954  0.63063618  1
  Ti  Ti42  1  0.38463209  0.13531089  0.86933498  1
  Ti  Ti43  1  0.61971214  0.36810164  0.12767642  1
  Ti  Ti44  1  0.13385151  0.37397223  0.38224575  1
  Ti  Ti45  1  0.13996231  0.64202373  0.37464316  1
  Ti  Ti46  1  0.88865453  0.12521891  0.37174308  1
  Ti  Ti47  1  0.12964717  0.61470720  0.88079886  1
  Ti  Ti48  1  0.87498834  0.37044383  0.12555321  1
  Ti  Ti49  1  0.36732536  0.62202061  0.37697696  1
  Ti  Ti50  1  0.61495128  0.87024302  0.62938080  1
  Ti  Ti51  1  0.12616272  0.61446581  0.63009785  1
  Ti  Ti52  1  0.63161236  0.87346276  0.86975769  1
  Ti  Ti53  1  0.88191880  0.61282178  0.37308841  1
  Ti  Ti54  1  0.38138985  0.38922890  0.37118123  1
  Ti  Ti55  1  0.11955879  0.85932968  0.87196809  1
  Ti  Ti56  1  0.37454722  0.88199207  0.38744319  1
  Ti  Ti57  1  0.62693291  0.88566192  0.38978045  1
  Ti  Ti58  1  0.88152091  0.87727405  0.62803136  1
  Ti  Ti59  1  0.12573205  0.36657293  0.62063210  1
  Ti  Ti60  1  0.37793501  0.11751615  0.11797661  1
  Ti  Ti61  1  0.63818151  0.36682876  0.37417561  1
  Ti  Ti62  1  0.89157058  0.37426698  0.62840713  1
  Ti  Ti63  1  0.62384323  0.87197882  0.13065976  1
  Ti  Ti64  1  0.12022069  0.37572818  0.88882767  1
  Ti  Ti65  1  0.63876607  0.62358665  0.11305852  1
  Ti  Ti66  1  0.62170028  0.13287765  0.13356845  1
  Ti  Ti67  1  0.62269262  0.62337258  0.87358940  1
  Ti  Ti68  1  0.13125118  0.12792497  0.88104651  1
  Ti  Ti69  1  0.11224530  0.88703700  0.38096140  1
  Ti  Ti70  1  0.11861679  0.13321675  0.38123145  1
  Ti  Ti71  1  0.38799319  0.37679111  0.87671831  1
  Ti  Ti72  1  0.13293405  0.63642307  0.13780630  1
  Ti  Ti73  1  0.63162404  0.12581115  0.37057021  1
  Bi  Bi74  1  0.24916743  0.48641460  0.03665772  1
  Bi  Bi75  1  0.27708519  0.73361847  0.00601836  1
  Bi  Bi76  1  0.47466515  0.00820741  0.25613463  1
  Bi  Bi77  1  0.28856107  0.22555602  0.48133504  1
  Bi  Bi78  1  0.72335389  0.72753761  0.29439170  1
  Bi  Bi79  1  0.26688562  0.49965546  0.75146478  1
  Bi  Bi80  1  0.24679822  0.75879258  0.52941517  1
  Bi  Bi81  1  0.70979053  0.24588961  -0.01497211  1
  Bi  Bi82  1  0.47687113  0.24323571  0.27216124  1
  Bi  Bi83  1  0.51049075  0.26851253  0.72637191  1
  Bi  Bi84  1  0.73906547  0.01978962  0.73632195  1
  Bi  Bi85  1  -0.00374405  0.72073471  0.51590277  1
  Bi  Bi86  1  0.24783731  0.26860834  0.77622823  1
  Bi  Bi87  1  0.01093094  0.71662855  0.75711124  1
  Bi  Bi88  1  0.49136621  0.50620910  0.52242420  1
  Bi  Bi89  1  0.01320046  0.02078326  0.52023483  1
  Bi  Bi90  1  0.04035284  0.00755077  0.23726051  1
  Bi  Bi91  1  0.28865743  0.76259124  0.77008539  1
  Bi  Bi92  1  -0.00765557  0.25267035  0.77849983  1
  Bi  Bi93  1  0.26928417  0.49355274  0.51411404  1
  Bi  Bi94  1  0.78971532  0.24812237  0.52602438  1
  Bi  Bi95  1  0.02382964  -0.01682970  0.00530209  1
  Bi  Bi96  1  0.25129520  0.00463190  0.76708269  1
  Bi  Bi97  1  0.77189097  0.01906863  0.50304217  1
  Bi  Bi98  1  -0.00154683  0.52258239  0.04091062  1
  Bi  Bi99  1  0.53309144  0.49553356  0.73675580  1
  Bi  Bi100  1  0.49180732  0.76961951  0.28336471  1
  Bi  Bi101  1  -0.02673317  0.00451925  0.77749848  1
  Bi  Bi102  1  0.75609838  0.00973252  0.25924299  1
  Bi  Bi103  1  0.74851234  0.76648235  -0.00068427  1
  Bi  Bi104  1  0.73844036  0.26491548  0.75040725  1
  Bi  Bi105  1  0.27659081  -0.03952341  -0.01672462  1
  Bi  Bi106  1  0.01541103  0.22635675  0.04218095  1
  Bi  Bi107  1  0.51529172  -0.01113700  -0.00021894  1
  Bi  Bi108  1  0.50422698  0.74187460  0.00677816  1
  Bi  Bi109  1  -0.03388165  0.74513963  0.25435819  1
  Bi  Bi110  1  0.72504959  0.53656947  0.47967550  1
  Bi  Bi111  1  0.50911622  -0.00614493  0.76018607  1
  Bi  Bi112  1  0.28392067  0.24906606  0.00601989  1
  Bi  Bi113  1  -0.01802558  0.75539566  0.02050543  1
  Bi  Bi114  1  0.49833782  0.50068306  0.03663976  1
  Bi  Bi115  1  0.76094993  0.48122961  -0.01841796  1
  Bi  Bi116  1  0.77535483  0.49137120  0.74604501  1
  Bi  Bi117  1  0.25907715  0.80556705  0.24284805  1
  Bi  Bi118  1  0.75372704  0.76830009  0.52548897  1
  Bi  Bi119  1  0.53853333  0.52404838  0.28292638  1
  Bi  Bi120  1  0.77425870  0.72862782  0.76777884  1
  Bi  Bi121  1  0.75136577  -0.00138810  0.03238727  1
  Bi  Bi122  1  0.24846923  -0.00705555  0.52971734  1
  Bi  Bi123  1  0.75435309  0.47932397  0.23811923  1
  Bi  Bi124  1  0.51908015  0.25758225  0.49910427  1
  O  O125  1  0.10495823  0.13304335  -0.00279035  1
  O  O126  1  0.14912781  0.09125989  0.25868854  1
  O  O127  1  0.09459173  0.13419797  0.49556087  1
  O  O128  1  0.15407847  0.12063492  0.74418857  1
  O  O129  1  0.09899920  0.37339045  -0.00100593  1
  O  O130  1  0.13786844  0.37361027  0.25436863  1
  O  O131  1  0.09282783  0.36893083  0.49516862  1
  O  O132  1  0.15048057  0.37714690  0.74110443  1
  O  O133  1  0.10585450  0.61297655  -0.00521385  1
  O  O134  1  0.15219210  0.61907277  0.25354561  1
  O  O135  1  0.09087585  0.61414883  0.48183859  1
  O  O136  1  0.14372082  0.63858785  0.74107669  1
  O  O137  1  0.12917399  0.88511413  -0.01108687  1
  O  O138  1  0.11185349  0.88518758  0.25579822  1
  O  O139  1  0.14669474  0.86953527  0.49147779  1
  O  O140  1  0.10647611  0.87429920  0.74393005  1
  O  O141  1  0.40278687  0.16086252  -0.01572648  1
  O  O142  1  0.35580093  0.07445287  0.22572600  1
  O  O143  1  0.39027979  0.13589944  0.51329591  1
  O  O144  1  0.33931437  0.11856287  0.74797687  1
  O  O145  1  0.39956064  0.35088986  -0.00762960  1
  O  O146  1  0.36599722  0.35900860  0.25573355  1
  O  O147  1  0.37638617  0.39413573  0.49565198  1
  O  O148  1  0.33951444  0.38162150  0.75494405  1
  O  O149  1  0.38536089  0.64314859  -0.01045191  1
  O  O150  1  0.36391028  0.62026503  0.25322297  1
  O  O151  1  0.38831794  0.60131602  0.49784082  1
  O  O152  1  0.35109488  0.61551724  0.75286101  1
  O  O153  1  0.35561468  0.85080616  -0.00556984  1
  O  O154  1  0.39186710  0.86835330  0.24603076  1
  O  O155  1  0.35100130  0.87466018  0.49825967  1
  O  O156  1  0.38957886  0.86642351  0.74117975  1
  O  O157  1  0.59545546  0.15345558  0.01064380  1
  O  O158  1  0.65403256  0.12131176  0.25009917  1
  O  O159  1  0.57588067  0.12364122  0.48483832  1
  O  O160  1  0.66211159  0.13158001  0.74225224  1
  O  O161  1  0.59728725  0.34271731  0.00936843  1
  O  O162  1  0.63727723  0.39188080  0.24857625  1
  O  O163  1  0.60851201  0.37327634  0.49054912  1
  O  O164  1  0.63663533  0.36025398  0.74806356  1
  O  O165  1  0.59247637  0.63182520  -0.00744831  1
  O  O166  1  0.64130744  0.61987071  0.23147204  1
  O  O167  1  0.60199247  0.59463318  0.50551405  1
  O  O168  1  0.63555196  0.64199096  0.74886861  1
  O  O169  1  0.64025834  0.89309281  -0.01498437  1
  O  O170  1  0.60713511  0.87094262  0.24111787  1
  O  O171  1  0.64181561  0.88670396  0.50007209  1
  O  O172  1  0.58917806  0.85217788  0.74506174  1
  O  O173  1  0.89972030  0.12973284  0.01266264  1
  O  O174  1  0.83560347  0.13016252  0.25670471  1
  O  O175  1  0.88742907  0.10492610  0.49166802  1
  O  O176  1  0.86311147  0.10817185  0.76290315  1
  O  O177  1  0.88637012  0.39415759  0.01305856  1
  O  O178  1  0.84948089  0.38018141  0.25585746  1
  O  O179  1  0.89481866  0.35594453  0.50742875  1
  O  O180  1  0.85068417  0.37149298  0.75127950  1
  O  O181  1  0.91166495  0.62177203  0.00033363  1
  O  O182  1  0.85416535  0.65343353  0.25791339  1
  O  O183  1  0.91380701  0.60673541  0.48847438  1
  O  O184  1  0.84675109  0.61182953  0.74248863  1
  O  O185  1  0.86928522  0.83562972  -0.00713669  1
  O  O186  1  0.88948254  0.86105749  0.25851045  1
  O  O187  1  0.84852100  0.88383816  0.49701166  1
  O  O188  1  0.88197379  0.88580811  0.74233454  1
  O  O189  1  -0.01674585  0.14687112  0.15690047  1
  O  O190  1  -0.00306171  0.10341833  0.35095520  1
  O  O191  1  0.00688035  0.09808563  0.63721681  1
  O  O192  1  0.00978192  0.11994649  0.85211268  1
  O  O193  1  -0.00974097  0.36259125  0.16484146  1
  O  O194  1  -0.00722332  0.40278742  0.36612798  1
  O  O195  1  -0.00007363  0.39126696  0.65875809  1
  O  O196  1  0.00710541  0.38517122  0.84277955  1
  O  O197  1  0.01585222  0.62094712  0.13841558  1
  O  O198  1  -0.01343027  0.57709887  0.33315077  1
  O  O199  1  0.00258839  0.63638245  0.63137711  1
  O  O200  1  0.01202119  0.59815525  0.82698436  1
  O  O201  1  -0.00267110  0.88199969  0.09574687  1
  O  O202  1  -0.00505434  0.89306593  0.39426673  1
  O  O203  1  -0.00353605  0.88647273  0.60477442  1
  O  O204  1  0.00604651  0.89921856  0.87779478  1
  O  O205  1  0.26784790  0.13324349  0.09096650  1
  O  O206  1  0.23849413  0.13527642  0.39126550  1
  O  O207  1  0.24112186  0.12978490  0.59063994  1
  O  O208  1  0.24732956  0.16340316  0.89231745  1
  O  O209  1  0.25549124  0.36378358  0.11655938  1
  O  O210  1  0.24482308  0.34279025  0.37639927  1
  O  O211  1  0.23714483  0.36718929  0.59035503  1
  O  O212  1  0.24194549  0.34943112  0.89307797  1
  O  O213  1  0.25265491  0.61580374  0.09975446  1
  O  O214  1  0.25002958  0.64948904  0.40066114  1
  O  O215  1  0.23787645  0.62657079  0.58949962  1
  O  O216  1  0.24255603  0.64653110  0.88485629  1
  O  O217  1  0.25482769  0.88697060  0.13740810  1
  O  O218  1  0.25767922  0.89954379  0.34685965  1
  O  O219  1  0.24144209  0.87567687  0.62701975  1
  O  O220  1  0.23835281  0.86658680  0.85389901  1
  O  O221  1  0.50668095  0.10089970  0.14940759  1
  O  O222  1  0.50159820  0.11839398  0.33439303  1
  O  O223  1  0.49364273  0.10882752  0.66007973  1
  O  O224  1  0.49613614  0.10617780  0.84704937  1
  O  O225  1  0.50641412  0.40404524  0.13897827  1
  O  O226  1  0.49578398  0.41103425  0.36214406  1
  O  O227  1  0.49566167  0.39030790  0.64940802  1
  O  O228  1  0.49632427  0.38845159  0.84856635  1
  O  O229  1  0.49276188  0.61052769  0.12766917  1
  O  O230  1  0.49181648  0.62471662  0.36963378  1
  O  O231  1  0.49921373  0.59383213  0.63628802  1
  O  O232  1  0.49962780  0.60098291  0.85437757  1
  O  O233  1  0.50798223  0.88283770  0.09100692  1
  O  O234  1  0.49958723  0.87578926  0.37781822  1
  O  O235  1  0.49682705  0.88263832  0.60478103  1
  O  O236  1  0.50257561  0.90935968  0.88301176  1
  O  O237  1  0.74216659  0.12642369  0.09872870  1
  O  O238  1  0.74109924  0.13450100  0.40033895  1
  O  O239  1  0.74722456  0.12659619  0.59426469  1
  O  O240  1  0.75409176  0.12545536  0.90780688  1
  O  O241  1  0.74563214  0.39179358  0.11766279  1
  O  O242  1  0.74505435  0.33478753  0.37603803  1
  O  O243  1  0.74875648  0.33641035  0.61875427  1
  O  O244  1  0.74677383  0.36733097  0.91113019  1
  O  O245  1  0.74915086  0.63330807  0.08986630  1
  O  O246  1  0.75716570  0.65026308  0.40424899  1
  O  O247  1  0.74162485  0.63814760  0.59502906  1
  O  O248  1  0.73688657  0.66270630  0.88626337  1
  O  O249  1  0.74633631  0.87049686  0.11307783  1
  O  O250  1  0.74400861  0.85958661  0.35963866  1
  O  O251  1  0.73647527  0.84737654  0.63749478  1
  O  O252  1  0.74518930  0.84301208  0.86603557  1
  O  O253  1  0.10841826  0.00673780  0.11573428  1
  O  O254  1  0.12438920  0.00313478  0.39267226  1
  O  O255  1  0.13145179  -0.00166674  0.60676585  1
  O  O256  1  0.15177145  0.01254259  0.87164990  1
  O  O257  1  0.11835339  0.24370688  0.13885589  1
  O  O258  1  0.08604822  0.24992791  0.36034850  1
  O  O259  1  0.10803307  0.24987922  0.63422105  1
  O  O260  1  0.10803863  0.25361940  0.85797252  1
  O  O261  1  0.14123056  0.49759392  0.12874173  1
  O  O262  1  0.14376461  0.49259701  0.37658135  1
  O  O263  1  0.12248901  0.50025854  0.63765260  1
  O  O264  1  0.13859150  0.49572960  0.86367990  1
  O  O265  1  0.13821879  0.74820123  0.12587112  1
  O  O266  1  0.10896208  0.75057347  0.36973784  1
  O  O267  1  0.12201855  0.75315927  0.60802770  1
  O  O268  1  0.09712648  0.74532551  0.87478658  1
  O  O269  1  0.38760362  0.00431344  0.06588111  1
  O  O270  1  0.38470593  0.00044609  0.37751804  1
  O  O271  1  0.35651633  -0.00238252  0.62170819  1
  O  O272  1  0.34342976  0.01824343  0.87491569  1
  O  O273  1  0.40771214  0.23672596  0.12721090  1
  O  O274  1  0.40019483  0.26301611  0.38691833  1
  O  O275  1  0.39403842  0.24678046  0.63909502  1
  O  O276  1  0.38197890  0.25452252  0.84464763  1
  O  O277  1  0.36811324  0.49947341  0.10520701  1
  O  O278  1  0.34456120  0.50370590  0.37000262  1
  O  O279  1  0.34472873  0.49832178  0.62849237  1
  O  O280  1  0.35205132  0.49590279  0.88096887  1
  O  O281  1  0.36406557  0.74107660  0.12687341  1
  O  O282  1  0.38151798  0.75307170  0.37070866  1
  O  O283  1  0.35857776  0.75341571  0.62051207  1
  O  O284  1  0.39162697  0.73811298  0.85474564  1
  O  O285  1  0.63905834  0.00008725  0.11522072  1
  O  O286  1  0.63313842  0.00270887  0.36667317  1
  O  O287  1  0.63004359  -0.01175979  0.64604666  1
  O  O288  1  0.63641842  -0.00610800  0.83705735  1
  O  O289  1  0.60452032  0.25187798  0.14771519  1
  O  O290  1  0.59115865  0.25237032  0.36681578  1
  O  O291  1  0.59323772  0.24711761  0.61677276  1
  O  O292  1  0.63954692  0.24746057  0.86835295  1
  O  O293  1  0.62649991  0.50478844  0.09736066  1
  O  O294  1  0.64846444  0.49349439  0.36765792  1
  O  O295  1  0.63822283  0.50361239  0.64160867  1
  O  O296  1  0.64719837  0.50966460  0.88043673  1
  O  O297  1  0.61611101  0.75136677  0.10522128  1
  O  O298  1  0.61032354  0.75760340  0.37516281  1
  O  O299  1  0.60326652  0.74105057  0.58304415  1
  O  O300  1  0.58047231  0.75952080  0.88512017  1
  O  O301  1  0.85132829  0.00683587  0.13714224  1
  O  O302  1  0.84934246  -0.00185438  0.36410527  1
  O  O303  1  0.85058811  -0.00556236  0.61893577  1
  O  O304  1  0.88097055  0.00303757  0.88780161  1
  O  O305  1  0.85021783  0.25386848  0.14395208  1
  O  O306  1  0.89488099  0.24275164  0.37186476  1
  O  O307  1  0.88271240  0.24536561  0.62986770  1
  O  O308  1  0.89334160  0.24404315  0.87576793  1
  O  O309  1  0.89119490  0.49973427  0.15204010  1
  O  O310  1  0.83310509  0.50555304  0.36859374  1
  O  O311  1  0.84803949  0.48526875  0.62431442  1
  O  O312  1  0.84561864  0.49898849  0.87475256  1
  O  O313  1  0.90050109  0.74784595  0.12933456  1
  O  O314  1  0.89986189  0.75042777  0.38654196  1
  O  O315  1  0.87618023  0.75378571  0.60356334  1
  O  O316  1  0.89354653  0.73903657  0.84271320  1
