# generated using pymatgen
data_Mg32Ti42(Bi17O64)3
_symmetry_space_group_name_H-M   'P 1'
_cell_length_a   15.96956695
_cell_length_b   15.90170400
_cell_length_c   15.95801389
_cell_angle_alpha   90.22081719
_cell_angle_beta   90.15939969
_cell_angle_gamma   89.84724610
_symmetry_Int_Tables_number   1
_chemical_formula_structural   Mg32Ti42(Bi17O64)3
_chemical_formula_sum   'Mg32 Ti42 Bi51 O192'
_cell_volume   4052.37107145
_cell_formula_units_Z   1
loop_
 _symmetry_equiv_pos_site_id
 _symmetry_equiv_pos_as_xyz
  1  'x, y, z'
loop_
 _atom_site_type_symbol
 _atom_site_label
 _atom_site_symmetry_multiplicity
 _atom_site_fract_x
 _atom_site_fract_y
 _atom_site_fract_z
 _atom_site_occupancy
  Mg  Mg0  1  0.12702776  0.12675557  0.10374467  1
  Mg  Mg1  1  0.87829253  0.88237087  0.37368066  1
  Mg  Mg2  1  0.62112525  0.88044138  0.89183773  1
  Mg  Mg3  1  0.86616878  0.87660306  0.61641175  1
  Mg  Mg4  1  0.12118222  0.12313025  0.64044609  1
  Mg  Mg5  1  0.87891384  0.11999003  0.86937798  1
  Mg  Mg6  1  0.13574187  0.87374095  0.12246066  1
  Mg  Mg7  1  0.12557698  0.38199489  0.11900484  1
  Mg  Mg8  1  0.37302924  0.87260441  0.62029515  1
  Mg  Mg9  1  0.37347445  0.63454062  0.87215042  1
  Mg  Mg10  1  0.87404461  0.37426578  0.87155174  1
  Mg  Mg11  1  0.37420004  0.37290951  0.38041495  1
  Mg  Mg12  1  0.62355611  0.88082096  0.37146196  1
  Mg  Mg13  1  0.13394766  0.61717415  0.63408047  1
  Mg  Mg14  1  0.62260321  0.36609592  0.62755580  1
  Mg  Mg15  1  0.38490624  0.13092891  0.62239384  1
  Mg  Mg16  1  0.13433696  0.88247310  0.61986612  1
  Mg  Mg17  1  0.61545793  0.12447949  0.89920019  1
  Mg  Mg18  1  0.61937738  0.62676044  0.62427759  1
  Mg  Mg19  1  0.50047245  0.01172087  0.04407052  1
  Mg  Mg20  1  0.04043168  0.75130530  0.68714435  1
  Mg  Mg21  1  0.24629531  0.20811714  0.53639739  1
  Mg  Mg22  1  0.49790814  0.22353928  0.04694080  1
  Mg  Mg23  1  -0.06056213  0.79102698  0.07717096  1
  Mg  Mg24  1  0.78922127  0.25219092  0.29646998  1
  Mg  Mg25  1  0.76827084  0.01078314  0.46409303  1
  Mg  Mg26  1  0.27309008  0.02893900  0.71816083  1
  Mg  Mg27  1  0.47956668  0.23821565  0.27192926  1
  Mg  Mg28  1  -0.03025680  0.25307154  0.74475941  1
  Mg  Mg29  1  -0.03681413  0.72284610  0.25752602  1
  Mg  Mg30  1  0.48922821  0.39023600  -0.02493067  1
  Mg  Mg31  1  0.32958480  0.28667351  -0.03131460  1
  Ti  Ti32  1  0.12573196  0.85901623  0.87542901  1
  Ti  Ti33  1  0.62139790  0.12508931  0.61730815  1
  Ti  Ti34  1  0.87871352  0.86664628  0.87857240  1
  Ti  Ti35  1  0.37341031  0.87808858  0.87963697  1
  Ti  Ti36  1  0.85511109  0.61256892  0.13399375  1
  Ti  Ti37  1  0.61680462  0.87259892  0.12501076  1
  Ti  Ti38  1  0.63701326  0.38229354  0.87232687  1
  Ti  Ti39  1  0.62039037  0.12563639  0.13204584  1
  Ti  Ti40  1  0.61596040  0.36323012  0.12025353  1
  Ti  Ti41  1  0.87322337  0.11920971  0.62671453  1
  Ti  Ti42  1  0.10430099  0.10900929  0.86347750  1
  Ti  Ti43  1  0.37023370  0.86458859  0.38092813  1
  Ti  Ti44  1  0.87788599  0.63291584  0.62297086  1
  Ti  Ti45  1  0.89321108  0.37644623  0.37783846  1
  Ti  Ti46  1  0.62858142  0.12441585  0.36934187  1
  Ti  Ti47  1  0.89185975  0.13345203  0.12697018  1
  Ti  Ti48  1  0.61667208  0.61081280  0.12378174  1
  Ti  Ti49  1  0.88191013  0.61744111  0.87563487  1
  Ti  Ti50  1  0.86230250  0.61653092  0.38036921  1
  Ti  Ti51  1  0.13261491  0.36764341  0.62353759  1
  Ti  Ti52  1  0.37450400  0.61127479  0.13122562  1
  Ti  Ti53  1  0.13562030  0.13471486  0.38500736  1
  Ti  Ti54  1  0.11777445  0.62990156  0.86426956  1
  Ti  Ti55  1  0.63426355  0.87612317  0.62265722  1
  Ti  Ti56  1  0.37694556  0.37656457  0.13042081  1
  Ti  Ti57  1  0.90060792  0.12821140  0.37076728  1
  Ti  Ti58  1  0.13624235  0.36817662  0.38462370  1
  Ti  Ti59  1  0.37236645  0.63210227  0.63757646  1
  Ti  Ti60  1  0.38575715  0.10539732  0.88545469  1
  Ti  Ti61  1  0.10301322  0.64356774  0.12160632  1
  Ti  Ti62  1  0.62444878  0.63379909  0.87975453  1
  Ti  Ti63  1  0.37367656  0.87861269  0.12785380  1
  Ti  Ti64  1  0.63056878  0.62147445  0.37325216  1
  Ti  Ti65  1  0.37857407  0.62110997  0.36969729  1
  Ti  Ti66  1  0.13069083  0.88997363  0.37735544  1
  Ti  Ti67  1  0.38186809  0.12230986  0.37664655  1
  Ti  Ti68  1  0.87125102  0.36773697  0.62732014  1
  Ti  Ti69  1  0.88454908  0.37308435  0.12739628  1
  Ti  Ti70  1  0.61673199  0.36329482  0.37879832  1
  Ti  Ti71  1  0.38679235  0.35896911  0.62128277  1
  Ti  Ti72  1  0.37466431  0.12869098  0.13579356  1
  Ti  Ti73  1  0.13215153  0.36774958  0.87230039  1
  Bi  Bi74  1  0.20777716  0.74696025  0.26789899  1
  Bi  Bi75  1  0.00682115  0.74311904  0.46092972  1
  Bi  Bi76  1  0.49165976  0.24369071  0.49005737  1
  Bi  Bi77  1  0.27899399  0.46387545  0.75669918  1
  Bi  Bi78  1  0.24346300  0.26674155  0.22264930  1
  Bi  Bi79  1  0.77767049  0.75592652  0.74670924  1
  Bi  Bi80  1  0.28281565  0.49894929  -0.02905292  1
  Bi  Bi81  1  0.76557413  -0.03109218  0.02083809  1
  Bi  Bi82  1  0.72078743  0.50131802  0.52230658  1
  Bi  Bi83  1  0.00788466  0.25416957  -0.04416292  1
  Bi  Bi84  1  0.73821213  0.52408937  0.75733839  1
  Bi  Bi85  1  0.02413668  0.52008094  0.27134214  1
  Bi  Bi86  1  0.49450042  -0.01649931  0.25521558  1
  Bi  Bi87  1  0.74381098  0.23719585  0.50683270  1
  Bi  Bi88  1  0.23794703  0.52639361  0.26150649  1
  Bi  Bi89  1  -0.00105825  -0.04745560  0.73457248  1
  Bi  Bi90  1  0.48378186  0.50775193  0.52570188  1
  Bi  Bi91  1  0.50199400  0.52074169  0.77793749  1
  Bi  Bi92  1  0.25197392  -0.00406341  0.00590262  1
  Bi  Bi93  1  0.73188293  0.24991498  0.75963346  1
  Bi  Bi94  1  0.25210544  0.71796431  -0.00267818  1
  Bi  Bi95  1  0.50982806  0.73356162  0.26409884  1
  Bi  Bi96  1  0.75449534  0.72235283  -0.00466704  1
  Bi  Bi97  1  0.22846144  0.72414152  0.49853991  1
  Bi  Bi98  1  0.76604808  0.03003243  0.23994366  1
  Bi  Bi99  1  0.25734126  0.22769667  0.76967845  1
  Bi  Bi100  1  0.75438320  0.47184150  0.00362438  1
  Bi  Bi101  1  0.22751891  0.02095589  0.23848481  1
  Bi  Bi102  1  0.77474293  0.21882878  -0.00154583  1
  Bi  Bi103  1  0.00471097  0.23235216  0.52412612  1
  Bi  Bi104  1  0.03401812  0.25136083  0.23301956  1
  Bi  Bi105  1  0.48806836  0.26601197  0.80558462  1
  Bi  Bi106  1  0.00403485  -0.03187927  -0.00778448  1
  Bi  Bi107  1  0.25498427  0.78951095  0.73590771  1
  Bi  Bi108  1  0.74407005  0.45774668  0.25784032  1
  Bi  Bi109  1  0.49597368  0.48020070  0.26668962  1
  Bi  Bi110  1  0.47863610  0.74611067  0.01325764  1
  Bi  Bi111  1  0.49562590  -0.01235534  0.51197554  1
  Bi  Bi112  1  0.01337448  -0.00591107  0.51763266  1
  Bi  Bi113  1  0.25010515  0.50552225  0.51188404  1
  Bi  Bi114  1  0.77008274  0.78401987  0.23151609  1
  Bi  Bi115  1  0.53202442  0.01849687  0.75173397  1
  Bi  Bi116  1  0.00751790  0.46996033  0.74350674  1
  Bi  Bi117  1  -0.00453014  -0.04505065  0.22609584  1
  Bi  Bi118  1  0.52794252  0.75376646  0.51004001  1
  Bi  Bi119  1  0.51133564  0.77381514  0.76736945  1
  Bi  Bi120  1  0.00032249  0.50125291  0.52071464  1
  Bi  Bi121  1  0.02628244  0.50504359  -0.00282494  1
  Bi  Bi122  1  0.74855990  0.00797361  0.79428590  1
  Bi  Bi123  1  0.75866456  0.78175172  0.47417616  1
  Bi  Bi124  1  0.26880220  0.00017349  0.50825940  1
  O  O125  1  0.11825373  0.10935372  -0.02116888  1
  O  O126  1  0.16121784  0.14856461  0.26732262  1
  O  O127  1  0.09184036  0.11324885  0.50263953  1
  O  O128  1  0.17453440  0.11187087  0.76562758  1
  O  O129  1  0.09850816  0.38288665  -0.00772307  1
  O  O130  1  0.13507428  0.35005501  0.25938679  1
  O  O131  1  0.10290809  0.39236228  0.50421336  1
  O  O132  1  0.14291939  0.38083094  0.75013473  1
  O  O133  1  0.11559690  0.61250726  0.00700463  1
  O  O134  1  0.12163172  0.62845413  0.24136470  1
  O  O135  1  0.15038190  0.61070554  0.50676427  1
  O  O136  1  0.11000534  0.65224784  0.75362489  1
  O  O137  1  0.13621043  0.90751893  -0.00592531  1
  O  O138  1  0.10943907  0.85601022  0.25653101  1
  O  O139  1  0.14229173  0.90892828  0.49677951  1
  O  O140  1  0.10030929  0.84604830  0.75590778  1
  O  O141  1  0.40162193  0.09307148  0.00029408  1
  O  O142  1  0.35040731  0.13472369  0.25134694  1
  O  O143  1  0.40933884  0.12640913  0.49274038  1
  O  O144  1  0.35265655  0.13165002  0.74662508  1
  O  O145  1  0.37038029  0.40076761  0.00867036  1
  O  O146  1  0.41231484  0.35131986  0.24142935  1
  O  O147  1  0.38681326  0.39944148  0.50700517  1
  O  O148  1  0.35467077  0.35086795  0.74180687  1
  O  O149  1  0.36663375  0.61698689  0.00457624  1
  O  O150  1  0.38497205  0.64743739  0.24282207  1
  O  O151  1  0.36298233  0.59838923  0.48817297  1
  O  O152  1  0.38902978  0.64159369  0.74808278  1
  O  O153  1  0.36236739  0.90803118  -0.00471138  1
  O  O154  1  0.39451927  0.87034175  0.24227622  1
  O  O155  1  0.34064250  0.87253103  0.49231932  1
  O  O156  1  0.38591634  0.84693777  0.75398139  1
  O  O157  1  0.57577916  0.11956834  0.01851267  1
  O  O158  1  0.64271093  0.12575700  0.25252565  1
  O  O159  1  0.61087557  0.15557536  0.49398481  1
  O  O160  1  0.64604752  0.10755511  0.73383575  1
  O  O161  1  0.61835257  0.39191496  -0.00712025  1
  O  O162  1  0.61702260  0.38016827  0.23898589  1
  O  O163  1  0.62986483  0.35666442  0.49323156  1
  O  O164  1  0.66069711  0.37445306  0.75084172  1
  O  O165  1  0.63436301  0.62785229  -0.00258860  1
  O  O166  1  0.61601662  0.63853610  0.24209092  1
  O  O167  1  0.62465789  0.62272298  0.49087466  1
  O  O168  1  0.62195836  0.61239943  0.74799849  1
  O  O169  1  0.63633780  0.91261473  0.01281535  1
  O  O170  1  0.58783991  0.87240606  0.24562436  1
  O  O171  1  0.63697933  0.86215803  0.49986532  1
  O  O172  1  0.58890139  0.88346452  0.73854314  1
  O  O173  1  0.87564697  0.11565249  0.01003663  1
  O  O174  1  0.85005877  0.15004347  0.24800952  1
  O  O175  1  0.91786273  0.12093954  0.49031121  1
  O  O176  1  0.84387828  0.13601687  0.73614623  1
  O  O177  1  0.87974535  0.40078858  0.00942588  1
  O  O178  1  0.85293205  0.35823217  0.24661291  1
  O  O179  1  0.90588069  0.39225906  0.49580783  1
  O  O180  1  0.85989565  0.33508636  0.74073403  1
  O  O181  1  0.85546975  0.61451684  -0.00301808  1
  O  O182  1  0.86224993  0.64703703  0.24728200  1
  O  O183  1  0.87603393  0.60128540  0.49753858  1
  O  O184  1  0.86459584  0.64044710  0.74463848  1
  O  O185  1  0.87618918  0.88000072  0.00438416  1
  O  O186  1  0.90069529  0.83459595  0.24948544  1
  O  O187  1  0.82981056  0.89913709  0.49632365  1
  O  O188  1  0.87937191  0.84995622  0.75736981  1
  O  O189  1  0.00276801  0.14868827  0.13279546  1
  O  O190  1  0.00559818  0.11476554  0.33973292  1
  O  O191  1  -0.00749964  0.16414845  0.64856151  1
  O  O192  1  -0.00135392  0.15702847  0.84202805  1
  O  O193  1  -0.00353417  0.35221892  0.14159075  1
  O  O194  1  0.00009334  0.39085052  0.35075695  1
  O  O195  1  0.00306525  0.34971465  0.65850471  1
  O  O196  1  -0.00153895  0.34523891  0.85074054  1
  O  O197  1  -0.00876902  0.68208282  0.13443736  1
  O  O198  1  -0.01287812  0.64034337  0.35684830  1
  O  O199  1  -0.00691879  0.65279640  0.61895329  1
  O  O200  1  -0.00603486  0.63017367  0.88305049  1
  O  O201  1  0.01071352  0.88384854  0.10963962  1
  O  O202  1  0.00660406  0.87359974  0.39928686  1
  O  O203  1  -0.00384388  0.85688079  0.62109949  1
  O  O204  1  -0.00233639  0.86239137  0.90033220  1
  O  O205  1  0.25507747  0.09547185  0.11448850  1
  O  O206  1  0.24652010  0.14452887  0.42447523  1
  O  O207  1  0.24679397  0.10285674  0.60938592  1
  O  O208  1  0.30231212  0.19015272  0.89414553  1
  O  O209  1  0.25849849  0.38631606  0.14197245  1
  O  O210  1  0.24656533  0.36376977  0.39144456  1
  O  O211  1  0.24391485  0.40176850  0.61585017  1
  O  O212  1  0.24787712  0.37950074  0.88813143  1
  O  O213  1  0.25749025  0.61043324  0.13086383  1
  O  O214  1  0.25806632  0.63389500  0.35197575  1
  O  O215  1  0.26035236  0.58238647  0.63114394  1
  O  O216  1  0.23837310  0.62209069  0.88421119  1
  O  O217  1  0.25825499  0.91328474  0.12490963  1
  O  O218  1  0.25020484  0.86641304  0.34781765  1
  O  O219  1  0.25075137  0.90923177  0.66433913  1
  O  O220  1  0.24170997  0.87416293  0.85628586  1
  O  O221  1  0.48948830  0.16594356  0.16098409  1
  O  O222  1  0.49753477  0.10795272  0.34960044  1
  O  O223  1  0.51191185  0.14472943  0.63442501  1
  O  O224  1  0.49557469  0.12326132  0.84793210  1
  O  O225  1  0.49858635  0.34786785  0.09530760  1
  O  O226  1  0.50419796  0.40492881  0.38177183  1
  O  O227  1  0.49795114  0.33825333  0.63456775  1
  O  O228  1  0.51276567  0.39707832  0.85152261  1
  O  O229  1  0.49894322  0.65374811  0.11683327  1
  O  O230  1  0.49951067  0.60934427  0.36062300  1
  O  O231  1  0.48876051  0.63744566  0.60064736  1
  O  O232  1  0.50407846  0.62489978  0.87458378  1
  O  O233  1  0.49493603  0.86792274  0.09027873  1
  O  O234  1  0.48775854  0.89747982  0.39167843  1
  O  O235  1  0.49521761  0.86924170  0.58849138  1
  O  O236  1  0.49139224  0.86054662  0.88175267  1
  O  O237  1  0.73455348  0.10187726  0.11246812  1
  O  O238  1  0.74220085  0.16225550  0.38149935  1
  O  O239  1  0.76410222  0.10598378  0.56504202  1
  O  O240  1  0.74598803  0.11175152  0.88973262  1
  O  O241  1  0.74175691  0.39415390  0.11610994  1
  O  O242  1  0.73969319  0.35531895  0.35866435  1
  O  O243  1  0.76171246  0.39809782  0.60748586  1
  O  O244  1  0.75196984  0.37486686  0.89728563  1
  O  O245  1  0.74207130  0.59598527  0.12530467  1
  O  O246  1  0.74787773  0.64250533  0.37335381  1
  O  O247  1  0.75318619  0.59076751  0.62332509  1
  O  O248  1  0.74748361  0.62263664  0.86196743  1
  O  O249  1  0.73629227  0.90364459  0.15064071  1
  O  O250  1  0.74923346  0.85640536  0.35329565  1
  O  O251  1  0.74121192  0.88232845  0.65767906  1
  O  O252  1  0.75260521  0.89537973  0.88553836  1
  O  O253  1  0.11391061  0.00754680  0.15961132  1
  O  O254  1  0.13867251  0.00739478  0.36030307  1
  O  O255  1  0.08675622  0.00148475  0.63802034  1
  O  O256  1  0.08724129  -0.00441028  0.85497642  1
  O  O257  1  0.13914843  0.25021019  0.13231810  1
  O  O258  1  0.10291122  0.24946038  0.39741304  1
  O  O259  1  0.14617051  0.25213322  0.60390547  1
  O  O260  1  0.13203609  0.25079658  0.87824117  1
  O  O261  1  0.08716502  0.50833303  0.13200791  1
  O  O262  1  0.13251591  0.49149892  0.35171415  1
  O  O263  1  0.09032359  0.49604410  0.63446095  1
  O  O264  1  0.10493686  0.50241507  0.87181085  1
  O  O265  1  0.15306432  0.74875644  0.11737650  1
  O  O266  1  0.13327558  0.75904088  0.39525259  1
  O  O267  1  0.15109086  0.75279592  0.61238632  1
  O  O268  1  0.13238894  0.74841258  0.90208277  1
  O  O269  1  0.40831292  0.00755866  0.13877618  1
  O  O270  1  0.35167072  0.00653084  0.37747196  1
  O  O271  1  0.38529382  0.00079182  0.60320393  1
  O  O272  1  0.35468497  -0.00084790  0.84989063  1
  O  O273  1  0.35435686  0.24518085  0.09326190  1
  O  O274  1  0.40089974  0.24601405  0.37644232  1
  O  O275  1  0.34883993  0.25200816  0.59202150  1
  O  O276  1  0.45269591  0.26867884  0.93779355  1
  O  O277  1  0.39515713  0.49766006  0.14777179  1
  O  O278  1  0.36432372  0.50228790  0.33807674  1
  O  O279  1  0.40690524  0.49396855  0.64413948  1
  O  O280  1  0.36686159  0.50641537  0.86087821  1
  O  O281  1  0.36378796  0.76300344  0.09608680  1
  O  O282  1  0.39296272  0.74884466  0.38102684  1
  O  O283  1  0.33900721  0.74288576  0.61711711  1
  O  O284  1  0.35963973  0.75799362  0.90716680  1
  O  O285  1  0.58289438  0.00972851  0.14402373  1
  O  O286  1  0.65569287  0.01271970  0.39235643  1
  O  O287  1  0.60770330  0.00118474  0.60807304  1
  O  O288  1  0.61676980  0.00174740  0.85672768  1
  O  O289  1  0.63408086  0.24950436  0.11142310  1
  O  O290  1  0.57941902  0.25304075  0.35884126  1
  O  O291  1  0.66902430  0.24071470  0.63268972  1
  O  O292  1  0.61884959  0.25389925  0.86152243  1
  O  O293  1  0.59539687  0.50272802  0.12709188  1
  O  O294  1  0.64248099  0.50110752  0.36056537  1
  O  O295  1  0.61072229  0.49310207  0.60511171  1
  O  O296  1  0.63386771  0.50297353  0.86118960  1
  O  O297  1  0.64072732  0.76165893  0.11198119  1
  O  O298  1  0.60061159  0.74596918  0.37299587  1
  O  O299  1  0.61692759  0.75437692  0.62399878  1
  O  O300  1  0.62682125  0.75235228  0.86563031  1
  O  O301  1  0.88208327  0.01487497  0.15478788  1
  O  O302  1  0.85402302  0.01570865  0.36541430  1
  O  O303  1  0.90275157  0.00632960  0.62790917  1
  O  O304  1  0.88581356  -0.00732992  0.86167408  1
  O  O305  1  0.85789611  0.25280697  0.10643185  1
  O  O306  1  0.88849439  0.25534874  0.38109183  1
  O  O307  1  0.86399832  0.25259972  0.59074047  1
  O  O308  1  0.87072521  0.24691298  0.90420185  1
  O  O309  1  0.88977475  0.50159377  0.14611166  1
  O  O310  1  0.85972793  0.49867294  0.35618025  1
  O  O311  1  0.91105641  0.49304917  0.63562632  1
  O  O312  1  0.87678139  0.50258850  0.84963795  1
  O  O313  1  0.83469188  0.73875613  0.10742338  1
  O  O314  1  0.88016117  0.74892534  0.40301938  1
  O  O315  1  0.83937968  0.74420952  0.61436106  1
  O  O316  1  0.85013697  0.74844456  0.88476210  1
