# generated using pymatgen
data_Mg32Ti42(Bi17O64)3
_symmetry_space_group_name_H-M   'P 1'
_cell_length_a   15.97125301
_cell_length_b   15.94575582
_cell_length_c   15.92321067
_cell_angle_alpha   90.01986997
_cell_angle_beta   90.15158204
_cell_angle_gamma   89.79550760
_symmetry_Int_Tables_number   1
_chemical_formula_structural   Mg32Ti42(Bi17O64)3
_chemical_formula_sum   'Mg32 Ti42 Bi51 O192'
_cell_volume   4055.18273746
_cell_formula_units_Z   1
loop_
 _symmetry_equiv_pos_site_id
 _symmetry_equiv_pos_as_xyz
  1  'x, y, z'
loop_
 _atom_site_type_symbol
 _atom_site_label
 _atom_site_symmetry_multiplicity
 _atom_site_fract_x
 _atom_site_fract_y
 _atom_site_fract_z
 _atom_site_occupancy
  Mg  Mg0  1  0.37558231  0.12696487  0.12657726  1
  Mg  Mg1  1  0.88158491  0.39287613  0.63311985  1
  Mg  Mg2  1  0.12274946  0.37755969  0.37414202  1
  Mg  Mg3  1  0.12807257  0.86554986  0.87134783  1
  Mg  Mg4  1  0.63026568  0.37754687  0.12155972  1
  Mg  Mg5  1  0.11702821  0.62614579  0.12337370  1
  Mg  Mg6  1  0.12846329  0.61947236  0.60941240  1
  Mg  Mg7  1  0.62891640  0.37231821  0.87094901  1
  Mg  Mg8  1  0.62410942  0.63208689  0.86668179  1
  Mg  Mg9  1  0.37006791  0.62302248  0.86548560  1
  Mg  Mg10  1  0.37394686  0.13753215  0.86835029  1
  Mg  Mg11  1  0.37464126  0.37180310  0.11925185  1
  Mg  Mg12  1  0.63293992  0.36817801  0.62851135  1
  Mg  Mg13  1  0.62278004  0.13648413  0.37018963  1
  Mg  Mg14  1  0.87870255  0.63603276  0.37466755  1
  Mg  Mg15  1  0.12148899  0.12317096  0.86740211  1
  Mg  Mg16  1  0.63207683  0.87459013  0.62575365  1
  Mg  Mg17  1  0.62463303  0.87967926  0.12121614  1
  Mg  Mg18  1  0.12089360  0.37123138  0.11514549  1
  Mg  Mg19  1  0.79736122  0.21236123  -0.00521049  1
  Mg  Mg20  1  0.27714242  0.51166876  0.49108338  1
  Mg  Mg21  1  -0.02638225  0.53384454  0.75971248  1
  Mg  Mg22  1  0.01845410  0.74525268  0.70493525  1
  Mg  Mg23  1  0.49190027  0.67848963  -0.01711459  1
  Mg  Mg24  1  0.56359522  0.27399569  0.01156458  1
  Mg  Mg25  1  0.69341104  0.72149857  0.56093773  1
  Mg  Mg26  1  0.70596211  0.71975181  0.73852061  1
  Mg  Mg27  1  0.66797485  0.50943131  -0.00317909  1
  Mg  Mg28  1  0.01331604  -0.06050842  0.75736049  1
  Mg  Mg29  1  0.27502817  0.25124409  0.72398666  1
  Mg  Mg30  1  0.52859557  0.54625798  0.73818120  1
  Mg  Mg31  1  0.00482120  0.73365932  0.50165948  1
  Ti  Ti32  1  0.11707972  0.62763199  0.86641707  1
  Ti  Ti33  1  0.88082735  0.11228530  0.63646540  1
  Ti  Ti34  1  0.37119876  0.13276237  0.62444945  1
  Ti  Ti35  1  0.38258437  0.61954083  0.36730993  1
  Ti  Ti36  1  0.12874626  0.38386918  0.61743422  1
  Ti  Ti37  1  0.37918905  0.12728451  0.37857803  1
  Ti  Ti38  1  0.62974299  0.12661955  0.12541207  1
  Ti  Ti39  1  0.12503978  0.87970150  0.12150791  1
  Ti  Ti40  1  0.36899813  0.37781173  0.61602502  1
  Ti  Ti41  1  0.87472267  0.87363999  0.39318194  1
  Ti  Ti42  1  0.12317897  0.61113590  0.36967945  1
  Ti  Ti43  1  0.37884588  0.85681959  0.88469228  1
  Ti  Ti44  1  0.87513006  0.37902771  0.37497877  1
  Ti  Ti45  1  0.87595238  0.12683876  0.38710230  1
  Ti  Ti46  1  0.38012766  0.86495930  0.12226141  1
  Ti  Ti47  1  0.12343430  0.12018753  0.63760978  1
  Ti  Ti48  1  0.87324249  0.38961372  0.87219391  1
  Ti  Ti49  1  0.88325417  0.87284087  0.12487749  1
  Ti  Ti50  1  0.13483933  0.11896046  0.38404313  1
  Ti  Ti51  1  0.37147360  0.87209623  0.62396022  1
  Ti  Ti52  1  0.12647961  0.11275489  0.12292607  1
  Ti  Ti53  1  0.36855053  0.36844786  0.85513333  1
  Ti  Ti54  1  0.36530135  0.62379811  0.62171080  1
  Ti  Ti55  1  0.63332166  0.13869016  0.88934926  1
  Ti  Ti56  1  0.38116237  0.87377696  0.37528984  1
  Ti  Ti57  1  0.63609916  0.86750150  0.38809258  1
  Ti  Ti58  1  0.87063165  0.86882655  0.62849526  1
  Ti  Ti59  1  0.86871703  0.38727276  0.10395889  1
  Ti  Ti60  1  0.88776495  0.11223176  0.12207990  1
  Ti  Ti61  1  0.63443112  0.87373748  0.87068394  1
  Ti  Ti62  1  0.86321040  0.62909735  0.88332003  1
  Ti  Ti63  1  0.88532153  0.63191400  0.13901030  1
  Ti  Ti64  1  0.12652089  0.87009654  0.62427873  1
  Ti  Ti65  1  0.62577597  0.62409545  0.37460141  1
  Ti  Ti66  1  0.88524798  0.64119100  0.63377503  1
  Ti  Ti67  1  0.87586008  0.86667508  0.86458732  1
  Ti  Ti68  1  0.88359883  0.11659030  0.87159550  1
  Ti  Ti69  1  0.11693062  0.37212129  0.86656084  1
  Ti  Ti70  1  0.36937920  0.62268864  0.11662397  1
  Ti  Ti71  1  0.63194002  0.37692715  0.36814578  1
  Ti  Ti72  1  0.37939881  0.38523398  0.36639473  1
  Ti  Ti73  1  0.13389941  0.87059630  0.38280228  1
  Bi  Bi74  1  0.00740343  0.25643335  0.72675428  1
  Bi  Bi75  1  0.52319332  0.73921974  0.21275003  1
  Bi  Bi76  1  0.01557357  0.23492298  0.27099041  1
  Bi  Bi77  1  0.76243695  0.03042562  0.25534193  1
  Bi  Bi78  1  -0.00988167  0.75263966  -0.01171219  1
  Bi  Bi79  1  0.24571200  0.72199824  0.48012579  1
  Bi  Bi80  1  0.25340919  0.49007116  0.73367350  1
  Bi  Bi81  1  0.54127116  0.51349239  0.53362590  1
  Bi  Bi82  1  0.00594145  -0.00346896  0.27465189  1
  Bi  Bi83  1  -0.02341558  0.51849217  0.50907642  1
  Bi  Bi84  1  0.71927955  0.02454185  0.72360056  1
  Bi  Bi85  1  0.77412059  0.26837799  0.22694544  1
  Bi  Bi86  1  0.73905485  0.02946308  0.49975583  1
  Bi  Bi87  1  0.25309396  0.26810956  0.46545303  1
  Bi  Bi88  1  0.00501641  0.27058972  0.50788757  1
  Bi  Bi89  1  0.50326977  0.75334106  0.47524633  1
  Bi  Bi90  1  0.48334698  -0.00696230  0.76956639  1
  Bi  Bi91  1  0.25453048  0.48118612  -0.01464220  1
  Bi  Bi92  1  0.72050081  0.52567440  0.74601775  1
  Bi  Bi93  1  0.51023095  0.27078780  0.22534353  1
  Bi  Bi94  1  0.77420611  0.26285540  0.52981789  1
  Bi  Bi95  1  0.75632961  0.52203865  0.46877596  1
  Bi  Bi96  1  0.02044402  0.51170917  -0.01328331  1
  Bi  Bi97  1  0.24034005  0.73552985  0.74040951  1
  Bi  Bi98  1  0.51730306  0.51532680  0.20397789  1
  Bi  Bi99  1  0.74933269  -0.02902620  -0.00390265  1
  Bi  Bi100  1  0.73862215  0.51764525  0.21778310  1
  Bi  Bi101  1  0.26190006  0.24394767  0.00568677  1
  Bi  Bi102  1  0.00700395  -0.00356228  0.51586580  1
  Bi  Bi103  1  0.26874380  -0.00635635  0.50069079  1
  Bi  Bi104  1  0.53321073  0.03308223  0.51363013  1
  Bi  Bi105  1  0.00586223  0.46405305  0.23331174  1
  Bi  Bi106  1  0.53873385  0.22462955  0.72060680  1
  Bi  Bi107  1  0.00101274  0.25379461  -0.02021596  1
  Bi  Bi108  1  0.50272674  0.76459273  0.72405130  1
  Bi  Bi109  1  0.50982102  0.01253959  -0.02022486  1
  Bi  Bi110  1  0.23055080  0.74214138  0.23216577  1
  Bi  Bi111  1  0.23808731  0.25931027  0.22656771  1
  Bi  Bi112  1  0.76096649  0.27256065  0.75729857  1
  Bi  Bi113  1  0.01842044  -0.00668441  -0.03469817  1
  Bi  Bi114  1  0.50576794  0.01556534  0.22230370  1
  Bi  Bi115  1  0.23783395  0.73843150  -0.01399869  1
  Bi  Bi116  1  0.52216052  0.27613497  0.49180537  1
  Bi  Bi117  1  -0.00292452  0.76584190  0.27812630  1
  Bi  Bi118  1  0.74679357  0.78529015  0.24345138  1
  Bi  Bi119  1  0.23966366  0.49888728  0.23054842  1
  Bi  Bi120  1  0.26806336  0.01871069  -0.01908018  1
  Bi  Bi121  1  0.27282901  -0.00362249  0.23262248  1
  Bi  Bi122  1  0.72246805  0.71379879  0.03285511  1
  Bi  Bi123  1  0.48383489  0.48283881  -0.03870004  1
  Bi  Bi124  1  0.25934518  0.01502477  0.74609149  1
  O  O125  1  0.13262546  0.09367471  0.00550183  1
  O  O126  1  0.11997434  0.14798119  0.24881958  1
  O  O127  1  0.13116203  0.10169773  0.50013471  1
  O  O128  1  0.10061482  0.14900296  0.74676792  1
  O  O129  1  0.13221574  0.40865283  -0.00679484  1
  O  O130  1  0.09422935  0.34887458  0.24682023  1
  O  O131  1  0.14789056  0.37709152  0.50252028  1
  O  O132  1  0.09815524  0.35821711  0.75124786  1
  O  O133  1  0.13415147  0.59085022  -0.00702297  1
  O  O134  1  0.11422929  0.65819275  0.25658110  1
  O  O135  1  0.17236695  0.59723051  0.48419509  1
  O  O136  1  0.11502082  0.66166624  0.75011062  1
  O  O137  1  0.12793591  0.90215758  0.00774730  1
  O  O138  1  0.12461177  0.84887756  0.26072507  1
  O  O139  1  0.12826212  0.90819733  0.50401537  1
  O  O140  1  0.10049474  0.84368747  0.74471644  1
  O  O141  1  0.35301820  0.12985897  -0.00302780  1
  O  O142  1  0.37931410  0.11030883  0.26502910  1
  O  O143  1  0.34285840  0.12069850  0.51076894  1
  O  O144  1  0.37879672  0.09764892  0.74707007  1
  O  O145  1  0.33881371  0.36202854  -0.01141263  1
  O  O146  1  0.40050925  0.37648375  0.25364759  1
  O  O147  1  0.33241402  0.37918804  0.50211374  1
  O  O148  1  0.37222677  0.40522663  0.74264288  1
  O  O149  1  0.36911535  0.63666895  0.00123676  1
  O  O150  1  0.39902158  0.61387260  0.25382954  1
  O  O151  1  0.34794249  0.62319919  0.49981660  1
  O  O152  1  0.34616628  0.62082248  0.74157076  1
  O  O153  1  0.36971002  0.86439139  0.00899321  1
  O  O154  1  0.37865764  0.88435562  0.26205973  1
  O  O155  1  0.35709632  0.87125233  0.51010677  1
  O  O156  1  0.38531968  0.87861070  0.76168640  1
  O  O157  1  0.59734784  0.14297613  0.01209858  1
  O  O158  1  0.62915983  0.09839019  0.25120075  1
  O  O159  1  0.63586380  0.12016601  0.49475510  1
  O  O160  1  0.63075112  0.12850658  0.76529019  1
  O  O161  1  0.61838932  0.39220796  -0.00381418  1
  O  O162  1  0.59168649  0.38890268  0.25045740  1
  O  O163  1  0.63099750  0.36854622  0.49484350  1
  O  O164  1  0.62935144  0.32708515  0.75033138  1
  O  O165  1  0.62049095  0.63195277  -0.01088582  1
  O  O166  1  0.60028168  0.61098427  0.25824442  1
  O  O167  1  0.64053188  0.61915316  0.50434353  1
  O  O168  1  0.62452667  0.62035344  0.74526685  1
  O  O169  1  0.65754604  0.86641589  -0.00444203  1
  O  O170  1  0.63209299  0.86806519  0.26572957  1
  O  O171  1  0.63542378  0.82482254  0.50268132  1
  O  O172  1  0.62667310  0.92084836  0.75774100  1
  O  O173  1  0.87188221  0.10968741  0.00563125  1
  O  O174  1  0.86020743  0.13840672  0.24364781  1
  O  O175  1  0.87827519  0.10242326  0.49977732  1
  O  O176  1  0.88814200  0.14182046  0.75483099  1
  O  O177  1  0.85595617  0.40925843  -0.00371225  1
  O  O178  1  0.88723955  0.34910070  0.25594984  1
  O  O179  1  0.84922414  0.38234730  0.49842448  1
  O  O180  1  0.89003721  0.35454238  0.75740041  1
  O  O181  1  0.83052292  0.61198735  -0.01151922  1
  O  O182  1  0.90416176  0.64942603  0.25006764  1
  O  O183  1  0.86517902  0.60487221  0.50145012  1
  O  O184  1  0.93376342  0.65320065  0.73941786  1
  O  O185  1  0.87071853  0.89312864  0.00790461  1
  O  O186  1  0.88112025  0.85040871  0.25516252  1
  O  O187  1  0.87892449  0.90237547  0.50593208  1
  O  O188  1  0.90598991  0.86253171  0.75205440  1
  O  O189  1  -0.00007753  0.14119865  0.12596831  1
  O  O190  1  -0.00360759  0.10914226  0.36544994  1
  O  O191  1  0.00292975  0.09954540  0.61647856  1
  O  O192  1  -0.00241373  0.13741834  0.89882591  1
  O  O193  1  -0.01001919  0.38777047  0.11269155  1
  O  O194  1  -0.00862615  0.38236198  0.39188204  1
  O  O195  1  0.00558929  0.37506300  0.60357784  1
  O  O196  1  -0.00289299  0.37359990  0.90097458  1
  O  O197  1  -0.00693295  0.62281803  0.09171178  1
  O  O198  1  0.01076556  0.60914381  0.40081056  1
  O  O199  1  0.01002250  0.62751136  0.57738983  1
  O  O200  1  -0.00778972  0.63764452  0.90592299  1
  O  O201  1  0.00440471  0.86090321  0.13314400  1
  O  O202  1  0.00266232  0.89315589  0.37050583  1
  O  O203  1  0.00890316  0.91622029  0.62823793  1
  O  O204  1  -0.00467810  0.86691639  0.89667039  1
  O  O205  1  0.24554011  0.09842934  0.13870710  1
  O  O206  1  0.24652210  0.14034841  0.37212877  1
  O  O207  1  0.24570277  0.13972901  0.66645077  1
  O  O208  1  0.24448708  0.09619443  0.86800308  1
  O  O209  1  0.24474753  0.38282315  0.15390970  1
  O  O210  1  0.24881070  0.34974229  0.35372523  1
  O  O211  1  0.23933710  0.35702479  0.66156095  1
  O  O212  1  0.23163425  0.40644326  0.86052868  1
  O  O213  1  0.24910704  0.61806780  0.14688222  1
  O  O214  1  0.25288321  0.65297218  0.35409227  1
  O  O215  1  0.24364734  0.66512462  0.62300830  1
  O  O216  1  0.23765332  0.64153323  0.87305999  1
  O  O217  1  0.24904901  0.89116584  0.14223754  1
  O  O218  1  0.24909366  0.86299645  0.38256277  1
  O  O219  1  0.24757845  0.85264930  0.64503304  1
  O  O220  1  0.25905619  0.84113181  0.88259718  1
  O  O221  1  0.49997059  0.13396862  0.14991037  1
  O  O222  1  0.49397360  0.11346945  0.40275715  1
  O  O223  1  0.48603863  0.11463106  0.61907218  1
  O  O224  1  0.50156145  0.10237310  0.87270544  1
  O  O225  1  0.49706367  0.33632435  0.10421607  1
  O  O226  1  0.48705657  0.39134207  0.40555614  1
  O  O227  1  0.48021859  0.38323726  0.59647180  1
  O  O228  1  0.48385289  0.37584333  0.87643377  1
  O  O229  1  0.49130894  0.64217623  0.11348938  1
  O  O230  1  0.49415458  0.61308147  0.40852582  1
  O  O231  1  0.47759240  0.59096328  0.63131357  1
  O  O232  1  0.49812976  0.59020868  0.86742313  1
  O  O233  1  0.49724912  0.85647056  0.13316155  1
  O  O234  1  0.49794600  0.87553025  0.40305565  1
  O  O235  1  0.49341499  0.88070052  0.63750961  1
  O  O236  1  0.51385156  0.89894714  0.88390508  1
  O  O237  1  0.74648403  0.11036886  0.11916259  1
  O  O238  1  0.75422569  0.11476293  0.37185359  1
  O  O239  1  0.76589272  0.13887730  0.62581098  1
  O  O240  1  0.75426543  0.14318955  0.89295282  1
  O  O241  1  0.75323989  0.38833026  0.15165058  1
  O  O242  1  0.74393398  0.35949852  0.35036294  1
  O  O243  1  0.75948509  0.34958451  0.63953894  1
  O  O244  1  0.75949181  0.36606538  0.85724170  1
  O  O245  1  0.76153888  0.63050871  0.14129754  1
  O  O246  1  0.74464182  0.62784609  0.36958730  1
  O  O247  1  0.77145658  0.65912247  0.64350665  1
  O  O248  1  0.76193324  0.64054410  0.82741824  1
  O  O249  1  0.75946718  0.88573077  0.14505487  1
  O  O250  1  0.75734724  0.85314989  0.37703770  1
  O  O251  1  0.76343334  0.84223772  0.63719566  1
  O  O252  1  0.76056811  0.90150941  0.87000793  1
  O  O253  1  0.11138007  -0.00213516  0.15676950  1
  O  O254  1  0.13062240  0.00131878  0.35140693  1
  O  O255  1  0.15083784  0.00402676  0.65062409  1
  O  O256  1  0.09233610  -0.00838805  0.85011437  1
  O  O257  1  0.15109136  0.24213691  0.10674748  1
  O  O258  1  0.10301892  0.24129374  0.38756456  1
  O  O259  1  0.10189139  0.24338731  0.61030669  1
  O  O260  1  0.12112500  0.25887651  0.89638341  1
  O  O261  1  0.11796147  0.50037911  0.15826400  1
  O  O262  1  0.13327360  0.50042244  0.33720048  1
  O  O263  1  0.13709269  0.49643892  0.64019207  1
  O  O264  1  0.08005348  0.51475052  0.84371487  1
  O  O265  1  0.14676315  0.75598580  0.10830799  1
  O  O266  1  0.10585056  0.75672229  0.41149935  1
  O  O267  1  0.09708769  0.76272389  0.59650985  1
  O  O268  1  0.11652883  0.74540092  0.91646789  1
  O  O269  1  0.38564914  -0.00544091  0.13604278  1
  O  O270  1  0.35875864  -0.00289166  0.39431717  1
  O  O271  1  0.34667869  -0.00653861  0.62346397  1
  O  O272  1  0.37640856  -0.01394790  0.89330039  1
  O  O273  1  0.33622717  0.24715198  0.12484874  1
  O  O274  1  0.37845438  0.24893504  0.39078908  1
  O  O275  1  0.37163760  0.25214728  0.63813054  1
  O  O276  1  0.33718596  0.25764174  0.83552388  1
  O  O277  1  0.37683335  0.50294147  0.11177225  1
  O  O278  1  0.34447367  0.50147455  0.38062164  1
  O  O279  1  0.32650397  0.50117435  0.61146507  1
  O  O280  1  0.36180419  0.49549393  0.89095828  1
  O  O281  1  0.35717621  0.74911171  0.14223941  1
  O  O282  1  0.38916321  0.74827727  0.38503018  1
  O  O283  1  0.39796063  0.74567161  0.62866789  1
  O  O284  1  0.42016475  0.74787256  0.88731640  1
  O  O285  1  0.59970559  0.00244323  0.11540033  1
  O  O286  1  0.63665688  -0.01937083  0.40754788  1
  O  O287  1  0.65184827  -0.00494262  0.60739059  1
  O  O288  1  0.63514895  0.01178375  0.91415709  1
  O  O289  1  0.63392666  0.24811408  0.14213307  1
  O  O290  1  0.59876115  0.26011341  0.36621119  1
  O  O291  1  0.60159665  0.24904949  0.60739883  1
  O  O292  1  0.60948097  0.24879476  0.89693758  1
  O  O293  1  0.63280739  0.50473411  0.12374970  1
  O  O294  1  0.63539662  0.49833871  0.38121227  1
  O  O295  1  0.61027492  0.48463326  0.65524010  1
  O  O296  1  0.65214031  0.50098173  0.86535641  1
  O  O297  1  0.64043816  0.75469317  0.14085218  1
  O  O298  1  0.59628339  0.73964959  0.36932339  1
  O  O299  1  0.61656660  0.75605098  0.65448069  1
  O  O300  1  0.63330600  0.76401431  0.84221994  1
  O  O301  1  0.89119895  -0.00037357  0.14767190  1
  O  O302  1  0.87029982  -0.00513703  0.35255007  1
  O  O303  1  0.85542741  -0.00171783  0.64707428  1
  O  O304  1  0.89923715  0.00325809  0.86325141  1
  O  O305  1  0.84917757  0.26113551  0.10180162  1
  O  O306  1  0.87776817  0.24298659  0.39735545  1
  O  O307  1  0.89638566  0.24108939  0.60176308  1
  O  O308  1  0.88106633  0.25624187  0.91008062  1
  O  O309  1  0.87227574  0.50491742  0.15389879  1
  O  O310  1  0.85570133  0.49480318  0.36491939  1
  O  O311  1  0.90302157  0.51695665  0.64739735  1
  O  O312  1  0.88656021  0.50798475  0.84864921  1
  O  O313  1  0.87127553  0.75158778  0.10969282  1
  O  O314  1  0.91468469  0.75833306  0.40274466  1
  O  O315  1  0.92065128  0.76046480  0.60699185  1
  O  O316  1  0.87186259  0.75457861  0.89662763  1
