# generated using pymatgen
data_Mg32Ti42(Bi17O64)3
_symmetry_space_group_name_H-M   'P 1'
_cell_length_a   15.93462568
_cell_length_b   15.92097190
_cell_length_c   15.96948194
_cell_angle_alpha   89.99161028
_cell_angle_beta   89.96309910
_cell_angle_gamma   90.02663246
_symmetry_Int_Tables_number   1
_chemical_formula_structural   Mg32Ti42(Bi17O64)3
_chemical_formula_sum   'Mg32 Ti42 Bi51 O192'
_cell_volume   4051.37205159
_cell_formula_units_Z   1
loop_
 _symmetry_equiv_pos_site_id
 _symmetry_equiv_pos_as_xyz
  1  'x, y, z'
loop_
 _atom_site_type_symbol
 _atom_site_label
 _atom_site_symmetry_multiplicity
 _atom_site_fract_x
 _atom_site_fract_y
 _atom_site_fract_z
 _atom_site_occupancy
  Mg  Mg0  1  0.86785035  0.63111949  0.11731934  1
  Mg  Mg1  1  0.37885229  0.62481713  0.12782537  1
  Mg  Mg2  1  0.86772836  0.88046179  0.37972783  1
  Mg  Mg3  1  0.12733764  0.86527339  0.36652022  1
  Mg  Mg4  1  0.88855998  0.12923604  0.87251706  1
  Mg  Mg5  1  0.11721026  0.87767146  0.88140928  1
  Mg  Mg6  1  0.37082817  0.37396916  0.63477419  1
  Mg  Mg7  1  0.88752904  0.38183576  0.86902041  1
  Mg  Mg8  1  0.12623022  0.62215688  0.61568948  1
  Mg  Mg9  1  0.11969218  0.13044923  0.36081905  1
  Mg  Mg10  1  0.13217439  0.61618413  0.87261052  1
  Mg  Mg11  1  0.87518936  0.61664892  0.36994298  1
  Mg  Mg12  1  0.62129372  0.37422274  0.12541588  1
  Mg  Mg13  1  0.86837774  0.62198713  0.62867760  1
  Mg  Mg14  1  0.11850950  0.36189061  0.13482673  1
  Mg  Mg15  1  0.13159126  0.38020091  0.87795278  1
  Mg  Mg16  1  0.62680789  0.86888862  0.63120753  1
  Mg  Mg17  1  0.61840377  0.13350033  0.87170014  1
  Mg  Mg18  1  0.87770923  0.13158350  0.62536373  1
  Mg  Mg19  1  0.48649059  0.49723668  0.54632945  1
  Mg  Mg20  1  0.75039813  0.47142401  0.21161122  1
  Mg  Mg21  1  0.54354377  0.50177714  0.78668083  1
  Mg  Mg22  1  0.20516698  0.52686493  0.06043394  1
  Mg  Mg23  1  -0.03878441  0.53890175  0.50558479  1
  Mg  Mg24  1  0.24856577  0.25447310  0.78670058  1
  Mg  Mg25  1  0.04589246  0.53771225  0.74662564  1
  Mg  Mg26  1  0.20129853  0.74627461  0.78596224  1
  Mg  Mg27  1  0.75618851  0.68146724  0.48864040  1
  Mg  Mg28  1  0.49464982  0.29303532  0.53668992  1
  Mg  Mg29  1  0.78811702  0.74606401  -0.04828774  1
  Mg  Mg30  1  -0.02436906  0.25437196  0.26915211  1
  Mg  Mg31  1  0.02573831  -0.02583082  0.02643148  1
  Ti  Ti32  1  0.14557282  0.12546340  0.63515304  1
  Ti  Ti33  1  0.62729761  0.12585631  0.38210696  1
  Ti  Ti34  1  0.38838964  0.62104360  0.38268669  1
  Ti  Ti35  1  0.12430740  0.61672121  0.38797483  1
  Ti  Ti36  1  0.86889994  0.13090355  0.37841531  1
  Ti  Ti37  1  0.88347766  0.38171645  0.38139059  1
  Ti  Ti38  1  0.36514418  0.37875519  0.11439824  1
  Ti  Ti39  1  0.37329639  0.61269364  0.87701551  1
  Ti  Ti40  1  0.62889728  0.86752336  0.11759943  1
  Ti  Ti41  1  0.61734429  0.63265637  0.13279037  1
  Ti  Ti42  1  0.12703456  0.86705719  0.62620126  1
  Ti  Ti43  1  0.62133669  0.60894042  0.37479240  1
  Ti  Ti44  1  0.12206648  0.11554698  0.88277162  1
  Ti  Ti45  1  0.37142797  0.87452431  0.61508053  1
  Ti  Ti46  1  0.38135541  0.12280438  0.62879429  1
  Ti  Ti47  1  0.62114132  0.36852218  0.37806635  1
  Ti  Ti48  1  0.13786464  0.88689549  0.13341089  1
  Ti  Ti49  1  0.89034218  0.88059012  0.87639174  1
  Ti  Ti50  1  0.12472939  0.37922626  0.61081540  1
  Ti  Ti51  1  0.61799275  0.63449221  0.88698670  1
  Ti  Ti52  1  0.12486573  0.12467688  0.11901632  1
  Ti  Ti53  1  0.62389805  0.62537438  0.62734408  1
  Ti  Ti54  1  0.37203758  0.88517785  0.37559355  1
  Ti  Ti55  1  0.38797382  0.11833437  0.38621040  1
  Ti  Ti56  1  0.37415719  0.11414890  0.11811759  1
  Ti  Ti57  1  0.37122255  0.38438186  0.87876068  1
  Ti  Ti58  1  0.11720628  0.37550180  0.36984684  1
  Ti  Ti59  1  0.87508455  0.87195920  0.10881106  1
  Ti  Ti60  1  0.89029641  0.37231383  0.13514548  1
  Ti  Ti61  1  0.89023479  0.38148170  0.62733876  1
  Ti  Ti62  1  0.62356236  0.13753855  0.62863241  1
  Ti  Ti63  1  0.36770717  0.62700677  0.62249167  1
  Ti  Ti64  1  0.87247570  0.87251321  0.62782539  1
  Ti  Ti65  1  0.37742435  0.86827986  0.13444335  1
  Ti  Ti66  1  0.61621858  0.37162515  0.88765668  1
  Ti  Ti67  1  0.88515904  0.61488628  0.87382204  1
  Ti  Ti68  1  0.62726928  0.87129474  0.87139948  1
  Ti  Ti69  1  0.63118670  0.87583739  0.38194195  1
  Ti  Ti70  1  0.63274010  0.12273819  0.12146478  1
  Ti  Ti71  1  0.37638984  0.12244049  0.86794986  1
  Ti  Ti72  1  0.88561910  0.13007641  0.12112549  1
  Ti  Ti73  1  0.61646351  0.38146545  0.62799883  1
  Bi  Bi74  1  0.29314513  0.46949913  0.48377413  1
  Bi  Bi75  1  0.51136995  0.73653440  0.51716606  1
  Bi  Bi76  1  0.52469419  -0.00036377  0.51739166  1
  Bi  Bi77  1  0.25444830  0.74871772  -0.03155830  1
  Bi  Bi78  1  0.47924003  0.76262377  0.27150297  1
  Bi  Bi79  1  0.00069916  0.73718919  0.48221277  1
  Bi  Bi80  1  0.73346740  0.51200597  0.02191452  1
  Bi  Bi81  1  0.03504252  0.23641389  0.49793239  1
  Bi  Bi82  1  0.75179763  0.03080471  0.77597977  1
  Bi  Bi83  1  0.48408846  0.78269029  -0.01775708  1
  Bi  Bi84  1  0.47685717  0.46523761  0.25631126  1
  Bi  Bi85  1  0.75030003  0.50064093  0.77829379  1
  Bi  Bi86  1  0.22118398  0.72374397  0.21539250  1
  Bi  Bi87  1  0.77551090  0.25789396  0.75751682  1
  Bi  Bi88  1  0.21882261  0.00620463  0.47355442  1
  Bi  Bi89  1  -0.03949344  0.75203326  0.25809303  1
  Bi  Bi90  1  0.24878031  0.24165403  -0.00773268  1
  Bi  Bi91  1  0.48384406  -0.02703495  0.74562465  1
  Bi  Bi92  1  0.01714671  0.27438107  -0.01403019  1
  Bi  Bi93  1  0.01013050  0.73113695  0.72573495  1
  Bi  Bi94  1  0.27606415  0.27719751  0.27732266  1
  Bi  Bi95  1  0.01985952  0.51197133  0.01788268  1
  Bi  Bi96  1  0.00020519  0.00900986  0.72278857  1
  Bi  Bi97  1  0.46754043  0.74957802  0.75674543  1
  Bi  Bi98  1  0.28899976  0.26156001  0.49836713  1
  Bi  Bi99  1  0.49470701  0.51514805  0.01975740  1
  Bi  Bi100  1  0.03929309  0.25607130  0.74948324  1
  Bi  Bi101  1  0.24893934  0.50279012  0.24320811  1
  Bi  Bi102  1  0.75375153  -0.01912293  0.24669774  1
  Bi  Bi103  1  0.25292897  -0.04402205  0.75930104  1
  Bi  Bi104  1  0.74288777  0.72042043  0.26594155  1
  Bi  Bi105  1  0.25836100  0.73814732  0.48806061  1
  Bi  Bi106  1  0.52244957  0.00452285  -0.01756358  1
  Bi  Bi107  1  -0.01908068  0.02049932  0.25819112  1
  Bi  Bi108  1  0.49800879  0.23871854  0.00237715  1
  Bi  Bi109  1  0.23576631  0.47220246  0.74118135  1
  Bi  Bi110  1  0.77676601  0.02169950  -0.00445922  1
  Bi  Bi111  1  0.74737525  0.27016650  0.24878151  1
  Bi  Bi112  1  0.75555086  -0.00445937  0.53674815  1
  Bi  Bi113  1  0.26502981  -0.03528132  -0.02168593  1
  Bi  Bi114  1  0.47821692  0.27001121  0.76443101  1
  Bi  Bi115  1  0.52407861  0.00131315  0.25087437  1
  Bi  Bi116  1  0.77710354  0.74599205  0.75775117  1
  Bi  Bi117  1  0.74230687  0.48448313  0.50518179  1
  Bi  Bi118  1  0.00105566  -0.03043531  0.48072376  1
  Bi  Bi119  1  0.01035538  0.54196005  0.22591139  1
  Bi  Bi120  1  0.78543201  0.26516651  -0.00899138  1
  Bi  Bi121  1  0.51788039  0.24059569  0.24347090  1
  Bi  Bi122  1  0.03556583  0.73692474  0.02571029  1
  Bi  Bi123  1  0.77597551  0.25662607  0.51362924  1
  Bi  Bi124  1  0.25032640  0.03461011  0.24633565  1
  O  O125  1  0.09659053  0.08989707  -0.00364491  1
  O  O126  1  0.14969469  0.13193768  0.23713701  1
  O  O127  1  0.11519546  0.11239200  0.51401100  1
  O  O128  1  0.15128794  0.16494654  0.75265193  1
  O  O129  1  0.09513439  0.38713953  0.00428021  1
  O  O130  1  0.15213494  0.36005066  0.25782033  1
  O  O131  1  0.09103770  0.37945434  0.50215707  1
  O  O132  1  0.15922361  0.34478928  0.74968071  1
  O  O133  1  0.12810554  0.59277587  -0.00725961  1
  O  O134  1  0.12810394  0.63072736  0.26591188  1
  O  O135  1  0.07146261  0.60424197  0.50000376  1
  O  O136  1  0.12660226  0.65248622  0.74667383  1
  O  O137  1  0.13828512  0.90330836  0.00758888  1
  O  O138  1  0.12040563  0.84263827  0.24160901  1
  O  O139  1  0.12884368  0.89725480  0.51161974  1
  O  O140  1  0.13629534  0.85115333  0.75125864  1
  O  O141  1  0.38272631  0.13945175  -0.00200652  1
  O  O142  1  0.35566823  0.12410959  0.24095257  1
  O  O143  1  0.38605352  0.10989600  0.50082136  1
  O  O144  1  0.37724464  0.15240180  0.75008974  1
  O  O145  1  0.39855715  0.38531217  -0.00205736  1
  O  O146  1  0.35064528  0.39776006  0.24763763  1
  O  O147  1  0.38079883  0.36505715  0.50288627  1
  O  O148  1  0.35073075  0.34312285  0.75642811  1
  O  O149  1  0.37123601  0.60639141  -0.00804405  1
  O  O150  1  0.36520300  0.58456189  0.27109466  1
  O  O151  1  0.37983756  0.66406106  0.49578866  1
  O  O152  1  0.38210730  0.63503346  0.73733852  1
  O  O153  1  0.35967878  0.86139405  0.01295125  1
  O  O154  1  0.39315393  0.88308589  0.25234708  1
  O  O155  1  0.37807049  0.87460078  0.49722956  1
  O  O156  1  0.38957674  0.86809046  0.74496311  1
  O  O157  1  0.60078510  0.13725266  0.00273322  1
  O  O158  1  0.62013034  0.10782768  0.24336957  1
  O  O159  1  0.60564921  0.13213348  0.49327434  1
  O  O160  1  0.64617897  0.12466757  0.74320785  1
  O  O161  1  0.59172097  0.36798754  -0.00178470  1
  O  O162  1  0.66364467  0.38912086  0.25229380  1
  O  O163  1  0.59566107  0.35080648  0.48821809  1
  O  O164  1  0.62863045  0.40209419  0.73927518  1
  O  O165  1  0.63506074  0.63111999  0.00001813  1
  O  O166  1  0.62163487  0.61946303  0.25006948  1
  O  O167  1  0.62923749  0.64921027  0.48653992  1
  O  O168  1  0.61570332  0.59656449  0.73878630  1
  O  O169  1  0.62461257  0.85946256  0.00350480  1
  O  O170  1  0.62154382  0.89854880  0.24617073  1
  O  O171  1  0.61987449  0.88085528  0.49707027  1
  O  O172  1  0.60252160  0.88474560  0.75773147  1
  O  O173  1  0.86945535  0.14334217  -0.00121849  1
  O  O174  1  0.86214287  0.09439759  0.23506940  1
  O  O175  1  0.88252277  0.14867326  0.49123852  1
  O  O176  1  0.84390310  0.12948712  0.75011554  1
  O  O177  1  0.89125225  0.35646444  0.00688044  1
  O  O178  1  0.84349633  0.38860774  0.25061065  1
  O  O179  1  0.89202013  0.34488801  0.49796388  1
  O  O180  1  0.84504266  0.38829310  0.74148474  1
  O  O181  1  0.85567324  0.64131940  -0.01157655  1
  O  O182  1  0.89155098  0.62771742  0.24471409  1
  O  O183  1  0.87891188  0.64170322  0.49679366  1
  O  O184  1  0.84399455  0.61330838  0.75548508  1
  O  O185  1  0.85045118  0.85101736  -0.00742998  1
  O  O186  1  0.87969189  0.90993383  0.23524855  1
  O  O187  1  0.88322251  0.87969047  0.50930099  1
  O  O188  1  0.88219812  0.88158751  0.75742651  1
  O  O189  1  -0.00235629  0.14034114  0.14427212  1
  O  O190  1  -0.00754091  0.14484726  0.33668243  1
  O  O191  1  0.00481522  0.12333456  0.65017949  1
  O  O192  1  0.01223597  0.12263285  0.84512208  1
  O  O193  1  -0.00769124  0.33192164  0.16566795  1
  O  O194  1  -0.00328729  0.35157173  0.35098017  1
  O  O195  1  -0.00024128  0.37469706  0.65467697  1
  O  O196  1  0.00783720  0.34855189  0.86347207  1
  O  O197  1  -0.00165347  0.63089211  0.11401191  1
  O  O198  1  -0.00025306  0.65848935  0.36604789  1
  O  O199  1  -0.00705422  0.61336719  0.65830776  1
  O  O200  1  -0.00462504  0.59528155  0.85651138  1
  O  O201  1  -0.00234363  0.86018388  0.09611842  1
  O  O202  1  -0.00023895  0.86242629  0.39009390  1
  O  O203  1  0.00584034  0.90071933  0.63093367  1
  O  O204  1  -0.00328107  0.90283990  0.90451494  1
  O  O205  1  0.24489581  0.09912186  0.10579352  1
  O  O206  1  0.25519838  0.10011347  0.37458771  1
  O  O207  1  0.25759954  0.13400738  0.61496698  1
  O  O208  1  0.25857340  0.15804218  0.88004088  1
  O  O209  1  0.25371095  0.42096703  0.11070164  1
  O  O210  1  0.24230389  0.36546924  0.39597298  1
  O  O211  1  0.24326350  0.37746380  0.59677124  1
  O  O212  1  0.25850372  0.34583569  0.89553715  1
  O  O213  1  0.25478409  0.60453199  0.14293193  1
  O  O214  1  0.24580076  0.62120260  0.40507393  1
  O  O215  1  0.25158449  0.64741080  0.59857010  1
  O  O216  1  0.25842483  0.65563799  0.86055655  1
  O  O217  1  0.25324476  0.89999155  0.14043333  1
  O  O218  1  0.25515144  0.89777461  0.37736405  1
  O  O219  1  0.25231129  0.86303324  0.62645495  1
  O  O220  1  0.24897137  0.85965115  0.87972327  1
  O  O221  1  0.48824792  0.15198900  0.12905124  1
  O  O222  1  0.49979811  0.13696035  0.35547539  1
  O  O223  1  0.50297984  0.09870683  0.63264513  1
  O  O224  1  0.49510360  0.09711299  0.87310440  1
  O  O225  1  0.49395640  0.36172846  0.16009332  1
  O  O226  1  0.51230950  0.35931198  0.33805216  1
  O  O227  1  0.49723918  0.39136421  0.62260008  1
  O  O228  1  0.49340865  0.39826097  0.84111736  1
  O  O229  1  0.50495582  0.63813070  0.10878235  1
  O  O230  1  0.50297450  0.65104858  0.36869951  1
  O  O231  1  0.49888474  0.61522584  0.59374975  1
  O  O232  1  0.49739308  0.59210794  0.86663662  1
  O  O233  1  0.49874983  0.85886852  0.11890521  1
  O  O234  1  0.50389898  0.85000465  0.37328847  1
  O  O235  1  0.49791114  0.90486432  0.62219148  1
  O  O236  1  0.50000722  0.89014909  0.89802247  1
  O  O237  1  0.74543541  0.10900156  0.11011019  1
  O  O238  1  0.74879328  0.11265688  0.37944386  1
  O  O239  1  0.74188688  0.13409395  0.59586472  1
  O  O240  1  0.74387208  0.11771999  0.88551353  1
  O  O241  1  0.75290622  0.39811790  0.10272732  1
  O  O242  1  0.75574883  0.38041965  0.40694423  1
  O  O243  1  0.73825491  0.37503470  0.59225306  1
  O  O244  1  0.73262819  0.35894255  0.88331967  1
  O  O245  1  0.75031007  0.58302509  0.13950833  1
  O  O246  1  0.74674157  0.62053489  0.37267693  1
  O  O247  1  0.74073614  0.63401778  0.60786251  1
  O  O248  1  0.73160562  0.65697633  0.86412380  1
  O  O249  1  0.74822418  0.90165936  0.12668859  1
  O  O250  1  0.74579652  0.90968013  0.36978787  1
  O  O251  1  0.75451613  0.87734946  0.62684409  1
  O  O252  1  0.73946191  0.83692534  0.86696157  1
  O  O253  1  0.09598517  -0.00263980  0.13999932  1
  O  O254  1  0.11250217  0.00095112  0.38051323  1
  O  O255  1  0.13529268  0.00740661  0.66482881  1
  O  O256  1  0.15950158  0.00554735  0.85891230  1
  O  O257  1  0.13459152  0.23903567  0.09138034  1
  O  O258  1  0.12803337  0.25006561  0.39875185  1
  O  O259  1  0.11364865  0.25227055  0.61239494  1
  O  O260  1  0.12879119  0.23967400  0.91037287  1
  O  O261  1  0.09859189  0.48999712  0.13060054  1
  O  O262  1  0.11778630  0.49566000  0.36850081  1
  O  O263  1  0.12674741  0.49405101  0.65257771  1
  O  O264  1  0.13717819  0.49655978  0.83024251  1
  O  O265  1  0.15126767  0.75888957  0.09774753  1
  O  O266  1  0.13314377  0.74186229  0.41541731  1
  O  O267  1  0.09579276  0.75533022  0.61120509  1
  O  O268  1  0.12512460  0.74819555  0.90259942  1
  O  O269  1  0.39392065  0.00249803  0.11580046  1
  O  O270  1  0.40093264  -0.00275505  0.37115742  1
  O  O271  1  0.36355109  0.00037156  0.64948955  1
  O  O272  1  0.34768562  0.01016349  0.86054284  1
  O  O273  1  0.34417506  0.26602810  0.12890862  1
  O  O274  1  0.36281978  0.23740381  0.38098527  1
  O  O275  1  0.39795310  0.24165675  0.60350300  1
  O  O276  1  0.41018607  0.25420367  0.88289455  1
  O  O277  1  0.41144426  0.49841117  0.12751703  1
  O  O278  1  0.41543653  0.51529880  0.42821545  1
  O  O279  1  0.36714067  0.50856503  0.60848195  1
  O  O280  1  0.34453210  0.49487378  0.85466462  1
  O  O281  1  0.35900700  0.75110217  0.14762881  1
  O  O282  1  0.36436528  0.74979000  0.35018297  1
  O  O283  1  0.40338300  0.75793723  0.62337568  1
  O  O284  1  0.39946816  0.73558452  0.87859788  1
  O  O285  1  0.60194596  0.00272687  0.11340654  1
  O  O286  1  0.59901210  0.00383028  0.37581252  1
  O  O287  1  0.63634117  0.00639991  0.60726007  1
  O  O288  1  0.63585201  -0.01030406  0.89578871  1
  O  O289  1  0.63117301  0.24568777  0.14693324  1
  O  O290  1  0.63904327  0.24675263  0.34948998  1
  O  O291  1  0.60003777  0.25425208  0.62655466  1
  O  O292  1  0.58768126  0.25748849  0.86596976  1
  O  O293  1  0.61214922  0.50422214  0.10400579  1
  O  O294  1  0.61852752  0.49701163  0.39004596  1
  O  O295  1  0.62059996  0.49794508  0.58574274  1
  O  O296  1  0.63761375  0.50083275  0.87934286  1
  O  O297  1  0.64398229  0.75007288  0.14000343  1
  O  O298  1  0.65125608  0.76128680  0.35882000  1
  O  O299  1  0.60073650  0.74275355  0.63094274  1
  O  O300  1  0.58407872  0.74666617  0.87342241  1
  O  O301  1  0.89898802  0.00258148  0.07825699  1
  O  O302  1  0.90283543  0.00923061  0.37965667  1
  O  O303  1  0.86554673  0.00398134  0.62830963  1
  O  O304  1  0.85599696  -0.00364445  0.87901208  1
  O  O305  1  0.84883963  0.24585059  0.13399278  1
  O  O306  1  0.86248025  0.24705520  0.34274629  1
  O  O307  1  0.85592736  0.25957962  0.63476533  1
  O  O308  1  0.86060099  0.25505447  0.86660463  1
  O  O309  1  0.91177920  0.48787477  0.12680240  1
  O  O310  1  0.90323476  0.49337564  0.39870700  1
  O  O311  1  0.87502252  0.49227919  0.59009742  1
  O  O312  1  0.84551476  0.50113203  0.88207271  1
  O  O313  1  0.86428752  0.76084111  0.14362996  1
  O  O314  1  0.85458494  0.75859735  0.34815916  1
  O  O315  1  0.88536842  0.75484961  0.64376649  1
  O  O316  1  0.88029055  0.74566273  0.85513817  1
