# generated using pymatgen
data_Mg32Ti42(Bi17O64)3
_symmetry_space_group_name_H-M   'P 1'
_cell_length_a   15.97290793
_cell_length_b   15.93786097
_cell_length_c   15.91776131
_cell_angle_alpha   90.11749236
_cell_angle_beta   89.96352190
_cell_angle_gamma   90.19697577
_symmetry_Int_Tables_number   1
_chemical_formula_structural   Mg32Ti42(Bi17O64)3
_chemical_formula_sum   'Mg32 Ti42 Bi51 O192'
_cell_volume   4052.21467188
_cell_formula_units_Z   1
loop_
 _symmetry_equiv_pos_site_id
 _symmetry_equiv_pos_as_xyz
  1  'x, y, z'
loop_
 _atom_site_type_symbol
 _atom_site_label
 _atom_site_symmetry_multiplicity
 _atom_site_fract_x
 _atom_site_fract_y
 _atom_site_fract_z
 _atom_site_occupancy
  Mg  Mg0  1  0.88506735  0.12078391  0.12983208  1
  Mg  Mg1  1  0.37925611  0.36954392  0.37145060  1
  Mg  Mg2  1  0.12764970  0.13564322  0.87675125  1
  Mg  Mg3  1  0.88422469  0.37022861  0.13202492  1
  Mg  Mg4  1  0.86535531  0.88444471  0.87648861  1
  Mg  Mg5  1  0.62753217  0.12039138  0.13349118  1
  Mg  Mg6  1  0.13152485  0.86756320  0.61687222  1
  Mg  Mg7  1  0.87787986  0.37652837  0.62122005  1
  Mg  Mg8  1  0.13267653  0.87992034  0.88132839  1
  Mg  Mg9  1  0.37822293  0.61893281  0.36509495  1
  Mg  Mg10  1  0.87265855  0.11436189  0.61895731  1
  Mg  Mg11  1  0.88314926  0.62562029  0.87774134  1
  Mg  Mg12  1  0.37281526  0.62778174  0.63226592  1
  Mg  Mg13  1  0.13770323  0.63644396  0.11883124  1
  Mg  Mg14  1  0.37483759  0.37342395  0.87224261  1
  Mg  Mg15  1  0.63226992  0.62465520  0.63141107  1
  Mg  Mg16  1  0.88167974  0.62605896  0.63308643  1
  Mg  Mg17  1  0.61971477  0.37049736  0.12594026  1
  Mg  Mg18  1  0.38038370  0.87780818  0.38143535  1
  Mg  Mg19  1  0.46545549  0.50078183  -0.03273384  1
  Mg  Mg20  1  0.75443849  -0.01111275  0.22043063  1
  Mg  Mg21  1  -0.00542658  0.26074092  0.01743225  1
  Mg  Mg22  1  0.50441049  -0.04562924  0.73832092  1
  Mg  Mg23  1  0.00020848  0.75343134  0.48531634  1
  Mg  Mg24  1  0.29503976  0.74543710  0.01659881  1
  Mg  Mg25  1  0.76698411  -0.03199226  0.50282390  1
  Mg  Mg26  1  0.45967348  0.02270912  0.57193826  1
  Mg  Mg27  1  0.21052158  0.78610311  0.75527833  1
  Mg  Mg28  1  0.52386139  0.73999811  0.05033770  1
  Mg  Mg29  1  0.00900741  0.24227770  0.21927972  1
  Mg  Mg30  1  0.22876460  0.49238786  0.80218271  1
  Mg  Mg31  1  0.52249817  0.73678518  0.54229306  1
  Ti  Ti32  1  0.88036349  0.12338597  0.87754366  1
  Ti  Ti33  1  0.38203113  0.86753032  0.87738362  1
  Ti  Ti34  1  0.36378262  0.63166346  0.88100220  1
  Ti  Ti35  1  0.62497199  0.10990707  0.38489939  1
  Ti  Ti36  1  0.11662890  0.38394563  0.36584112  1
  Ti  Ti37  1  0.37964476  0.12943826  0.13141037  1
  Ti  Ti38  1  0.36780449  0.13202656  0.87284152  1
  Ti  Ti39  1  0.62917871  0.62780920  0.37995151  1
  Ti  Ti40  1  0.63718480  0.10445612  0.60974139  1
  Ti  Ti41  1  0.12688662  0.86444215  0.37541819  1
  Ti  Ti42  1  0.12417054  0.62688980  0.37012826  1
  Ti  Ti43  1  0.37858297  0.38468489  0.62899261  1
  Ti  Ti44  1  0.12762906  0.13210078  0.11580081  1
  Ti  Ti45  1  0.87974152  0.38481990  0.37648041  1
  Ti  Ti46  1  0.39008369  0.87631832  0.11707551  1
  Ti  Ti47  1  0.62214241  0.61598273  0.13114928  1
  Ti  Ti48  1  0.87916838  0.36994623  0.87979535  1
  Ti  Ti49  1  0.62897735  0.36917472  0.37909359  1
  Ti  Ti50  1  0.87594326  0.86985913  0.36853100  1
  Ti  Ti51  1  0.87797190  0.62214246  0.36493421  1
  Ti  Ti52  1  0.37594720  0.61881615  0.12359138  1
  Ti  Ti53  1  0.12050383  0.12907180  0.62023914  1
  Ti  Ti54  1  0.87641207  0.61683840  0.12114604  1
  Ti  Ti55  1  0.87798598  0.88092839  0.12945456  1
  Ti  Ti56  1  0.62689022  0.86586000  0.38961830  1
  Ti  Ti57  1  0.13371911  0.62439534  0.64916201  1
  Ti  Ti58  1  0.12169589  0.37328112  0.60340246  1
  Ti  Ti59  1  0.85853952  0.09818832  0.37733808  1
  Ti  Ti60  1  0.37671815  0.86790118  0.61559088  1
  Ti  Ti61  1  0.87426030  0.88348970  0.63278779  1
  Ti  Ti62  1  0.62217952  0.62549037  0.88916150  1
  Ti  Ti63  1  0.61595396  0.38271191  0.87240074  1
  Ti  Ti64  1  0.13995872  0.87058275  0.12091030  1
  Ti  Ti65  1  0.11839041  0.36727247  0.11559653  1
  Ti  Ti66  1  0.12762566  0.63610017  0.88142863  1
  Ti  Ti67  1  0.38596163  0.36973475  0.12586998  1
  Ti  Ti68  1  0.63130485  0.87502652  0.13868413  1
  Ti  Ti69  1  0.63272811  0.38074104  0.63587882  1
  Ti  Ti70  1  0.61753121  0.86313210  0.89863489  1
  Ti  Ti71  1  0.62911570  0.87710413  0.61150425  1
  Ti  Ti72  1  0.12803954  0.36120004  0.87438217  1
  Ti  Ti73  1  0.38259833  0.12464142  0.38228547  1
  Bi  Bi74  1  0.26348501  0.48521775  0.00502912  1
  Bi  Bi75  1  0.28852870  0.73003095  0.49310060  1
  Bi  Bi76  1  0.51238315  0.49031027  0.27853252  1
  Bi  Bi77  1  0.53214884  0.23250678  0.25195203  1
  Bi  Bi78  1  -0.00926385  0.77448634  -0.02423072  1
  Bi  Bi79  1  0.26622436  0.50774995  0.51748816  1
  Bi  Bi80  1  0.74774748  0.02408964  0.01086007  1
  Bi  Bi81  1  0.03054820  0.01537543  0.75993652  1
  Bi  Bi82  1  0.77014907  0.22843735  0.24577897  1
  Bi  Bi83  1  0.52797781  0.23300676  -0.02077006  1
  Bi  Bi84  1  0.78879320  0.74535145  0.51211778  1
  Bi  Bi85  1  0.51398151  0.73732328  0.74834248  1
  Bi  Bi86  1  0.52625384  0.18917607  0.74967589  1
  Bi  Bi87  1  0.00472395  0.75305235  0.23366247  1
  Bi  Bi88  1  -0.00490180  0.24214224  0.73185498  1
  Bi  Bi89  1  0.27710447  0.01334903  -0.00068503  1
  Bi  Bi90  1  0.75011421  0.47046773  0.24319365  1
  Bi  Bi91  1  0.76756197  0.22955443  0.73604494  1
  Bi  Bi92  1  0.00323765  0.53708589  0.51300362  1
  Bi  Bi93  1  0.02507911  0.51411603  0.23146256  1
  Bi  Bi94  1  0.77404936  0.49752453  0.78009866  1
  Bi  Bi95  1  0.02961847  0.00612256  -0.00221676  1
  Bi  Bi96  1  0.51722579  0.01819866  -0.02843717  1
  Bi  Bi97  1  0.77921582  0.74387511  0.76592592  1
  Bi  Bi98  1  0.72194905  0.00319035  0.78291005  1
  Bi  Bi99  1  0.51525663  0.52102962  0.51865398  1
  Bi  Bi100  1  0.48350077  0.52206342  0.76557018  1
  Bi  Bi101  1  0.51589159  0.26443458  0.52017550  1
  Bi  Bi102  1  0.27612087  0.26680113  0.49796429  1
  Bi  Bi103  1  0.77360400  0.23978129  0.00454874  1
  Bi  Bi104  1  0.26842961  0.75227833  0.26808888  1
  Bi  Bi105  1  0.21828110  0.21644202  0.28386050  1
  Bi  Bi106  1  0.26641939  0.25107160  0.00037404  1
  Bi  Bi107  1  0.76342976  0.51228760  0.51124605  1
  Bi  Bi108  1  0.26710132  0.46922202  0.25432817  1
  Bi  Bi109  1  0.73812109  0.46607346  0.00868904  1
  Bi  Bi110  1  0.76522896  0.74426796  0.23654845  1
  Bi  Bi111  1  0.77446092  0.24520810  0.48882612  1
  Bi  Bi112  1  0.26706724  0.02541263  0.51518860  1
  Bi  Bi113  1  0.75729950  0.73700018  0.00233567  1
  Bi  Bi114  1  0.04023160  0.01979090  0.26620673  1
  Bi  Bi115  1  0.01410012  0.78723220  0.75185744  1
  Bi  Bi116  1  0.50262155  0.74424952  0.26762054  1
  Bi  Bi117  1  0.27353276  -0.02855084  0.74775275  1
  Bi  Bi118  1  0.51643032  -0.00984943  0.27373673  1
  Bi  Bi119  1  0.02165406  0.51713377  -0.01839444  1
  Bi  Bi120  1  0.01090942  0.47854033  0.74920490  1
  Bi  Bi121  1  0.00484694  0.22395395  0.44651047  1
  Bi  Bi122  1  0.27233084  -0.00514122  0.25570752  1
  Bi  Bi123  1  0.02490186  -0.01314035  0.50373266  1
  Bi  Bi124  1  0.27560744  0.24532366  0.71267440  1
  O  O125  1  0.08246269  0.14878447  0.00691569  1
  O  O126  1  0.15685118  0.09669297  0.23967652  1
  O  O127  1  0.07501164  0.12272345  0.50574450  1
  O  O128  1  0.14135009  0.09547875  0.73863732  1
  O  O129  1  0.10297721  0.33948419  -0.00172825  1
  O  O130  1  0.12273987  0.40216385  0.24411140  1
  O  O131  1  0.11289919  0.34888816  0.49189931  1
  O  O132  1  0.13924910  0.40980931  0.76221537  1
  O  O133  1  0.09902336  0.64010020  -0.00336162  1
  O  O134  1  0.13389171  0.59757808  0.24424835  1
  O  O135  1  0.08509674  0.65245629  0.48075754  1
  O  O136  1  0.16179620  0.59386031  0.75626445  1
  O  O137  1  0.09074713  0.87110191  0.00507204  1
  O  O138  1  0.14057025  0.90110878  0.23930876  1
  O  O139  1  0.09251366  0.84587537  0.49069595  1
  O  O140  1  0.12004741  0.88319887  0.74959804  1
  O  O141  1  0.39175302  0.09639433  0.00770521  1
  O  O142  1  0.34082528  0.13098206  0.24335837  1
  O  O143  1  0.39498548  0.09050968  0.49237118  1
  O  O144  1  0.36940358  0.15422018  0.76039226  1
  O  O145  1  0.38315903  0.41078234  0.00528012  1
  O  O146  1  0.34771613  0.35888927  0.23902697  1
  O  O147  1  0.35754247  0.38842857  0.50085263  1
  O  O148  1  0.36199554  0.35226272  0.74451445  1
  O  O149  1  0.38371003  0.59427781  -0.00410299  1
  O  O150  1  0.36585395  0.65494590  0.23692346  1
  O  O151  1  0.36803893  0.61239483  0.49321511  1
  O  O152  1  0.39656930  0.64214987  0.75995080  1
  O  O153  1  0.38099510  0.90463916  -0.00773858  1
  O  O154  1  0.35243052  0.85953319  0.23176598  1
  O  O155  1  0.35912320  0.89065886  0.50376636  1
  O  O156  1  0.39108227  0.88779140  0.74921825  1
  O  O157  1  0.60189585  0.12162884  0.00903676  1
  O  O158  1  0.63298480  0.11648520  0.26373697  1
  O  O159  1  0.59084453  0.14440881  0.50587888  1
  O  O160  1  0.65363340  0.12067585  0.73951464  1
  O  O161  1  0.63300544  0.36617220  -0.00595839  1
  O  O162  1  0.62843272  0.39713485  0.25446193  1
  O  O163  1  0.62143427  0.35391620  0.50014950  1
  O  O164  1  0.62047439  0.40208623  0.75079193  1
  O  O165  1  0.61718957  0.66313630  0.00306767  1
  O  O166  1  0.63638426  0.60431208  0.24654911  1
  O  O167  1  0.59402466  0.64355282  0.49273154  1
  O  O168  1  0.59868010  0.62119649  0.75838795  1
  O  O169  1  0.59405401  0.84825167  0.00884926  1
  O  O170  1  0.64579990  0.90288414  0.25238320  1
  O  O171  1  0.59058062  0.83960401  0.49669902  1
  O  O172  1  0.62564399  0.91376945  0.72700575  1
  O  O173  1  0.89959803  0.16982897  -0.00107538  1
  O  O174  1  0.81911933  0.09515287  0.26305437  1
  O  O175  1  0.88108333  0.15329171  0.49130716  1
  O  O176  1  0.83801912  0.11244862  0.75932201  1
  O  O177  1  0.89405555  0.34572032  -0.00599801  1
  O  O178  1  0.87221274  0.40653945  0.25673624  1
  O  O179  1  0.87150228  0.34889825  0.49445667  1
  O  O180  1  0.87847887  0.41259315  0.75079688  1
  O  O181  1  0.87901861  0.65665850  0.00648218  1
  O  O182  1  0.84185985  0.61430839  0.24841262  1
  O  O183  1  0.90917619  0.65665773  0.48659980  1
  O  O184  1  0.84730040  0.61505920  0.75313690  1
  O  O185  1  0.88316355  0.85483907  0.00923958  1
  O  O186  1  0.83351877  0.89095469  0.25425683  1
  O  O187  1  0.89841658  0.83805819  0.49087747  1
  O  O188  1  0.84426203  0.89192181  0.74444607  1
  O  O189  1  0.01010106  0.12463695  0.16385275  1
  O  O190  1  -0.02773445  0.12255829  0.34931464  1
  O  O191  1  -0.00407183  0.11269974  0.65966685  1
  O  O192  1  -0.00293922  0.12565447  0.84358037  1
  O  O193  1  0.00529369  0.33513246  0.13021322  1
  O  O194  1  -0.00686846  0.38493960  0.37385260  1
  O  O195  1  0.00817758  0.37930816  0.64757026  1
  O  O196  1  0.00431097  0.39693064  0.86698334  1
  O  O197  1  -0.00833017  0.62848026  0.14805336  1
  O  O198  1  -0.00913279  0.62301293  0.33453157  1
  O  O199  1  0.01267209  0.60690982  0.63620680  1
  O  O200  1  0.01090539  0.60927582  0.86253209  1
  O  O201  1  -0.01131990  0.88748476  0.15109420  1
  O  O202  1  -0.01247557  0.87000216  0.34458524  1
  O  O203  1  -0.00913135  0.88278171  0.64146591  1
  O  O204  1  -0.00432284  0.86985982  0.86910740  1
  O  O205  1  0.24685595  0.13328264  0.08697854  1
  O  O206  1  0.25906873  0.12784245  0.39215691  1
  O  O207  1  0.23455120  0.14125036  0.59003909  1
  O  O208  1  0.25220813  0.13816947  0.90947586  1
  O  O209  1  0.24091846  0.38326726  0.10293427  1
  O  O210  1  0.23499227  0.36936286  0.36961509  1
  O  O211  1  0.23894484  0.35736570  0.61681349  1
  O  O212  1  0.24619022  0.38092653  0.90023403  1
  O  O213  1  0.26359776  0.65141155  0.09655113  1
  O  O214  1  0.23940068  0.64023981  0.38349897  1
  O  O215  1  0.24198837  0.63172623  0.59687714  1
  O  O216  1  0.25269034  0.65256097  0.89930585  1
  O  O217  1  0.24640002  0.84883313  0.08586447  1
  O  O218  1  0.24041090  0.86396393  0.37459314  1
  O  O219  1  0.25997218  0.85048249  0.65256635  1
  O  O220  1  0.26075311  0.86299667  0.85125385  1
  O  O221  1  0.49032866  0.12266346  0.15703851  1
  O  O222  1  0.49949339  0.12769883  0.35292725  1
  O  O223  1  0.52267547  0.07557693  0.66372814  1
  O  O224  1  0.49344754  0.12225685  0.87931236  1
  O  O225  1  0.49395487  0.38035634  0.14366373  1
  O  O226  1  0.50497501  0.37679503  0.36418915  1
  O  O227  1  0.49208267  0.39547308  0.61401387  1
  O  O228  1  0.50136796  0.41467546  0.87874484  1
  O  O229  1  0.50123196  0.62529088  0.12312433  1
  O  O230  1  0.50328138  0.62753824  0.34772055  1
  O  O231  1  0.49942713  0.61203257  0.62340961  1
  O  O232  1  0.50016839  0.59225240  0.88524008  1
  O  O233  1  0.49866874  0.90125655  0.14120196  1
  O  O234  1  0.50327052  0.86875732  0.34442814  1
  O  O235  1  0.49532872  0.90802225  0.61859424  1
  O  O236  1  0.50315103  0.90113931  0.86076071  1
  O  O237  1  0.75565566  0.13792421  0.09734684  1
  O  O238  1  0.73833613  0.11155794  0.41601240  1
  O  O239  1  0.74545624  0.15440708  0.60884621  1
  O  O240  1  0.76093716  0.14203619  0.90971848  1
  O  O241  1  0.75403401  0.38044138  0.12627241  1
  O  O242  1  0.74492653  0.39886848  0.37302554  1
  O  O243  1  0.74359069  0.36347937  0.63110289  1
  O  O244  1  0.75468707  0.37328054  0.87570727  1
  O  O245  1  0.74581606  0.64754391  0.11402363  1
  O  O246  1  0.74565948  0.62039688  0.40092439  1
  O  O247  1  0.75307138  0.62619408  0.59276971  1
  O  O248  1  0.73898095  0.65393839  0.88056085  1
  O  O249  1  0.74154110  0.84556155  0.11499833  1
  O  O250  1  0.73965869  0.87834454  0.41252282  1
  O  O251  1  0.74328436  0.86248480  0.59202561  1
  O  O252  1  0.73493480  0.85350605  0.88088664  1
  O  O253  1  0.12769311  0.00392971  0.09477057  1
  O  O254  1  0.10701894  -0.01520413  0.39056166  1
  O  O255  1  0.13212770  -0.00531262  0.59139714  1
  O  O256  1  0.11860164  0.00708648  0.89360847  1
  O  O257  1  0.13720954  0.24573382  0.15519866  1
  O  O258  1  0.09005233  0.25710133  0.33172071  1
  O  O259  1  0.10828433  0.24538585  0.63677487  1
  O  O260  1  0.13113155  0.25542668  0.84217750  1
  O  O261  1  0.09939677  0.49041196  0.10120351  1
  O  O262  1  0.11728874  0.50394762  0.38748223  1
  O  O263  1  0.13157941  0.49524956  0.59244934  1
  O  O264  1  0.14173248  0.50741713  0.90628576  1
  O  O265  1  0.10994938  0.75905935  0.14219258  1
  O  O266  1  0.11233229  0.74874226  0.34007135  1
  O  O267  1  0.12561030  0.73957415  0.66327896  1
  O  O268  1  0.12146214  0.74892733  0.84773623  1
  O  O269  1  0.34590340  -0.00038806  0.13372017  1
  O  O270  1  0.38351278  -0.00021537  0.34393497  1
  O  O271  1  0.34809033  -0.00161136  0.62900290  1
  O  O272  1  0.35323112  0.01039243  0.86397228  1
  O  O273  1  0.37553301  0.24962023  0.09922853  1
  O  O274  1  0.37952206  0.24451266  0.39803335  1
  O  O275  1  0.36941645  0.25690412  0.60596717  1
  O  O276  1  0.38179126  0.25001849  0.91251927  1
  O  O277  1  0.36035725  0.50483402  0.14501079  1
  O  O278  1  0.37407066  0.49552503  0.34207679  1
  O  O279  1  0.34639379  0.49939701  0.63296821  1
  O  O280  1  0.34821076  0.51022281  0.84846809  1
  O  O281  1  0.40295846  0.76174738  0.08581971  1
  O  O282  1  0.36621812  0.75081070  0.37402054  1
  O  O283  1  0.40379291  0.75276279  0.59358386  1
  O  O284  1  0.38753450  0.75413936  0.90246342  1
  O  O285  1  0.65899911  -0.00412539  0.12041195  1
  O  O286  1  0.60470373  -0.00418979  0.39024273  1
  O  O287  1  0.65966160  -0.00078392  0.57457549  1
  O  O288  1  0.63940156  -0.01247088  0.89752174  1
  O  O289  1  0.61660379  0.24602069  0.14392502  1
  O  O290  1  0.62957454  0.25206447  0.36217042  1
  O  O291  1  0.59197780  0.25788899  0.63671705  1
  O  O292  1  0.59692628  0.26553202  0.86290718  1
  O  O293  1  0.63565093  0.50620240  0.10074162  1
  O  O294  1  0.60635081  0.50616778  0.39066196  1
  O  O295  1  0.63007875  0.49730422  0.59703608  1
  O  O296  1  0.64957611  0.50943141  0.89569843  1
  O  O297  1  0.60001505  0.75711760  0.15361489  1
  O  O298  1  0.62512627  0.74988789  0.34757231  1
  O  O299  1  0.60469636  0.75819924  0.63992881  1
  O  O300  1  0.59499555  0.75187234  0.85846544  1
  O  O301  1  0.84638772  -0.00404561  0.11750968  1
  O  O302  1  0.86527561  -0.01093801  0.40767201  1
  O  O303  1  0.85802812  -0.00907991  0.58933402  1
  O  O304  1  0.87009324  0.01059464  0.90174178  1
  O  O305  1  0.88137989  0.24161869  0.17303733  1
  O  O306  1  0.84700882  0.25635896  0.35843480  1
  O  O307  1  0.88084266  0.24797100  0.65417320  1
  O  O308  1  0.88046573  0.25854601  0.84016130  1
  O  O309  1  0.88029924  0.50562775  0.10186553  1
  O  O310  1  0.87374375  0.50832210  0.40289777  1
  O  O311  1  0.87759837  0.50420747  0.59019536  1
  O  O312  1  0.85883351  0.50103174  0.89152675  1
  O  O313  1  0.87718739  0.75513863  0.15507753  1
  O  O314  1  0.85648921  0.74905909  0.34981988  1
  O  O315  1  0.86401930  0.75378716  0.63879623  1
  O  O316  1  0.88094049  0.75288129  0.85407773  1
