# generated using pymatgen
data_Mg32Ti42(Bi17O64)3
_symmetry_space_group_name_H-M   'P 1'
_cell_length_a   15.94941608
_cell_length_b   15.98510493
_cell_length_c   15.99708514
_cell_angle_alpha   89.92382597
_cell_angle_beta   90.18420694
_cell_angle_gamma   90.05246310
_symmetry_Int_Tables_number   1
_chemical_formula_structural   Mg32Ti42(Bi17O64)3
_chemical_formula_sum   'Mg32 Ti42 Bi51 O192'
_cell_volume   4078.47990282
_cell_formula_units_Z   1
loop_
 _symmetry_equiv_pos_site_id
 _symmetry_equiv_pos_as_xyz
  1  'x, y, z'
loop_
 _atom_site_type_symbol
 _atom_site_label
 _atom_site_symmetry_multiplicity
 _atom_site_fract_x
 _atom_site_fract_y
 _atom_site_fract_z
 _atom_site_occupancy
  Mg  Mg0  1  0.62807132  0.12281882  0.37583277  1
  Mg  Mg1  1  0.62765025  0.87852848  0.87020890  1
  Mg  Mg2  1  0.37476927  0.61768443  0.37283321  1
  Mg  Mg3  1  0.11778453  0.86677679  0.36786281  1
  Mg  Mg4  1  0.12011362  0.62217697  0.11291554  1
  Mg  Mg5  1  0.11900238  0.87816501  0.87410479  1
  Mg  Mg6  1  0.62452359  0.62321316  0.63332287  1
  Mg  Mg7  1  0.13086607  0.37777850  0.61612637  1
  Mg  Mg8  1  0.11985170  0.37819218  0.88105981  1
  Mg  Mg9  1  0.88430105  0.38183562  0.86531089  1
  Mg  Mg10  1  0.12539743  0.87324727  0.62702953  1
  Mg  Mg11  1  0.38423916  0.87805754  0.37512833  1
  Mg  Mg12  1  0.86918790  0.12114904  0.86787126  1
  Mg  Mg13  1  0.87538718  0.11935232  0.38085951  1
  Mg  Mg14  1  0.63436334  0.12002684  0.11833185  1
  Mg  Mg15  1  0.36637666  0.12412362  0.63444461  1
  Mg  Mg16  1  0.61598922  0.62428264  0.38394647  1
  Mg  Mg17  1  0.62865458  0.36388562  0.62894023  1
  Mg  Mg18  1  0.11814312  0.62427794  0.63244250  1
  Mg  Mg19  1  0.05000487  0.45932962  0.74975343  1
  Mg  Mg20  1  0.01162458  0.20902336  -0.06479108  1
  Mg  Mg21  1  0.22580358  0.05474946  0.82167783  1
  Mg  Mg22  1  0.47505067  0.67509161  0.54166409  1
  Mg  Mg23  1  0.73976188  -0.06446834  -0.01045007  1
  Mg  Mg24  1  -0.01121575  0.50728942  -0.06385679  1
  Mg  Mg25  1  0.43944948  0.54527519  0.73712524  1
  Mg  Mg26  1  -0.05212979  0.50310841  0.28472522  1
  Mg  Mg27  1  0.05307836  0.05685652  0.77528827  1
  Mg  Mg28  1  0.47604044  0.48571996  0.04994765  1
  Mg  Mg29  1  0.77000468  -0.05425094  0.26000996  1
  Mg  Mg30  1  0.00978398  -0.05696503  0.50982606  1
  Mg  Mg31  1  0.68418534  0.49845133  0.74895891  1
  Ti  Ti32  1  0.36974255  0.37497668  0.37024905  1
  Ti  Ti33  1  0.61998635  0.38723660  0.87901481  1
  Ti  Ti34  1  0.87880851  0.11179547  0.12303887  1
  Ti  Ti35  1  0.12632813  0.12531419  0.37570195  1
  Ti  Ti36  1  0.89054482  0.11163860  0.62999284  1
  Ti  Ti37  1  0.87988487  0.62731366  0.12480283  1
  Ti  Ti38  1  0.63570364  0.87664469  0.12570926  1
  Ti  Ti39  1  0.86920357  0.88027983  0.88146703  1
  Ti  Ti40  1  0.37371360  0.36106848  0.13248340  1
  Ti  Ti41  1  0.12628800  0.61853000  0.39025835  1
  Ti  Ti42  1  0.87549808  0.86830738  0.38139944  1
  Ti  Ti43  1  0.38201043  0.38665834  0.88241965  1
  Ti  Ti44  1  0.36800666  0.36143680  0.63696961  1
  Ti  Ti45  1  0.61224170  0.61889262  0.11410797  1
  Ti  Ti46  1  0.88884162  0.38652578  0.13377194  1
  Ti  Ti47  1  0.62326975  0.12453273  0.63911250  1
  Ti  Ti48  1  0.64069476  0.11929966  0.88110766  1
  Ti  Ti49  1  0.38050813  0.86499792  0.12891113  1
  Ti  Ti50  1  0.62375361  0.88097960  0.63389883  1
  Ti  Ti51  1  0.86907753  0.63072761  0.86745334  1
  Ti  Ti52  1  0.37036261  0.62297302  0.12019968  1
  Ti  Ti53  1  0.61073808  0.62644100  0.87220421  1
  Ti  Ti54  1  0.86622204  0.86982856  0.61889041  1
  Ti  Ti55  1  0.87914538  0.86933207  0.12855642  1
  Ti  Ti56  1  0.86946177  0.37167411  0.37910379  1
  Ti  Ti57  1  0.12988648  0.87695305  0.12033786  1
  Ti  Ti58  1  0.37440656  0.87737372  0.61313681  1
  Ti  Ti59  1  0.61608408  0.37360835  0.38229819  1
  Ti  Ti60  1  0.87149048  0.63216696  0.63336614  1
  Ti  Ti61  1  0.87054424  0.63402023  0.38167455  1
  Ti  Ti62  1  0.11466082  0.38347883  0.37719901  1
  Ti  Ti63  1  0.12326481  0.11859076  0.13360059  1
  Ti  Ti64  1  0.62122703  0.87743306  0.37878416  1
  Ti  Ti65  1  0.11182498  0.62115090  0.87479629  1
  Ti  Ti66  1  0.38279532  0.12767890  0.87656013  1
  Ti  Ti67  1  0.37648462  0.13247056  0.13334852  1
  Ti  Ti68  1  0.11751528  0.37449741  0.12639034  1
  Ti  Ti69  1  0.62627441  0.37969609  0.12291593  1
  Ti  Ti70  1  0.37371003  0.61539621  0.89425030  1
  Ti  Ti71  1  0.37878434  0.12543786  0.36420544  1
  Ti  Ti72  1  0.87358285  0.37109870  0.63202965  1
  Ti  Ti73  1  0.13445800  0.11807799  0.61746976  1
  Bi  Bi74  1  0.72993229  0.22510975  0.50675428  1
  Bi  Bi75  1  0.21059290  0.23649754  -0.00327828  1
  Bi  Bi76  1  0.48734387  0.22944716  0.51078895  1
  Bi  Bi77  1  0.70854398  0.74488041  0.51644532  1
  Bi  Bi78  1  0.03169312  0.02269622  -0.02946985  1
  Bi  Bi79  1  0.01105531  0.26301058  0.72646488  1
  Bi  Bi80  1  0.00702051  0.73760116  0.52792291  1
  Bi  Bi81  1  0.22662624  0.25622178  0.26049375  1
  Bi  Bi82  1  0.48689981  0.49886875  0.25833413  1
  Bi  Bi83  1  0.74061611  0.27098137  0.76974613  1
  Bi  Bi84  1  0.51808612  0.25246190  -0.00066445  1
  Bi  Bi85  1  0.80416914  0.25754289  -0.00897653  1
  Bi  Bi86  1  0.01306358  0.76803513  0.01231226  1
  Bi  Bi87  1  0.25385983  0.73652065  0.52917219  1
  Bi  Bi88  1  -0.01809263  0.22974825  0.25487938  1
  Bi  Bi89  1  0.48112180  0.79041325  -0.02486541  1
  Bi  Bi90  1  0.76794847  0.00513494  0.74178636  1
  Bi  Bi91  1  0.52995609  0.22942275  0.24842979  1
  Bi  Bi92  1  -0.00586569  0.23833806  0.50299198  1
  Bi  Bi93  1  0.52078696  0.00926572  -0.01106786  1
  Bi  Bi94  1  0.74544223  0.49675176  0.53108875  1
  Bi  Bi95  1  0.28285801  0.00232910  0.02084342  1
  Bi  Bi96  1  0.75181412  0.22760613  0.22620327  1
  Bi  Bi97  1  0.25427143  -0.02402858  0.26607298  1
  Bi  Bi98  1  0.75147370  0.72484340  0.00691282  1
  Bi  Bi99  1  0.44873880  -0.03044090  0.77577501  1
  Bi  Bi100  1  0.73212353  0.49577621  0.27765667  1
  Bi  Bi101  1  -0.01322720  0.78644354  0.75900482  1
  Bi  Bi102  1  0.73961111  0.00505921  0.49551046  1
  Bi  Bi103  1  0.26066319  0.24797931  0.49515227  1
  Bi  Bi104  1  -0.02552687  0.49798391  0.50058987  1
  Bi  Bi105  1  0.52782266  -0.01114899  0.23890587  1
  Bi  Bi106  1  0.46521986  0.73252602  0.73002196  1
  Bi  Bi107  1  -0.02165195  -0.00815718  0.26714437  1
  Bi  Bi108  1  0.23025400  0.25915108  0.78447638  1
  Bi  Bi109  1  0.72593343  0.72293240  0.24962421  1
  Bi  Bi110  1  0.77913278  0.48784391  0.00312293  1
  Bi  Bi111  1  0.22022802  0.49429542  0.01012403  1
  Bi  Bi112  1  0.24657180  0.77772769  0.76999966  1
  Bi  Bi113  1  0.72216529  0.74805588  0.76802095  1
  Bi  Bi114  1  0.22510844  0.50970265  0.24499426  1
  Bi  Bi115  1  0.49270466  0.73629451  0.26792660  1
  Bi  Bi116  1  0.02061774  0.71168944  0.26010689  1
  Bi  Bi117  1  0.28950032  0.51508170  0.52775603  1
  Bi  Bi118  1  0.22210689  -0.02895006  0.49243737  1
  Bi  Bi119  1  0.48836237  0.25634997  0.76957010  1
  Bi  Bi120  1  0.23596270  0.53394563  0.74595364  1
  Bi  Bi121  1  0.24555732  0.75486043  -0.00981466  1
  Bi  Bi122  1  0.48789283  0.00065285  0.52478689  1
  Bi  Bi123  1  0.26269760  0.74615830  0.28880498  1
  Bi  Bi124  1  0.50058000  0.47331354  0.53754353  1
  O  O125  1  0.09573354  0.14535881  0.01333628  1
  O  O126  1  0.15503127  0.12533937  0.24694204  1
  O  O127  1  0.10407067  0.14318074  0.48815063  1
  O  O128  1  0.15848502  0.11352017  0.73467172  1
  O  O129  1  0.12383320  0.38152058  0.00848789  1
  O  O130  1  0.15560355  0.38535662  0.24785839  1
  O  O131  1  0.10596275  0.38170991  0.49072277  1
  O  O132  1  0.13141841  0.34991662  0.74630888  1
  O  O133  1  0.09895911  0.56982674  -0.01390273  1
  O  O134  1  0.14143476  0.63539279  0.24196271  1
  O  O135  1  0.09514294  0.61042198  0.49844734  1
  O  O136  1  0.15506774  0.64816721  0.76149263  1
  O  O137  1  0.09203050  0.88142051  -0.00205742  1
  O  O138  1  0.13825809  0.87493461  0.23708063  1
  O  O139  1  0.11932897  0.88258161  0.49289442  1
  O  O140  1  0.12899364  0.84798829  0.75027690  1
  O  O141  1  0.39486099  0.09578426  0.00257571  1
  O  O142  1  0.35291655  0.15167862  0.24665246  1
  O  O143  1  0.40846838  0.11242300  0.48937704  1
  O  O144  1  0.37530499  0.15289354  0.75944260  1
  O  O145  1  0.40202574  0.39978683  -0.00761322  1
  O  O146  1  0.36513217  0.34630712  0.24747816  1
  O  O147  1  0.39181794  0.40155444  0.48978384  1
  O  O148  1  0.36516718  0.33944716  0.74904152  1
  O  O149  1  0.41361417  0.59077550  0.00301796  1
  O  O150  1  0.35002510  0.64716662  0.23689936  1
  O  O151  1  0.39715718  0.59142856  0.49317033  1
  O  O152  1  0.36507927  0.64590260  0.76435504  1
  O  O153  1  0.39807811  0.89940201  0.01516862  1
  O  O154  1  0.34215070  0.86573773  0.24245673  1
  O  O155  1  0.39462117  0.90160430  0.49698179  1
  O  O156  1  0.37122877  0.85649122  0.73632545  1
  O  O157  1  0.59841966  0.13556963  -0.00253340  1
  O  O158  1  0.63955423  0.13583864  0.24713534  1
  O  O159  1  0.61364406  0.14925435  0.50477066  1
  O  O160  1  0.64859098  0.10411347  0.75558140  1
  O  O161  1  0.60325121  0.36821430  -0.00593281  1
  O  O162  1  0.63701875  0.40194218  0.24141826  1
  O  O163  1  0.60436453  0.36934408  0.49691124  1
  O  O164  1  0.65228165  0.37771080  0.75586240  1
  O  O165  1  0.61768576  0.65129266  -0.00355251  1
  O  O166  1  0.64868804  0.60762611  0.24111048  1
  O  O167  1  0.59708642  0.65407472  0.50539589  1
  O  O168  1  0.65524431  0.61812376  0.75698591  1
  O  O169  1  0.62758312  0.86451131  0.00960454  1
  O  O170  1  0.64732384  0.91322492  0.25237198  1
  O  O171  1  0.61596496  0.85210510  0.49244560  1
  O  O172  1  0.64706339  0.88928545  0.74523818  1
  O  O173  1  0.90018955  0.13269909  0.01184475  1
  O  O174  1  0.86390791  0.14759735  0.24995509  1
  O  O175  1  0.91594334  0.12334627  0.51011950  1
  O  O176  1  0.83848079  0.12621249  0.74047959  1
  O  O177  1  0.87788354  0.38889294  0.00652636  1
  O  O178  1  0.86987366  0.40690083  0.25227922  1
  O  O179  1  0.90122836  0.37504586  0.49638698  1
  O  O180  1  0.84454303  0.36549333  0.74403014  1
  O  O181  1  0.86839571  0.63750361  -0.00189737  1
  O  O182  1  0.87250212  0.61517044  0.24870791  1
  O  O183  1  0.90476743  0.62672203  0.49412951  1
  O  O184  1  0.85293626  0.63238410  0.74603255  1
  O  O185  1  0.86931171  0.89195575  -0.00289905  1
  O  O186  1  0.87009910  0.86868615  0.24594029  1
  O  O187  1  0.88851991  0.89626000  0.49411907  1
  O  O188  1  0.86303563  0.85880392  0.73808761  1
  O  O189  1  0.00316632  0.12541267  0.15817517  1
  O  O190  1  0.00574993  0.11702209  0.34095574  1
  O  O191  1  -0.00071927  0.11340183  0.67428349  1
  O  O192  1  -0.00813370  0.10715173  0.86636511  1
  O  O193  1  0.00379583  0.38881109  0.14379388  1
  O  O194  1  0.00367055  0.40762840  0.35395990  1
  O  O195  1  -0.00605606  0.38889719  0.65681954  1
  O  O196  1  0.00295218  0.41382107  0.85607361  1
  O  O197  1  -0.00595506  0.64109636  0.12644669  1
  O  O198  1  0.00559193  0.60243956  0.34321949  1
  O  O199  1  -0.00759292  0.64762297  0.63653746  1
  O  O200  1  -0.00160224  0.60932009  0.85764277  1
  O  O201  1  -0.00344435  0.86189679  0.12762449  1
  O  O202  1  -0.00340872  0.90500110  0.37403667  1
  O  O203  1  -0.00484693  0.86110363  0.61669914  1
  O  O204  1  -0.01052483  0.88679964  0.85167775  1
  O  O205  1  0.24747171  0.12804467  0.09310564  1
  O  O206  1  0.25024829  0.15198727  0.38696649  1
  O  O207  1  0.24492339  0.12975044  0.58811127  1
  O  O208  1  0.26352526  0.14993991  0.89664313  1
  O  O209  1  0.26208620  0.37851619  0.10655378  1
  O  O210  1  0.25461133  0.35679400  0.38468440  1
  O  O211  1  0.25619560  0.36727043  0.60254455  1
  O  O212  1  0.26528639  0.35202611  0.88542968  1
  O  O213  1  0.25828720  0.61561472  0.08986067  1
  O  O214  1  0.24517343  0.64345573  0.39719033  1
  O  O215  1  0.24991608  0.62247825  0.60481864  1
  O  O216  1  0.25741762  0.61963535  0.90574108  1
  O  O217  1  0.24708589  0.87333073  0.09271250  1
  O  O218  1  0.24985506  0.88019412  0.37849343  1
  O  O219  1  0.25714172  0.87003288  0.60247780  1
  O  O220  1  0.24139662  0.84660437  0.88674637  1
  O  O221  1  0.49266040  0.12832604  0.14891660  1
  O  O222  1  0.49655836  0.13068867  0.34478717  1
  O  O223  1  0.50926218  0.13536077  0.63300436  1
  O  O224  1  0.49943006  0.08531569  0.86685671  1
  O  O225  1  0.49763866  0.38061112  0.13130936  1
  O  O226  1  0.50210672  0.38423006  0.35335415  1
  O  O227  1  0.49692551  0.36600421  0.62742216  1
  O  O228  1  0.50431541  0.38064085  0.84525799  1
  O  O229  1  0.50215567  0.63580112  0.15037449  1
  O  O230  1  0.49793935  0.61779475  0.33897648  1
  O  O231  1  0.50058122  0.61967370  0.65365613  1
  O  O232  1  0.50215178  0.60795971  0.84658146  1
  O  O233  1  0.49507158  0.87781355  0.15637531  1
  O  O234  1  0.50826547  0.88444979  0.34361682  1
  O  O235  1  0.50886354  0.88577577  0.63302620  1
  O  O236  1  0.50353701  0.89282878  0.88115150  1
  O  O237  1  0.75994197  0.14179504  0.11840581  1
  O  O238  1  0.75356819  0.12691417  0.41170873  1
  O  O239  1  0.75870880  0.11846877  0.58974714  1
  O  O240  1  0.74808030  0.15530791  0.89630511  1
  O  O241  1  0.74214679  0.39147223  0.10691076  1
  O  O242  1  0.75551411  0.37258774  0.38066482  1
  O  O243  1  0.75982448  0.37345460  0.59662372  1
  O  O244  1  0.74467243  0.34968510  0.89186773  1
  O  O245  1  0.74168466  0.63424966  0.11221250  1
  O  O246  1  0.75595199  0.64170019  0.38101733  1
  O  O247  1  0.75344807  0.62322275  0.59407063  1
  O  O248  1  0.75145169  0.65369467  0.88377094  1
  O  O249  1  0.75049422  0.89575412  0.11838503  1
  O  O250  1  0.75582477  0.87007461  0.37444554  1
  O  O251  1  0.75009073  0.87771827  0.59792657  1
  O  O252  1  0.75229097  0.85168249  0.88532242  1
  O  O253  1  0.12887639  0.00243713  0.11220175  1
  O  O254  1  0.14454153  0.01098922  0.37637903  1
  O  O255  1  0.11352871  0.00520398  0.59455270  1
  O  O256  1  0.12573620  0.00310602  0.86992107  1
  O  O257  1  0.13292454  0.25576218  0.14114085  1
  O  O258  1  0.11184017  0.25874497  0.35200054  1
  O  O259  1  0.09211447  0.24262730  0.61718175  1
  O  O260  1  0.12093224  0.25223267  0.88189994  1
  O  O261  1  0.14426600  0.49768549  0.13014037  1
  O  O262  1  0.15135435  0.50249638  0.36511230  1
  O  O263  1  0.12989387  0.50216824  0.66061951  1
  O  O264  1  0.14402727  0.50118341  0.84097959  1
  O  O265  1  0.12497371  0.75204812  0.09385626  1
  O  O266  1  0.10275941  0.73954317  0.37198541  1
  O  O267  1  0.13347707  0.74639044  0.59693614  1
  O  O268  1  0.11459158  0.73361841  0.91386714  1
  O  O269  1  0.35257556  0.00471619  0.14153552  1
  O  O270  1  0.36315763  0.01101810  0.35100201  1
  O  O271  1  0.38929468  -0.00027126  0.62958122  1
  O  O272  1  0.34054975  0.01256119  0.84899720  1
  O  O273  1  0.38056567  0.24837077  0.09970980  1
  O  O274  1  0.38315389  0.25242817  0.40692971  1
  O  O275  1  0.37319933  0.24720407  0.59231883  1
  O  O276  1  0.41699956  0.24673462  0.89078809  1
  O  O277  1  0.38812125  0.50429030  0.14521621  1
  O  O278  1  0.37003580  0.49179917  0.33826781  1
  O  O279  1  0.37756013  0.48578710  0.63863547  1
  O  O280  1  0.37308471  0.49654222  0.84299817  1
  O  O281  1  0.37984542  0.75154807  0.09724439  1
  O  O282  1  0.38148727  0.74962297  0.36600729  1
  O  O283  1  0.39731269  0.75624581  0.60092769  1
  O  O284  1  0.38058684  0.73549434  0.90513199  1
  O  O285  1  0.60619964  -0.00231065  0.11728788  1
  O  O286  1  0.62984808  -0.00330826  0.40371239  1
  O  O287  1  0.63675626  0.00357543  0.60396000  1
  O  O288  1  0.65406414  0.00375431  0.91260677  1
  O  O289  1  0.62396660  0.26122373  0.13242053  1
  O  O290  1  0.62566667  0.25910778  0.35900486  1
  O  O291  1  0.65255519  0.24010929  0.64328341  1
  O  O292  1  0.59678655  0.24044366  0.86709696  1
  O  O293  1  0.59841306  0.50750795  0.09474023  1
  O  O294  1  0.64059696  0.49832742  0.38175378  1
  O  O295  1  0.64438382  0.49514607  0.62679709  1
  O  O296  1  0.64512777  0.50046250  0.87397979  1
  O  O297  1  0.62874923  0.76010078  0.15564438  1
  O  O298  1  0.62180135  0.75215488  0.34030768  1
  O  O299  1  0.64007327  0.75627833  0.63914438  1
  O  O300  1  0.60790773  0.74715810  0.84921558  1
  O  O301  1  0.87789787  0.00122593  0.14375321  1
  O  O302  1  0.86130990  -0.00226389  0.34032941  1
  O  O303  1  0.87248972  -0.00406417  0.63452688  1
  O  O304  1  0.84289708  -0.00610000  0.85907423  1
  O  O305  1  0.87412901  0.27122794  0.14052078  1
  O  O306  1  0.89702512  0.25790956  0.37219738  1
  O  O307  1  0.90237812  0.25207300  0.62227489  1
  O  O308  1  0.89928315  0.25476013  0.89144877  1
  O  O309  1  0.86716532  0.51087961  0.11297532  1
  O  O310  1  0.87363267  0.50619314  0.39160111  1
  O  O311  1  0.87229894  0.50369933  0.60673511  1
  O  O312  1  0.86561526  0.51199668  0.88920741  1
  O  O313  1  0.85835900  0.75456334  0.11695553  1
  O  O314  1  0.90061348  0.75110347  0.37427597  1
  O  O315  1  0.86553393  0.74955810  0.60285973  1
  O  O316  1  0.89778848  0.75094865  0.87020275  1
