# generated using pymatgen
data_Mg32Ti42(Bi17O64)3
_symmetry_space_group_name_H-M   'P 1'
_cell_length_a   15.94776599
_cell_length_b   15.93786683
_cell_length_c   15.96139406
_cell_angle_alpha   90.01982641
_cell_angle_beta   90.06534398
_cell_angle_gamma   90.01704659
_symmetry_Int_Tables_number   1
_chemical_formula_structural   Mg32Ti42(Bi17O64)3
_chemical_formula_sum   'Mg32 Ti42 Bi51 O192'
_cell_volume   4056.95826596
_cell_formula_units_Z   1
loop_
 _symmetry_equiv_pos_site_id
 _symmetry_equiv_pos_as_xyz
  1  'x, y, z'
loop_
 _atom_site_type_symbol
 _atom_site_label
 _atom_site_symmetry_multiplicity
 _atom_site_fract_x
 _atom_site_fract_y
 _atom_site_fract_z
 _atom_site_occupancy
  Mg  Mg0  1  0.87524690  0.12078781  0.61966009  1
  Mg  Mg1  1  0.37804540  0.37308920  0.87150092  1
  Mg  Mg2  1  0.38364627  0.37634314  0.38064588  1
  Mg  Mg3  1  0.37960157  0.12264551  0.11617111  1
  Mg  Mg4  1  0.87739641  0.62372711  0.11679182  1
  Mg  Mg5  1  0.12558804  0.11899043  0.62143515  1
  Mg  Mg6  1  0.62501533  0.12695995  0.87879474  1
  Mg  Mg7  1  0.87488831  0.37568534  0.63448388  1
  Mg  Mg8  1  0.89110437  0.12026973  0.13485036  1
  Mg  Mg9  1  0.61960802  0.62398726  0.12642902  1
  Mg  Mg10  1  0.86849440  0.62780118  0.62239236  1
  Mg  Mg11  1  0.38278721  0.87743163  0.62621960  1
  Mg  Mg12  1  0.63530260  0.86996933  0.88209850  1
  Mg  Mg13  1  0.63013459  0.86471663  0.36457491  1
  Mg  Mg14  1  0.61808347  0.37486624  0.35595737  1
  Mg  Mg15  1  0.38450592  0.61935321  0.62349512  1
  Mg  Mg16  1  0.61932193  0.12073381  0.61788295  1
  Mg  Mg17  1  0.12736785  0.38826174  0.37884501  1
  Mg  Mg18  1  0.11605034  0.89200645  0.13952212  1
  Mg  Mg19  1  0.17718515  0.77972769  0.01661284  1
  Mg  Mg20  1  0.72642226  0.69896857  0.00319426  1
  Mg  Mg21  1  0.52247877  0.50698434  0.44179106  1
  Mg  Mg22  1  0.73912020  0.77356741  0.49694186  1
  Mg  Mg23  1  0.44114820  0.29493035  0.03956042  1
  Mg  Mg24  1  0.74569758  0.06573634  0.21389247  1
  Mg  Mg25  1  -0.00091875  -0.02109133  0.29392749  1
  Mg  Mg26  1  0.80460654  0.22477102  0.01564184  1
  Mg  Mg27  1  0.50907175  0.48816899  0.75029087  1
  Mg  Mg28  1  0.04731663  0.74503573  0.70975624  1
  Mg  Mg29  1  0.75300785  0.47626792  0.42576058  1
  Mg  Mg30  1  0.46814313  0.80230561  0.25501794  1
  Mg  Mg31  1  0.52639315  -0.00558017  0.44056208  1
  Ti  Ti32  1  0.13920576  0.86900362  0.61194047  1
  Ti  Ti33  1  0.12798304  0.62053508  0.60720693  1
  Ti  Ti34  1  0.62674652  0.36777337  0.11597050  1
  Ti  Ti35  1  0.38135648  0.11945959  0.61964920  1
  Ti  Ti36  1  0.86190226  0.87869129  0.85337875  1
  Ti  Ti37  1  0.38534531  0.37362204  0.62700842  1
  Ti  Ti38  1  0.63292519  0.62355557  0.37014536  1
  Ti  Ti39  1  0.12363896  0.37082518  0.62393471  1
  Ti  Ti40  1  0.14078494  0.62363757  0.87768679  1
  Ti  Ti41  1  0.86506082  0.87657179  0.38127217  1
  Ti  Ti42  1  0.12901859  0.12499821  0.87388885  1
  Ti  Ti43  1  0.36492646  0.64035659  0.12034097  1
  Ti  Ti44  1  0.37820129  0.62423486  0.87538814  1
  Ti  Ti45  1  0.88253585  0.37383363  0.11461860  1
  Ti  Ti46  1  0.88682533  0.35973683  0.87705071  1
  Ti  Ti47  1  0.86709152  0.62844751  0.38218778  1
  Ti  Ti48  1  0.86600687  0.86835991  0.62223728  1
  Ti  Ti49  1  0.13158328  0.87283832  0.37948283  1
  Ti  Ti50  1  0.87254647  0.11206066  0.37383718  1
  Ti  Ti51  1  0.37804738  0.14053955  0.88416107  1
  Ti  Ti52  1  0.63511766  0.86358962  0.12404902  1
  Ti  Ti53  1  0.37708474  0.62218913  0.36463309  1
  Ti  Ti54  1  0.12084565  0.63742906  0.12347886  1
  Ti  Ti55  1  0.88001279  0.12509948  0.86979319  1
  Ti  Ti56  1  0.62730817  0.38843416  0.63756473  1
  Ti  Ti57  1  0.38948811  0.86236836  0.87573030  1
  Ti  Ti58  1  0.11948453  0.62951288  0.37827400  1
  Ti  Ti59  1  0.36633159  0.87560194  0.11132179  1
  Ti  Ti60  1  0.62021004  0.86092851  0.62157008  1
  Ti  Ti61  1  0.37445801  0.88542172  0.38470290  1
  Ti  Ti62  1  0.87205437  0.89510617  0.14092104  1
  Ti  Ti63  1  0.62103594  0.13100188  0.10679488  1
  Ti  Ti64  1  0.38718117  0.12967346  0.37726534  1
  Ti  Ti65  1  0.13208737  0.12617464  0.13686633  1
  Ti  Ti66  1  0.62249620  0.62259769  0.61089250  1
  Ti  Ti67  1  0.63576854  0.12324543  0.37146124  1
  Ti  Ti68  1  0.11923547  0.37573821  0.13115894  1
  Ti  Ti69  1  0.11950832  0.11368930  0.36873064  1
  Ti  Ti70  1  0.11998388  0.37881871  0.86163539  1
  Ti  Ti71  1  0.61885576  0.36150481  0.87209779  1
  Ti  Ti72  1  0.61780942  0.62083991  0.87469279  1
  Ti  Ti73  1  0.87530436  0.61241550  0.87984683  1
  Bi  Bi74  1  -0.04213622  0.47667093  0.49403578  1
  Bi  Bi75  1  0.00080404  -0.02233769  -0.03095782  1
  Bi  Bi76  1  0.48902800  0.47578463  0.20897348  1
  Bi  Bi77  1  0.01677477  -0.04643815  0.73802074  1
  Bi  Bi78  1  0.26688873  0.47481142  -0.00497236  1
  Bi  Bi79  1  0.22889709  0.77643268  0.79191172  1
  Bi  Bi80  1  0.00138375  0.53337149  0.73061434  1
  Bi  Bi81  1  0.48367873  0.73776473  0.73071467  1
  Bi  Bi82  1  -0.02914989  0.74477155  0.50568965  1
  Bi  Bi83  1  0.27121607  0.00092006  0.24109450  1
  Bi  Bi84  1  0.00943217  0.22397139  0.02122349  1
  Bi  Bi85  1  0.75368490  0.47901924  -0.02403919  1
  Bi  Bi86  1  0.71356496  -0.00946639  0.50509816  1
  Bi  Bi87  1  0.27390883  0.48575009  0.22887790  1
  Bi  Bi88  1  0.51226012  0.22991158  0.23563924  1
  Bi  Bi89  1  0.23584667  0.73799977  0.26528044  1
  Bi  Bi90  1  -0.00800920  0.00189338  0.51839345  1
  Bi  Bi91  1  0.74793086  0.51865948  0.21829582  1
  Bi  Bi92  1  0.00133289  0.25091206  0.49421124  1
  Bi  Bi93  1  0.23701233  0.25281394  -0.01241772  1
  Bi  Bi94  1  0.24613608  0.26955313  0.46817986  1
  Bi  Bi95  1  0.52944393  -0.00965673  0.23214552  1
  Bi  Bi96  1  0.50751713  0.01984944  0.76394230  1
  Bi  Bi97  1  0.76500973  0.51275717  0.73738665  1
  Bi  Bi98  1  0.28255212  0.24958435  0.22915717  1
  Bi  Bi99  1  -0.04501493  0.75679822  -0.01904494  1
  Bi  Bi100  1  0.77111924  0.28687196  0.47945747  1
  Bi  Bi101  1  0.22078145  -0.02956900  -0.01068989  1
  Bi  Bi102  1  0.01104844  0.22023708  0.73673342  1
  Bi  Bi103  1  0.26021643  0.23587871  0.73676683  1
  Bi  Bi104  1  0.72966289  0.74068622  0.76784440  1
  Bi  Bi105  1  0.28603056  -0.00190441  0.76929403  1
  Bi  Bi106  1  0.25536927  0.03254645  0.50139151  1
  Bi  Bi107  1  0.02873216  0.51419445  0.00857135  1
  Bi  Bi108  1  0.72713853  0.01552933  0.74154652  1
  Bi  Bi109  1  -0.00115258  0.77636332  0.24224005  1
  Bi  Bi110  1  0.50854788  0.48657851  -0.01564392  1
  Bi  Bi111  1  0.49684519  0.74585447  0.46360661  1
  Bi  Bi112  1  0.51841866  0.24275094  0.74222731  1
  Bi  Bi113  1  -0.00618497  0.27798749  0.28616245  1
  Bi  Bi114  1  0.76239750  0.01428834  -0.00594037  1
  Bi  Bi115  1  0.51581229  -0.02164141  -0.01173133  1
  Bi  Bi116  1  0.28054746  0.74517417  0.53052023  1
  Bi  Bi117  1  0.53352315  0.27682479  0.49553056  1
  Bi  Bi118  1  0.27509760  0.48917851  0.74400507  1
  Bi  Bi119  1  0.28073461  0.49610115  0.50068409  1
  Bi  Bi120  1  0.77286952  0.27182607  0.25985134  1
  Bi  Bi121  1  0.00119173  0.51687599  0.26961511  1
  Bi  Bi122  1  0.77129701  0.74135759  0.22213588  1
  Bi  Bi123  1  0.49808120  0.72820418  0.01587027  1
  Bi  Bi124  1  0.76128405  0.24351843  0.71860209  1
  O  O125  1  0.12897640  0.14418754  -0.00057836  1
  O  O126  1  0.14590761  0.14043091  0.25250531  1
  O  O127  1  0.12178234  0.09029070  0.49082837  1
  O  O128  1  0.12495007  0.13195683  0.75413705  1
  O  O129  1  0.15262572  0.37001178  0.00364639  1
  O  O130  1  0.07822195  0.38273566  0.24895154  1
  O  O131  1  0.16081899  0.38067318  0.50990022  1
  O  O132  1  0.09518927  0.37993129  0.75134219  1
  O  O133  1  0.13266515  0.61545889  0.00364516  1
  O  O134  1  0.13003415  0.64575782  0.24700181  1
  O  O135  1  0.10903795  0.61378548  0.49519223  1
  O  O136  1  0.11784503  0.65092125  0.76377526  1
  O  O137  1  0.10871913  0.89257210  0.01242476  1
  O  O138  1  0.14052688  0.84108139  0.25174081  1
  O  O139  1  0.10743729  0.88098583  0.49600964  1
  O  O140  1  0.12252987  0.85292923  0.73941740  1
  O  O141  1  0.39598399  0.16749961  -0.00547448  1
  O  O142  1  0.35686360  0.10936751  0.25768712  1
  O  O143  1  0.37767723  0.13314330  0.50159579  1
  O  O144  1  0.34945216  0.12218305  0.74501751  1
  O  O145  1  0.33990641  0.35885384  -0.00386591  1
  O  O146  1  0.38184163  0.40629437  0.25697958  1
  O  O147  1  0.34402944  0.36673075  0.50988462  1
  O  O148  1  0.39726278  0.41452499  0.74853229  1
  O  O149  1  0.36985659  0.65730110  0.00567718  1
  O  O150  1  0.37693405  0.59967117  0.24871887  1
  O  O151  1  0.38013415  0.65522281  0.49457777  1
  O  O152  1  0.40659955  0.59806230  0.76349452  1
  O  O153  1  0.38601279  0.87442602  -0.00220364  1
  O  O154  1  0.37156011  0.89376938  0.25578664  1
  O  O155  1  0.38269695  0.84056266  0.49779793  1
  O  O156  1  0.37710307  0.88828586  0.75700854  1
  O  O157  1  0.60510144  0.09944176  -0.00015285  1
  O  O158  1  0.64958251  0.14711813  0.25327735  1
  O  O159  1  0.60599365  0.09228616  0.49311366  1
  O  O160  1  0.62385423  0.10615219  0.75117830  1
  O  O161  1  0.63990159  0.39014312  -0.00121999  1
  O  O162  1  0.57826906  0.36555920  0.23660264  1
  O  O163  1  0.64230897  0.36550957  0.52028042  1
  O  O164  1  0.58096486  0.37696524  0.75850147  1
  O  O165  1  0.63087230  0.61572550  -0.00655082  1
  O  O166  1  0.64514892  0.62986419  0.25709617  1
  O  O167  1  0.60694880  0.58732182  0.50767448  1
  O  O168  1  0.61356336  0.66235863  0.75737275  1
  O  O169  1  0.62887854  0.90704356  0.01011324  1
  O  O170  1  0.59750918  0.85064980  0.23883147  1
  O  O171  1  0.60614013  0.90401769  0.49997464  1
  O  O172  1  0.65023412  0.85093619  0.74205055  1
  O  O173  1  0.87575454  0.11007579  -0.00151108  1
  O  O174  1  0.84904013  0.13659411  0.25493232  1
  O  O175  1  0.88952123  0.09649100  0.49345629  1
  O  O176  1  0.88114284  0.15121177  0.75413283  1
  O  O177  1  0.83524121  0.36789801  0.00224635  1
  O  O178  1  0.88714238  0.35279492  0.23914349  1
  O  O179  1  0.83377731  0.41059218  0.50585253  1
  O  O180  1  0.88256245  0.35203064  0.76353745  1
  O  O181  1  0.84746096  0.64894131  -0.00642260  1
  O  O182  1  0.85784068  0.63208370  0.25970261  1
  O  O183  1  0.90538449  0.61286408  0.49881629  1
  O  O184  1  0.87313081  0.61903416  0.76181431  1
  O  O185  1  0.88952502  0.89366575  0.02536617  1
  O  O186  1  0.86348852  0.84527665  0.26623808  1
  O  O187  1  0.90981326  0.88355582  0.49973576  1
  O  O188  1  0.84038408  0.86864802  0.74098679  1
  O  O189  1  0.01389449  0.11653235  0.11620969  1
  O  O190  1  0.00119967  0.10784641  0.35091353  1
  O  O191  1  0.00025570  0.14069131  0.62645645  1
  O  O192  1  0.00366316  0.14807565  0.87507178  1
  O  O193  1  -0.00651237  0.39129829  0.09356917  1
  O  O194  1  0.00459351  0.35968875  0.40402200  1
  O  O195  1  0.00151517  0.36037825  0.59126773  1
  O  O196  1  -0.00043076  0.36069344  0.89836420  1
  O  O197  1  0.00256799  0.60534238  0.11836216  1
  O  O198  1  0.00411462  0.64394270  0.35545641  1
  O  O199  1  0.00266830  0.64408481  0.64452369  1
  O  O200  1  -0.01028248  0.63789143  0.89945728  1
  O  O201  1  -0.00810330  0.90681812  0.18100279  1
  O  O202  1  0.00570582  0.86186813  0.35622398  1
  O  O203  1  -0.01319061  0.84192948  0.65504070  1
  O  O204  1  -0.01673460  0.86780562  0.88574434  1
  O  O205  1  0.25057822  0.16836884  0.11900968  1
  O  O206  1  0.25149999  0.11068489  0.38902942  1
  O  O207  1  0.25085210  0.12305098  0.60758840  1
  O  O208  1  0.25235392  0.10999199  0.88412106  1
  O  O209  1  0.23375869  0.36679198  0.16091021  1
  O  O210  1  0.24941978  0.36064192  0.36555837  1
  O  O211  1  0.24574855  0.38147597  0.66335038  1
  O  O212  1  0.24431590  0.40767056  0.85356464  1
  O  O213  1  0.24729833  0.66112810  0.13420021  1
  O  O214  1  0.25654035  0.61902268  0.36826356  1
  O  O215  1  0.24426221  0.61283717  0.60813646  1
  O  O216  1  0.25575443  0.60647013  0.86637513  1
  O  O217  1  0.24982949  0.85562954  0.09113012  1
  O  O218  1  0.25337136  0.88663279  0.38573614  1
  O  O219  1  0.24932660  0.88203424  0.60841573  1
  O  O220  1  0.25924242  0.88925197  0.87734816  1
  O  O221  1  0.50564115  0.10849383  0.15014590  1
  O  O222  1  0.50126074  0.11497912  0.35944853  1
  O  O223  1  0.49573072  0.13526606  0.64524379  1
  O  O224  1  0.49228056  0.13625108  0.84541930  1
  O  O225  1  0.49789725  0.39610861  0.09586772  1
  O  O226  1  0.50522478  0.38083378  0.41394668  1
  O  O227  1  0.49840492  0.36605169  0.61033439  1
  O  O228  1  0.49887616  0.36375446  0.91808770  1
  O  O229  1  0.49379765  0.62279067  0.10922753  1
  O  O230  1  0.51047701  0.62254070  0.37836858  1
  O  O231  1  0.50602513  0.65310414  0.62764377  1
  O  O232  1  0.49908367  0.65353273  0.89577223  1
  O  O233  1  0.49790955  0.90284298  0.11920893  1
  O  O234  1  0.49818425  0.86637899  0.37267654  1
  O  O235  1  0.50802832  0.84645851  0.63774541  1
  O  O236  1  0.50430398  0.85593520  0.88643288  1
  O  O237  1  0.73835751  0.14681319  0.09982711  1
  O  O238  1  0.75196554  0.11997936  0.39240228  1
  O  O239  1  0.75123928  0.11355592  0.64473697  1
  O  O240  1  0.75471732  0.09943717  0.88027481  1
  O  O241  1  0.73940053  0.35288817  0.14866541  1
  O  O242  1  0.74543710  0.36758867  0.36019165  1
  O  O243  1  0.74001883  0.38460891  0.66405443  1
  O  O244  1  0.73329219  0.40147036  0.86343528  1
  O  O245  1  0.74939866  0.63172461  0.12828132  1
  O  O246  1  0.75740666  0.60104767  0.40236609  1
  O  O247  1  0.74271186  0.60782313  0.64019844  1
  O  O248  1  0.74099972  0.59486521  0.86229884  1
  O  O249  1  0.75055088  0.86161205  0.13633435  1
  O  O250  1  0.75333571  0.87639899  0.40882278  1
  O  O251  1  0.75471540  0.87799373  0.58602041  1
  O  O252  1  0.75885021  0.91293075  0.89189422  1
  O  O253  1  0.15992326  0.01232967  0.13535946  1
  O  O254  1  0.11729856  -0.01096824  0.34402284  1
  O  O255  1  0.10024999  -0.01441166  0.63280850  1
  O  O256  1  0.11525393  0.00892400  0.88519548  1
  O  O257  1  0.09866664  0.25836907  0.12661571  1
  O  O258  1  0.11494930  0.23560927  0.39768908  1
  O  O259  1  0.12865540  0.25594528  0.62993205  1
  O  O260  1  0.14943432  0.25998865  0.86911440  1
  O  O261  1  0.12990044  0.49864327  0.11956579  1
  O  O262  1  0.10895130  0.51063370  0.35808150  1
  O  O263  1  0.10514377  0.50598671  0.63679978  1
  O  O264  1  0.10629261  0.50357386  0.88015889  1
  O  O265  1  0.09430490  0.74942602  0.10650850  1
  O  O266  1  0.14962731  0.74783717  0.38575324  1
  O  O267  1  0.13070008  0.74661443  0.61003214  1
  O  O268  1  0.15413046  0.74265625  0.90062746  1
  O  O269  1  0.34375926  -0.00291566  0.12175637  1
  O  O270  1  0.39525151  -0.00487951  0.40944318  1
  O  O271  1  0.37926710  0.00462306  0.62785639  1
  O  O272  1  0.38904562  0.00898537  0.86737379  1
  O  O273  1  0.40012504  0.24947018  0.15292962  1
  O  O274  1  0.37994098  0.24464006  0.36769178  1
  O  O275  1  0.36878564  0.25726061  0.64882884  1
  O  O276  1  0.35153794  0.25128595  0.84827421  1
  O  O277  1  0.34533714  0.51604163  0.11314958  1
  O  O278  1  0.39075187  0.50786471  0.41148599  1
  O  O279  1  0.36834452  0.49657488  0.60697035  1
  O  O280  1  0.38525912  0.50693864  0.91315729  1
  O  O281  1  0.39897804  0.76167067  0.14968283  1
  O  O282  1  0.39734669  0.74370868  0.35033423  1
  O  O283  1  0.35520845  0.74534535  0.64729539  1
  O  O284  1  0.36258621  0.74902585  0.86049003  1
  O  O285  1  0.64373391  0.00929733  0.15489792  1
  O  O286  1  0.62374796  -0.00040483  0.35344071  1
  O  O287  1  0.63762577  -0.01380076  0.63683230  1
  O  O288  1  0.59521299  -0.00624867  0.86608962  1
  O  O289  1  0.58703758  0.24936237  0.11112706  1
  O  O290  1  0.62034950  0.24482316  0.39104702  1
  O  O291  1  0.62806628  0.25251545  0.64930464  1
  O  O292  1  0.62939348  0.25106833  0.85606466  1
  O  O293  1  0.63778427  0.49230089  0.13668001  1
  O  O294  1  0.63333544  0.49750094  0.37277953  1
  O  O295  1  0.60597004  0.50390759  0.66125398  1
  O  O296  1  0.58085924  0.51024988  0.85606969  1
  O  O297  1  0.62913303  0.75248088  0.09219123  1
  O  O298  1  0.64414311  0.73911326  0.40540797  1
  O  O299  1  0.65031593  0.74695066  0.58985138  1
  O  O300  1  0.67128377  0.74733373  0.89444893  1
  O  O301  1  0.84026799  0.00388630  0.15162737  1
  O  O302  1  0.88602050  -0.01038284  0.35509579  1
  O  O303  1  0.90844590  -0.01204868  0.63542521  1
  O  O304  1  0.90013477  0.00439075  0.85927706  1
  O  O305  1  0.88865630  0.24897646  0.10610227  1
  O  O306  1  0.88604777  0.23639782  0.39446704  1
  O  O307  1  0.84453378  0.25394063  0.60777327  1
  O  O308  1  0.85631493  0.24582063  0.89987704  1
  O  O309  1  0.85279708  0.49196403  0.12737799  1
  O  O310  1  0.89835600  0.50609734  0.36731786  1
  O  O311  1  0.89617981  0.49987190  0.64563957  1
  O  O312  1  0.88057455  0.49480152  0.89428554  1
  O  O313  1  0.88576709  0.75523591  0.13715396  1
  O  O314  1  0.86450063  0.74813388  0.40942971  1
  O  O315  1  0.85834579  0.75088115  0.58917451  1
  O  O316  1  0.85813496  0.76299966  0.87970689  1
