# generated using pymatgen
data_Ti2CoNi
_symmetry_space_group_name_H-M   'P 1'
_cell_length_a   14.60836661
_cell_length_b   14.62580256
_cell_length_c   14.56131229
_cell_angle_alpha   89.77805097
_cell_angle_beta   90.14084442
_cell_angle_gamma   90.09682850
_symmetry_Int_Tables_number   1
_chemical_formula_structural   Ti2CoNi
_chemical_formula_sum   'Ti108 Co54 Ni54'
_cell_volume   3111.11953718
_cell_formula_units_Z   54
loop_
 _symmetry_equiv_pos_site_id
 _symmetry_equiv_pos_as_xyz
  1  'x, y, z'
loop_
 _atom_site_type_symbol
 _atom_site_label
 _atom_site_symmetry_multiplicity
 _atom_site_fract_x
 _atom_site_fract_y
 _atom_site_fract_z
 _atom_site_occupancy
  Ti  Ti0  1  -0.02698178  0.05818817  -0.02881504  1
  Ti  Ti1  1  -0.00439905  -0.01472756  0.42125039  1
  Ti  Ti2  1  -0.01485804  -0.09805571  0.69073355  1
  Ti  Ti3  1  0.03422972  0.34361633  -0.00432945  1
  Ti  Ti4  1  0.02228226  0.34279066  0.36458829  1
  Ti  Ti5  1  0.05166083  0.37821952  0.66043214  1
  Ti  Ti6  1  0.02533231  0.60276974  -0.02152985  1
  Ti  Ti7  1  0.05205929  0.67647658  0.34256597  1
  Ti  Ti8  1  -0.02452259  0.65867493  0.74542118  1
  Ti  Ti9  1  0.29851392  0.04925410  -0.01694572  1
  Ti  Ti10  1  0.35627285  -0.08039313  0.36059114  1
  Ti  Ti11  1  0.32556341  -0.01621320  0.70020016  1
  Ti  Ti12  1  0.26595967  0.33622264  0.00024158  1
  Ti  Ti13  1  0.35104540  0.33705786  0.31647997  1
  Ti  Ti14  1  0.34813476  0.28777792  0.61377326  1
  Ti  Ti15  1  0.31961061  0.72999739  0.03601835  1
  Ti  Ti16  1  0.37773617  0.63096314  0.41114451  1
  Ti  Ti17  1  0.39369156  0.69828526  0.58578660  1
  Ti  Ti18  1  0.72547222  -0.05810143  0.09296698  1
  Ti  Ti19  1  0.78980422  -0.00008454  0.31930703  1
  Ti  Ti20  1  0.61978982  0.06312204  0.67924179  1
  Ti  Ti21  1  0.55654767  0.42503020  -0.00990053  1
  Ti  Ti22  1  0.65884651  0.32770674  0.37301103  1
  Ti  Ti23  1  0.67249030  0.26938895  0.61313352  1
  Ti  Ti24  1  0.66745638  0.73297118  0.04776921  1
  Ti  Ti25  1  0.60461610  0.64138204  0.22258773  1
  Ti  Ti26  1  0.70865183  0.66650868  0.65816476  1
  Ti  Ti27  1  -0.02875604  0.23602301  0.15505716  1
  Ti  Ti28  1  0.14485435  0.16794248  0.46933338  1
  Ti  Ti29  1  -0.04668169  0.21878057  0.80496405  1
  Ti  Ti30  1  -0.00075491  0.47213119  0.13837343  1
  Ti  Ti31  1  -0.02654411  0.54874070  0.46017980  1
  Ti  Ti32  1  -0.02751025  0.44952037  0.81571572  1
  Ti  Ti33  1  0.06728997  0.81038592  0.21298014  1
  Ti  Ti34  1  -0.00034407  0.75576623  0.51449223  1
  Ti  Ti35  1  -0.04279289  0.85706056  0.93339971  1
  Ti  Ti36  1  0.33860675  0.02232784  0.17800237  1
  Ti  Ti37  1  0.39985474  0.11901763  0.56262921  1
  Ti  Ti38  1  0.28718212  0.16301656  0.78505403  1
  Ti  Ti39  1  0.40698503  0.44699971  0.15993702  1
  Ti  Ti40  1  0.35811907  0.51169502  0.58158618  1
  Ti  Ti41  1  0.31996488  0.51272022  0.83768297  1
  Ti  Ti42  1  0.28019084  0.81654261  0.20664959  1
  Ti  Ti43  1  0.27678734  0.83867884  0.54331202  1
  Ti  Ti44  1  0.34727670  0.87500813  0.87865670  1
  Ti  Ti45  1  0.66232725  0.19261702  0.21093585  1
  Ti  Ti46  1  0.70868848  0.11512999  0.47840579  1
  Ti  Ti47  1  0.69485768  0.17073029  0.82481258  1
  Ti  Ti48  1  0.61843582  0.45075439  0.20486957  1
  Ti  Ti49  1  0.64852086  0.52602851  0.48174110  1
  Ti  Ti50  1  0.74448160  0.48222104  0.86505318  1
  Ti  Ti51  1  0.63500148  0.85526441  0.22960553  1
  Ti  Ti52  1  0.69172563  0.90400311  0.47028378  1
  Ti  Ti53  1  0.70908206  0.85795852  0.90853156  1
  Ti  Ti54  1  0.11687606  -0.04934342  0.08350715  1
  Ti  Ti55  1  0.16139072  -0.00183684  0.56524163  1
  Ti  Ti56  1  0.10378688  0.08774642  0.83426579  1
  Ti  Ti57  1  0.14924099  0.32750217  0.18607392  1
  Ti  Ti58  1  0.20720648  0.35615300  0.44368984  1
  Ti  Ti59  1  0.12222094  0.28459686  0.84198264  1
  Ti  Ti60  1  0.13656547  0.62840602  0.15531290  1
  Ti  Ti61  1  0.19658358  0.58334768  0.48229291  1
  Ti  Ti62  1  0.18393751  0.69977492  0.78801911  1
  Ti  Ti63  1  0.52841575  -0.01421009  0.14767150  1
  Ti  Ti64  1  0.52043981  0.03302973  0.42599344  1
  Ti  Ti65  1  0.56601500  -0.00224605  0.88014089  1
  Ti  Ti66  1  0.45524618  0.28461105  0.08019230  1
  Ti  Ti67  1  0.48805433  0.25882864  0.44692786  1
  Ti  Ti68  1  0.43793311  0.32855332  0.84008941  1
  Ti  Ti69  1  0.47254792  0.61833656  0.08624595  1
  Ti  Ti70  1  0.56377913  0.72150953  0.49897493  1
  Ti  Ti71  1  0.45499169  0.68403612  0.77338123  1
  Ti  Ti72  1  0.85412138  0.06493151  0.14501933  1
  Ti  Ti73  1  0.85216738  0.01244615  0.58782155  1
  Ti  Ti74  1  0.79903303  -0.02831148  0.78893186  1
  Ti  Ti75  1  0.83838483  0.35308205  0.09029470  1
  Ti  Ti76  1  0.89904321  0.37605536  0.52821943  1
  Ti  Ti77  1  0.83380812  0.31943915  0.89367290  1
  Ti  Ti78  1  0.80920352  0.55241593  0.21100421  1
  Ti  Ti79  1  0.76034507  0.69706204  0.48151308  1
  Ti  Ti80  1  0.75874766  0.68121871  0.85340478  1
  Ti  Ti81  1  0.17133775  0.14181260  0.12030797  1
  Ti  Ti82  1  0.24926680  0.16523133  0.29898650  1
  Ti  Ti83  1  0.08375739  0.16789413  0.66689423  1
  Ti  Ti84  1  0.21987128  0.58480104  -0.03028284  1
  Ti  Ti85  1  0.13353769  0.49983548  0.31559401  1
  Ti  Ti86  1  0.17498282  0.54563369  0.67707423  1
  Ti  Ti87  1  0.15607926  0.78899284  -0.04307860  1
  Ti  Ti88  1  0.14894689  0.87309686  0.37797185  1
  Ti  Ti89  1  0.16616236  0.88802758  0.74350430  1
  Ti  Ti90  1  0.56445417  0.18911382  -0.04430965  1
  Ti  Ti91  1  0.45175804  0.16501706  0.24947132  1
  Ti  Ti92  1  0.47795179  0.14663786  0.75354457  1
  Ti  Ti93  1  0.57764814  0.59726588  -0.09004061  1
  Ti  Ti94  1  0.49493069  0.46158777  0.36666487  1
  Ti  Ti95  1  0.52426368  0.43552133  0.67584629  1
  Ti  Ti96  1  0.50010553  0.77758440  -0.05666796  1
  Ti  Ti97  1  0.46914415  0.75141000  0.30743049  1
  Ti  Ti98  1  0.48525700  0.87719921  0.64509965  1
  Ti  Ti99  1  0.75921913  0.18475667  0.02069759  1
  Ti  Ti100  1  0.83954022  0.21789265  0.31108338  1
  Ti  Ti101  1  0.89385172  0.21076494  0.60129071  1
  Ti  Ti102  1  0.80967994  0.58727463  0.02972700  1
  Ti  Ti103  1  0.82179412  0.44598727  0.35993733  1
  Ti  Ti104  1  0.73764621  0.46075093  0.65864272  1
  Ti  Ti105  1  0.86359532  0.80086039  0.11268369  1
  Ti  Ti106  1  0.81672657  0.79323503  0.34092452  1
  Ti  Ti107  1  0.83456414  0.81873745  0.61303160  1
  Co  Co108  1  0.90114434  0.58828585  0.87751764  1
  Co  Co109  1  0.31788158  0.62536661  0.71041916  1
  Co  Co110  1  0.15138400  0.43456252  0.92269052  1
  Co  Co111  1  0.94855662  0.62613071  0.12648507  1
  Co  Co112  1  0.72920125  0.38391879  0.50588405  1
  Co  Co113  1  0.57890770  0.27700244  0.78079713  1
  Co  Co114  1  0.94517883  0.08769983  0.28815010  1
  Co  Co115  1  0.73600742  0.82001186  0.74317904  1
  Co  Co116  1  0.58419598  0.88255450  0.03265488  1
  Co  Co117  1  0.67051107  0.31778437  0.92196331  1
  Co  Co118  1  0.07437055  0.18571816  0.99028584  1
  Co  Co119  1  0.49572800  0.56076896  0.52568342  1
  Co  Co120  1  0.71410283  0.59041787  0.34065992  1
  Co  Co121  1  0.87906927  0.35488239  0.71051507  1
  Co  Co122  1  0.82157981  0.56879522  0.74195605  1
  Co  Co123  1  0.04975057  0.96986457  0.23546166  1
  Co  Co124  1  0.72714487  0.33582937  0.76344162  1
  Co  Co125  1  0.04860464  0.79610022  0.81367022  1
  Co  Co126  1  0.91499527  0.20812233  0.00024932  1
  Co  Co127  1  0.51748861  0.76704842  0.13796728  1
  Co  Co128  1  0.40993866  0.85595972  0.07545298  1
  Co  Co129  1  0.50094258  0.26723097  0.63968549  1
  Co  Co130  1  0.55119800  0.60910323  0.37342921  1
  Co  Co131  1  0.64152960  0.80758821  0.60839096  1
  Co  Co132  1  0.23854940  1.00148224  0.84387356  1
  Co  Co133  1  0.87702465  0.72109174  0.96883775  1
  Co  Co134  1  0.80493616  0.25109957  0.46555640  1
  Co  Co135  1  0.86637293  0.62945891  0.37190614  1
  Co  Co136  1  0.11119114  0.84870168  0.57821672  1
  Co  Co137  1  0.95250301  0.93398360  0.10295046  1
  Co  Co138  1  0.01813086  0.08753236  0.13023620  1
  Co  Co139  1  0.86124619  0.08674498  0.44279773  1
  Co  Co140  1  0.97220134  0.19479445  0.42501275  1
  Co  Co141  1  0.22337387  0.18813715  0.93607793  1
  Co  Co142  1  0.25002396  0.45011992  0.21483934  1
  Co  Co143  1  0.05405500  0.28686319  0.52919214  1
  Co  Co144  1  0.70477909  0.04305812  0.94437152  1
  Co  Co145  1  0.31081058  0.29559275  0.17785249  1
  Co  Co146  1  0.44172960  0.57735916  0.25157807  1
  Co  Co147  1  0.41258618  0.60756341  0.93784878  1
  Co  Co148  1  0.31917825  0.71349154  0.86988984  1
  Co  Co149  1  0.11844050  0.06283581  0.33976430  1
  Co  Co150  1  0.20769522  -0.03946995  0.23953604  1
  Co  Co151  1  0.44115477  0.88769051  0.22880388  1
  Co  Co152  1  0.55684436  0.39005519  0.52258270  1
  Co  Co153  1  0.31773275  0.18337177  0.07563991  1
  Co  Co154  1  0.37729944  0.08950959  0.37544660  1
  Co  Co155  1  0.17044297  0.73614486  0.45805593  1
  Co  Co156  1  0.40106206  0.03565699  0.84264127  1
  Co  Co157  1  0.60324892  0.90568589  0.75583224  1
  Co  Co158  1  0.23885499  1.01024158  0.42506847  1
  Co  Co159  1  0.59390159  0.43139338  0.82466957  1
  Co  Co160  1  0.92287541  0.71534091  0.24770645  1
  Co  Co161  1  -0.03056368  0.53398333  0.28410519  1
  Ni  Ni162  1  0.09033187  0.45233739  0.51091125  1
  Ni  Ni163  1  0.37236368  0.97124726  0.52470880  1
  Ni  Ni164  1  0.65006986  0.74714107  0.35473783  1
  Ni  Ni165  1  0.63320294  0.56741886  0.07108732  1
  Ni  Ni166  1  0.24794224  0.13285257  0.62172470  1
  Ni  Ni167  1  0.63531232  0.30784731  0.09058911  1
  Ni  Ni168  1  0.55345957  0.88551306  0.37105946  1
  Ni  Ni169  1  0.39435691  0.44540005  -0.02128802  1
  Ni  Ni170  1  0.21901235  0.67631676  0.30062763  1
  Ni  Ni171  1  0.43775583  0.82676952  0.47794742  1
  Ni  Ni172  1  0.61703058  0.57332003  0.75136077  1
  Ni  Ni173  1  0.64071613  0.08899630  0.08800454  1
  Ni  Ni174  1  0.92820132  0.49969766  0.63918519  1
  Ni  Ni175  1  0.30305484  0.57677597  0.12177413  1
  Ni  Ni176  1  0.44806694  0.97714179  0.99055498  1
  Ni  Ni177  1  0.46289694  0.11819774  0.07442970  1
  Ni  Ni178  1  0.51746829  0.32043287  0.25138130  1
  Ni  Ni179  1  0.81211977  0.53326688  0.51069478  1
  Ni  Ni180  1  0.05039778  0.61173201  0.59361906  1
  Ni  Ni181  1  0.32519338  0.80010727  0.71434680  1
  Ni  Ni182  1  0.03057290  0.75756105  0.06177924  1
  Ni  Ni183  1  0.22659420  0.41173220  0.59857743  1
  Ni  Ni184  1  0.56301449  0.14378999  0.54887681  1
  Ni  Ni185  1  0.74774089  0.34896295  0.22380745  1
  Ni  Ni186  1  0.84474244  0.11037852  0.87252872  1
  Ni  Ni187  1  0.09938296  0.94021763  0.90707524  1
  Ni  Ni188  1  0.19761571  0.27819878  0.68569850  1
  Ni  Ni189  1  0.88119174  0.79555950  0.79780672  1
  Ni  Ni190  1  0.35026018  0.41262583  0.71681352  1
  Ni  Ni191  1  0.07476548  0.20321670  0.28083247  1
  Ni  Ni192  1  0.71111877  0.94684804  0.63334773  1
  Ni  Ni193  1  0.59899818  0.17122890  0.36256800  1
  Ni  Ni194  1  0.38250281  0.38845423  0.47702303  1
  Ni  Ni195  1  -0.05622106  0.06475314  0.72782449  1
  Ni  Ni196  1  0.91256670  0.89983144  0.26154587  1
  Ni  Ni197  1  0.20278021  0.70927625  0.61963186  1
  Ni  Ni198  1  0.10500351  0.55748373  0.82979291  1
  Ni  Ni199  1  0.86990557  0.88852610  0.46154986  1
  Ni  Ni200  1  0.18952332  0.41520440  0.77004759  1
  Ni  Ni201  1  0.15486698  0.46968231  0.08111534  1
  Ni  Ni202  1  0.26424366  0.89596788  0.04337980  1
  Ni  Ni203  1  0.78682566  0.12956521  0.69699726  1
  Ni  Ni204  1  0.90295936  0.45703545  0.97554367  1
  Ni  Ni205  1  0.60768236  0.74124870  0.80265336  1
  Ni  Ni206  1  0.31611573  0.22648892  0.44961512  1
  Ni  Ni207  1  0.74835811  0.72460755  0.20317776  1
  Ni  Ni208  1  0.72215785  0.44106091  0.03395226  1
  Ni  Ni209  1  0.29995373  0.49185171  0.36853145  1
  Ni  Ni210  1  0.62813671  0.02664550  0.28811109  1
  Ni  Ni211  1  0.83676485  0.95914278  0.97256527  1
  Ni  Ni212  1  0.91338465  0.37612538  0.24227920  1
  Ni  Ni213  1  0.39709616  0.18828722  0.92637637  1
  Ni  Ni214  1  0.88350059  0.65361546  0.59792087  1
  Ni  Ni215  1  1.00183383  0.08210016  0.55766911  1
