# generated using pymatgen
data_Ti2CoNi
_symmetry_space_group_name_H-M   'P 1'
_cell_length_a   14.63105767
_cell_length_b   14.61689878
_cell_length_c   14.63362594
_cell_angle_alpha   89.93386542
_cell_angle_beta   90.14066513
_cell_angle_gamma   89.96691733
_symmetry_Int_Tables_number   1
_chemical_formula_structural   Ti2CoNi
_chemical_formula_sum   'Ti108 Co54 Ni54'
_cell_volume   3129.54528303
_cell_formula_units_Z   54
loop_
 _symmetry_equiv_pos_site_id
 _symmetry_equiv_pos_as_xyz
  1  'x, y, z'
loop_
 _atom_site_type_symbol
 _atom_site_label
 _atom_site_symmetry_multiplicity
 _atom_site_fract_x
 _atom_site_fract_y
 _atom_site_fract_z
 _atom_site_occupancy
  Ti  Ti0  1  -0.06043165  0.02721994  -0.03494662  1
  Ti  Ti1  1  0.02893429  -0.00884570  0.31253465  1
  Ti  Ti2  1  -0.02808716  -0.03322959  0.59714460  1
  Ti  Ti3  1  0.03847877  0.37926394  -0.02116139  1
  Ti  Ti4  1  -0.02996454  0.29915007  0.31308901  1
  Ti  Ti5  1  0.02596895  0.32381855  0.62716144  1
  Ti  Ti6  1  -0.03782470  0.60550699  0.00178090  1
  Ti  Ti7  1  0.06876098  0.56967539  0.38321704  1
  Ti  Ti8  1  0.02104411  0.72183971  0.63615180  1
  Ti  Ti9  1  0.37202778  0.02835438  0.00337984  1
  Ti  Ti10  1  0.32284770  -0.04725450  0.28757790  1
  Ti  Ti11  1  0.31569550  0.01116428  0.62027595  1
  Ti  Ti12  1  0.34907465  0.26575698  0.04043139  1
  Ti  Ti13  1  0.32897200  0.27152393  0.35533366  1
  Ti  Ti14  1  0.34757336  0.29641541  0.68838093  1
  Ti  Ti15  1  0.33064802  0.62959724  0.01010313  1
  Ti  Ti16  1  0.26073862  0.65841044  0.35149495  1
  Ti  Ti17  1  0.30484835  0.63986611  0.64841040  1
  Ti  Ti18  1  0.64561646  0.03976330  -0.04182055  1
  Ti  Ti19  1  0.64534414  0.01677204  0.34694517  1
  Ti  Ti20  1  0.70394724  -0.09506865  0.66608985  1
  Ti  Ti21  1  0.70555599  0.33425295  0.01927257  1
  Ti  Ti22  1  0.63527062  0.36915491  0.30101610  1
  Ti  Ti23  1  0.61009350  0.31760936  0.66076678  1
  Ti  Ti24  1  0.60261525  0.62477478  0.00501409  1
  Ti  Ti25  1  0.67262725  0.71120009  0.33092508  1
  Ti  Ti26  1  0.65480356  0.63454367  0.77253410  1
  Ti  Ti27  1  -0.02780587  0.15104631  0.17974122  1
  Ti  Ti28  1  0.03042328  0.20235382  0.48490554  1
  Ti  Ti29  1  0.07442289  0.17830494  0.90906034  1
  Ti  Ti30  1  -0.01721075  0.49814369  0.24100118  1
  Ti  Ti31  1  0.00491846  0.52935327  0.55643695  1
  Ti  Ti32  1  -0.02073590  0.42195332  0.79307384  1
  Ti  Ti33  1  0.04623743  0.85725048  0.14916630  1
  Ti  Ti34  1  0.06390417  0.84760069  0.47076099  1
  Ti  Ti35  1  -0.02952155  0.84973828  0.88400364  1
  Ti  Ti36  1  0.38716446  0.12713963  0.18032750  1
  Ti  Ti37  1  0.36990330  0.09665042  0.44445258  1
  Ti  Ti38  1  0.29455492  0.16646796  0.86118741  1
  Ti  Ti39  1  0.32341467  0.55770634  0.20240252  1
  Ti  Ti40  1  0.37095074  0.46673877  0.42205203  1
  Ti  Ti41  1  0.34881094  0.54026733  0.79894431  1
  Ti  Ti42  1  0.37675328  0.78999686  0.14051397  1
  Ti  Ti43  1  0.24443138  0.82900486  0.57805746  1
  Ti  Ti44  1  0.31994228  0.83752384  0.74805986  1
  Ti  Ti45  1  0.68806536  0.07800225  0.15660023  1
  Ti  Ti46  1  0.66500912  0.15127795  0.52599787  1
  Ti  Ti47  1  0.65383592  0.14378935  0.76853438  1
  Ti  Ti48  1  0.61024440  0.50827777  0.17141013  1
  Ti  Ti49  1  0.68741048  0.47005863  0.56618305  1
  Ti  Ti50  1  0.72795393  0.46497503  0.84815523  1
  Ti  Ti51  1  0.73051249  0.85554887  0.22907956  1
  Ti  Ti52  1  0.69418854  0.80479107  0.50374904  1
  Ti  Ti53  1  0.73752733  0.79575394  0.82990723  1
  Ti  Ti54  1  0.17824108  0.04428835  0.17271596  1
  Ti  Ti55  1  0.19337240  0.00865925  0.43045606  1
  Ti  Ti56  1  0.19237450  0.00951171  0.93311008  1
  Ti  Ti57  1  0.21407296  0.41029367  0.10199134  1
  Ti  Ti58  1  0.14384210  0.36829917  0.45843839  1
  Ti  Ti59  1  0.15508400  0.30179478  0.77991521  1
  Ti  Ti60  1  0.18271960  0.72430867  0.13525036  1
  Ti  Ti61  1  0.15873644  0.66995204  0.51508697  1
  Ti  Ti62  1  0.14340811  0.68378901  0.94481622  1
  Ti  Ti63  1  0.53034633  -0.05568082  0.21947585  1
  Ti  Ti64  1  0.52782926  -0.03112889  0.48405341  1
  Ti  Ti65  1  0.47757727  0.03763483  0.78127448  1
  Ti  Ti66  1  0.53045763  0.33897826  0.09702085  1
  Ti  Ti67  1  0.45979106  0.28399292  0.51561901  1
  Ti  Ti68  1  0.57155714  0.34259741  0.86795103  1
  Ti  Ti69  1  0.50142453  0.65179791  0.22753328  1
  Ti  Ti70  1  0.53276726  0.70428532  0.49391165  1
  Ti  Ti71  1  0.47672259  0.71283984  0.78510892  1
  Ti  Ti72  1  0.83889987  0.01967385  0.27468977  1
  Ti  Ti73  1  0.84990402  0.08021705  0.48269571  1
  Ti  Ti74  1  0.78865722  -0.00107686  0.83023274  1
  Ti  Ti75  1  0.88218999  0.34573554  0.10221583  1
  Ti  Ti76  1  0.86551331  0.38814279  0.49587897  1
  Ti  Ti77  1  0.86865091  0.30929905  0.89243316  1
  Ti  Ti78  1  0.85006981  0.70164899  0.13218956  1
  Ti  Ti79  1  0.83900092  0.65132120  0.52642862  1
  Ti  Ti80  1  0.89029688  0.66284708  0.82315903  1
  Ti  Ti81  1  0.13452989  0.23287090  0.09915406  1
  Ti  Ti82  1  0.12287505  0.18900343  0.30560070  1
  Ti  Ti83  1  0.08051017  0.09522973  0.71574835  1
  Ti  Ti84  1  0.19401194  0.48416065  -0.07467049  1
  Ti  Ti85  1  0.14590167  0.38998296  0.27201713  1
  Ti  Ti86  1  0.22199022  0.44736126  0.62928475  1
  Ti  Ti87  1  0.27181835  0.83471649  -0.04282408  1
  Ti  Ti88  1  0.09210984  0.74482198  0.31102340  1
  Ti  Ti89  1  0.11177315  0.88266278  0.74193913  1
  Ti  Ti90  1  0.49474165  0.15977580  -0.06721020  1
  Ti  Ti91  1  0.54770597  0.19550337  0.35675530  1
  Ti  Ti92  1  0.48689913  0.13187934  0.60660102  1
  Ti  Ti93  1  0.42231339  0.44907907  -0.04514934  1
  Ti  Ti94  1  0.56698972  0.52375605  0.40304376  1
  Ti  Ti95  1  0.51754197  0.54646717  0.66918995  1
  Ti  Ti96  1  0.53634496  0.85121951  0.02378580  1
  Ti  Ti97  1  0.43179465  0.80788850  0.35521138  1
  Ti  Ti98  1  0.49533773  0.89383077  0.65799412  1
  Ti  Ti99  1  0.77928056  0.16575694  -0.03758803  1
  Ti  Ti100  1  0.79484853  0.23026089  0.23990757  1
  Ti  Ti101  1  0.82891995  0.23208438  0.70812917  1
  Ti  Ti102  1  0.75950324  0.53073690  0.04017756  1
  Ti  Ti103  1  0.78088476  0.54718585  0.26485754  1
  Ti  Ti104  1  0.80930720  0.56237675  0.68866899  1
  Ti  Ti105  1  0.82634964  0.90125795  0.05830894  1
  Ti  Ti106  1  0.91332389  0.82091050  0.28914358  1
  Ti  Ti107  1  0.88772861  0.84539695  0.71258490  1
  Co  Co108  1  0.71822218  0.28402092  0.83042547  1
  Co  Co109  1  0.52730030  0.03769798  0.07339208  1
  Co  Co110  1  0.19530045  0.57277803  0.07711326  1
  Co  Co111  1  0.03815222  0.04275198  0.47123212  1
  Co  Co112  1  0.83240092  0.77236593  0.41268891  1
  Co  Co113  1  0.19185807  0.60859537  0.80732130  1
  Co  Co114  1  0.46932181  0.47483497  0.25662087  1
  Co  Co115  1  0.46873913  0.53506781  0.09074342  1
  Co  Co116  1  0.47329703  0.69729272  0.06401976  1
  Co  Co117  1  0.31777238  0.17910580  0.56994126  1
  Co  Co118  1  0.68954615  0.88802183  0.94322272  1
  Co  Co119  1  0.88912708  0.51108391  0.11847024  1
  Co  Co120  1  0.75404163  0.38797091  0.70540980  1
  Co  Co121  1  0.73654556  0.39772432  0.16415141  1
  Co  Co122  1  0.31018794  0.40045902  0.26271594  1
  Co  Co123  1  0.50168619  -0.03165304  0.92183799  1
  Co  Co124  1  0.66338454  0.62975069  0.58153761  1
  Co  Co125  1  0.05736905  0.49923447  0.08773404  1
  Co  Co126  1  0.13879443  0.46407459  0.76583138  1
  Co  Co127  1  0.48903416  0.36027180  0.37347576  1
  Co  Co128  1  0.05784052  -0.00372479  0.85289926  1
  Co  Co129  1  0.44762510  0.28638640  0.22555868  1
  Co  Co130  1  0.75706318  0.27545092  0.57137562  1
  Co  Co131  1  0.64042453  0.25385554  0.19399158  1
  Co  Co132  1  0.54791710  0.51917818  0.83305327  1
  Co  Co133  1  -0.00874873  0.69639809  0.45572310  1
  Co  Co134  1  0.80797437  0.92934829  0.54615548  1
  Co  Co135  1  0.37895414  0.40698395  0.12158904  1
  Co  Co136  1  0.22787456  1.00869633  0.75778255  1
  Co  Co137  1  0.04378650  0.54839893  0.87834615  1
  Co  Co138  1  0.18271065  0.73529560  0.70449566  1
  Co  Co139  1  0.71586866  0.60610342  0.43202514  1
  Co  Co140  1  0.59072643  0.84935649  0.36692541  1
  Co  Co141  1  0.90752706  0.80714700  0.55192672  1
  Co  Co142  1  0.46166135  0.62241350  0.91749455  1
  Co  Co143  1  0.54318851  0.13088251  0.21145123  1
  Co  Co144  1  0.47038393  0.04300393  0.33547389  1
  Co  Co145  1  0.16647606  0.10960936  0.56321642  1
  Co  Co146  1  0.14558257  0.95715260  0.59881290  1
  Co  Co147  1  0.94399997  0.13394145  0.34687774  1
  Co  Co148  1  0.20658184  0.20567424  0.44435305  1
  Co  Co149  1  0.17375237  0.27479929  0.60003507  1
  Co  Co150  1  0.26667289  0.24959806  0.19564936  1
  Co  Co151  1  0.76123312  0.91289590  0.38401306  1
  Co  Co152  1  0.59193248  0.74821428  0.90308282  1
  Co  Co153  1  0.22081924  0.16875451  0.70933398  1
  Co  Co154  1  0.00116178  0.42091441  0.40967666  1
  Co  Co155  1  0.92139405  0.92787328  0.42497725  1
  Co  Co156  1  0.14618875  0.57988949  0.23456027  1
  Co  Co157  1  0.59878967  0.45780372  0.99116245  1
  Co  Co158  1  0.36892547  0.12998446  0.72239023  1
  Co  Co159  1  0.90513867  0.13880463  0.85756253  1
  Co  Co160  1  0.13674238  0.58445876  0.65355983  1
  Co  Co161  1  0.66391070  0.92515685  0.10177128  1
  Ni  Ni162  1  0.29057205  0.38736460  0.82556974  1
  Ni  Ni163  1  0.43132429  0.74094341  0.62126909  1
  Ni  Ni164  1  0.76634971  0.73544800  0.66373813  1
  Ni  Ni165  1  0.88342531  0.54016373  0.40192991  1
  Ni  Ni166  1  0.24062317  0.13907798  1.03033597  1
  Ni  Ni167  1  0.42675340  0.62180502  0.36915316  1
  Ni  Ni168  1  0.59655940  0.75706027  0.65967509  1
  Ni  Ni169  1  0.84715580  0.24335177  0.42452731  1
  Ni  Ni170  1  0.60975806  0.19080640  0.04678416  1
  Ni  Ni171  1  0.98612735  0.57104109  0.72003250  1
  Ni  Ni172  1  0.00590858  0.76292164  0.02406517  1
  Ni  Ni173  1  0.51895980  0.43549691  0.54193445  1
  Ni  Ni174  1  0.30177464  0.33914223  0.52002814  1
  Ni  Ni175  1  0.23953955  0.83613867  0.41079378  1
  Ni  Ni176  1  0.73308303  0.44770983  0.40881609  1
  Ni  Ni177  1  0.88539762  0.47412990  0.93202844  1
  Ni  Ni178  1  0.85281363  0.76050366  0.96664708  1
  Ni  Ni179  1  0.34163719  0.71638002  0.48417510  1
  Ni  Ni180  1  0.74970684  0.64512593  0.91635159  1
  Ni  Ni181  1  0.62498404  0.32004841  0.47610509  1
  Ni  Ni182  1  0.83831880  0.39007065  0.29887634  1
  Ni  Ni183  1  0.92992016  1.01056193  0.75219287  1
  Ni  Ni184  1  0.23171902  0.89961974  0.10899085  1
  Ni  Ni185  1  0.39400226  0.94931895  0.13499135  1
  Ni  Ni186  1  1.01474118  0.66837867  0.17141466  1
  Ni  Ni187  1  0.62191527  0.95368304  0.80437593  1
  Ni  Ni188  1  0.03386128  0.34027345  0.15402044  1
  Ni  Ni189  1  0.95385586  0.98527984  0.15066720  1
  Ni  Ni190  1  0.31346582  0.70304611  0.85230363  1
  Ni  Ni191  1  0.70613573  0.76473084  0.04833010  1
  Ni  Ni192  1  0.27050747  0.11582598  0.30688455  1
  Ni  Ni193  1  0.40759029  0.29207314  0.87844371  1
  Ni  Ni194  1  0.45378691  0.40448295  0.75871738  1
  Ni  Ni195  1  0.15944114  0.89938881  0.27119549  1
  Ni  Ni196  1  0.99202903  0.24794590  0.77461741  1
  Ni  Ni197  1  0.89805172  0.43406123  0.64997685  1
  Ni  Ni198  1  0.04781830  0.71237468  0.80646302  1
  Ni  Ni199  1  0.39459668  0.87429003  0.51457324  1
  Ni  Ni200  1  0.94536360  0.14214147  0.62422181  1
  Ni  Ni201  1  0.50125677  0.22655803  0.75670123  1
  Ni  Ni202  1  0.84057637  0.09191712  0.10010389  1
  Ni  Ni203  1  0.73414224  0.14676083  0.36545551  1
  Ni  Ni204  1  0.20213761  0.30150516  0.95076543  1
  Ni  Ni205  1  0.42602797  0.57974874  0.53314839  1
  Ni  Ni206  1  0.22092900  0.49782285  0.37071846  1
  Ni  Ni207  1  0.08850717  0.90468307  0.99840535  1
  Ni  Ni208  1  0.34325107  0.95475526  0.85815562  1
  Ni  Ni209  1  0.07151868  0.07605035  0.05230969  1
  Ni  Ni210  1  0.27481099  0.78899360  0.25961721  1
  Ni  Ni211  1  0.78686950  0.06789249  0.64811711  1
  Ni  Ni212  1  0.68793870  0.66007712  0.17131427  1
  Ni  Ni213  1  0.57730627  0.78926305  0.18026152  1
  Ni  Ni214  1  0.61061768  0.03368977  0.64674684  1
  Ni  Ni215  1  0.95104718  0.20477549  0.01757061  1
