# generated using pymatgen
data_Ti2CoNi
_symmetry_space_group_name_H-M   'P 1'
_cell_length_a   14.53924475
_cell_length_b   14.55079494
_cell_length_c   14.53738305
_cell_angle_alpha   89.86926094
_cell_angle_beta   89.95158194
_cell_angle_gamma   89.93903634
_symmetry_Int_Tables_number   1
_chemical_formula_structural   Ti2CoNi
_chemical_formula_sum   'Ti108 Co54 Ni54'
_cell_volume   3075.48257729
_cell_formula_units_Z   54
loop_
 _symmetry_equiv_pos_site_id
 _symmetry_equiv_pos_as_xyz
  1  'x, y, z'
loop_
 _atom_site_type_symbol
 _atom_site_label
 _atom_site_symmetry_multiplicity
 _atom_site_fract_x
 _atom_site_fract_y
 _atom_site_fract_z
 _atom_site_occupancy
  Ti  Ti0  1  -0.03531654  -0.00396716  0.02627964  1
  Ti  Ti1  1  -0.04428329  -0.03773927  0.34041168  1
  Ti  Ti2  1  0.02173825  0.08729928  0.68783940  1
  Ti  Ti3  1  0.05244471  0.29684504  0.00731921  1
  Ti  Ti4  1  0.06786251  0.35403059  0.31866064  1
  Ti  Ti5  1  0.03403030  0.36900163  0.70449211  1
  Ti  Ti6  1  -0.06091405  0.71092604  -0.01587305  1
  Ti  Ti7  1  0.01100358  0.62089308  0.30594678  1
  Ti  Ti8  1  -0.01026110  0.65366280  0.65456284  1
  Ti  Ti9  1  0.43668241  0.02388133  -0.07263861  1
  Ti  Ti10  1  0.29878997  -0.05046115  0.35606592  1
  Ti  Ti11  1  0.25674637  -0.01795928  0.72251514  1
  Ti  Ti12  1  0.34105654  0.29785180  -0.03647777  1
  Ti  Ti13  1  0.26172462  0.26719394  0.30606798  1
  Ti  Ti14  1  0.29911793  0.35344638  0.65247931  1
  Ti  Ti15  1  0.26975446  0.58757369  -0.02334570  1
  Ti  Ti16  1  0.33546931  0.65528344  0.33467949  1
  Ti  Ti17  1  0.33104903  0.68742943  0.66940113  1
  Ti  Ti18  1  0.63691518  -0.03063064  -0.04365125  1
  Ti  Ti19  1  0.64546237  0.03431088  0.36043725  1
  Ti  Ti20  1  0.60198863  0.07606401  0.68538854  1
  Ti  Ti21  1  0.71528889  0.29412810  0.10365660  1
  Ti  Ti22  1  0.71758077  0.32659720  0.36525363  1
  Ti  Ti23  1  0.61416501  0.31693318  0.64580612  1
  Ti  Ti24  1  0.61402328  0.71536732  -0.03519111  1
  Ti  Ti25  1  0.67783686  0.67726662  0.31150887  1
  Ti  Ti26  1  0.59013243  0.63169019  0.66891428  1
  Ti  Ti27  1  0.03794156  0.13206413  0.11788122  1
  Ti  Ti28  1  0.00123440  0.10196616  0.49233757  1
  Ti  Ti29  1  0.02539093  0.21768243  0.82699376  1
  Ti  Ti30  1  0.03496062  0.53753190  0.14575686  1
  Ti  Ti31  1  0.04130725  0.53285316  0.53364780  1
  Ti  Ti32  1  -0.02660786  0.43033624  0.89785378  1
  Ti  Ti33  1  -0.03461692  0.79154837  0.22688653  1
  Ti  Ti34  1  0.05331754  0.88692290  0.49704894  1
  Ti  Ti35  1  0.01850703  0.87355311  0.89775717  1
  Ti  Ti36  1  0.36241243  0.12611351  0.20652139  1
  Ti  Ti37  1  0.29376741  0.21582812  0.49511800  1
  Ti  Ti38  1  0.30798645  0.20421532  0.78755381  1
  Ti  Ti39  1  0.33995067  0.55061007  0.17143510  1
  Ti  Ti40  1  0.40403317  0.48718450  0.40581561  1
  Ti  Ti41  1  0.39711054  0.53038024  0.73994663  1
  Ti  Ti42  1  0.38717250  0.82846711  0.15627048  1
  Ti  Ti43  1  0.34794489  0.88492898  0.55346241  1
  Ti  Ti44  1  0.27386274  0.77854497  0.86393536  1
  Ti  Ti45  1  0.70529787  0.10401485  0.15938285  1
  Ti  Ti46  1  0.57004969  0.18550586  0.50742959  1
  Ti  Ti47  1  0.67152368  0.21505097  0.79695815  1
  Ti  Ti48  1  0.58642832  0.47359806  0.16753882  1
  Ti  Ti49  1  0.67817079  0.55443806  0.52241256  1
  Ti  Ti50  1  0.66509935  0.53170009  0.87808677  1
  Ti  Ti51  1  0.63924289  0.93494524  0.19197703  1
  Ti  Ti52  1  0.71551107  0.88383924  0.50195787  1
  Ti  Ti53  1  0.71947452  0.73943358  0.81995642  1
  Ti  Ti54  1  0.22514569  -0.01046014  0.18199138  1
  Ti  Ti55  1  0.18010501  0.03253360  0.53011923  1
  Ti  Ti56  1  0.21708982  0.01086264  0.90397353  1
  Ti  Ti57  1  0.19488731  0.39592028  0.15122848  1
  Ti  Ti58  1  0.11855632  0.36416602  0.50538819  1
  Ti  Ti59  1  0.20862376  0.40574818  0.88482943  1
  Ti  Ti60  1  0.21797467  0.71445464  0.15455235  1
  Ti  Ti61  1  0.15285765  0.69908551  0.42291565  1
  Ti  Ti62  1  0.13986199  0.68146645  0.77690887  1
  Ti  Ti63  1  0.48306071  0.01229680  0.09905457  1
  Ti  Ti64  1  0.51617981  -0.05136927  0.49922271  1
  Ti  Ti65  1  0.49674428  -0.07036478  0.72479340  1
  Ti  Ti66  1  0.47357812  0.34239297  0.09959400  1
  Ti  Ti67  1  0.45007692  0.30819082  0.43957012  1
  Ti  Ti68  1  0.53580022  0.35636621  0.86079718  1
  Ti  Ti69  1  0.53406288  0.66635818  0.14235484  1
  Ti  Ti70  1  0.46168504  0.65261279  0.51843079  1
  Ti  Ti71  1  0.48752453  0.73593436  0.78115669  1
  Ti  Ti72  1  0.84899958  -0.05519623  0.16230233  1
  Ti  Ti73  1  0.82464128  0.03884824  0.49145548  1
  Ti  Ti74  1  0.88525911  0.07543437  0.86467927  1
  Ti  Ti75  1  0.90973742  0.29553171  0.19502045  1
  Ti  Ti76  1  0.83457054  0.26192688  0.53180346  1
  Ti  Ti77  1  0.84186792  0.32351142  0.82748066  1
  Ti  Ti78  1  0.85634458  0.63509428  0.15694053  1
  Ti  Ti79  1  0.79490161  0.68871275  0.58337121  1
  Ti  Ti80  1  0.84954574  0.56619755  0.84305334  1
  Ti  Ti81  1  0.21602964  0.18767791  0.08326791  1
  Ti  Ti82  1  0.08447125  0.13987428  0.30127846  1
  Ti  Ti83  1  0.14333453  0.21900221  0.62983576  1
  Ti  Ti84  1  0.08106320  0.58495287  -0.05724061  1
  Ti  Ti85  1  0.22888872  0.46601393  0.33537504  1
  Ti  Ti86  1  0.19852386  0.52150473  0.64922169  1
  Ti  Ti87  1  0.12775909  0.86171753  0.08048188  1
  Ti  Ti88  1  0.11959826  0.84604038  0.30079368  1
  Ti  Ti89  1  0.18242993  0.81340302  0.63804700  1
  Ti  Ti90  1  0.57810277  0.19734374  -0.01347370  1
  Ti  Ti91  1  0.44087910  0.11853981  0.37511212  1
  Ti  Ti92  1  0.42918734  0.09714346  0.60622387  1
  Ti  Ti93  1  0.47247841  0.53397137  -0.00357519  1
  Ti  Ti94  1  0.62834836  0.49683658  0.35560964  1
  Ti  Ti95  1  0.49643680  0.45476611  0.58550039  1
  Ti  Ti96  1  0.43665003  0.79846750  -0.02487829  1
  Ti  Ti97  1  0.47621684  0.83353527  0.34302625  1
  Ti  Ti98  1  0.64478855  0.81205577  0.65650579  1
  Ti  Ti99  1  0.76228366  0.16971853  -0.03040233  1
  Ti  Ti100  1  0.88146724  0.15919245  0.34904043  1
  Ti  Ti101  1  0.82920637  0.08776736  0.68980977  1
  Ti  Ti102  1  0.78055107  0.46376770  0.04330962  1
  Ti  Ti103  1  0.81933803  0.52032383  0.35141801  1
  Ti  Ti104  1  0.80196789  0.45905489  0.65170727  1
  Ti  Ti105  1  0.77364927  0.83420398  0.02494094  1
  Ti  Ti106  1  0.78396142  0.83590790  0.29473661  1
  Ti  Ti107  1  0.83964442  0.87004180  0.69543324  1
  Co  Co108  1  0.14879571  0.86678572  0.80309934  1
  Co  Co109  1  0.27537346  0.81160030  0.27554637  1
  Co  Co110  1  0.43013323  0.26465428  0.60113557  1
  Co  Co111  1  0.87403726  0.78733712  0.86071045  1
  Co  Co112  1  0.61462824  0.32308506  0.22569454  1
  Co  Co113  1  0.18583232  0.55997246  0.10956542  1
  Co  Co114  1  0.79412585  1.00000332  0.30917316  1
  Co  Co115  1  0.56466391  0.84333006  0.87215461  1
  Co  Co116  1  0.91070282  0.55180896  -0.00053480  1
  Co  Co117  1  0.93270135  -0.02960788  0.59096296  1
  Co  Co118  1  0.45124289  0.36783082  0.72486298  1
  Co  Co119  1  0.58745860  0.20922780  0.33674340  1
  Co  Co120  1  0.04995737  1.04235423  0.87905040  1
  Co  Co121  1  0.07477638  0.50437096  0.38289425  1
  Co  Co122  1  0.20648983  0.55008776  0.47600336  1
  Co  Co123  1  0.56099033  0.19293468  0.15033545  1
  Co  Co124  1  0.67060494  0.91067566  0.78174600  1
  Co  Co125  1  0.95644530  0.84197359  0.07725320  1
  Co  Co126  1  0.28940216  0.68265256  0.51808305  1
  Co  Co127  1  0.85525568  0.70631828  0.72747331  1
  Co  Co128  1  0.21008842  0.85222853  0.46137307  1
  Co  Co129  1  0.18470503  0.22134152  0.91289665  1
  Co  Co130  1  0.36884969  0.40883825  0.24706856  1
  Co  Co131  1  0.56479644  0.08243986  0.84636993  1
  Co  Co132  1  0.04973543  0.96972757  0.19450785  1
  Co  Co133  1  0.72671950  0.97582143  0.64329826  1
  Co  Co134  1  0.00316167  0.80576462  0.73776014  1
  Co  Co135  1  0.80375316  0.92371259  0.88007895  1
  Co  Co136  1  0.08332036  0.93729958  0.65769542  1
  Co  Co137  1  0.16098591  0.12065360  0.77498671  1
  Co  Co138  1  0.76403427  0.22228220  0.25240855  1
  Co  Co139  1  0.17763760  0.60625529  0.27536720  1
  Co  Co140  1  0.31968348  0.43693313  0.05138422  1
  Co  Co141  1  0.32711642  0.28856386  0.14871177  1
  Co  Co142  1  0.76154487  0.40925155  0.22464859  1
  Co  Co143  1  0.50780494  0.21039202  0.73531915  1
  Co  Co144  1  0.44834963  0.26040377  0.26765998  1
  Co  Co145  1  -0.01565235  0.65864763  0.82616680  1
  Co  Co146  1  0.34424409  0.84060212  0.70981660  1
  Co  Co147  1  0.71618600  0.56465283  0.19581134  1
  Co  Co148  1  0.17120780  0.30211794  0.76902271  1
  Co  Co149  1  0.95052803  0.95910614  0.76763772  1
  Co  Co150  1  0.35518437  0.78636101  0.42483077  1
  Co  Co151  1  0.31235496  0.12387650  0.96805588  1
  Co  Co152  1  0.95495298  0.79469659  0.58353649  1
  Co  Co153  1  0.38171237  0.45508014  0.88835996  1
  Co  Co154  1  0.24958055  0.11312362  0.35870030  1
  Co  Co155  1  0.14513853  0.66495185  0.59552457  1
  Co  Co156  1  0.63502185  0.85993847  0.36994553  1
  Co  Co157  1  0.72930744  0.58286790  0.72515169  1
  Co  Co158  1  0.42559811  0.17972781  0.05957473  1
  Co  Co159  1  0.51966740  0.39900445  0.32006194  1
  Co  Co160  1  0.53820322  0.07653366  0.24557281  1
  Co  Co161  1  0.13658393  0.02170338  0.04115736  1
  Ni  Ni162  1  0.70487151  0.32550310  0.92697352  1
  Ni  Ni163  1  0.94669876  0.50363573  0.71724778  1
  Ni  Ni164  1  0.41369281  0.07052718  0.76711072  1
  Ni  Ni165  1  0.11087861  0.44675146  0.01806919  1
  Ni  Ni166  1  0.86182999  0.31296967  -0.00025659  1
  Ni  Ni167  1  0.94402058  0.41977521  1.09028670  1
  Ni  Ni168  1  0.89388185  0.23447547  0.70602838  1
  Ni  Ni169  1  0.61131661  0.37852545  0.48848295  1
  Ni  Ni170  1  0.57110974  0.84397496  0.06894889  1
  Ni  Ni171  1  0.61739579  0.72507786  0.50739216  1
  Ni  Ni172  1  0.38814108  0.64336341  0.87652907  1
  Ni  Ni173  1  0.72707766  0.16634409  0.42420483  1
  Ni  Ni174  1  -0.00785041  0.24663839  0.58200703  1
  Ni  Ni175  1  0.93982522  0.40523399  0.56560443  1
  Ni  Ni176  1  -0.02136591  0.74426968  0.41719905  1
  Ni  Ni177  1  0.64743430  0.57660648  0.04461885  1
  Ni  Ni178  1  0.58156461  0.79109799  0.22981869  1
  Ni  Ni179  1  0.12418792  -0.00319596  0.37185107  1
  Ni  Ni180  1  0.42072212  0.96657544  0.24868857  1
  Ni  Ni181  1  0.70282859  0.73014940  0.14005585  1
  Ni  Ni182  1  0.13115393  0.74445164  0.95039159  1
  Ni  Ni183  1  0.94099923  0.17439739  0.98577767  1
  Ni  Ni184  1  0.79237198  0.42361256  0.48498047  1
  Ni  Ni185  1  0.34663706  0.52849089  0.56509092  1
  Ni  Ni186  1  0.87701704  0.86790213  0.45840055  1
  Ni  Ni187  1  0.09487628  0.50541927  0.79002408  1
  Ni  Ni188  1  0.38684846  0.89945020  0.84925195  1
  Ni  Ni189  1  0.38289469  0.67494013  0.06501408  1
  Ni  Ni190  1  0.71628246  0.17249082  0.59920973  1
  Ni  Ni191  1  0.28298455  0.39270682  0.48873977  1
  Ni  Ni192  1  0.48305058  0.79447689  0.61147022  1
  Ni  Ni193  1  0.79047838  0.01462027  0.01911227  1
  Ni  Ni194  1  0.09650308  0.27034259  0.18295271  1
  Ni  Ni195  1  0.47437805  0.55410520  0.26149107  1
  Ni  Ni196  1  0.77936527  0.65908768  1.00356037  1
  Ni  Ni197  1  0.53254641  0.64774662  0.37562797  1
  Ni  Ni198  1  0.55603834  0.49820534  0.76230650  1
  Ni  Ni199  1  0.27349359  0.12465699  0.63934867  1
  Ni  Ni200  1  0.65077657  0.04223892  0.52307655  1
  Ni  Ni201  1  0.76517821  0.73814672  0.43739132  1
  Ni  Ni202  1  0.44552185  0.19272784  0.88621354  1
  Ni  Ni203  1  0.13142125  0.20294052  0.44647803  1
  Ni  Ni204  1  0.05169956  0.69873042  0.10976470  1
  Ni  Ni205  1  0.72258050  0.05612030  0.82474311  1
  Ni  Ni206  1  0.97274073  0.27381254  0.42137316  1
  Ni  Ni207  1  0.60325395  0.42197455  1.00411002  1
  Ni  Ni208  1  0.34066374  0.04017184  0.48747431  1
  Ni  Ni209  1  0.91667915  0.08486342  0.21129669  1
  Ni  Ni210  1  0.31409480  0.91464629  0.02134394  1
  Ni  Ni211  1  0.24930479  0.55829664  0.81361934  1
  Ni  Ni212  1  0.88180387  0.57241154  0.49913604  1
  Ni  Ni213  1  0.85717025  0.68194475  0.32173743  1
  Ni  Ni214  1  0.69695691  0.39877300  0.77269590  1
  Ni  Ni215  1  0.94474885  0.45524447  0.26699414  1
