# generated using pymatgen
data_Ti2CoNi
_symmetry_space_group_name_H-M   'P 1'
_cell_length_a   14.57605813
_cell_length_b   14.65477783
_cell_length_c   14.67020036
_cell_angle_alpha   89.95419589
_cell_angle_beta   89.72562959
_cell_angle_gamma   90.24609284
_symmetry_Int_Tables_number   1
_chemical_formula_structural   Ti2CoNi
_chemical_formula_sum   'Ti108 Co54 Ni54'
_cell_volume   3133.61938000
_cell_formula_units_Z   54
loop_
 _symmetry_equiv_pos_site_id
 _symmetry_equiv_pos_as_xyz
  1  'x, y, z'
loop_
 _atom_site_type_symbol
 _atom_site_label
 _atom_site_symmetry_multiplicity
 _atom_site_fract_x
 _atom_site_fract_y
 _atom_site_fract_z
 _atom_site_occupancy
  Ti  Ti0  1  -0.00419463  0.06372294  -0.00771493  1
  Ti  Ti1  1  -0.01684795  -0.00933774  0.34410231  1
  Ti  Ti2  1  0.04193425  0.00989213  0.65348454  1
  Ti  Ti3  1  0.08905042  0.25010714  -0.05856354  1
  Ti  Ti4  1  0.00319535  0.34264740  0.40010270  1
  Ti  Ti5  1  -0.02536563  0.39949181  0.63481637  1
  Ti  Ti6  1  0.04335015  0.73264183  0.01842460  1
  Ti  Ti7  1  0.00828125  0.61863394  0.29690570  1
  Ti  Ti8  1  0.08245688  0.59883647  0.65428913  1
  Ti  Ti9  1  0.38520690  0.06841893  -0.05635691  1
  Ti  Ti10  1  0.27484519  0.00592380  0.34373456  1
  Ti  Ti11  1  0.34586734  -0.03344907  0.64090350  1
  Ti  Ti12  1  0.40481362  0.25624658  0.00252055  1
  Ti  Ti13  1  0.36174188  0.29494517  0.33098933  1
  Ti  Ti14  1  0.30126254  0.30446809  0.67752884  1
  Ti  Ti15  1  0.29300029  0.67974849  -0.02062199  1
  Ti  Ti16  1  0.34114256  0.58727064  0.40414888  1
  Ti  Ti17  1  0.38401917  0.76970121  0.62992600  1
  Ti  Ti18  1  0.71737531  -0.10578299  0.05516991  1
  Ti  Ti19  1  0.63124481  -0.01280376  0.30884327  1
  Ti  Ti20  1  0.75639883  -0.06159231  0.68784494  1
  Ti  Ti21  1  0.63132365  0.30203397  -0.00868406  1
  Ti  Ti22  1  0.62804383  0.33803225  0.43427538  1
  Ti  Ti23  1  0.69365365  0.37652356  0.65796014  1
  Ti  Ti24  1  0.61865547  0.72290941  0.03714909  1
  Ti  Ti25  1  0.69108164  0.65233599  0.30134635  1
  Ti  Ti26  1  0.67105881  0.60548367  0.65624072  1
  Ti  Ti27  1  -0.07031717  0.15708502  0.26467103  1
  Ti  Ti28  1  -0.00791971  0.20678936  0.57317888  1
  Ti  Ti29  1  0.03274977  0.16691059  0.76835036  1
  Ti  Ti30  1  0.04015075  0.53063696  0.11241935  1
  Ti  Ti31  1  -0.05721237  0.54656948  0.49407761  1
  Ti  Ti32  1  -0.03739023  0.48484389  0.82104087  1
  Ti  Ti33  1  -0.01517222  0.87264849  0.13943378  1
  Ti  Ti34  1  -0.03311904  0.87605691  0.53416550  1
  Ti  Ti35  1  -0.03868139  0.83387044  0.85327183  1
  Ti  Ti36  1  0.21137278  0.20492423  0.09178097  1
  Ti  Ti37  1  0.34792194  0.22720901  0.51485989  1
  Ti  Ti38  1  0.37800354  0.19635027  0.79982940  1
  Ti  Ti39  1  0.29035806  0.50103045  0.10153742  1
  Ti  Ti40  1  0.38021844  0.44988063  0.55904623  1
  Ti  Ti41  1  0.35565265  0.56116530  0.81704454  1
  Ti  Ti42  1  0.32092675  0.83906824  0.21065052  1
  Ti  Ti43  1  0.28979475  0.86752043  0.47146571  1
  Ti  Ti44  1  0.36556894  0.77478051  0.82899892  1
  Ti  Ti45  1  0.74285548  0.17268468  0.13670565  1
  Ti  Ti46  1  0.67622504  0.19873932  0.57332031  1
  Ti  Ti47  1  0.67069006  0.12487970  0.86517920  1
  Ti  Ti48  1  0.65833146  0.45220820  0.18555343  1
  Ti  Ti49  1  0.71045766  0.51801419  0.48168583  1
  Ti  Ti50  1  0.74320636  0.51629430  0.80930837  1
  Ti  Ti51  1  0.54057453  0.81833243  0.19328689  1
  Ti  Ti52  1  0.67587181  0.73022987  0.50239771  1
  Ti  Ti53  1  0.61309082  0.82691468  0.85160195  1
  Ti  Ti54  1  0.22493673  0.01127111  0.15477819  1
  Ti  Ti55  1  0.13550571  0.05365582  0.48188280  1
  Ti  Ti56  1  0.16884651  -0.06058148  0.79052747  1
  Ti  Ti57  1  0.17313259  0.36672045  0.21550379  1
  Ti  Ti58  1  0.15398832  0.27355035  0.49678399  1
  Ti  Ti59  1  0.29109358  0.36598498  0.86687064  1
  Ti  Ti60  1  0.18519399  0.67835712  0.16310443  1
  Ti  Ti61  1  0.13247702  0.61672681  0.45233151  1
  Ti  Ti62  1  0.15710152  0.63652325  0.83840875  1
  Ti  Ti63  1  0.43510748  0.02650311  0.21013948  1
  Ti  Ti64  1  0.48741131  0.06870274  0.51531013  1
  Ti  Ti65  1  0.46207751  -0.05473951  0.80195492  1
  Ti  Ti66  1  0.46092086  0.37657773  0.13913233  1
  Ti  Ti67  1  0.50356230  0.29703010  0.63186150  1
  Ti  Ti68  1  0.50098467  0.36143169  0.85215443  1
  Ti  Ti69  1  0.42732790  0.66042426  0.12171548  1
  Ti  Ti70  1  0.52516775  0.59434839  0.46823123  1
  Ti  Ti71  1  0.56082606  0.61260172  0.85446264  1
  Ti  Ti72  1  0.88032368  0.03235697  0.13461744  1
  Ti  Ti73  1  0.77894574  0.02969145  0.47531909  1
  Ti  Ti74  1  0.85345754  0.04905872  0.84565479  1
  Ti  Ti75  1  0.85932111  0.33158559  0.25676451  1
  Ti  Ti76  1  0.82371655  0.34172914  0.46714036  1
  Ti  Ti77  1  0.83976100  0.33249070  0.88458662  1
  Ti  Ti78  1  0.87249674  0.70009742  0.18611826  1
  Ti  Ti79  1  0.85632847  0.73026220  0.41116770  1
  Ti  Ti80  1  0.76269235  0.72485953  0.81539938  1
  Ti  Ti81  1  0.19006150  0.04029861  -0.03528820  1
  Ti  Ti82  1  0.13251168  0.14064392  0.26797153  1
  Ti  Ti83  1  0.20772113  0.13196311  0.65497423  1
  Ti  Ti84  1  0.11428281  0.44574454  -0.05246583  1
  Ti  Ti85  1  0.22347243  0.43684486  0.41020800  1
  Ti  Ti86  1  0.17499857  0.45410006  0.72772915  1
  Ti  Ti87  1  0.22179724  0.85448026  0.02382962  1
  Ti  Ti88  1  0.15370726  0.78288840  0.33391320  1
  Ti  Ti89  1  0.14120756  0.78106117  0.58090386  1
  Ti  Ti90  1  0.55212691  0.11569491  0.04648883  1
  Ti  Ti91  1  0.53549093  0.19588000  0.30826340  1
  Ti  Ti92  1  0.53798645  0.10707048  0.70709708  1
  Ti  Ti93  1  0.56138710  0.52831677  0.04225085  1
  Ti  Ti94  1  0.47205316  0.52497658  0.25989243  1
  Ti  Ti95  1  0.48429807  0.58624499  0.67741098  1
  Ti  Ti96  1  0.48946818  0.89915297  -0.00774065  1
  Ti  Ti97  1  0.53845204  0.80792763  0.39099775  1
  Ti  Ti98  1  0.56115866  0.89038309  0.63446312  1
  Ti  Ti99  1  0.92274788  0.26168822  0.06779261  1
  Ti  Ti100  1  0.73647926  0.17000267  0.33853992  1
  Ti  Ti101  1  0.84445563  0.11678596  0.65252324  1
  Ti  Ti102  1  0.78361821  0.48250848  0.00903618  1
  Ti  Ti103  1  0.85150029  0.51141345  0.19926077  1
  Ti  Ti104  1  0.87726402  0.58923556  0.69331875  1
  Ti  Ti105  1  0.82828076  0.74047886  0.00360391  1
  Ti  Ti106  1  0.80495080  0.87586178  0.24117985  1
  Ti  Ti107  1  0.86129775  0.78122823  0.66419019  1
  Co  Co108  1  0.58314584  0.63506484  0.18457804  1
  Co  Co109  1  0.70839545  0.75814157  0.17266745  1
  Co  Co110  1  0.02991506  0.01565387  0.84316628  1
  Co  Co111  1  0.89573196  0.59842982  0.05115046  1
  Co  Co112  1  0.78435325  0.20811454  0.77687167  1
  Co  Co113  1  0.15392000  0.60621442  0.01847958  1
  Co  Co114  1  0.38435502  0.13589946  0.64608790  1
  Co  Co115  1  0.18932012  0.26538176  0.79060309  1
  Co  Co116  1  0.92315505  0.18916430  0.89695373  1
  Co  Co117  1  0.65882042  0.03897204  0.60437043  1
  Co  Co118  1  0.60066113  0.10859618  0.20032025  1
  Co  Co119  1  0.03382398  0.27811824  0.24224883  1
  Co  Co120  1  0.36811508  0.12991840  0.09895324  1
  Co  Co121  1  0.22669469  0.55298032  0.56474514  1
  Co  Co122  1  0.83131922  0.28064301  0.61415679  1
  Co  Co123  1  0.31696600  0.91496237  0.90147087  1
  Co  Co124  1  0.37513177  0.61588794  0.56843865  1
  Co  Co125  1  0.53806214  0.72029384  0.58557664  1
  Co  Co126  1  0.25824474  0.20597210  0.93206015  1
  Co  Co127  1  0.05816375  0.35542531  0.80787634  1
  Co  Co128  1  0.57205036  0.96206791  0.12158450  1
  Co  Co129  1  1.00606748  0.43724677  0.23445926  1
  Co  Co130  1  0.90473406  0.47775004  0.35670582  1
  Co  Co131  1  0.26222826  0.70566391  0.49997480  1
  Co  Co132  1  0.58757769  0.26898433  0.13802777  1
  Co  Co133  1  0.42273605  0.57818920  0.97211716  1
  Co  Co134  1  0.73512814  0.60420431  0.11729288  1
  Co  Co135  1  0.49894250  0.24378376  0.46093073  1
  Co  Co136  1  0.53564242  0.36059239  0.28429230  1
  Co  Co137  1  0.62369795  0.11502308  0.44293605  1
  Co  Co138  1  1.05081430  0.17417487  0.11110437  1
  Co  Co139  1  0.30262182  0.15121336  0.24417380  1
  Co  Co140  1  0.42305960  0.73171341  0.46699877  1
  Co  Co141  1  0.51633617  0.74369835  0.75172548  1
  Co  Co142  1  0.72117043  1.01141143  0.16837269  1
  Co  Co143  1  0.11278178  0.89884900  0.45041444  1
  Co  Co144  1  0.83687868  0.40885830  0.73495640  1
  Co  Co145  1  0.06983957  0.48607347  0.37359165  1
  Co  Co146  1  0.26109044  0.51361940  0.93681000  1
  Co  Co147  1  0.08691370  0.46070533  0.53762436  1
  Co  Co148  1  0.18659053  0.93991711  0.60731975  1
  Co  Co149  1  0.17321961  0.11177831  0.82607907  1
  Co  Co150  1  0.24008796  0.35794822  0.02984866  1
  Co  Co151  1  0.22753690  0.39353581  0.57190223  1
  Co  Co152  1  0.92802749  0.27663327  0.74422274  1
  Co  Co153  1  0.81712201  0.47295529  0.58987389  1
  Co  Co154  1  0.32446448  0.29986263  0.16955033  1
  Co  Co155  1  0.10840508  0.29808854  0.65349300  1
  Co  Co156  1  0.81724043  0.03428220  0.30274297  1
  Co  Co157  1  0.29817231  0.05647050  0.51183566  1
  Co  Co158  1  0.03491056  0.82201673  0.69631270  1
  Co  Co159  1  0.07242678  0.34626381  0.08775595  1
  Co  Co160  1  0.86099553  0.61790761  0.88282361  1
  Co  Co161  1  0.35276407  0.96778438  0.06730554  1
  Ni  Ni162  1  0.38028431  0.80373208  0.06034371  1
  Ni  Ni163  1  0.47435012  0.41981030  0.42630244  1
  Ni  Ni164  1  0.32244337  0.44802945  0.26672571  1
  Ni  Ni165  1  0.39931319  0.42436491  -0.01535718  1
  Ni  Ni166  1  0.87229853  0.18518024  0.44456397  1
  Ni  Ni167  1  0.41047496  0.42569610  0.72937359  1
  Ni  Ni168  1  0.97447921  0.69823893  0.57897316  1
  Ni  Ni169  1  0.99227809  0.67846724  0.78522492  1
  Ni  Ni170  1  0.47851810  0.72719471  0.94479937  1
  Ni  Ni171  1  0.67864998  0.77742701  0.67306903  1
  Ni  Ni172  1  0.76551309  0.33950018  0.10440805  1
  Ni  Ni173  1  0.45188226  0.89899890  0.50826688  1
  Ni  Ni174  1  0.60440708  0.50106341  0.34843519  1
  Ni  Ni175  1  0.62705111  -0.01960058  0.94380994  1
  Ni  Ni176  1  0.56226207  0.45835719  0.57886493  1
  Ni  Ni177  1  0.77785514  0.04265725  -0.00383477  1
  Ni  Ni178  1  0.58261529  0.46676556  0.74929284  1
  Ni  Ni179  1  0.75185894  0.44160104  0.33405302  1
  Ni  Ni180  1  0.94736695  0.42890557  1.00223924  1
  Ni  Ni181  1  0.02470145  0.74530263  0.43291521  1
  Ni  Ni182  1  0.76469573  0.86397030  0.53685304  1
  Ni  Ni183  1  0.31681918  0.75080406  0.34656667  1
  Ni  Ni184  1  0.06650070  0.90337433  0.96911628  1
  Ni  Ni185  1  0.26178735  0.64757258  0.69862802  1
  Ni  Ni186  1  0.23969646  0.81281492  0.71799483  1
  Ni  Ni187  1  0.23906019  0.17099590  0.39614050  1
  Ni  Ni188  1  0.85731848  0.90052095  0.40383854  1
  Ni  Ni189  1  0.13160309  0.94253394  0.28707261  1
  Ni  Ni190  1  0.16900289  0.53391888  0.25360817  1
  Ni  Ni191  1  0.63332991  0.45210912  0.91337465  1
  Ni  Ni192  1  0.77307979  0.20668324  0.97239923  1
  Ni  Ni193  1  0.31656988  0.04064496  0.78441809  1
  Ni  Ni194  1  0.39916913  0.11966772  0.38000013  1
  Ni  Ni195  1  0.03764388  0.17167489  0.40311211  1
  Ni  Ni196  1  0.61295610  0.25216045  0.75530186  1
  Ni  Ni197  1  0.89319538  0.91168402  -0.00359121  1
  Ni  Ni198  1  0.96109131  0.80911603  0.29669252  1
  Ni  Ni199  1  0.77644649  0.89073026  0.87533055  1
  Ni  Ni200  1  0.01370274  0.59241624  0.93536951  1
  Ni  Ni201  1  0.52036019  0.19164579  0.88822476  1
  Ni  Ni202  1  0.80946204  0.64217724  0.55087847  1
  Ni  Ni203  1  0.68867472  0.30398647  0.26372430  1
  Ni  Ni204  1  0.91730357  0.93827792  0.72931637  1
  Ni  Ni205  1  0.14126167  0.83608552  0.16501969  1
  Ni  Ni206  1  0.46258629  0.68938738  0.29475456  1
  Ni  Ni207  1  0.04909767  0.02627285  0.17128659  1
  Ni  Ni208  1  0.70417844  0.61566607  0.94726111  1
  Ni  Ni209  1  0.31644981  0.61691940  0.24150740  1
  Ni  Ni210  1  0.62918321  0.98472922  0.77772051  1
  Ni  Ni211  1  0.17362633  0.79457229  0.87888767  1
  Ni  Ni212  1  0.70768360  0.82936048  0.36745117  1
  Ni  Ni213  1  0.41784752  0.90726353  0.33422226  1
  Ni  Ni214  1  0.95702231  0.05217039  0.50735672  1
  Ni  Ni215  1  0.62013444  0.94051611  0.47586396  1
