# generated using pymatgen
data_Ti2CoNi
_symmetry_space_group_name_H-M   'P 1'
_cell_length_a   14.72192484
_cell_length_b   14.61433930
_cell_length_c   14.68070753
_cell_angle_alpha   89.98494573
_cell_angle_beta   90.40514101
_cell_angle_gamma   90.22639619
_symmetry_Int_Tables_number   1
_chemical_formula_structural   Ti2CoNi
_chemical_formula_sum   'Ti108 Co54 Ni54'
_cell_volume   3158.46820646
_cell_formula_units_Z   54
loop_
 _symmetry_equiv_pos_site_id
 _symmetry_equiv_pos_as_xyz
  1  'x, y, z'
loop_
 _atom_site_type_symbol
 _atom_site_label
 _atom_site_symmetry_multiplicity
 _atom_site_fract_x
 _atom_site_fract_y
 _atom_site_fract_z
 _atom_site_occupancy
  Ti  Ti0  1  0.04895316  0.06038505  0.03789985  1
  Ti  Ti1  1  0.02352492  -0.03930730  0.22637772  1
  Ti  Ti2  1  -0.05445396  0.01006583  0.77004074  1
  Ti  Ti3  1  -0.06353187  0.34824830  0.00921726  1
  Ti  Ti4  1  -0.03677608  0.35370412  0.32482194  1
  Ti  Ti5  1  -0.00933923  0.27268403  0.63168727  1
  Ti  Ti6  1  -0.07641824  0.63371503  -0.00919316  1
  Ti  Ti7  1  0.01352308  0.60841608  0.30129464  1
  Ti  Ti8  1  -0.04850880  0.65341606  0.63820715  1
  Ti  Ti9  1  0.31403499  -0.00132501  -0.01032919  1
  Ti  Ti10  1  0.44362589  -0.04803807  0.32449361  1
  Ti  Ti11  1  0.41829877  -0.00082515  0.66776481  1
  Ti  Ti12  1  0.27582174  0.33911588  0.02264508  1
  Ti  Ti13  1  0.36404396  0.37266986  0.42297291  1
  Ti  Ti14  1  0.32457564  0.31221686  0.60550998  1
  Ti  Ti15  1  0.39748053  0.65500163  0.01545255  1
  Ti  Ti16  1  0.31346615  0.61923261  0.32706131  1
  Ti  Ti17  1  0.33817572  0.77492861  0.64872459  1
  Ti  Ti18  1  0.73332511  0.00244175  -0.03441640  1
  Ti  Ti19  1  0.69871806  -0.05221984  0.33074788  1
  Ti  Ti20  1  0.63687539  -0.01222693  0.67471130  1
  Ti  Ti21  1  0.71706696  0.39192455  0.02664783  1
  Ti  Ti22  1  0.62704423  0.28686875  0.30377362  1
  Ti  Ti23  1  0.63060415  0.31045268  0.66692932  1
  Ti  Ti24  1  0.68253882  0.63956928  -0.03500686  1
  Ti  Ti25  1  0.63573537  0.62895385  0.31962942  1
  Ti  Ti26  1  0.72837646  0.62733878  0.64381286  1
  Ti  Ti27  1  -0.02941270  0.15450985  0.25898106  1
  Ti  Ti28  1  0.02030767  0.18461903  0.44755951  1
  Ti  Ti29  1  0.00734454  0.19262593  0.81413532  1
  Ti  Ti30  1  0.01125575  0.47033621  0.16014720  1
  Ti  Ti31  1  0.02084625  0.54616341  0.49056853  1
  Ti  Ti32  1  0.03990274  0.49767055  0.88772530  1
  Ti  Ti33  1  0.00936334  0.75241866  0.15093156  1
  Ti  Ti34  1  0.00618981  0.80670740  0.53055388  1
  Ti  Ti35  1  0.03733966  0.79829980  0.83238989  1
  Ti  Ti36  1  0.36675232  0.17518911  0.13104244  1
  Ti  Ti37  1  0.29488576  0.11838800  0.55003433  1
  Ti  Ti38  1  0.31283861  0.18531916  0.90056007  1
  Ti  Ti39  1  0.33306460  0.51947252  0.14494067  1
  Ti  Ti40  1  0.24457120  0.52791565  0.53887089  1
  Ti  Ti41  1  0.36461920  0.54623997  0.82850408  1
  Ti  Ti42  1  0.30067732  0.81249869  0.27782889  1
  Ti  Ti43  1  0.40020551  0.84780864  0.47311689  1
  Ti  Ti44  1  0.33350656  0.81922985  0.90238493  1
  Ti  Ti45  1  0.57777302  0.18260895  0.12096624  1
  Ti  Ti46  1  0.72606853  0.24288148  0.46088152  1
  Ti  Ti47  1  0.63856110  0.25251040  0.86777011  1
  Ti  Ti48  1  0.68245085  0.46383493  0.20963524  1
  Ti  Ti49  1  0.68544718  0.46294495  0.43067534  1
  Ti  Ti50  1  0.63239306  0.45769370  0.82242600  1
  Ti  Ti51  1  0.68803883  0.90485215  0.13469139  1
  Ti  Ti52  1  0.64837055  0.80538036  0.57898892  1
  Ti  Ti53  1  0.63051658  0.83740635  0.88424727  1
  Ti  Ti54  1  0.22671143  -0.00954083  0.16312817  1
  Ti  Ti55  1  0.12476468  0.00733424  0.53715321  1
  Ti  Ti56  1  0.16661809  -0.02727170  0.82915256  1
  Ti  Ti57  1  0.10367077  0.30208693  0.16655511  1
  Ti  Ti58  1  0.13254381  0.35825639  0.50698862  1
  Ti  Ti59  1  0.16036784  0.32223263  0.86574965  1
  Ti  Ti60  1  0.19903161  0.66687094  0.12597735  1
  Ti  Ti61  1  0.22264537  0.74924377  0.47468730  1
  Ti  Ti62  1  0.18325073  0.65540436  0.82617492  1
  Ti  Ti63  1  0.51039740  0.01300890  0.15632634  1
  Ti  Ti64  1  0.52060878  0.03776924  0.49148026  1
  Ti  Ti65  1  0.47914923  0.08976140  0.86068101  1
  Ti  Ti66  1  0.46181146  0.34104910  0.20610776  1
  Ti  Ti67  1  0.54264268  0.35682153  0.50030680  1
  Ti  Ti68  1  0.46121081  0.28135540  0.79524915  1
  Ti  Ti69  1  0.49081486  0.59227522  0.21974761  1
  Ti  Ti70  1  0.39701460  0.65645959  0.51528581  1
  Ti  Ti71  1  0.55417228  0.64547159  0.76204351  1
  Ti  Ti72  1  0.86623410  -0.00480571  0.11451513  1
  Ti  Ti73  1  0.92308161  -0.01278930  0.47471845  1
  Ti  Ti74  1  0.78280535  0.11945645  0.83556255  1
  Ti  Ti75  1  0.86483525  0.30717392  0.17966686  1
  Ti  Ti76  1  0.87266422  0.37488832  0.49480746  1
  Ti  Ti77  1  0.80540157  0.32297651  0.74578038  1
  Ti  Ti78  1  0.80658606  0.73283517  0.12606145  1
  Ti  Ti79  1  0.75557079  0.64649899  0.45937715  1
  Ti  Ti80  1  0.85307405  0.70361444  0.81506994  1
  Ti  Ti81  1  0.19071556  0.17159343  0.05346541  1
  Ti  Ti82  1  0.20411781  0.10661107  0.35154175  1
  Ti  Ti83  1  0.19826060  0.17925191  0.73217034  1
  Ti  Ti84  1  0.23257126  0.52039116  -0.02825327  1
  Ti  Ti85  1  0.22239210  0.40291607  0.30223718  1
  Ti  Ti86  1  0.11560720  0.52200970  0.68742816  1
  Ti  Ti87  1  0.14335527  0.85627588  0.00137720  1
  Ti  Ti88  1  0.12624880  0.87067737  0.35542590  1
  Ti  Ti89  1  0.14931758  0.85578048  0.66694488  1
  Ti  Ti90  1  0.47080116  0.25960009  -0.01519816  1
  Ti  Ti91  1  0.47016858  0.15496062  0.31034132  1
  Ti  Ti92  1  0.48714589  0.19420309  0.60895141  1
  Ti  Ti93  1  0.55526205  0.51251263  0.05928116  1
  Ti  Ti94  1  0.49368959  0.53893085  0.42461628  1
  Ti  Ti95  1  0.47249900  0.43231973  0.69521703  1
  Ti  Ti96  1  0.48763168  0.83762430  0.04553678  1
  Ti  Ti97  1  0.54969251  0.79802892  0.24205406  1
  Ti  Ti98  1  0.49354897  0.84018651  0.75257933  1
  Ti  Ti99  1  0.80367722  0.18039149  0.03804880  1
  Ti  Ti100  1  0.77075784  0.14601772  0.26076526  1
  Ti  Ti101  1  0.80500270  0.07902490  0.60187886  1
  Ti  Ti102  1  0.81729688  0.49437619  -0.09885609  1
  Ti  Ti103  1  0.85116347  0.51643249  0.35290304  1
  Ti  Ti104  1  0.89873195  0.50276365  0.73147797  1
  Ti  Ti105  1  0.79816649  0.83033301  -0.04084378  1
  Ti  Ti106  1  0.81811451  0.82602403  0.40910399  1
  Ti  Ti107  1  0.83181637  0.88600433  0.65826688  1
  Co  Co108  1  0.30482611  0.34498601  0.17877074  1
  Co  Co109  1  0.88661195  0.86257136  0.82612126  1
  Co  Co110  1  0.77572335  0.60854121  0.24080820  1
  Co  Co111  1  0.29899464  0.46380186  0.68471343  1
  Co  Co112  1  0.57635044  0.97838597  0.01070786  1
  Co  Co113  1  0.84545947  0.87963721  0.22849050  1
  Co  Co114  1  0.36890717  0.06332174  0.41984914  1
  Co  Co115  1  0.78149006  0.35596164  0.32541678  1
  Co  Co116  1  0.25161984  0.63151241  0.67692602  1
  Co  Co117  1  0.91893003  0.60937935  0.15898141  1
  Co  Co118  1  0.50592545  0.88595269  0.59005512  1
  Co  Co119  1  0.72008858  0.39808675  0.56802977  1
  Co  Co120  1  0.64294642  0.63554930  0.15053457  1
  Co  Co121  1  0.97964131  0.20533102  0.10451680  1
  Co  Co122  1  0.12241729  0.65738235  0.55742949  1
  Co  Co123  1  0.88275480  0.17194602  0.71306979  1
  Co  Co124  1  0.20591195  0.46730424  0.81340727  1
  Co  Co125  1  0.10493803  0.10639448  0.19543456  1
  Co  Co126  1  0.33930007  0.06183497  0.25263031  1
  Co  Co127  1  0.44695845  0.08936091  0.01743062  1
  Co  Co128  1  0.09015620  0.05704964  0.70497867  1
  Co  Co129  1  1.00728314  0.90068496  0.08072822  1
  Co  Co130  1  0.62484438  0.13080442  0.96895246  1
  Co  Co131  1  0.99746821  0.62993087  0.80921785  1
  Co  Co132  1  0.59494856  0.51835326  0.63246564  1
  Co  Co133  1  0.50702937  0.72500836  0.62659316  1
  Co  Co134  1  0.56373454  0.12690831  0.72855346  1
  Co  Co135  1  0.00105546  0.93747113  0.63051517  1
  Co  Co136  1  0.23719738  0.24914557  0.45246379  1
  Co  Co137  1  0.36781971  0.70628979  0.79224828  1
  Co  Co138  1  0.76060112  0.95210060  0.79653114  1
  Co  Co139  1  0.06165458  0.72312778  0.41019362  1
  Co  Co140  1  0.57553957  0.34935513  0.09435890  1
  Co  Co141  1  0.42120731  0.40767694  0.05561702  1
  Co  Co142  1  0.22575979  0.20083002  0.21371260  1
  Co  Co143  1  0.96542038  0.86922082  0.35661000  1
  Co  Co144  1  0.84328011  0.53049382  0.55059681  1
  Co  Co145  1  0.07990285  0.70534097  -0.02810715  1
  Co  Co146  1  0.35935044  0.39059068  0.89098448  1
  Co  Co147  1  0.30360116  0.31178086  0.76811790  1
  Co  Co148  1  0.94810830  0.79674576  0.97703208  1
  Co  Co149  1  0.71964035  0.77644572  0.25513228  1
  Co  Co150  1  0.04589889  0.03007585  0.37510254  1
  Co  Co151  1  0.74007446  0.47268332  0.70454360  1
  Co  Co152  1  0.53883628  0.39506291  0.93170701  1
  Co  Co153  1  0.86879873  0.22142787  0.37578805  1
  Co  Co154  1  0.18789070  0.45826569  0.12274869  1
  Co  Co155  1  0.71328718  0.17627290  0.70687233  1
  Co  Co156  1  0.77028247  0.55131643  0.07034186  1
  Co  Co157  1  0.17488817  0.34436119  0.66445964  1
  Co  Co158  1  0.09476156  0.70660821  0.69954091  1
  Co  Co159  1  0.80721929  0.25486399  0.59593373  1
  Co  Co160  1  0.85109244  0.46339186  0.19996891  1
  Co  Co161  1  0.64728332  0.12562726  0.56983411  1
  Ni  Ni162  1  0.79523129  0.30137136  0.91370514  1
  Ni  Ni163  1  0.88855327  0.72610009  0.28718840  1
  Ni  Ni164  1  0.91652603  0.10012721  0.94527757  1
  Ni  Ni165  1  0.51728099  0.56866502  0.90884885  1
  Ni  Ni166  1  0.13423719  0.18856478  0.57584414  1
  Ni  Ni167  1  0.55047750  0.43527563  0.31669601  1
  Ni  Ni168  1  0.29431996  0.82612933  0.07409211  1
  Ni  Ni169  1  0.08019713  0.45440480  0.36448259  1
  Ni  Ni170  1  0.40356046  0.47303128  0.55061810  1
  Ni  Ni171  1  0.16296936  0.71370083  0.28564792  1
  Ni  Ni172  1  0.61790694  0.08795767  0.28531872  1
  Ni  Ni173  1  0.64375645  0.77101928  0.05621921  1
  Ni  Ni174  1  0.46705348  0.92407220  0.89951677  1
  Ni  Ni175  1  0.15354351  0.84019972  0.17793225  1
  Ni  Ni176  1  0.16046214  0.55176835  0.24570324  1
  Ni  Ni177  1  0.24320337  0.70009636  0.97193877  1
  Ni  Ni178  1  0.10141540  0.38646856  0.00928771  1
  Ni  Ni179  1  0.41442580  0.59298540  0.67070441  1
  Ni  Ni180  1  0.15766089  0.12017889  0.89486546  1
  Ni  Ni181  1  0.45479923  0.71705670  0.35413634  1
  Ni  Ni182  1  0.49393116  0.73630087  0.90136189  1
  Ni  Ni183  1  0.11577028  0.26883131  0.33580100  1
  Ni  Ni184  1  0.00864859  0.94719007  0.91675688  1
  Ni  Ni185  1  0.65490092  0.77254553  0.40471936  1
  Ni  Ni186  1  0.04828514  0.37751408  0.75235013  1
  Ni  Ni187  1  0.16643069  0.59434976  0.40463550  1
  Ni  Ni188  1  0.39823239  0.89473650  0.17273425  1
  Ni  Ni189  1  0.72231264  0.60497968  0.80639933  1
  Ni  Ni190  1  0.70886172  0.27991210  0.16093409  1
  Ni  Ni191  1  0.05301063  0.22923170  0.96641434  1
  Ni  Ni192  1  0.92731713  0.36822254  0.84767117  1
  Ni  Ni193  1  0.40807591  0.21796271  0.46396926  1
  Ni  Ni194  1  0.33531942  0.24349928  0.31489602  1
  Ni  Ni195  1  0.91535053  0.66662079  0.44640899  1
  Ni  Ni196  1  0.36598740  0.15119662  0.72571991  1
  Ni  Ni197  1  0.83663791  0.75229733  0.56882685  1
  Ni  Ni198  1  0.71092942  0.78486807  0.74325940  1
  Ni  Ni199  1  0.07778907  0.56169920  1.04423112  1
  Ni  Ni200  1  0.77098630  0.08009862  0.42517224  1
  Ni  Ni201  1  0.69512427  0.06996829  0.12329785  1
  Ni  Ni202  1  0.87996003  0.01935646  0.31124318  1
  Ni  Ni203  1  0.26973409  0.91294513  0.55847949  1
  Ni  Ni204  1  0.31557601  0.89611871  0.75990516  1
  Ni  Ni205  1  0.61115731  1.00256269  0.83924919  1
  Ni  Ni206  1  0.59506951  0.64661446  0.50818211  1
  Ni  Ni207  1  0.27249711  0.93765290  0.39424848  1
  Ni  Ni208  1  0.97955728  0.10128856  0.59412418  1
  Ni  Ni209  1  0.56130020  0.89229913  0.42605009  1
  Ni  Ni210  1  0.38817697  0.47048065  0.29436345  1
  Ni  Ni211  1  0.57011863  0.19431606  0.44033896  1
  Ni  Ni212  1  0.98651552  0.43904477  0.60689505  1
  Ni  Ni213  1  0.72455717  0.94372250  0.50938813  1
  Ni  Ni214  1  0.24639270  0.01979599  0.68146944  1
  Ni  Ni215  1  0.38610249  0.71343702  0.17596672  1
