# generated using pymatgen
data_Ti2CoNi
_symmetry_space_group_name_H-M   'P 1'
_cell_length_a   14.50422734
_cell_length_b   14.53993315
_cell_length_c   14.52203747
_cell_angle_alpha   89.74508324
_cell_angle_beta   90.20184665
_cell_angle_gamma   90.22019950
_symmetry_Int_Tables_number   1
_chemical_formula_structural   Ti2CoNi
_chemical_formula_sum   'Ti108 Co54 Ni54'
_cell_volume   3062.48793497
_cell_formula_units_Z   54
loop_
 _symmetry_equiv_pos_site_id
 _symmetry_equiv_pos_as_xyz
  1  'x, y, z'
loop_
 _atom_site_type_symbol
 _atom_site_label
 _atom_site_symmetry_multiplicity
 _atom_site_fract_x
 _atom_site_fract_y
 _atom_site_fract_z
 _atom_site_occupancy
  Ti  Ti0  1  -0.02545382  -0.06203289  -0.00634847  1
  Ti  Ti1  1  0.07572413  -0.02703983  0.39526591  1
  Ti  Ti2  1  0.06018546  -0.00745779  0.71248007  1
  Ti  Ti3  1  0.01644501  0.29407230  -0.08729814  1
  Ti  Ti4  1  -0.05226235  0.31264920  0.36368893  1
  Ti  Ti5  1  -0.02414323  0.32133937  0.66756227  1
  Ti  Ti6  1  -0.01934217  0.68375349  -0.03860449  1
  Ti  Ti7  1  -0.04646599  0.77166857  0.36047630  1
  Ti  Ti8  1  0.03716798  0.57351397  0.65153361  1
  Ti  Ti9  1  0.42097332  0.04661953  -0.04635875  1
  Ti  Ti10  1  0.36410649  0.05056583  0.30684093  1
  Ti  Ti11  1  0.41229129  -0.03101467  0.64530374  1
  Ti  Ti12  1  0.36626814  0.33908419  0.02588679  1
  Ti  Ti13  1  0.34829993  0.37122600  0.36377904  1
  Ti  Ti14  1  0.30625977  0.33573638  0.59093336  1
  Ti  Ti15  1  0.37018462  0.66760252  0.06231800  1
  Ti  Ti16  1  0.40624474  0.72115141  0.24983010  1
  Ti  Ti17  1  0.34528074  0.63194426  0.72618489  1
  Ti  Ti18  1  0.59018969  0.02922558  0.02875021  1
  Ti  Ti19  1  0.70427267  -0.06520332  0.21303362  1
  Ti  Ti20  1  0.59358690  0.02078535  0.66709848  1
  Ti  Ti21  1  0.70971356  0.32445865  0.03117016  1
  Ti  Ti22  1  0.70729976  0.33385450  0.35921351  1
  Ti  Ti23  1  0.75419533  0.44315757  0.71710231  1
  Ti  Ti24  1  0.78219461  0.63397980  -0.06346285  1
  Ti  Ti25  1  0.66630973  0.71294962  0.31314115  1
  Ti  Ti26  1  0.53620263  0.66758470  0.70772540  1
  Ti  Ti27  1  0.05461968  0.11393158  0.15928364  1
  Ti  Ti28  1  -0.05592969  0.15884295  0.49081432  1
  Ti  Ti29  1  -0.03183026  0.09512204  0.83630816  1
  Ti  Ti30  1  0.02704288  0.48329655  0.15789636  1
  Ti  Ti31  1  -0.02444354  0.56592625  0.41592492  1
  Ti  Ti32  1  0.01468962  0.49452532  0.87257852  1
  Ti  Ti33  1  -0.02006324  0.85914471  0.15696000  1
  Ti  Ti34  1  -0.03091355  0.87238260  0.53950379  1
  Ti  Ti35  1  0.05049864  0.81947299  0.84299671  1
  Ti  Ti36  1  0.31112543  0.16671320  0.15927200  1
  Ti  Ti37  1  0.29120651  0.16865801  0.51219678  1
  Ti  Ti38  1  0.30837362  0.20901354  0.73185489  1
  Ti  Ti39  1  0.32472033  0.52749546  0.23387034  1
  Ti  Ti40  1  0.29772183  0.52720352  0.50314199  1
  Ti  Ti41  1  0.35195005  0.45242796  0.82380805  1
  Ti  Ti42  1  0.26305893  0.78915977  0.12769282  1
  Ti  Ti43  1  0.32711789  0.73003661  0.45684006  1
  Ti  Ti44  1  0.24383823  0.81493794  0.77215093  1
  Ti  Ti45  1  0.64766499  0.13126447  0.19429859  1
  Ti  Ti46  1  0.61625045  0.09317578  0.46947149  1
  Ti  Ti47  1  0.70462548  0.11645005  0.75874766  1
  Ti  Ti48  1  0.60976546  0.46296412  0.15741934  1
  Ti  Ti49  1  0.67373485  0.43129195  0.52382946  1
  Ti  Ti50  1  0.64028834  0.55107637  0.81385771  1
  Ti  Ti51  1  0.70724626  0.74113157  0.09381112  1
  Ti  Ti52  1  0.60167346  0.89723506  0.51500632  1
  Ti  Ti53  1  0.67320717  0.74934639  0.82055505  1
  Ti  Ti54  1  0.19056037  0.00813373  0.23214181  1
  Ti  Ti55  1  0.28995764  -0.06068623  0.48161169  1
  Ti  Ti56  1  0.29732656  0.02581950  0.79994316  1
  Ti  Ti57  1  0.08325991  0.32012978  0.21420741  1
  Ti  Ti58  1  0.18809379  0.31798169  0.44216240  1
  Ti  Ti59  1  0.22103329  0.31010256  0.90276525  1
  Ti  Ti60  1  0.09717116  0.70614313  0.17861208  1
  Ti  Ti61  1  0.19855189  0.65451811  0.60421526  1
  Ti  Ti62  1  0.16202563  0.67037164  0.86901877  1
  Ti  Ti63  1  0.50790543  -0.03068996  0.18824016  1
  Ti  Ti64  1  0.46318453  0.01557134  0.46160639  1
  Ti  Ti65  1  0.52143488  -0.05083531  0.83669187  1
  Ti  Ti66  1  0.49477196  0.28723467  0.14454877  1
  Ti  Ti67  1  0.47501793  0.39254446  0.49365892  1
  Ti  Ti68  1  0.56650482  0.38121349  0.84009511  1
  Ti  Ti69  1  0.54756416  0.68092374  0.11795425  1
  Ti  Ti70  1  0.51647314  0.57996921  0.51139451  1
  Ti  Ti71  1  0.44634375  0.71511640  0.85759064  1
  Ti  Ti72  1  0.87208361  0.05340360  0.13921785  1
  Ti  Ti73  1  0.80583723  0.00210367  0.51906655  1
  Ti  Ti74  1  0.79681012  0.01710824  0.93119456  1
  Ti  Ti75  1  0.79640571  0.25909384  0.18768446  1
  Ti  Ti76  1  0.82259625  0.34960478  0.51023636  1
  Ti  Ti77  1  0.84060576  0.25765055  0.81613701  1
  Ti  Ti78  1  0.84458606  0.63343438  0.20710184  1
  Ti  Ti79  1  0.83000495  0.75067391  0.56243847  1
  Ti  Ti80  1  0.80204341  0.62862197  0.72377905  1
  Ti  Ti81  1  0.16131890  0.16811439  0.03061328  1
  Ti  Ti82  1  0.09494642  0.17492326  0.34895072  1
  Ti  Ti83  1  0.13540805  0.23204112  0.64835603  1
  Ti  Ti84  1  0.22153840  0.46029130  0.07964365  1
  Ti  Ti85  1  0.13474031  0.52263603  0.31484379  1
  Ti  Ti86  1  0.14097736  0.44645817  0.59912307  1
  Ti  Ti87  1  0.22985085  0.90957220  -0.04756454  1
  Ti  Ti88  1  0.13379350  0.78032333  0.46020482  1
  Ti  Ti89  1  0.09365664  0.78631866  0.66422295  1
  Ti  Ti90  1  0.53681788  0.20020533  -0.10229399  1
  Ti  Ti91  1  0.45977499  0.21224801  0.29930612  1
  Ti  Ti92  1  0.53795439  0.22092580  0.72780814  1
  Ti  Ti93  1  0.47516926  0.51982409  0.01347180  1
  Ti  Ti94  1  0.58736655  0.51055507  0.35270308  1
  Ti  Ti95  1  0.50839579  0.47912320  0.67306010  1
  Ti  Ti96  1  0.48006238  0.84496367  -0.01003314  1
  Ti  Ti97  1  0.42631705  0.87652743  0.35994353  1
  Ti  Ti98  1  0.54135366  0.84647035  0.69407804  1
  Ti  Ti99  1  0.86966564  0.20468123  -0.00121636  1
  Ti  Ti100  1  0.83532124  0.11664260  0.33366727  1
  Ti  Ti101  1  0.86464880  0.12189632  0.65521347  1
  Ti  Ti102  1  0.89843476  0.40758092  0.00561370  1
  Ti  Ti103  1  0.86446657  0.45488890  0.27295129  1
  Ti  Ti104  1  0.83429709  0.55921454  0.54876943  1
  Ti  Ti105  1  0.82674361  0.82399116  -0.06048490  1
  Ti  Ti106  1  0.79522693  0.85618964  0.37734961  1
  Ti  Ti107  1  0.86501958  0.87478313  0.71092556  1
  Co  Co108  1  0.43589784  0.81842417  0.15215467  1
  Co  Co109  1  0.88742567  0.55953373  0.05429714  1
  Co  Co110  1  0.82502937  0.80079944  0.22514182  1
  Co  Co111  1  0.67790722  0.60564164  0.61216674  1
  Co  Co112  1  0.66922925  0.60951188  0.45294432  1
  Co  Co113  1  0.06592964  0.38303767  0.76668339  1
  Co  Co114  1  0.87054458  0.55057320  0.85254954  1
  Co  Co115  1  0.92074154  0.49459436  0.69664788  1
  Co  Co116  1  1.00572423  0.24271712  0.08273139  1
  Co  Co117  1  0.86285428  0.94131074  0.25927193  1
  Co  Co118  1  0.82525736  0.02254729  0.76815555  1
  Co  Co119  1  0.09526474  0.37232829  0.02470523  1
  Co  Co120  1  0.78653752  0.48514039  0.41236721  1
  Co  Co121  1  0.54201601  0.79327471  0.26147517  1
  Co  Co122  1  0.90170053  0.39249891  0.82379629  1
  Co  Co123  1  0.44247322  0.25766877  0.59646670  1
  Co  Co124  1  0.21329716  0.06456178  0.39969321  1
  Co  Co125  1  0.97652530  0.01785427  0.56577521  1
  Co  Co126  1  0.56254992  0.72958497  0.56365291  1
  Co  Co127  1  0.60872568  0.85484816  0.10399447  1
  Co  Co128  1  0.27092515  0.79407645  0.58654509  1
  Co  Co129  1  0.98647443  0.05388639  0.28618074  1
  Co  Co130  1  0.53051033  0.72060318  0.39975399  1
  Co  Co131  1  0.87344461  0.76611457  0.81019047  1
  Co  Co132  1  0.40992979  0.68547690  0.58974029  1
  Co  Co133  1  0.61960255  0.06138843  0.87563237  1
  Co  Co134  1  0.43340304  0.18824240  0.43848257  1
  Co  Co135  1  0.59926211  0.29704966  0.47078748  1
  Co  Co136  1  0.89194344  0.73981579  0.08624458  1
  Co  Co137  1  0.68437601  0.29748761  0.76882294  1
  Co  Co138  1  0.13778778  0.92872207  0.55776486  1
  Co  Co139  1  0.22096112  0.36461831  0.73790867  1
  Co  Co140  1  0.12923063  0.18324089  0.85917425  1
  Co  Co141  1  0.94703320  0.72796352  0.67245186  1
  Co  Co142  1  0.69948412  0.91560274  0.78893484  1
  Co  Co143  1  0.69032398  0.78082401  0.48325505  1
  Co  Co144  1  -0.05626680  0.21476497  0.23211497  1
  Co  Co145  1  0.74118001  0.40451806  0.87324845  1
  Co  Co146  1  0.92262035  0.35411933  0.16675618  1
  Co  Co147  1  0.23562770  0.92667465  0.67298345  1
  Co  Co148  1  1.01976072  0.11126780  0.98339344  1
  Co  Co149  1  0.23718900  0.08194907  0.61697756  1
  Co  Co150  1  0.59698644  0.21272821  0.03857576  1
  Co  Co151  1  0.76807163  0.44636402  0.15222491  1
  Co  Co152  1  0.17119180  0.10200843  0.75439712  1
  Co  Co153  1  0.42068792  0.35011288  0.72753353  1
  Co  Co154  1  0.81484182  0.90815436  0.08913764  1
  Co  Co155  1  0.21137990  0.39516811  0.28665668  1
  Co  Co156  1  0.10839221  0.13235789  0.52054967  1
  Co  Co157  1  0.48729566  0.10670029  0.58387012  1
  Co  Co158  1  0.92980403  0.93893896  0.85188335  1
  Co  Co159  1  0.39310807  0.79548098  0.72346830  1
  Co  Co160  1  0.81520291  0.68436731  0.40045153  1
  Co  Co161  1  0.91430326  0.97770269  0.41830146  1
  Ni  Ni162  1  -0.00317222  0.62193378  0.26481855  1
  Ni  Ni163  1  0.19483907  0.47871140  0.90876176  1
  Ni  Ni164  1  0.12391426  -0.01905600  0.06651400  1
  Ni  Ni165  1  0.09651458  0.79751091  0.02034286  1
  Ni  Ni166  1  0.28496104  1.03681689  0.06402554  1
  Ni  Ni167  1  0.09749739  0.98693796  0.88180153  1
  Ni  Ni168  1  0.54782134  0.07285696  0.32684801  1
  Ni  Ni169  1  0.14120996  0.56368573  0.47455458  1
  Ni  Ni170  1  0.69913567  0.58416393  0.08202981  1
  Ni  Ni171  1  0.08536860  0.55893921  1.02259432  1
  Ni  Ni172  1  0.28310128  0.21992500  0.31655500  1
  Ni  Ni173  1  0.39973906  0.55029509  0.38507406  1
  Ni  Ni174  1  0.68546882  0.76354252  0.65574256  1
  Ni  Ni175  1  0.45237018  0.45165675  0.15209449  1
  Ni  Ni176  1  0.03958686  0.28142525  0.51646764  1
  Ni  Ni177  1  0.24886539  0.62114482  0.35696751  1
  Ni  Ni178  1  0.29481603  0.14301981  0.92407381  1
  Ni  Ni179  1  0.64427973  0.31003533  0.20493508  1
  Ni  Ni180  1  0.46242698  0.08144412  0.75644428  1
  Ni  Ni181  1  0.60365399  0.66314260  0.94939560  1
  Ni  Ni182  1  0.23326030  0.74546724  0.29063989  1
  Ni  Ni183  1  0.49408758  0.37897611  0.30287905  1
  Ni  Ni184  1  0.67072431  0.21790185  0.59852162  1
  Ni  Ni185  1  0.01166119  0.64580696  0.80220757  1
  Ni  Ni186  1  0.43805994  0.83600291  0.52380360  1
  Ni  Ni187  1  0.97162385  0.43533956  0.52928152  1
  Ni  Ni188  1  0.35147168  0.33858752  0.21367014  1
  Ni  Ni189  1  0.47847538  0.55031639  0.84166535  1
  Ni  Ni190  1  0.71463671  0.19647308  0.90856597  1
  Ni  Ni191  1  0.06830573  0.41297857  0.41518850  1
  Ni  Ni192  1  0.73776474  0.12903684  0.05776174  1
  Ni  Ni193  1  0.49903160  0.57496462  0.24190320  1
  Ni  Ni194  1  0.40969487  0.30175094  0.87428727  1
  Ni  Ni195  1  0.30320808  0.76852246  0.94766033  1
  Ni  Ni196  1  0.61902590  0.46591480  0.96917390  1
  Ni  Ni197  1  0.48482613  0.11864815  0.10832716  1
  Ni  Ni198  1  0.57917749  0.34486560  0.62874832  1
  Ni  Ni199  1  0.09674064  0.84317155  0.29449550  1
  Ni  Ni200  1  0.25972591  0.88421679  0.33504691  1
  Ni  Ni201  1  0.60074847  0.90240623  0.36289236  1
  Ni  Ni202  1  0.31955003  0.92616876  0.17950695  1
  Ni  Ni203  1  0.21713175  0.29700477  0.12042055  1
  Ni  Ni204  1  0.64807828  0.88762964  0.94423607  1
  Ni  Ni205  1  0.37184247  0.89657280  0.85923577  1
  Ni  Ni206  1  0.20791945  0.63434032  0.07800053  1
  Ni  Ni207  1  0.71826167  0.54871832  0.27489943  1
  Ni  Ni208  1  0.80632830  0.27277761  0.65452224  1
  Ni  Ni209  1  0.32514959  0.47562990  0.66310295  1
  Ni  Ni210  1  0.73631707  0.93122612  0.63845966  1
  Ni  Ni211  1  0.32807344  0.56725772  0.93817345  1
  Ni  Ni212  1  -0.00665404  0.69354918  0.52935908  1
  Ni  Ni213  1  0.18044089  0.54802954  0.75230620  1
  Ni  Ni214  1  0.72730173  0.01304384  0.37663920  1
  Ni  Ni215  1  0.76952164  0.20058100  0.45543382  1
