# generated using pymatgen
data_Ti2CoNi
_symmetry_space_group_name_H-M   'P 1'
_cell_length_a   14.53920166
_cell_length_b   14.58592656
_cell_length_c   14.55287970
_cell_angle_alpha   90.09062889
_cell_angle_beta   89.91299218
_cell_angle_gamma   89.66639544
_symmetry_Int_Tables_number   1
_chemical_formula_structural   Ti2CoNi
_chemical_formula_sum   'Ti108 Co54 Ni54'
_cell_volume   3086.13635262
_cell_formula_units_Z   54
loop_
 _symmetry_equiv_pos_site_id
 _symmetry_equiv_pos_as_xyz
  1  'x, y, z'
loop_
 _atom_site_type_symbol
 _atom_site_label
 _atom_site_symmetry_multiplicity
 _atom_site_fract_x
 _atom_site_fract_y
 _atom_site_fract_z
 _atom_site_occupancy
  Ti  Ti0  1  -0.00655976  -0.01268277  0.01242528  1
  Ti  Ti1  1  0.00460871  -0.03627359  0.36139950  1
  Ti  Ti2  1  -0.00848506  -0.03872158  0.58571965  1
  Ti  Ti3  1  0.01797024  0.32582219  -0.02640508  1
  Ti  Ti4  1  0.01776065  0.31819409  0.30384398  1
  Ti  Ti5  1  0.05346378  0.30362903  0.73938660  1
  Ti  Ti6  1  -0.02256339  0.62823002  0.04147858  1
  Ti  Ti7  1  -0.02291588  0.68923147  0.31605766  1
  Ti  Ti8  1  0.08663921  0.66079681  0.65606935  1
  Ti  Ti9  1  0.31086394  0.00122633  0.07224297  1
  Ti  Ti10  1  0.31030372  0.03941576  0.30052990  1
  Ti  Ti11  1  0.31202142  -0.01479077  0.63204953  1
  Ti  Ti12  1  0.41539398  0.31403168  0.01684882  1
  Ti  Ti13  1  0.32566209  0.28183677  0.31991136  1
  Ti  Ti14  1  0.36688396  0.27760524  0.64324292  1
  Ti  Ti15  1  0.33416551  0.63512536  0.10610360  1
  Ti  Ti16  1  0.30716980  0.67421214  0.30165940  1
  Ti  Ti17  1  0.39002848  0.63137362  0.68795885  1
  Ti  Ti18  1  0.70847525  -0.01391590  0.01316969  1
  Ti  Ti19  1  0.67172050  -0.01488077  0.23497184  1
  Ti  Ti20  1  0.68747168  0.02577389  0.70084070  1
  Ti  Ti21  1  0.65700927  0.37429405  -0.03265922  1
  Ti  Ti22  1  0.64649397  0.40649610  0.36938226  1
  Ti  Ti23  1  0.66363472  0.33493733  0.55760930  1
  Ti  Ti24  1  0.67118884  0.69843798  0.02874664  1
  Ti  Ti25  1  0.64528870  0.64392352  0.34157289  1
  Ti  Ti26  1  0.74619461  0.68065731  0.63423979  1
  Ti  Ti27  1  0.00896518  0.13129356  0.17935636  1
  Ti  Ti28  1  -0.00233348  0.14473329  0.51678888  1
  Ti  Ti29  1  -0.00656404  0.16670965  0.86847616  1
  Ti  Ti30  1  -0.07496942  0.43380231  0.13740812  1
  Ti  Ti31  1  -0.00959129  0.51320467  0.55755312  1
  Ti  Ti32  1  0.03283011  0.61276236  0.84256307  1
  Ti  Ti33  1  0.04936776  0.78607198  0.12773985  1
  Ti  Ti34  1  -0.01740056  0.78034723  0.54022459  1
  Ti  Ti35  1  -0.02742561  0.89062164  0.79164765  1
  Ti  Ti36  1  0.37700349  0.16638487  0.15447244  1
  Ti  Ti37  1  0.27372202  0.15787314  0.45465583  1
  Ti  Ti38  1  0.31726983  0.16939279  0.82227342  1
  Ti  Ti39  1  0.34925381  0.39327355  0.18661174  1
  Ti  Ti40  1  0.32886719  0.47576475  0.56604340  1
  Ti  Ti41  1  0.36728251  0.48953064  0.85807322  1
  Ti  Ti42  1  0.29404985  0.86079582  0.22032259  1
  Ti  Ti43  1  0.32646827  0.78050683  0.54427149  1
  Ti  Ti44  1  0.30078583  0.87845843  0.90609660  1
  Ti  Ti45  1  0.64939901  0.23422395  0.27160702  1
  Ti  Ti46  1  0.77707034  0.17122172  0.50625951  1
  Ti  Ti47  1  0.62389436  0.19420579  0.78501322  1
  Ti  Ti48  1  0.73806264  0.43270800  0.18390050  1
  Ti  Ti49  1  0.63081910  0.55828387  0.50251703  1
  Ti  Ti50  1  0.70406548  0.45335988  0.78575971  1
  Ti  Ti51  1  0.58562693  0.81945872  0.18168315  1
  Ti  Ti52  1  0.61813140  0.87407210  0.58613849  1
  Ti  Ti53  1  0.65234893  0.80603211  0.76934911  1
  Ti  Ti54  1  0.13858832  -0.00147801  0.17110822  1
  Ti  Ti55  1  0.15829832  0.00050638  0.51581206  1
  Ti  Ti56  1  0.16350295  -0.04886555  0.75109528  1
  Ti  Ti57  1  0.21155593  0.32938012  0.06044286  1
  Ti  Ti58  1  0.15996261  0.29891032  0.55156127  1
  Ti  Ti59  1  0.17104412  0.42735298  0.85091684  1
  Ti  Ti60  1  0.08218817  0.56870869  0.20064599  1
  Ti  Ti61  1  0.13172343  0.64975141  0.44025397  1
  Ti  Ti62  1  0.22833027  0.65459416  0.84002334  1
  Ti  Ti63  1  0.53261725  0.01000793  0.08119186  1
  Ti  Ti64  1  0.58275663  0.05335163  0.49252949  1
  Ti  Ti65  1  0.44432755  0.02464309  0.84078851  1
  Ti  Ti66  1  0.54611176  0.40483773  0.14357082  1
  Ti  Ti67  1  0.49014384  0.30398961  0.41508327  1
  Ti  Ti68  1  0.50545222  0.34752128  0.82657573  1
  Ti  Ti69  1  0.52296255  0.63269316  0.16906236  1
  Ti  Ti70  1  0.49849902  0.73351752  0.49671827  1
  Ti  Ti71  1  0.52666452  0.66996114  0.84508795  1
  Ti  Ti72  1  0.84748127  0.04577575  0.12769633  1
  Ti  Ti73  1  0.83249696  -0.01617830  0.42592514  1
  Ti  Ti74  1  0.79857490  -0.07230316  0.84539650  1
  Ti  Ti75  1  0.85032457  0.26062873  0.17504700  1
  Ti  Ti76  1  0.85353114  0.39385509  0.49053851  1
  Ti  Ti77  1  0.88233064  0.36586559  0.83690704  1
  Ti  Ti78  1  0.84193851  0.74877779  0.17276556  1
  Ti  Ti79  1  0.81132466  0.66861057  0.45207979  1
  Ti  Ti80  1  0.80334171  0.69296873  0.86336798  1
  Ti  Ti81  1  0.13026649  0.13334754  -0.00000114  1
  Ti  Ti82  1  0.16684115  0.19349874  0.28266115  1
  Ti  Ti83  1  0.12292189  0.12191206  0.66578287  1
  Ti  Ti84  1  0.18804486  0.54004949  0.00113794  1
  Ti  Ti85  1  0.20432776  0.47945944  0.33990617  1
  Ti  Ti86  1  0.11626780  0.47161916  0.67111296  1
  Ti  Ti87  1  0.10963312  0.83899026  -0.07073798  1
  Ti  Ti88  1  0.21078483  0.83749774  0.38784231  1
  Ti  Ti89  1  0.24078543  0.78566673  0.71079184  1
  Ti  Ti90  1  0.56642974  0.20307920  0.07113306  1
  Ti  Ti91  1  0.46650073  0.13519939  0.34597708  1
  Ti  Ti92  1  0.47320236  0.09255031  0.65039503  1
  Ti  Ti93  1  0.50746906  0.53226487  -0.00196219  1
  Ti  Ti94  1  0.42420066  0.47318681  0.38300464  1
  Ti  Ti95  1  0.55878210  0.52226558  0.66364220  1
  Ti  Ti96  1  0.45186536  0.76428849  0.00747837  1
  Ti  Ti97  1  0.48808067  0.93751496  0.35558993  1
  Ti  Ti98  1  0.46809219  0.79671891  0.69720813  1
  Ti  Ti99  1  0.75745130  0.18716617  -0.01555480  1
  Ti  Ti100  1  0.85064596  0.12929073  0.31279020  1
  Ti  Ti101  1  0.83663347  0.12197619  0.79045645  1
  Ti  Ti102  1  0.81428813  0.50070812  -0.02874017  1
  Ti  Ti103  1  0.83506226  0.56488982  0.27333387  1
  Ti  Ti104  1  0.87335385  0.55407119  0.73181876  1
  Ti  Ti105  1  0.86591185  0.83034340  -0.00034497  1
  Ti  Ti106  1  0.73908986  0.81162188  0.32019484  1
  Ti  Ti107  1  0.80073353  0.85147396  0.55286766  1
  Co  Co108  1  0.76048035  0.50729907  0.40802350  1
  Co  Co109  1  0.85905651  0.04837608  0.95089913  1
  Co  Co110  1  0.70633378  0.82147977  0.93085371  1
  Co  Co111  1  0.01020078  0.46070897  0.79816324  1
  Co  Co112  1  0.75146174  0.28107169  0.83650307  1
  Co  Co113  1  0.04979301  0.41087688  0.44532872  1
  Co  Co114  1  0.26890931  0.73622433  0.98650247  1
  Co  Co115  1  0.83201376  0.33440134  0.01916013  1
  Co  Co116  1  0.51984173  0.84476798  0.86411443  1
  Co  Co117  1  0.11341853  0.68894223  0.97295651  1
  Co  Co118  1  0.36957350  0.62104025  0.94437260  1
  Co  Co119  1  0.23321700  0.50757813  0.16234028  1
  Co  Co120  1  0.36052729  0.90225139  0.75433432  1
  Co  Co121  1  0.44085949  0.93440580  0.97468001  1
  Co  Co122  1  0.88384124  0.81869437  0.40888389  1
  Co  Co123  1  0.70789787  0.06871322  0.86985274  1
  Co  Co124  1  0.18254300  0.32357456  0.39246257  1
  Co  Co125  1  0.92180114  0.90348383  0.13302303  1
  Co  Co126  1  0.28736072  0.19315103  -0.01105907  1
  Co  Co127  1  0.90773192  0.65179654  0.58998608  1
  Co  Co128  1  -0.00050789  0.31359878  0.56968103  1
  Co  Co129  1  0.11488233  0.87234281  0.25554379  1
  Co  Co130  1  0.45535376  0.19962270  0.52455799  1
  Co  Co131  1  0.69500708  0.29907128  0.11096934  1
  Co  Co132  1  0.46016536  0.20216189  0.76441484  1
  Co  Co133  1  0.96732916  0.75046334  0.90707428  1
  Co  Co134  1  0.20301550  0.83826192  0.09422437  1
  Co  Co135  1  0.28271251  0.14312595  0.61327997  1
  Co  Co136  1  0.77412134  0.37411929  0.67177060  1
  Co  Co137  1  0.73579326  0.86282458  0.12165769  1
  Co  Co138  1  0.73395907  1.01145206  0.54745923  1
  Co  Co139  1  0.37175161  0.74645737  0.83380521  1
  Co  Co140  1  0.56843098  0.07673749  0.93760533  1
  Co  Co141  1  0.05617679  0.80580341  0.39869824  1
  Co  Co142  1  0.62115209  0.16648010  0.60558179  1
  Co  Co143  1  0.82758117  0.93939808  0.26444744  1
  Co  Co144  1  0.58475271  0.86047995  0.02282657  1
  Co  Co145  1  0.49141389  0.21399614  0.91789015  1
  Co  Co146  1  0.75378216  0.21700509  0.67230247  1
  Co  Co147  1  0.79272921  0.51835173  0.58155892  1
  Co  Co148  1  0.45774824  0.58241508  0.52919919  1
  Co  Co149  1  0.95496695  0.83904204  0.26978705  1
  Co  Co150  1  0.14729676  0.71321139  0.27881028  1
  Co  Co151  1  0.90787929  0.24687602  0.71258389  1
  Co  Co152  1  0.33093837  0.32906651  0.48390035  1
  Co  Co153  1  0.57985864  0.68881780  0.63599335  1
  Co  Co154  1  0.09223822  0.77128056  0.78272846  1
  Co  Co155  1  0.24036047  0.64184495  0.60290680  1
  Co  Co156  1  0.69188015  0.07134398  0.36503956  1
  Co  Co157  1  0.16284799  -0.03204797  0.00993781  1
  Co  Co158  1  0.41429411  0.10218433  -0.00396128  1
  Co  Co159  1  0.17800649  0.67246890  0.11860206  1
  Co  Co160  1  0.16459384  0.36875066  0.22772960  1
  Co  Co161  1  0.92358654  0.41092529  0.66994659  1
  Ni  Ni162  1  0.30700616  0.32963258  0.88819955  1
  Ni  Ni163  1  0.15937794  0.02249874  0.34961747  1
  Ni  Ni164  1  0.93470019  0.18322543  0.03201295  1
  Ni  Ni165  1  0.24992901  0.38256331  0.68664369  1
  Ni  Ni166  1  0.54391603  0.50597804  0.82814865  1
  Ni  Ni167  1  0.99030242  0.48612209  0.95788484  1
  Ni  Ni168  1  0.43438587  0.98171238  0.20597353  1
  Ni  Ni169  1  0.07923927  1.01930929  0.87199098  1
  Ni  Ni170  1  0.66907918  0.56852096  0.91952360  1
  Ni  Ni171  1  0.62158273  0.20551499  0.43883002  1
  Ni  Ni172  1  0.38694129  0.80806307  0.38022791  1
  Ni  Ni173  1  0.31088182  0.93632615  0.46488749  1
  Ni  Ni174  1  0.54915681  0.78164340  0.34082837  1
  Ni  Ni175  1  0.51158376  0.42523013  0.52780044  1
  Ni  Ni176  1  0.08665118  0.44007999  0.09052280  1
  Ni  Ni177  1  0.80890534  0.81839733  0.71689223  1
  Ni  Ni178  1  0.48247056  0.27513837  0.22861766  1
  Ni  Ni179  1  1.02444356  0.13497789  0.35020027  1
  Ni  Ni180  1  0.21216036  0.15694884  0.13559797  1
  Ni  Ni181  1  0.53393640  0.30590697  0.65510975  1
  Ni  Ni182  1  0.34017322  0.46753249  0.02901243  1
  Ni  Ni183  1  0.16928510  0.51094142  0.51507625  1
  Ni  Ni184  1  0.85198670  0.39115143  0.30509837  1
  Ni  Ni185  1  0.47403342  0.63006833  0.36150115  1
  Ni  Ni186  1  0.41721075  0.43787438  0.70653487  1
  Ni  Ni187  1  0.66633458  0.74876552  0.48399466  1
  Ni  Ni188  1  -0.00945628  0.05282142  0.73201971  1
  Ni  Ni189  1  0.87173178  0.10590509  0.61976176  1
  Ni  Ni190  1  0.69964512  0.64652512  0.18857459  1
  Ni  Ni191  1  0.53418524  0.94886852  0.71721561  1
  Ni  Ni192  1  0.05068203  0.28131215  0.13252402  1
  Ni  Ni193  1  0.45377522  0.91193013  0.55994390  1
  Ni  Ni194  1  0.24924391  0.03962727  0.89203422  1
  Ni  Ni195  1  0.93521870  0.71972740  0.73886629  1
  Ni  Ni196  1  0.82930701  0.58882010  0.10744556  1
  Ni  Ni197  1  0.76319729  0.27988441  0.38379776  1
  Ni  Ni198  1  0.92991070  0.56097652  0.42180000  1
  Ni  Ni199  1  0.20694864  0.24258730  0.73241452  1
  Ni  Ni200  1  0.85456679  0.96508249  0.68370487  1
  Ni  Ni201  1  -0.00659752  0.47957313  0.30043669  1
  Ni  Ni202  1  0.65849842  0.52804623  0.07765792  1
  Ni  Ni203  1  0.55362382  0.10692467  0.21570655  1
  Ni  Ni204  1  0.67188602  0.61895531  0.76410569  1
  Ni  Ni205  1  0.71135546  0.13379901  0.15461208  1
  Ni  Ni206  1  0.40969298  0.05388625  0.48121599  1
  Ni  Ni207  1  0.39833164  0.53973053  0.23543267  1
  Ni  Ni208  1  0.59145476  0.51295506  0.25857099  1
  Ni  Ni209  1  0.92194143  0.25283886  0.42342817  1
  Ni  Ni210  1  0.15606698  0.78567740  0.54656685  1
  Ni  Ni211  1  0.26123841  0.53427738  0.73030251  1
  Ni  Ni212  1  0.42660217  0.76770014  0.19796578  1
  Ni  Ni213  1  0.30869704  0.59389502  0.44473221  1
  Ni  Ni214  1  0.65163020  0.91033455  0.42160043  1
  Ni  Ni215  1  0.15735874  0.25932963  0.89172118  1
