# generated using pymatgen
data_Ti2CoNi
_symmetry_space_group_name_H-M   'P 1'
_cell_length_a   14.57048950
_cell_length_b   14.65103147
_cell_length_c   14.68864184
_cell_angle_alpha   89.92793630
_cell_angle_beta   89.92736017
_cell_angle_gamma   89.83725323
_symmetry_Int_Tables_number   1
_chemical_formula_structural   Ti2CoNi
_chemical_formula_sum   'Ti108 Co54 Ni54'
_cell_volume   3135.60640144
_cell_formula_units_Z   54
loop_
 _symmetry_equiv_pos_site_id
 _symmetry_equiv_pos_as_xyz
  1  'x, y, z'
loop_
 _atom_site_type_symbol
 _atom_site_label
 _atom_site_symmetry_multiplicity
 _atom_site_fract_x
 _atom_site_fract_y
 _atom_site_fract_z
 _atom_site_occupancy
  Ti  Ti0  1  0.02251484  0.02285419  0.01411693  1
  Ti  Ti1  1  0.03211596  -0.05311037  0.32234504  1
  Ti  Ti2  1  -0.08060598  -0.02944976  0.68124098  1
  Ti  Ti3  1  -0.02541002  0.35764020  0.06144385  1
  Ti  Ti4  1  -0.06601937  0.31390755  0.28623945  1
  Ti  Ti5  1  0.04994805  0.34098925  0.69942288  1
  Ti  Ti6  1  0.08578449  0.63437677  0.05880393  1
  Ti  Ti7  1  -0.06086530  0.65325211  0.35544755  1
  Ti  Ti8  1  -0.03852323  0.66539678  0.67097093  1
  Ti  Ti9  1  0.35067562  -0.07274695  -0.00682516  1
  Ti  Ti10  1  0.36847388  -0.03128160  0.34450614  1
  Ti  Ti11  1  0.24787284  -0.03630967  0.66168542  1
  Ti  Ti12  1  0.35134509  0.38163625  0.00873462  1
  Ti  Ti13  1  0.36992284  0.29021653  0.33458912  1
  Ti  Ti14  1  0.41898373  0.30043910  0.67593456  1
  Ti  Ti15  1  0.32588025  0.64014902  -0.09554313  1
  Ti  Ti16  1  0.28802891  0.75322836  0.36577038  1
  Ti  Ti17  1  0.30615361  0.65392040  0.68643052  1
  Ti  Ti18  1  0.71438710  0.00047608  0.10994970  1
  Ti  Ti19  1  0.64607527  0.03947088  0.30870316  1
  Ti  Ti20  1  0.72156352  -0.01491500  0.69763237  1
  Ti  Ti21  1  0.64126950  0.31125663  -0.05180563  1
  Ti  Ti22  1  0.64363289  0.35522764  0.40143395  1
  Ti  Ti23  1  0.62224096  0.40805172  0.62521495  1
  Ti  Ti24  1  0.56527447  0.72174717  0.08171316  1
  Ti  Ti25  1  0.60943372  0.73551162  0.38562945  1
  Ti  Ti26  1  0.69716892  0.60097689  0.66613134  1
  Ti  Ti27  1  -0.01417049  0.18241508  0.15172988  1
  Ti  Ti28  1  0.03807402  0.24112969  0.45573892  1
  Ti  Ti29  1  -0.00591145  0.16004794  0.75970416  1
  Ti  Ti30  1  0.05478053  0.49865992  0.20070091  1
  Ti  Ti31  1  0.01841616  0.51865402  0.55693201  1
  Ti  Ti32  1  0.00705181  0.54082595  0.79987254  1
  Ti  Ti33  1  0.03988817  0.83438970  0.09512545  1
  Ti  Ti34  1  -0.02265587  0.80801873  0.55323392  1
  Ti  Ti35  1  -0.03103737  0.87164213  0.88979614  1
  Ti  Ti36  1  0.37197344  0.14358248  0.21243155  1
  Ti  Ti37  1  0.32022158  0.21919794  0.54411776  1
  Ti  Ti38  1  0.28572277  0.16833538  0.76286001  1
  Ti  Ti39  1  0.25974048  0.50115533  0.17945958  1
  Ti  Ti40  1  0.32946028  0.46611766  0.42509198  1
  Ti  Ti41  1  0.35781282  0.46605780  0.75673295  1
  Ti  Ti42  1  0.31388451  0.85773535  0.18369516  1
  Ti  Ti43  1  0.31605463  0.89674313  0.50431522  1
  Ti  Ti44  1  0.27472435  0.80871309  0.80472416  1
  Ti  Ti45  1  0.67864193  0.19668898  0.13129201  1
  Ti  Ti46  1  0.63210201  0.20162082  0.54936538  1
  Ti  Ti47  1  0.69557535  0.18989621  0.80463518  1
  Ti  Ti48  1  0.74045939  0.59216437  0.14046078  1
  Ti  Ti49  1  0.75116411  0.48546612  0.50456349  1
  Ti  Ti50  1  0.64335573  0.49646092  0.85601276  1
  Ti  Ti51  1  0.64233593  0.85032765  0.22544788  1
  Ti  Ti52  1  0.62849044  0.87448191  0.54403765  1
  Ti  Ti53  1  0.65203388  0.85854090  0.82985904  1
  Ti  Ti54  1  0.10584741  0.03116291  0.17546482  1
  Ti  Ti55  1  0.13628197  -0.03746336  0.48782450  1
  Ti  Ti56  1  0.23596527  0.00652608  0.83708929  1
  Ti  Ti57  1  0.19161221  0.21189050  0.16779192  1
  Ti  Ti58  1  0.16096470  0.36784497  0.52543576  1
  Ti  Ti59  1  0.23529574  0.32564651  0.84513611  1
  Ti  Ti60  1  0.12589221  0.68448280  0.23875231  1
  Ti  Ti61  1  0.20590832  0.59932621  0.48635986  1
  Ti  Ti62  1  0.08109613  0.72107961  0.82470870  1
  Ti  Ti63  1  0.52589954  0.04681884  0.13278731  1
  Ti  Ti64  1  0.50490770  0.02994207  0.46923594  1
  Ti  Ti65  1  0.44187147  -0.08071109  0.80811402  1
  Ti  Ti66  1  0.58783649  0.37719597  0.13280334  1
  Ti  Ti67  1  0.47312201  0.34305498  0.49865351  1
  Ti  Ti68  1  0.46972880  0.27857481  0.84666188  1
  Ti  Ti69  1  0.43000979  0.60944785  0.18409299  1
  Ti  Ti70  1  0.44762422  0.65336978  0.47084029  1
  Ti  Ti71  1  0.55902907  0.69722483  0.87319545  1
  Ti  Ti72  1  0.90620124  -0.01917061  0.17513105  1
  Ti  Ti73  1  0.84046972  0.02087195  0.41870935  1
  Ti  Ti74  1  0.77358375  0.03201922  0.89752516  1
  Ti  Ti75  1  0.79879018  0.41510991  0.17112510  1
  Ti  Ti76  1  0.82645285  0.30537907  0.48544990  1
  Ti  Ti77  1  0.94061948  0.36814189  0.86541581  1
  Ti  Ti78  1  0.90951163  0.67511958  0.16931893  1
  Ti  Ti79  1  0.75375063  0.70979568  0.49336884  1
  Ti  Ti80  1  0.84256274  0.72434912  0.84682524  1
  Ti  Ti81  1  0.22248113  0.10656520  -0.00178708  1
  Ti  Ti82  1  0.19126151  0.09549135  0.34634130  1
  Ti  Ti83  1  0.13607525  0.14197017  0.60813287  1
  Ti  Ti84  1  0.15443273  0.44010150  0.01693770  1
  Ti  Ti85  1  0.17016853  0.38153524  0.32094665  1
  Ti  Ti86  1  0.18237033  0.47602104  0.69569045  1
  Ti  Ti87  1  0.14849928  0.88497827  -0.05800956  1
  Ti  Ti88  1  0.10094417  0.78492723  0.39715389  1
  Ti  Ti89  1  0.16635313  0.78146092  0.62018591  1
  Ti  Ti90  1  0.50257980  0.14311329  -0.02917290  1
  Ti  Ti91  1  0.56055116  0.23397976  0.27229065  1
  Ti  Ti92  1  0.53742102  0.08404635  0.74329676  1
  Ti  Ti93  1  0.47569121  0.56348069  0.00359722  1
  Ti  Ti94  1  0.53589840  0.52405129  0.33833063  1
  Ti  Ti95  1  0.50360989  0.58868881  0.67030846  1
  Ti  Ti96  1  0.54971153  0.89599390  -0.00751580  1
  Ti  Ti97  1  0.46165038  0.77131097  0.28020031  1
  Ti  Ti98  1  0.44539938  0.80195235  0.63440362  1
  Ti  Ti99  1  0.91283252  0.17603363  -0.05556490  1
  Ti  Ti100  1  0.80964818  0.14634913  0.26430493  1
  Ti  Ti101  1  0.82024561  0.12787967  0.59660730  1
  Ti  Ti102  1  0.82894230  0.54686998  -0.05509388  1
  Ti  Ti103  1  0.74955366  0.57885535  0.33671434  1
  Ti  Ti104  1  0.84619423  0.42002751  0.68069600  1
  Ti  Ti105  1  0.84580488  0.80859445  0.04029552  1
  Ti  Ti106  1  0.87523389  0.83043615  0.37596043  1
  Ti  Ti107  1  0.80422932  0.78324999  0.66093257  1
  Co  Co108  1  0.25984547  0.60181373  0.05171252  1
  Co  Co109  1  0.47134216  0.85669089  0.11982247  1
  Co  Co110  1  0.70495208  0.64734739  0.82396125  1
  Co  Co111  1  0.83018299  0.10681098  0.76141370  1
  Co  Co112  1  0.11093488  0.35043182  0.16102015  1
  Co  Co113  1  0.08480689  0.22737702  0.29414795  1
  Co  Co114  1  0.37300429  0.07583481  0.05280128  1
  Co  Co115  1  0.26214231  0.48616624  0.89232884  1
  Co  Co116  1  0.32911311  0.23250665  0.07488002  1
  Co  Co117  1  0.49142022  0.09057706  0.30745508  1
  Co  Co118  1  0.65090124  0.76497306  0.70160472  1
  Co  Co119  1  0.09911777  0.03916916  0.73636432  1
  Co  Co120  1  0.87089270  0.96747000  0.01037242  1
  Co  Co121  1  0.37409057  0.60595389  0.33404240  1
  Co  Co122  1  0.22007537  0.57026875  0.32061546  1
  Co  Co123  1  0.56774360  0.91092027  0.69487135  1
  Co  Co124  1  0.99077975  0.07564511  0.57959822  1
  Co  Co125  1  0.21602526  0.91126521  0.34943675  1
  Co  Co126  1  0.45029972  0.82022595  0.46382514  1
  Co  Co127  1  0.84725446  0.56596642  0.60181785  1
  Co  Co128  1  0.96630872  0.94333655  0.48398208  1
  Co  Co129  1  0.29289511  0.34315911  0.18884150  1
  Co  Co130  1  0.89921073  0.67573101  0.50723423  1
  Co  Co131  1  0.28949892  0.69018560  0.21524384  1
  Co  Co132  1  0.38833607  0.06452834  0.87763247  1
  Co  Co133  1  0.12838989  0.57609249  0.92137076  1
  Co  Co134  1  0.13043240  0.87663642  0.77101374  1
  Co  Co135  1  0.44487521  0.29651447  0.17138882  1
  Co  Co136  1  0.93781127  0.02513882  0.85441042  1
  Co  Co137  1  -0.03438891  0.81775312  0.73267398  1
  Co  Co138  1  0.89051261  0.17048858  0.43221258  1
  Co  Co139  1  0.89888303  0.51408145  0.44210285  1
  Co  Co140  1  0.20262266  0.94277094  0.07418353  1
  Co  Co141  1  0.39794040  0.44274979  0.27985998  1
  Co  Co142  1  0.55987273  0.89822240  0.38426483  1
  Co  Co143  1  0.99510230  0.49746127  0.96748382  1
  Co  Co144  1  0.76782378  0.72882728  0.28732287  1
  Co  Co145  1  0.04024127  0.08072444  0.43069171  1
  Co  Co146  1  0.20088350  0.61153483  0.79035554  1
  Co  Co147  1  0.33995114  0.21501822  0.92091060  1
  Co  Co148  1  0.10477348  0.42574455  0.85458499  1
  Co  Co149  1  0.45050566  0.96369326  0.60120861  1
  Co  Co150  1  0.61347813  0.04570499  0.59480119  1
  Co  Co151  1  0.43647209  0.45132177  0.12467706  1
  Co  Co152  1  0.61079148  0.67074526  0.23559812  1
  Co  Co153  1  0.66402396  0.45326292  0.26195786  1
  Co  Co154  1  0.72587055  0.29346492  0.25928797  1
  Co  Co155  1  0.06126123  0.67202041  0.50099905  1
  Co  Co156  1  0.14619826  0.85649673  0.22063974  1
  Co  Co157  1  0.96288910  0.37600754  0.54759858  1
  Co  Co158  1  0.19244076  0.72384142  0.94224859  1
  Co  Co159  1  0.71815269  0.86428074  0.39692870  1
  Co  Co160  1  0.72528101  0.75029924  0.12509180  1
  Co  Co161  1  0.70267001  0.74786282  0.95622671  1
  Ni  Ni162  1  0.08098817  0.19820170  0.02438112  1
  Ni  Ni163  1  0.58434681  0.71268129  0.57117176  1
  Ni  Ni164  1  0.58245470  0.54214185  0.13587921  1
  Ni  Ni165  1  0.96936391  0.10275195  0.29217096  1
  Ni  Ni166  1  0.37534261  0.72947120  0.07130749  1
  Ni  Ni167  1  0.69997928  0.35681167  0.77955903  1
  Ni  Ni168  1  0.74509735  0.28453107  0.63892230  1
  Ni  Ni169  1  0.21868862  0.24263913  0.41138451  1
  Ni  Ni170  1  0.80703900  0.89795367  0.54029152  1
  Ni  Ni171  1  0.06938054  0.55432869  0.36939984  1
  Ni  Ni172  1  0.71820172  0.90037628  0.98300759  1
  Ni  Ni173  1  0.69994373  0.18507760  0.39253102  1
  Ni  Ni174  1  0.26505399  0.01831012  0.20486733  1
  Ni  Ni175  1  0.58193719  0.25853423  0.69929081  1
  Ni  Ni176  1  0.79775060  0.29175346  0.90890216  1
  Ni  Ni177  1  0.90704089  0.50850843  0.27135262  1
  Ni  Ni178  1  0.35820289  0.13160642  0.40262398  1
  Ni  Ni179  1  0.86074656  0.26822791  0.75401624  1
  Ni  Ni180  1  0.26447566  0.06509102  0.51910269  1
  Ni  Ni181  1  0.47252664  0.15556651  0.59772805  1
  Ni  Ni182  1  0.68260262  0.14432234  -0.02186077  1
  Ni  Ni183  1  0.01790026  0.40393708  0.39635664  1
  Ni  Ni184  1  0.42880137  0.71958963  0.77643895  1
  Ni  Ni185  1  0.22177086  0.29703288  0.67387797  1
  Ni  Ni186  1  0.51432807  0.20138947  0.42777189  1
  Ni  Ni187  1  0.62676718  0.59022249  0.47438334  1
  Ni  Ni188  1  0.50587437  0.49710112  0.52219574  1
  Ni  Ni189  1  0.83110622  0.11305925  0.07826310  1
  Ni  Ni190  1  0.77982923  0.94605387  0.26902881  1
  Ni  Ni191  1  0.80303308  0.40947765  0.35213107  1
  Ni  Ni192  1  0.07266503  0.26743479  0.87880270  1
  Ni  Ni193  1  0.37925376  0.05180831  0.70998323  1
  Ni  Ni194  1  -0.04489306  0.23005619  0.60749916  1
  Ni  Ni195  1  0.49696562  0.94027635  0.24817646  1
  Ni  Ni196  1  0.20385325  0.76630040  0.09349754  1
  Ni  Ni197  1  0.98983052  0.79630531  0.25237691  1
  Ni  Ni198  1  0.52865656  0.41410423  0.76182793  1
  Ni  Ni199  1  0.65589894  0.60147695  0.98962962  1
  Ni  Ni200  1  0.31289801  0.73081762  0.53572117  1
  Ni  Ni201  1  0.42510196  0.78987825  0.92510879  1
  Ni  Ni202  1  0.51016032  0.41351800  0.94654889  1
  Ni  Ni203  1  0.60126192  0.02173570  0.89324171  1
  Ni  Ni204  1  0.83967676  0.56956043  0.76625260  1
  Ni  Ni205  1  0.09050571  1.09816638  0.88632687  1
  Ni  Ni206  1  0.70369771  0.44906228  0.02047656  1
  Ni  Ni207  1  0.47196141  0.55316166  0.83543249  1
  Ni  Ni208  1  0.07118305  0.92638755  0.62935326  1
  Ni  Ni209  1  0.95832673  0.69745852  0.97444461  1
  Ni  Ni210  1  0.84288048  0.26399331  0.13481551  1
  Ni  Ni211  1  0.35636169  0.55196200  0.57393807  1
  Ni  Ni212  1  0.12227834  0.62388553  0.64902337  1
  Ni  Ni213  1  0.31579274  0.39907233  0.58596665  1
  Ni  Ni214  1  0.82313081  0.88946389  0.80234171  1
  Ni  Ni215  1  0.91091115  0.52727262  0.09976267  1
