# generated using pymatgen
data_Ti2CoNi
_symmetry_space_group_name_H-M   'P 1'
_cell_length_a   14.57541904
_cell_length_b   14.62174035
_cell_length_c   14.51112126
_cell_angle_alpha   89.93132039
_cell_angle_beta   90.13122019
_cell_angle_gamma   89.81328658
_symmetry_Int_Tables_number   1
_chemical_formula_structural   Ti2CoNi
_chemical_formula_sum   'Ti108 Co54 Ni54'
_cell_volume   3092.55425425
_cell_formula_units_Z   54
loop_
 _symmetry_equiv_pos_site_id
 _symmetry_equiv_pos_as_xyz
  1  'x, y, z'
loop_
 _atom_site_type_symbol
 _atom_site_label
 _atom_site_symmetry_multiplicity
 _atom_site_fract_x
 _atom_site_fract_y
 _atom_site_fract_z
 _atom_site_occupancy
  Ti  Ti0  1  -0.07551815  -0.01699342  -0.04019308  1
  Ti  Ti1  1  0.06433486  -0.05507352  0.35800460  1
  Ti  Ti2  1  -0.03835558  -0.00381724  0.66671819  1
  Ti  Ti3  1  -0.04276369  0.31523704  -0.01636072  1
  Ti  Ti4  1  0.07635959  0.45918392  0.29980830  1
  Ti  Ti5  1  0.01815258  0.42123979  0.65844124  1
  Ti  Ti6  1  -0.10015374  0.70175875  -0.00995775  1
  Ti  Ti7  1  0.00289606  0.64382368  0.26640772  1
  Ti  Ti8  1  -0.01534316  0.62681524  0.61478250  1
  Ti  Ti9  1  0.35222760  0.03218029  0.02852837  1
  Ti  Ti10  1  0.35697402  -0.03022994  0.36075685  1
  Ti  Ti11  1  0.27746726  -0.03963445  0.69229841  1
  Ti  Ti12  1  0.40592930  0.31357204  0.04096008  1
  Ti  Ti13  1  0.29376321  0.37222161  0.32189027  1
  Ti  Ti14  1  0.37647913  0.32395979  0.63008592  1
  Ti  Ti15  1  0.31323575  0.78521836  -0.03873817  1
  Ti  Ti16  1  0.40446937  0.65785346  0.36909680  1
  Ti  Ti17  1  0.34537213  0.62286131  0.68450505  1
  Ti  Ti18  1  0.69094256  -0.01202521  -0.02072609  1
  Ti  Ti19  1  0.65393792  0.02565544  0.31666634  1
  Ti  Ti20  1  0.68448034  -0.01972787  0.52467320  1
  Ti  Ti21  1  0.70331485  0.30317083  -0.01259999  1
  Ti  Ti22  1  0.66576058  0.36178328  0.38764606  1
  Ti  Ti23  1  0.59631523  0.31754239  0.64815682  1
  Ti  Ti24  1  0.61994093  0.63876504  -0.01031196  1
  Ti  Ti25  1  0.69324757  0.64955448  0.29368283  1
  Ti  Ti26  1  0.64808288  0.63122016  0.68478602  1
  Ti  Ti27  1  0.03966729  0.14137103  0.19156670  1
  Ti  Ti28  1  -0.01695270  0.11448356  0.45242262  1
  Ti  Ti29  1  0.00440649  0.29427323  0.81192265  1
  Ti  Ti30  1  -0.11453936  0.47358509  0.20308369  1
  Ti  Ti31  1  -0.02709334  0.46802686  0.48247063  1
  Ti  Ti32  1  -0.03324911  0.48844078  0.84625828  1
  Ti  Ti33  1  -0.04536846  0.84447369  0.22245255  1
  Ti  Ti34  1  0.07066804  0.83336934  0.52638734  1
  Ti  Ti35  1  0.03839253  0.78771945  0.86692498  1
  Ti  Ti36  1  0.30252509  0.19065497  0.17042328  1
  Ti  Ti37  1  0.31439279  0.15094282  0.60209160  1
  Ti  Ti38  1  0.33311633  0.08087793  0.84021679  1
  Ti  Ti39  1  0.30862990  0.50740160  0.11151038  1
  Ti  Ti40  1  0.28665323  0.56990193  0.50435492  1
  Ti  Ti41  1  0.29120897  0.49793276  0.89663350  1
  Ti  Ti42  1  0.30481818  0.87303814  0.14940411  1
  Ti  Ti43  1  0.36602256  0.77974020  0.55822120  1
  Ti  Ti44  1  0.37163400  0.81790950  0.77614809  1
  Ti  Ti45  1  0.69921471  0.29656268  0.18777656  1
  Ti  Ti46  1  0.66298242  0.19075827  0.49685589  1
  Ti  Ti47  1  0.65037003  0.08904278  0.80497177  1
  Ti  Ti48  1  0.69622400  0.50972374  0.14205161  1
  Ti  Ti49  1  0.68803028  0.56697024  0.49144168  1
  Ti  Ti50  1  0.64923941  0.40095432  0.82381566  1
  Ti  Ti51  1  0.70286558  0.83943738  0.23673153  1
  Ti  Ti52  1  0.57980243  0.81457452  0.47252638  1
  Ti  Ti53  1  0.70583073  0.81270092  0.75121455  1
  Ti  Ti54  1  0.19136519  0.01998977  0.22449284  1
  Ti  Ti55  1  0.21009858  0.03373483  0.48506768  1
  Ti  Ti56  1  0.13021929  0.04228082  0.81262618  1
  Ti  Ti57  1  0.12069343  0.27726731  0.08294422  1
  Ti  Ti58  1  0.13244418  0.31503351  0.48541990  1
  Ti  Ti59  1  0.22316800  0.30989612  0.88037880  1
  Ti  Ti60  1  0.18241446  0.70377956  0.21124325  1
  Ti  Ti61  1  0.09141140  0.62220251  0.43902986  1
  Ti  Ti62  1  0.12735739  0.59241032  0.78596810  1
  Ti  Ti63  1  0.53914460  0.00572701  0.10287945  1
  Ti  Ti64  1  0.50731549  0.05802424  0.50851960  1
  Ti  Ti65  1  0.56455690  -0.10101356  0.83441675  1
  Ti  Ti66  1  0.51153187  0.27597527  0.23645308  1
  Ti  Ti67  1  0.47188254  0.33764459  0.45660663  1
  Ti  Ti68  1  0.43863484  0.34416197  0.81486936  1
  Ti  Ti69  1  0.52969677  0.66966232  0.18868085  1
  Ti  Ti70  1  0.50080222  0.63562273  0.55395040  1
  Ti  Ti71  1  0.46284366  0.65661284  0.85367008  1
  Ti  Ti72  1  0.87153713  0.03848578  0.12864385  1
  Ti  Ti73  1  0.87780151  -0.04267667  0.50462226  1
  Ti  Ti74  1  0.79977818  -0.02938572  0.81225910  1
  Ti  Ti75  1  0.89323477  0.25829261  0.15100565  1
  Ti  Ti76  1  0.87194218  0.28978948  0.48400841  1
  Ti  Ti77  1  0.81673233  0.36181993  0.74189382  1
  Ti  Ti78  1  0.83628907  0.66976812  0.17273215  1
  Ti  Ti79  1  0.78607047  0.75477766  0.50377248  1
  Ti  Ti80  1  0.77086097  0.66242430  0.85350509  1
  Ti  Ti81  1  0.13916479  0.07605400  0.01705806  1
  Ti  Ti82  1  0.16098541  0.24685309  0.28874920  1
  Ti  Ti83  1  0.15537627  0.24426823  0.69750494  1
  Ti  Ti84  1  0.11367998  0.47612673  0.00105418  1
  Ti  Ti85  1  0.24871788  0.54447705  0.29028966  1
  Ti  Ti86  1  0.21155723  0.42818548  0.65310093  1
  Ti  Ti87  1  0.13113722  0.78969780  0.04165341  1
  Ti  Ti88  1  0.22766071  0.84099279  0.38528390  1
  Ti  Ti89  1  0.20704050  0.75564198  0.70469232  1
  Ti  Ti90  1  0.58028542  0.16879289  0.00136653  1
  Ti  Ti91  1  0.47841127  0.10272107  0.29792705  1
  Ti  Ti92  1  0.47587790  0.16904077  0.72698401  1
  Ti  Ti93  1  0.49129211  0.48276300  -0.05087430  1
  Ti  Ti94  1  0.54391416  0.51003543  0.35619176  1
  Ti  Ti95  1  0.50710783  0.50465627  0.71672244  1
  Ti  Ti96  1  0.51364060  0.81344941  -0.00351759  1
  Ti  Ti97  1  0.47653946  0.88067771  0.21825442  1
  Ti  Ti98  1  0.51112176  0.90247818  0.63585458  1
  Ti  Ti99  1  0.82799792  0.15426531  -0.05204579  1
  Ti  Ti100  1  0.80237940  0.14354619  0.26898333  1
  Ti  Ti101  1  0.86172935  0.15328267  0.75314980  1
  Ti  Ti102  1  0.85692757  0.52133735  -0.00390660  1
  Ti  Ti103  1  0.85567097  0.58379592  0.36965510  1
  Ti  Ti104  1  0.83063007  0.54394876  0.71025556  1
  Ti  Ti105  1  0.80034446  0.85849947  0.07355312  1
  Ti  Ti106  1  0.83573688  0.96070476  0.31668737  1
  Ti  Ti107  1  0.90138732  0.81393141  0.74021651  1
  Co  Co108  1  0.57633002  0.36497308  0.08740021  1
  Co  Co109  1  0.80972610  0.69937800  0.66507038  1
  Co  Co110  1  0.73149337  0.87316383  0.40490270  1
  Co  Co111  1  0.25000260  -0.04156051  0.92536116  1
  Co  Co112  1  0.82969992  0.75664109  0.31961145  1
  Co  Co113  1  0.18922320  0.93640070  0.07572050  1
  Co  Co114  1  0.95259943  0.21666518  0.33173378  1
  Co  Co115  1  0.79321801  0.88828522  0.63025376  1
  Co  Co116  1  0.92633168  0.80688987  0.57912830  1
  Co  Co117  1  0.30224771  0.64501609  0.83542360  1
  Co  Co118  1  0.17838208  0.39807701  0.18556467  1
  Co  Co119  1  0.28225758  0.10988942  0.32021346  1
  Co  Co120  1  0.64918325  0.19446524  0.33219183  1
  Co  Co121  1  0.53521022  0.32206225  0.94377715  1
  Co  Co122  1  0.93209933  0.84763628  0.40403359  1
  Co  Co123  1  0.58624703  0.42864907  0.23479617  1
  Co  Co124  1  0.91044268  0.40618076  0.34415310  1
  Co  Co125  1  0.97338846  0.57461161  0.09673581  1
  Co  Co126  1  0.51924905  0.04474677  0.91640280  1
  Co  Co127  1  0.08772216  0.93181765  0.94917629  1
  Co  Co128  1  0.07662588  0.76844630  0.35161021  1
  Co  Co129  1  0.79505393  0.44603474  0.45000906  1
  Co  Co130  1  0.73450307  0.48556958  0.30307115  1
  Co  Co131  1  0.10013017  0.91192748  0.68157384  1
  Co  Co132  1  0.64303744  0.77765231  0.60791622  1
  Co  Co133  1  0.18018279  0.86941876  0.81900761  1
  Co  Co134  1  0.58328455  0.23841100  0.82164118  1
  Co  Co135  1  0.49459832  0.21267553  0.56364324  1
  Co  Co136  1  0.80076860  0.29468723  0.32560365  1
  Co  Co137  1  0.02259335  0.14472487  0.70473807  1
  Co  Co138  1  0.41993540  0.54356682  0.24049771  1
  Co  Co139  1  0.24874988  0.22017608  0.43942847  1
  Co  Co140  1  0.37101736  0.24299303  0.32108794  1
  Co  Co141  1  0.65330042  0.96072818  0.69789537  1
  Co  Co142  1  0.71667104  0.99798514  0.15981747  1
  Co  Co143  1  0.18203746  0.71926315  0.89447141  1
  Co  Co144  1  0.43107389  0.40139323  0.17554868  1
  Co  Co145  1  0.03067312  0.23256744  0.55771273  1
  Co  Co146  1  0.85241008  0.42545533  0.59492659  1
  Co  Co147  1  0.62759882  0.86932744  0.09171874  1
  Co  Co148  1  0.13340513  0.85805548  0.22141483  1
  Co  Co149  1  0.96675260  0.04790119  0.28589146  1
  Co  Co150  1  0.01310163  0.72249048  0.12758264  1
  Co  Co151  1  0.37298412  1.02335313  0.19623717  1
  Co  Co152  1  0.61830142  0.56082742  0.83893494  1
  Co  Co153  1  0.98830911  0.94041411  0.81615018  1
  Co  Co154  1  0.85394166  0.83568085  0.90031446  1
  Co  Co155  1  0.12418250  0.54948892  0.16089884  1
  Co  Co156  1  0.84489745  0.58362695  0.53993318  1
  Co  Co157  1  0.93184182  0.28243548  0.66497468  1
  Co  Co158  1  0.68399640  0.46850715  0.67322201  1
  Co  Co159  1  0.60137671  0.72711660  0.84168681  1
  Co  Co160  1  0.00263463  0.41574652  0.10242434  1
  Co  Co161  1  0.61123397  0.13477344  0.18412278  1
  Ni  Ni162  1  0.61116202  0.11155172  0.63719790  1
  Ni  Ni163  1  0.69672211  0.81004039  0.94464504  1
  Ni  Ni164  1  0.25186897  0.36667929  1.03705600  1
  Ni  Ni165  1  0.67338701  0.47437036  0.97842208  1
  Ni  Ni166  1  0.21067349  0.62724950  0.02969851  1
  Ni  Ni167  1  0.52619732  0.52451381  0.10429832  1
  Ni  Ni168  1  0.31708356  0.23512657  0.76860156  1
  Ni  Ni169  1  0.19760036  0.71224511  0.53973158  1
  Ni  Ni170  1  0.03378578  -0.02866212  0.13378918  1
  Ni  Ni171  1  0.53075143  0.94620094  0.38151859  1
  Ni  Ni172  1  0.82561263  0.38325260  0.90145392  1
  Ni  Ni173  1  0.34482590  0.46463272  0.74073098  1
  Ni  Ni174  1  0.40914616  0.74614967  0.10704101  1
  Ni  Ni175  1  0.94849507  0.65008397  0.79928819  1
  Ni  Ni176  1  0.74208478  0.15361632  0.08757602  1
  Ni  Ni177  1  0.38851210  0.48672201  0.40014215  1
  Ni  Ni178  1  0.77633739  0.05505969  0.64866966  1
  Ni  Ni179  1  0.29660604  0.38351285  0.49453270  1
  Ni  Ni180  1  0.22872022  0.87315717  0.56257460  1
  Ni  Ni181  1  0.79334415  0.10405195  0.43554182  1
  Ni  Ni182  1  0.74324746  0.24244058  0.82988757  1
  Ni  Ni183  1  0.11792147  0.11285430  0.36678298  1
  Ni  Ni184  1  0.40792761  0.92441276  0.89873852  1
  Ni  Ni185  1  0.37851790  0.61759066  0.99600731  1
  Ni  Ni186  1  0.04840637  0.62784332  0.94947925  1
  Ni  Ni187  1  0.98332971  0.10385814  0.86426319  1
  Ni  Ni188  1  0.38505845  0.14030216  0.44811082  1
  Ni  Ni189  1  0.56934486  0.66453912  0.40248847  1
  Ni  Ni190  1  0.42011757  0.82348958  0.40925866  1
  Ni  Ni191  1  0.42363763  0.18905651  0.92300140  1
  Ni  Ni192  1  0.46185415  0.00733952  0.75234047  1
  Ni  Ni193  1  0.45527545  0.15399533  0.11408109  1
  Ni  Ni194  1  0.10278290  0.20389383  0.91803421  1
  Ni  Ni195  1  0.40831412  0.48205648  0.57503698  1
  Ni  Ni196  1  0.14413263  0.57183531  0.61145668  1
  Ni  Ni197  1  0.98038882  0.14674370  0.03125182  1
  Ni  Ni198  1  0.69471529  0.71824283  0.10916315  1
  Ni  Ni199  1  0.36940932  0.96405759  0.54259602  1
  Ni  Ni200  1  0.81920170  0.38339816  0.07378460  1
  Ni  Ni201  1  0.15900049  0.07791885  0.64245829  1
  Ni  Ni202  1  0.96787378  0.84899762  0.03784686  1
  Ni  Ni203  1  0.94725711  0.69685609  0.45192886  1
  Ni  Ni204  1  0.04922488  0.74831585  0.69390453  1
  Ni  Ni205  1  0.15882149  0.47470848  0.45790539  1
  Ni  Ni206  1  0.88788371  0.14570646  0.58080155  1
  Ni  Ni207  1  0.34190785  0.76961200  0.27075023  1
  Ni  Ni208  1  0.12280703  0.42606691  0.81080062  1
  Ni  Ni209  1  0.23289168  0.68294011  0.37806701  1
  Ni  Ni210  1  0.56591732  0.78908784  0.30920408  1
  Ni  Ni211  1  0.26362051  0.19077388  -0.00248339  1
  Ni  Ni212  1  0.02249848  0.32210195  0.23359871  1
  Ni  Ni213  1  0.56966933  0.46624858  0.54828805  1
  Ni  Ni214  1  0.76161879  0.25334327  0.62389441  1
  Ni  Ni215  1  0.49906589  0.73889345  0.69401304  1
