# generated using pymatgen
data_Ti2CoNi
_symmetry_space_group_name_H-M   'P 1'
_cell_length_a   14.61821845
_cell_length_b   14.67808563
_cell_length_c   14.67725824
_cell_angle_alpha   89.97439441
_cell_angle_beta   90.43717604
_cell_angle_gamma   89.70157284
_symmetry_Int_Tables_number   1
_chemical_formula_structural   Ti2CoNi
_chemical_formula_sum   'Ti108 Co54 Ni54'
_cell_volume   3149.12728702
_cell_formula_units_Z   54
loop_
 _symmetry_equiv_pos_site_id
 _symmetry_equiv_pos_as_xyz
  1  'x, y, z'
loop_
 _atom_site_type_symbol
 _atom_site_label
 _atom_site_symmetry_multiplicity
 _atom_site_fract_x
 _atom_site_fract_y
 _atom_site_fract_z
 _atom_site_occupancy
  Ti  Ti0  1  -0.01217609  -0.02988309  0.01515203  1
  Ti  Ti1  1  0.01689863  0.05263986  0.38294729  1
  Ti  Ti2  1  0.04210097  0.07070817  0.68171314  1
  Ti  Ti3  1  -0.06808589  0.32906974  -0.00295260  1
  Ti  Ti4  1  -0.01039311  0.39908538  0.34996518  1
  Ti  Ti5  1  -0.01952180  0.32504494  0.71134079  1
  Ti  Ti6  1  -0.00198723  0.64963476  0.09559366  1
  Ti  Ti7  1  -0.01907849  0.59673545  0.29751368  1
  Ti  Ti8  1  0.01048397  0.69556934  0.60783826  1
  Ti  Ti9  1  0.35498618  -0.01655434  0.01192420  1
  Ti  Ti10  1  0.36971777  -0.00120227  0.34016432  1
  Ti  Ti11  1  0.40448281  0.03744851  0.64964936  1
  Ti  Ti12  1  0.40263828  0.31853028  0.03857946  1
  Ti  Ti13  1  0.35817220  0.28936397  0.22933106  1
  Ti  Ti14  1  0.24227917  0.32961641  0.66073347  1
  Ti  Ti15  1  0.29856892  0.63496104  0.04191244  1
  Ti  Ti16  1  0.30988703  0.68257726  0.40977193  1
  Ti  Ti17  1  0.41029266  0.68486295  0.69482432  1
  Ti  Ti18  1  0.67506593  -0.02568467  -0.03834839  1
  Ti  Ti19  1  0.56750991  -0.04645228  0.32243621  1
  Ti  Ti20  1  0.71086353  0.03531066  0.71160197  1
  Ti  Ti21  1  0.60871619  0.34052599  -0.00148404  1
  Ti  Ti22  1  0.72280557  0.30096570  0.27315299  1
  Ti  Ti23  1  0.55791993  0.36824701  0.68734377  1
  Ti  Ti24  1  0.71238081  0.64516082  -0.01864086  1
  Ti  Ti25  1  0.70006618  0.64894107  0.35155708  1
  Ti  Ti26  1  0.65055849  0.68773457  0.66418102  1
  Ti  Ti27  1  0.02419429  0.11930697  0.16332624  1
  Ti  Ti28  1  -0.04822001  0.18679101  0.53836817  1
  Ti  Ti29  1  0.02608524  0.20090147  0.87859933  1
  Ti  Ti30  1  -0.07256603  0.45973605  0.14968665  1
  Ti  Ti31  1  0.04113483  0.50974375  0.50242810  1
  Ti  Ti32  1  -0.01111813  0.51432608  0.77008471  1
  Ti  Ti33  1  0.07086502  0.83300558  0.12458004  1
  Ti  Ti34  1  0.05470127  0.88749124  0.51982569  1
  Ti  Ti35  1  -0.00959620  0.77957362  0.81137212  1
  Ti  Ti36  1  0.21728214  0.16383261  0.18427713  1
  Ti  Ti37  1  0.32259224  0.24784984  0.51958207  1
  Ti  Ti38  1  0.30558306  0.22009226  0.80327010  1
  Ti  Ti39  1  0.27508138  0.46261732  0.13520496  1
  Ti  Ti40  1  0.31221513  0.47173993  0.46415864  1
  Ti  Ti41  1  0.36346656  0.54081408  0.84347541  1
  Ti  Ti42  1  0.28408682  0.83361806  0.12007185  1
  Ti  Ti43  1  0.30337707  0.81986687  0.54188981  1
  Ti  Ti44  1  0.32096898  0.80803935  0.81596740  1
  Ti  Ti45  1  0.64993417  0.12458334  0.25447398  1
  Ti  Ti46  1  0.71403834  0.14211307  0.55487470  1
  Ti  Ti47  1  0.62622506  0.14113710  0.86453501  1
  Ti  Ti48  1  0.71901814  0.48489063  0.17510196  1
  Ti  Ti49  1  0.65405541  0.44628426  0.53020396  1
  Ti  Ti50  1  0.62473409  0.45593129  0.84016707  1
  Ti  Ti51  1  0.68461146  0.87735718  0.18240953  1
  Ti  Ti52  1  0.72181240  0.84417779  0.38615335  1
  Ti  Ti53  1  0.66397337  0.79902997  0.86405039  1
  Ti  Ti54  1  0.17233731  -0.00353067  0.09313337  1
  Ti  Ti55  1  0.21534859  -0.04148242  0.45539916  1
  Ti  Ti56  1  0.22340752  -0.00625479  0.77431825  1
  Ti  Ti57  1  0.13529555  0.34055239  0.22076310  1
  Ti  Ti58  1  0.11407240  0.29060439  0.47476593  1
  Ti  Ti59  1  0.18223041  0.34090462  0.92617587  1
  Ti  Ti60  1  0.15968010  0.69782733  0.20711674  1
  Ti  Ti61  1  0.08320560  0.72848252  0.39099805  1
  Ti  Ti62  1  0.20262648  0.67908576  0.87010406  1
  Ti  Ti63  1  0.47460035  0.02144179  0.16418854  1
  Ti  Ti64  1  0.51299797  0.08369477  0.47513408  1
  Ti  Ti65  1  0.55031139  -0.02999451  0.78875874  1
  Ti  Ti66  1  0.55493852  0.37427168  0.17483817  1
  Ti  Ti67  1  0.52831061  0.27834204  0.52649167  1
  Ti  Ti68  1  0.50291026  0.27436556  0.83990575  1
  Ti  Ti69  1  0.47552745  0.66593123  0.17841738  1
  Ti  Ti70  1  0.49400823  0.60986319  0.54232434  1
  Ti  Ti71  1  0.55517777  0.63207223  0.82971972  1
  Ti  Ti72  1  0.83028987  0.00437959  0.11973308  1
  Ti  Ti73  1  0.77494211  -0.04773481  0.54863741  1
  Ti  Ti74  1  0.93811863  0.01880567  0.84166960  1
  Ti  Ti75  1  0.92422959  0.26678172  0.20308563  1
  Ti  Ti76  1  0.81454797  0.33243161  0.45727065  1
  Ti  Ti77  1  0.77591516  0.37196235  0.72567303  1
  Ti  Ti78  1  0.80861030  0.71698837  0.17973794  1
  Ti  Ti79  1  0.81182540  0.72433066  0.52711021  1
  Ti  Ti80  1  0.89719589  0.59207123  0.92692609  1
  Ti  Ti81  1  0.22495394  0.17373948  -0.01069556  1
  Ti  Ti82  1  0.20832289  0.13269436  0.39376909  1
  Ti  Ti83  1  0.22290680  0.12259309  0.62514194  1
  Ti  Ti84  1  0.12900446  0.52572135  -0.04915580  1
  Ti  Ti85  1  0.20808267  0.55527040  0.30041147  1
  Ti  Ti86  1  0.18172314  0.47218572  0.76432377  1
  Ti  Ti87  1  0.14586296  0.86877527  -0.06144467  1
  Ti  Ti88  1  0.22085293  0.87085739  0.28518858  1
  Ti  Ti89  1  0.18998461  0.75445230  0.67896534  1
  Ti  Ti90  1  0.54113028  0.15416442  0.03765261  1
  Ti  Ti91  1  0.53283733  0.25980345  0.33729888  1
  Ti  Ti92  1  0.55495938  0.15485109  0.67508731  1
  Ti  Ti93  1  0.47771778  0.54941498  0.01029504  1
  Ti  Ti94  1  0.48675464  0.45538466  0.34410452  1
  Ti  Ti95  1  0.37194065  0.48595137  0.64872370  1
  Ti  Ti96  1  0.48358637  0.84210334  -0.05064279  1
  Ti  Ti97  1  0.51101592  0.77038862  0.34608732  1
  Ti  Ti98  1  0.50701777  0.84517214  0.62278091  1
  Ti  Ti99  1  0.76528831  0.19122465  0.00335021  1
  Ti  Ti100  1  0.81580858  0.14768244  0.37268996  1
  Ti  Ti101  1  0.85196125  0.16986649  0.70031019  1
  Ti  Ti102  1  0.76473332  0.45009616  -0.01720935  1
  Ti  Ti103  1  0.83563403  0.52006755  0.42326999  1
  Ti  Ti104  1  0.85813057  0.53281184  0.61422352  1
  Ti  Ti105  1  0.84093546  0.84073276  -0.04158807  1
  Ti  Ti106  1  0.89196040  0.87950770  0.28758623  1
  Ti  Ti107  1  0.81233656  0.82103118  0.71767170  1
  Co  Co108  1  0.23448379  0.31248256  0.08623947  1
  Co  Co109  1  0.23994178  0.28578705  0.34858204  1
  Co  Co110  1  0.44837108  0.75823809  0.49767467  1
  Co  Co111  1  0.70190668  0.30461988  0.86870581  1
  Co  Co112  1  0.68589531  0.82374888  0.57333029  1
  Co  Co113  1  0.52848714  0.53736063  0.68921311  1
  Co  Co114  1  0.83135985  0.03122971  0.96194300  1
  Co  Co115  1  0.14800236  0.57521497  0.62356177  1
  Co  Co116  1  0.89295197  0.84084901  0.11703229  1
  Co  Co117  1  0.18392573  0.57735604  0.46427239  1
  Co  Co118  1  0.55731714  0.69916369  0.98877709  1
  Co  Co119  1  0.68858455  0.22112889  0.73107989  1
  Co  Co120  1  0.41753038  0.74836468  0.06186843  1
  Co  Co121  1  0.18248617  0.42969261  0.55245596  1
  Co  Co122  1  0.09611504  0.07936615  0.52715522  1
  Co  Co123  1  0.82557729  0.56646882  0.26239638  1
  Co  Co124  1  0.30564464  0.99848005  0.18318684  1
  Co  Co125  1  0.65138571  0.86753246  0.71813059  1
  Co  Co126  1  0.78439483  0.12614226  0.84133313  1
  Co  Co127  1  0.80004385  0.17043747  0.17133707  1
  Co  Co128  1  0.07803748  0.49200939  0.22229763  1
  Co  Co129  1  0.42641262  0.93499074  0.49728799  1
  Co  Co130  1  0.99349759  0.78737159  0.98347127  1
  Co  Co131  1  0.13072238  0.30170328  0.77338228  1
  Co  Co132  1  0.29345964  0.79605843  0.96886863  1
  Co  Co133  1  0.41745728  0.87079578  0.22307035  1
  Co  Co134  1  0.49487118  0.21592051  0.17623050  1
  Co  Co135  1  0.48549716  0.43810512  0.52384078  1
  Co  Co136  1  0.87254355  0.26400822  0.84069497  1
  Co  Co137  1  0.71068739  0.59769873  0.53514804  1
  Co  Co138  1  0.61425185  0.72071428  0.47874679  1
  Co  Co139  1  0.09662588  0.22878658  0.62565117  1
  Co  Co140  1  0.40971913  0.68664965  0.89871017  1
  Co  Co141  1  0.08015352  0.10343325  0.00469793  1
  Co  Co142  1  0.30793975  0.63812920  0.57158240  1
  Co  Co143  1  0.06573522  0.25517631  1.06362752  1
  Co  Co144  1  0.98969782  0.75412183  0.24087756  1
  Co  Co145  1  0.35578001  0.14068443  0.10170333  1
  Co  Co146  1  0.65294435  0.23709893  0.12844680  1
  Co  Co147  1  0.03923190  0.65314465  0.90977194  1
  Co  Co148  1  0.35637144  0.83961295  0.37870872  1
  Co  Co149  1  0.15898484  0.14594424  0.80106819  1
  Co  Co150  1  0.15349852  0.42903836  0.38258847  1
  Co  Co151  1  0.49608236  0.10425373  0.30420524  1
  Co  Co152  1  0.03175065  0.38887152  0.87604138  1
  Co  Co153  1  0.08714957  0.63882105  0.75753444  1
  Co  Co154  1  0.57809557  0.88450861  0.46765122  1
  Co  Co155  1  0.92495540  0.15638131  0.03535711  1
  Co  Co156  1  0.31469241  0.42863958  0.29855957  1
  Co  Co157  1  0.15025204  0.71220292  0.02756594  1
  Co  Co158  1  0.16365675  0.72781783  0.52434820  1
  Co  Co159  1  0.15361460  0.56797205  0.11100069  1
  Co  Co160  1  0.84344590  0.40340519  0.28370313  1
  Co  Co161  1  0.26452670  0.61331639  0.73242742  1
  Ni  Ni162  1  0.30947804  0.44938173  0.97147907  1
  Ni  Ni163  1  0.07948737  0.41919681  0.06736004  1
  Ni  Ni164  1  0.66671621  0.05727876  0.10776711  1
  Ni  Ni165  1  0.85623476  0.72125129  0.34971694  1
  Ni  Ni166  1  0.58415147  0.55648016  0.25676051  1
  Ni  Ni167  1  0.69275593  0.45480192  0.34505401  1
  Ni  Ni168  1  0.68970330  0.80675168  0.03744069  1
  Ni  Ni169  1  0.74630713  0.99006360  0.28230086  1
  Ni  Ni170  1  0.12336600  0.86712433  0.77416952  1
  Ni  Ni171  1  0.32815787  0.72678202  0.24483727  1
  Ni  Ni172  1  0.67919280  0.04175289  0.42428609  1
  Ni  Ni173  1  0.37298489  0.17764123  0.37272288  1
  Ni  Ni174  1  0.91342427  0.85106210  0.59215182  1
  Ni  Ni175  1  0.85217582  0.98705085  0.40859632  1
  Ni  Ni176  1  0.94485906  0.64276585  0.46582679  1
  Ni  Ni177  1  0.29810601  0.07311878  0.88740347  1
  Ni  Ni178  1  0.80706180  0.71401077  0.84471536  1
  Ni  Ni179  1  0.87574336  0.98368668  0.69194674  1
  Ni  Ni180  1  0.17227119  0.94571244  0.62193973  1
  Ni  Ni181  1  0.15151483  0.02751927  0.27171643  1
  Ni  Ni182  1  0.83580568  0.58218997  0.08555617  1
  Ni  Ni183  1  0.43976801  0.49164386  0.16970078  1
  Ni  Ni184  1  0.95123897  0.37482013  0.54124229  1
  Ni  Ni185  1  0.37670399  0.37635170  0.77437531  1
  Ni  Ni186  1  0.06477199  0.89140960  0.34186816  1
  Ni  Ni187  1  0.70662516  0.29947588  0.58748298  1
  Ni  Ni188  1  0.40898976  0.23689491  0.67117362  1
  Ni  Ni189  1  0.63572325  0.72134129  0.21490223  1
  Ni  Ni190  1  0.33116866  0.89598713  0.67873693  1
  Ni  Ni191  1  0.77737734  0.94658556  0.82874446  1
  Ni  Ni192  1  0.95292444  0.24310254  0.38512529  1
  Ni  Ni193  1  0.44793417  0.11269197  0.80267542  1
  Ni  Ni194  1  0.40317277  0.17952033  0.94615233  1
  Ni  Ni195  1  0.58588079  0.55866333  0.42341277  1
  Ni  Ni196  1  0.93840182  0.01897208  0.54558015  1
  Ni  Ni197  1  0.61099239  0.58495604  0.09952956  1
  Ni  Ni198  1  0.90272141  0.65142425  0.73225594  1
  Ni  Ni199  1  0.39223153  0.95292991  0.82422979  1
  Ni  Ni200  1  0.38393045  0.57897494  0.29912354  1
  Ni  Ni201  1  0.49896241  0.02290651  0.93987950  1
  Ni  Ni202  1  0.58791359  -0.00758359  0.59878376  1
  Ni  Ni203  1  0.67116495  0.23322305  0.42515322  1
  Ni  Ni204  1  0.40017361  0.33389278  0.40988588  1
  Ni  Ni205  1  0.69379229  0.51663730  0.68401484  1
  Ni  Ni206  1  0.33793742  0.07559711  0.49926045  1
  Ni  Ni207  1  0.50533520  0.79539975  0.78731345  1
  Ni  Ni208  1  0.86779081  0.42614449  0.85555357  1
  Ni  Ni209  1  0.89450759  0.06388246  0.26136068  1
  Ni  Ni210  1  0.08606405  0.20322837  0.30154481  1
  Ni  Ni211  1  0.56007773  0.92080244  0.07232078  1
  Ni  Ni212  1  0.79035174  0.33544736  0.11369454  1
  Ni  Ni213  1  0.00846616  0.95933909  0.19820219  1
  Ni  Ni214  1  0.76019233  0.55828342  0.82939631  1
  Ni  Ni215  1  0.46867466  0.41983465  0.90990066  1
