# generated using pymatgen
data_Ti2CoNi
_symmetry_space_group_name_H-M   'P 1'
_cell_length_a   14.62111768
_cell_length_b   14.60285189
_cell_length_c   14.66897843
_cell_angle_alpha   89.77075709
_cell_angle_beta   90.15703199
_cell_angle_gamma   90.36829525
_symmetry_Int_Tables_number   1
_chemical_formula_structural   Ti2CoNi
_chemical_formula_sum   'Ti108 Co54 Ni54'
_cell_volume   3131.87250199
_cell_formula_units_Z   54
loop_
 _symmetry_equiv_pos_site_id
 _symmetry_equiv_pos_as_xyz
  1  'x, y, z'
loop_
 _atom_site_type_symbol
 _atom_site_label
 _atom_site_symmetry_multiplicity
 _atom_site_fract_x
 _atom_site_fract_y
 _atom_site_fract_z
 _atom_site_occupancy
  Ti  Ti0  1  -0.01308153  0.05404081  -0.02223233  1
  Ti  Ti1  1  -0.02555198  -0.05098434  0.40897676  1
  Ti  Ti2  1  0.02829036  0.02239047  0.63427475  1
  Ti  Ti3  1  -0.02985323  0.39699937  -0.05395404  1
  Ti  Ti4  1  0.02590197  0.30053669  0.41777095  1
  Ti  Ti5  1  -0.01558827  0.26022593  0.62009351  1
  Ti  Ti6  1  -0.04541198  0.62713859  -0.09135646  1
  Ti  Ti7  1  0.03459966  0.65876921  0.36704950  1
  Ti  Ti8  1  -0.08663856  0.69816652  0.68828086  1
  Ti  Ti9  1  0.32113169  -0.07050079  0.04985476  1
  Ti  Ti10  1  0.31823310  -0.01363604  0.42632670  1
  Ti  Ti11  1  0.37702931  0.02971893  0.61934543  1
  Ti  Ti12  1  0.29329869  0.23667856  -0.00291396  1
  Ti  Ti13  1  0.32325257  0.30894381  0.28107416  1
  Ti  Ti14  1  0.33495891  0.29974235  0.67294372  1
  Ti  Ti15  1  0.25534942  0.65197628  -0.00411658  1
  Ti  Ti16  1  0.37334736  0.63925285  0.37436878  1
  Ti  Ti17  1  0.37687511  0.74263103  0.74404431  1
  Ti  Ti18  1  0.69349264  -0.02125230  -0.00593034  1
  Ti  Ti19  1  0.60733768  0.04732006  0.32234246  1
  Ti  Ti20  1  0.71498438  0.07727815  0.59253380  1
  Ti  Ti21  1  0.75816095  0.35617328  0.00125056  1
  Ti  Ti22  1  0.54646409  0.27408654  0.30522426  1
  Ti  Ti23  1  0.63287817  0.25940470  0.61208884  1
  Ti  Ti24  1  0.64881377  0.65435940  0.06136777  1
  Ti  Ti25  1  0.64310991  0.66332142  0.28830198  1
  Ti  Ti26  1  0.65869455  0.61771943  0.62358968  1
  Ti  Ti27  1  -0.03393762  0.22268202  0.24567462  1
  Ti  Ti28  1  -0.08208412  0.13717659  0.46287820  1
  Ti  Ti29  1  -0.01124241  0.13581144  0.79734128  1
  Ti  Ti30  1  0.02444683  0.49524258  0.13232534  1
  Ti  Ti31  1  -0.02588199  0.47169497  0.46605833  1
  Ti  Ti32  1  0.05759358  0.49600754  0.79019029  1
  Ti  Ti33  1  0.04413380  0.77110407  0.18780141  1
  Ti  Ti34  1  0.04333964  0.80530218  0.57712129  1
  Ti  Ti35  1  0.02302488  0.81319190  0.80653231  1
  Ti  Ti36  1  0.28504945  0.10558454  0.16985712  1
  Ti  Ti37  1  0.29175328  0.18321126  0.49419631  1
  Ti  Ti38  1  0.33101567  0.08597200  0.87534431  1
  Ti  Ti39  1  0.37205871  0.56185948  0.10337939  1
  Ti  Ti40  1  0.28691356  0.47113782  0.44767706  1
  Ti  Ti41  1  0.35890263  0.51736229  0.89169606  1
  Ti  Ti42  1  0.38360354  0.82095999  0.23716597  1
  Ti  Ti43  1  0.24331079  0.86429100  0.53790238  1
  Ti  Ti44  1  0.36802420  0.88893019  0.86168814  1
  Ti  Ti45  1  0.66362327  0.25905724  0.13974297  1
  Ti  Ti46  1  0.72567240  0.19152666  0.43199314  1
  Ti  Ti47  1  0.67486340  0.18748537  0.90346819  1
  Ti  Ti48  1  0.66801660  0.46411536  0.13709019  1
  Ti  Ti49  1  0.65104513  0.45446261  0.53271765  1
  Ti  Ti50  1  0.69287604  0.43046729  0.82746210  1
  Ti  Ti51  1  0.69247279  0.85884935  0.18274342  1
  Ti  Ti52  1  0.72148594  0.74692006  0.46499133  1
  Ti  Ti53  1  0.69579052  0.82844176  0.85733513  1
  Ti  Ti54  1  0.12420983  -0.02454626  0.11568217  1
  Ti  Ti55  1  0.13383122  0.02234332  0.47619628  1
  Ti  Ti56  1  0.17061792  -0.03616872  0.89433685  1
  Ti  Ti57  1  0.26455650  0.39921024  0.10699600  1
  Ti  Ti58  1  0.15030968  0.36378215  0.55560799  1
  Ti  Ti59  1  0.13422004  0.28631184  0.86319214  1
  Ti  Ti60  1  0.24546574  0.68318595  0.20514234  1
  Ti  Ti61  1  0.19270320  0.68446671  0.47607673  1
  Ti  Ti62  1  0.22744001  0.62203922  0.80202659  1
  Ti  Ti63  1  0.46488851  0.00587019  0.18392870  1
  Ti  Ti64  1  0.58064033  -0.02955495  0.49394799  1
  Ti  Ti65  1  0.59819084  -0.00185255  0.82993368  1
  Ti  Ti66  1  0.46149763  0.42018116  0.19772995  1
  Ti  Ti67  1  0.46989410  0.31681029  0.49048016  1
  Ti  Ti68  1  0.43837153  0.32173170  0.85779494  1
  Ti  Ti69  1  0.50427628  0.71893212  0.15618133  1
  Ti  Ti70  1  0.46648846  0.68627371  0.59231444  1
  Ti  Ti71  1  0.51710335  0.60239347  0.79550471  1
  Ti  Ti72  1  0.84553834  -0.00111048  0.12211257  1
  Ti  Ti73  1  0.85628560  -0.03921883  0.55231298  1
  Ti  Ti74  1  0.82139005  -0.00144176  0.77244186  1
  Ti  Ti75  1  0.83422846  0.37048234  0.19694778  1
  Ti  Ti76  1  0.83494668  0.35967016  0.53028237  1
  Ti  Ti77  1  0.87129386  0.39229213  0.74675818  1
  Ti  Ti78  1  0.80090441  0.70147907  0.15448779  1
  Ti  Ti79  1  0.88458682  0.64447545  0.48211392  1
  Ti  Ti80  1  0.75026725  0.62953430  0.80370456  1
  Ti  Ti81  1  0.08828652  0.18942167  0.08079024  1
  Ti  Ti82  1  0.15760914  0.21976301  0.29757492  1
  Ti  Ti83  1  0.15795153  0.19604251  0.68233542  1
  Ti  Ti84  1  0.14619152  0.50266343  -0.04106781  1
  Ti  Ti85  1  0.14372125  0.44776567  0.30280500  1
  Ti  Ti86  1  0.17637636  0.54429439  0.63092151  1
  Ti  Ti87  1  0.12149989  0.79946735  0.01644613  1
  Ti  Ti88  1  0.15723919  0.90763541  0.30743000  1
  Ti  Ti89  1  0.20051037  0.82213705  0.74882882  1
  Ti  Ti90  1  0.55384210  0.12420498  0.05919648  1
  Ti  Ti91  1  0.40768676  0.13421088  0.33002937  1
  Ti  Ti92  1  0.49551677  0.17741632  0.74134738  1
  Ti  Ti93  1  0.54122965  0.47512560  -0.03841293  1
  Ti  Ti94  1  0.54891781  0.50563172  0.37305985  1
  Ti  Ti95  1  0.46514537  0.49578112  0.58456798  1
  Ti  Ti96  1  0.51777966  0.80517993  -0.01756000  1
  Ti  Ti97  1  0.51366273  0.78672421  0.40807176  1
  Ti  Ti98  1  0.53065727  0.88429725  0.67284245  1
  Ti  Ti99  1  0.87806312  0.20438076  0.06406790  1
  Ti  Ti100  1  0.78342703  0.14331691  0.24558475  1
  Ti  Ti101  1  0.80212946  0.20958084  0.75064919  1
  Ti  Ti102  1  0.84305031  0.52947467  0.07224026  1
  Ti  Ti103  1  0.78168798  0.42752058  0.36925854  1
  Ti  Ti104  1  0.82477812  0.52935303  0.61183338  1
  Ti  Ti105  1  0.88065651  0.80978767  0.00702602  1
  Ti  Ti106  1  0.88143269  0.84826691  0.25961747  1
  Ti  Ti107  1  0.74526354  0.80757038  0.67419461  1
  Co  Co108  1  0.66384347  0.12561987  0.74775862  1
  Co  Co109  1  0.62412736  0.68041075  0.89930314  1
  Co  Co110  1  0.86831349  0.27843046  0.36558373  1
  Co  Co111  1  0.28195161  0.97235342  0.74211808  1
  Co  Co112  1  0.71760848  0.28252258  0.29404607  1
  Co  Co113  1  0.89310134  0.54855647  0.34355150  1
  Co  Co114  1  0.31304901  0.49434904  0.25564655  1
  Co  Co115  1  0.20663156  0.59755286  0.33805522  1
  Co  Co116  1  0.32847349  0.59502302  0.54728630  1
  Co  Co117  1  0.14240010  0.05107425  0.76065969  1
  Co  Co118  1  0.43710742  0.45175155  0.75765202  1
  Co  Co119  1  0.97550297  0.90133283  0.09750101  1
  Co  Co120  1  0.14950164  0.92888280  0.64723910  1
  Co  Co121  1  0.94097976  0.66476014  0.06499176  1
  Co  Co122  1  0.71180861  0.89644402  0.53390148  1
  Co  Co123  1  0.59104565  0.78579004  0.55907652  1
  Co  Co124  1  0.09976340  0.81955725  0.42752173  1
  Co  Co125  1  -0.00404320  0.22607567  0.94201014  1
  Co  Co126  1  0.49482814  0.33921372  0.66069964  1
  Co  Co127  1  0.90675284  0.05850289  0.29822195  1
  Co  Co128  1  0.64232445  0.42013322  0.27966520  1
  Co  Co129  1  0.38870581  0.09485180  0.04308932  1
  Co  Co130  1  0.09062532  0.61550759  0.22207643  1
  Co  Co131  1  0.53916623  0.33468257  0.09694473  1
  Co  Co132  1  0.40283279  0.39662500  0.01291553  1
  Co  Co133  1  0.68059930  0.95612649  0.69439785  1
  Co  Co134  1  0.44700817  0.19000906  0.58546121  1
  Co  Co135  1  0.95884123  0.34085277  0.09617106  1
  Co  Co136  1  0.10881129  0.19169760  0.51250202  1
  Co  Co137  1  0.55037758  0.06253441  0.63814014  1
  Co  Co138  1  0.31068642  0.44133180  0.61667189  1
  Co  Co139  1  0.22309738  0.25253049  0.14869530  1
  Co  Co140  1  0.08995820  0.33761533  0.19611746  1
  Co  Co141  1  0.63357030  0.33324564  0.43413180  1
  Co  Co142  1  0.56776145  0.17656499  0.46097330  1
  Co  Co143  1  0.35778887  0.58422311  0.70708966  1
  Co  Co144  1  0.45199939  0.07046731  0.47234299  1
  Co  Co145  1  0.72554609  0.39200118  0.66875637  1
  Co  Co146  1  0.93157595  0.63984232  0.22306020  1
  Co  Co147  1  0.46196578  0.59172036  0.25550788  1
  Co  Co148  1  0.35273499  0.74900755  0.49958705  1
  Co  Co149  1  0.74627085  0.02634626  0.42592326  1
  Co  Co150  1  -0.01703544  0.08043465  0.14995664  1
  Co  Co151  1  0.09408189  0.63848820  0.05354489  1
  Co  Co152  1  0.60652123  0.30619568  0.77488767  1
  Co  Co153  1  0.59720840  0.31810644  0.94790031  1
  Co  Co154  1  0.01305298  0.95174863  0.24360167  1
  Co  Co155  1  0.59174295  0.48024314  0.70501689  1
  Co  Co156  1  0.96612020  0.40097637  0.29107880  1
  Co  Co157  1  0.45624347  0.24080692  1.00019289  1
  Co  Co158  1  0.76388085  0.55357116  0.24114038  1
  Co  Co159  1  0.99614034  0.29964106  0.77989470  1
  Co  Co160  1  0.80941074  0.69871357  0.32428503  1
  Co  Co161  1  0.21894319  0.06831051  0.60185880  1
  Ni  Ni162  1  0.46459842  0.95059478  0.35405427  1
  Ni  Ni163  1  0.42678993  0.21937124  0.16708131  1
  Ni  Ni164  1  0.69591392  0.80666531  0.02136983  1
  Ni  Ni165  1  0.21562242  0.07803770  1.01300439  1
  Ni  Ni166  1  0.93029053  0.79061162  0.41024240  1
  Ni  Ni167  1  0.91694123  0.87811348  0.69253146  1
  Ni  Ni168  1  0.26437056  0.38113500  0.91745331  1
  Ni  Ni169  1  0.31629352  0.96529608  0.25616350  1
  Ni  Ni170  1  0.41630404  0.41377201  0.36740310  1
  Ni  Ni171  1  0.44469817  0.01311253  0.77540386  1
  Ni  Ni172  1  0.53407680  0.55195073  0.11507763  1
  Ni  Ni173  1  0.76908991  0.97492533  0.27714275  1
  Ni  Ni174  1  0.02937843  0.62107860  0.57013922  1
  Ni  Ni175  1  0.70130965  0.53178148  -0.03511347  1
  Ni  Ni176  1  0.47181586  0.97457271  0.96455293  1
  Ni  Ni177  1  0.51416007  0.80968937  0.82478627  1
  Ni  Ni178  1  0.19848721  0.54060029  0.13160975  1
  Ni  Ni179  1  0.49826947  0.12231081  0.89951906  1
  Ni  Ni180  1  0.10633010  0.68535132  0.88941373  1
  Ni  Ni181  1  0.01601050  0.90208403  0.94000407  1
  Ni  Ni182  1  0.90749088  0.55261117  0.75785713  1
  Ni  Ni183  1  0.80786523  0.22024008  0.58655499  1
  Ni  Ni184  1  0.84131816  0.11670455  0.90873824  1
  Ni  Ni185  1  0.85248770  0.79099029  0.82406532  1
  Ni  Ni186  1  0.86143330  0.79535459  0.55669823  1
  Ni  Ni187  1  0.22544151  0.84277358  0.16132491  1
  Ni  Ni188  1  0.79230632  0.67262401  0.96190653  1
  Ni  Ni189  1  0.89093252  0.10184773  0.65122335  1
  Ni  Ni190  1  0.36099651  0.76218521  0.06511889  1
  Ni  Ni191  1  0.54939905  0.85564608  0.25371795  1
  Ni  Ni192  1  0.84302489  0.49091224  0.89887047  1
  Ni  Ni193  1  0.99446206  0.44559026  0.63394091  1
  Ni  Ni194  1  0.08352866  0.67502964  0.72030434  1
  Ni  Ni195  1  0.84857410  0.94969207  0.92717464  1
  Ni  Ni196  1  0.28609039  0.23351716  0.81780536  1
  Ni  Ni197  1  0.24864443  0.78661177  0.90422329  1
  Ni  Ni198  1  0.21573852  0.31306465  0.41764021  1
  Ni  Ni199  1  0.73283915  0.57730272  0.42598507  1
  Ni  Ni200  1  0.56341547  0.91751612  0.09260826  1
  Ni  Ni201  1  0.04933851  0.10829978  0.35854330  1
  Ni  Ni202  1  0.73529231  0.13191968  0.05117414  1
  Ni  Ni203  1  0.60560967  0.73024232  0.72635349  1
  Ni  Ni204  1  0.12410605  0.52741427  0.46608090  1
  Ni  Ni205  1  0.67608978  0.86544996  0.36082027  1
  Ni  Ni206  1  0.43445746  0.88766323  0.52357793  1
  Ni  Ni207  1  0.66359283  0.03699742  0.16319247  1
  Ni  Ni208  1  0.23937199  0.70179801  0.63919557  1
  Ni  Ni209  1  0.27649289  0.79969552  0.36034020  1
  Ni  Ni210  1  0.21479654  0.07093793  0.32666514  1
  Ni  Ni211  1  0.12259373  0.34399995  0.02585665  1
  Ni  Ni212  1  0.58082921  0.63509878  0.47141311  1
  Ni  Ni213  1  0.85075744  0.28697414  0.88831317  1
  Ni  Ni214  1  0.46664849  0.64028903  0.98035608  1
  Ni  Ni215  1  0.13756924  0.37466017  0.71322911  1
