# generated using pymatgen
data_Ti2CoNi
_symmetry_space_group_name_H-M   'P 1'
_cell_length_a   14.62374222
_cell_length_b   14.70459139
_cell_length_c   14.65808392
_cell_angle_alpha   89.72011688
_cell_angle_beta   89.65453811
_cell_angle_gamma   90.01476603
_symmetry_Int_Tables_number   1
_chemical_formula_structural   Ti2CoNi
_chemical_formula_sum   'Ti108 Co54 Ni54'
_cell_volume   3151.92296065
_cell_formula_units_Z   54
loop_
 _symmetry_equiv_pos_site_id
 _symmetry_equiv_pos_as_xyz
  1  'x, y, z'
loop_
 _atom_site_type_symbol
 _atom_site_label
 _atom_site_symmetry_multiplicity
 _atom_site_fract_x
 _atom_site_fract_y
 _atom_site_fract_z
 _atom_site_occupancy
  Ti  Ti0  1  0.01188742  0.08982819  0.01651618  1
  Ti  Ti1  1  0.08739692  -0.05857197  0.38228108  1
  Ti  Ti2  1  -0.04445106  0.03886729  0.62619413  1
  Ti  Ti3  1  -0.08392242  0.27684476  0.00303860  1
  Ti  Ti4  1  0.02409191  0.38017252  0.38408719  1
  Ti  Ti5  1  -0.01330296  0.38519734  0.73007575  1
  Ti  Ti6  1  -0.05821400  0.63600996  -0.00959405  1
  Ti  Ti7  1  0.02811049  0.73793645  0.30892687  1
  Ti  Ti8  1  0.00969853  0.68183142  0.70543556  1
  Ti  Ti9  1  0.32538975  -0.05292213  0.00646940  1
  Ti  Ti10  1  0.27961461  0.02787148  0.31394586  1
  Ti  Ti11  1  0.34168196  0.01470265  0.60098295  1
  Ti  Ti12  1  0.35132953  0.38707786  0.02293137  1
  Ti  Ti13  1  0.33767989  0.32545027  0.28778333  1
  Ti  Ti14  1  0.33780918  0.33765384  0.60948103  1
  Ti  Ti15  1  0.28108020  0.67268780  -0.02360048  1
  Ti  Ti16  1  0.40273017  0.71487996  0.40316045  1
  Ti  Ti17  1  0.32309218  0.65588436  0.67181702  1
  Ti  Ti18  1  0.61162275  0.02065004  -0.00947903  1
  Ti  Ti19  1  0.62577578  0.04646341  0.23019257  1
  Ti  Ti20  1  0.61487504  -0.03959137  0.70436912  1
  Ti  Ti21  1  0.67203520  0.36815988  -0.02007398  1
  Ti  Ti22  1  0.62179161  0.41014438  0.36765148  1
  Ti  Ti23  1  0.71796311  0.41374508  0.64000671  1
  Ti  Ti24  1  0.73026252  0.67001726  -0.03826890  1
  Ti  Ti25  1  0.69639376  0.60155983  0.34949549  1
  Ti  Ti26  1  0.68981050  0.64064855  0.64304607  1
  Ti  Ti27  1  -0.03156807  0.14120266  0.19145900  1
  Ti  Ti28  1  0.02249154  0.22128813  0.60214410  1
  Ti  Ti29  1  0.01575313  0.10627117  0.82032105  1
  Ti  Ti30  1  0.01623573  0.55335205  0.19679144  1
  Ti  Ti31  1  0.01597528  0.57668776  0.43070635  1
  Ti  Ti32  1  0.10888330  0.52616598  0.89117861  1
  Ti  Ti33  1  -0.00226190  0.88992504  0.18443887  1
  Ti  Ti34  1  -0.05544320  0.82899395  0.55214526  1
  Ti  Ti35  1  -0.00221473  0.83391838  0.87781172  1
  Ti  Ti36  1  0.30202045  0.15356318  0.03352090  1
  Ti  Ti37  1  0.40468104  0.24333321  0.44998547  1
  Ti  Ti38  1  0.39801316  0.16616391  0.83375002  1
  Ti  Ti39  1  0.31513631  0.57828604  0.14913417  1
  Ti  Ti40  1  0.37398419  0.52459167  0.45931744  1
  Ti  Ti41  1  0.31369090  0.50658297  0.82605399  1
  Ti  Ti42  1  0.35478128  0.86434876  0.22156262  1
  Ti  Ti43  1  0.38466116  0.82475611  0.55702197  1
  Ti  Ti44  1  0.28997124  0.83264465  0.75494528  1
  Ti  Ti45  1  0.65482878  0.24282429  0.14836512  1
  Ti  Ti46  1  0.70810604  0.12672040  0.53496373  1
  Ti  Ti47  1  0.70545867  0.11373584  0.83306652  1
  Ti  Ti48  1  0.63720042  0.45613626  0.18549580  1
  Ti  Ti49  1  0.58444908  0.50036314  0.53806713  1
  Ti  Ti50  1  0.62655513  0.45850208  0.79314666  1
  Ti  Ti51  1  0.67765485  0.85473180  0.20848836  1
  Ti  Ti52  1  0.71413877  0.82340065  0.51567533  1
  Ti  Ti53  1  0.69717730  0.85990987  0.89232151  1
  Ti  Ti54  1  0.13797115  0.03873314  0.18852987  1
  Ti  Ti55  1  0.16884069  0.08133151  0.51497574  1
  Ti  Ti56  1  0.15689704  -0.04381486  0.86673298  1
  Ti  Ti57  1  0.13248784  0.30160786  0.23362823  1
  Ti  Ti58  1  0.16567032  0.28543506  0.47810658  1
  Ti  Ti59  1  0.26782695  0.30162670  0.78870925  1
  Ti  Ti60  1  0.12241466  0.70456165  0.12917677  1
  Ti  Ti61  1  0.20240126  0.63240549  0.48075051  1
  Ti  Ti62  1  0.18052631  0.70138315  0.82128895  1
  Ti  Ti63  1  0.41937836  0.04378456  0.16040209  1
  Ti  Ti64  1  0.48662006  -0.01954243  0.42129367  1
  Ti  Ti65  1  0.39194548  -0.02476069  0.82924911  1
  Ti  Ti66  1  0.42722497  0.23422270  0.15899151  1
  Ti  Ti67  1  0.57466733  0.29814507  0.53865571  1
  Ti  Ti68  1  0.55379435  0.28130799  0.77210421  1
  Ti  Ti69  1  0.50503406  0.67135282  0.11088757  1
  Ti  Ti70  1  0.49826983  0.66876941  0.56055480  1
  Ti  Ti71  1  0.52570594  0.61814297  0.91904013  1
  Ti  Ti72  1  0.82068216  -0.00153235  0.23956367  1
  Ti  Ti73  1  0.85195337  -0.00913898  0.45372965  1
  Ti  Ti74  1  0.83833989  -0.02540706  0.78756656  1
  Ti  Ti75  1  0.82822015  0.37157423  0.15086910  1
  Ti  Ti76  1  0.86238266  0.30955045  0.55390722  1
  Ti  Ti77  1  0.77318461  0.31175014  0.81453743  1
  Ti  Ti78  1  0.81239716  0.59556320  0.15490945  1
  Ti  Ti79  1  0.85736187  0.70781911  0.43094975  1
  Ti  Ti80  1  0.82480129  0.63795723  0.79807216  1
  Ti  Ti81  1  0.13690428  0.22400573  -0.05840060  1
  Ti  Ti82  1  0.08949497  0.15396528  0.34370280  1
  Ti  Ti83  1  0.16590458  0.15372138  0.70378459  1
  Ti  Ti84  1  0.09688878  0.40783245  0.06202292  1
  Ti  Ti85  1  0.19144024  0.47754372  0.31922969  1
  Ti  Ti86  1  0.22350525  0.48735032  0.62367293  1
  Ti  Ti87  1  0.18345564  0.87558341  0.09408443  1
  Ti  Ti88  1  0.22593302  0.79462228  0.38970145  1
  Ti  Ti89  1  0.19224023  0.87264062  0.60123393  1
  Ti  Ti90  1  0.53367705  0.22342607  -0.03605201  1
  Ti  Ti91  1  0.55667197  0.20219798  0.33304305  1
  Ti  Ti92  1  0.51307087  0.11201168  0.54611794  1
  Ti  Ti93  1  0.52877004  0.48346256  0.04376319  1
  Ti  Ti94  1  0.46798330  0.53521959  0.27466246  1
  Ti  Ti95  1  0.49583165  0.57757535  0.73310848  1
  Ti  Ti96  1  0.48808930  0.83205674  -0.00553813  1
  Ti  Ti97  1  0.54164742  0.76394142  0.29436967  1
  Ti  Ti98  1  0.48023206  0.79548071  0.74557138  1
  Ti  Ti99  1  0.80656197  0.10870664  0.04415631  1
  Ti  Ti100  1  0.84318210  0.16685507  0.35825925  1
  Ti  Ti101  1  0.86526936  0.17824303  0.71632012  1
  Ti  Ti102  1  0.85148228  0.46397508  -0.07757113  1
  Ti  Ti103  1  0.85531435  0.46556304  0.42303148  1
  Ti  Ti104  1  0.89264435  0.52689371  0.62176347  1
  Ti  Ti105  1  0.83554059  0.82292195  0.05361749  1
  Ti  Ti106  1  0.83076034  0.76307770  0.25421407  1
  Ti  Ti107  1  0.81772815  0.80274809  0.70761454  1
  Co  Co108  1  0.67535477  0.52317689  0.92826544  1
  Co  Co109  1  0.68701214  0.75843047  0.36602557  1
  Co  Co110  1  0.35382167  0.07838212  0.44984681  1
  Co  Co111  1  0.64330046  0.59942918  0.07674967  1
  Co  Co112  1  0.25582833  0.19115643  0.37390565  1
  Co  Co113  1  0.76076225  0.48768702  0.05581173  1
  Co  Co114  1  0.53098094  0.40257831  0.65537381  1
  Co  Co115  1  -0.01084829  0.31257197  0.14389848  1
  Co  Co116  1  0.16155505  0.55226722  0.10109943  1
  Co  Co117  1  0.57848497  0.79887499  0.60862212  1
  Co  Co118  1  0.78403336  0.88422031  0.35488242  1
  Co  Co119  1  -0.06283622  0.28027813  0.28957567  1
  Co  Co120  1  0.00607601  0.07985672  0.46357701  1
  Co  Co121  1  0.06957650  0.57824016  0.58553814  1
  Co  Co122  1  0.32279957  0.15351805  0.69692157  1
  Co  Co123  1  0.57379717  0.75432358  0.87607007  1
  Co  Co124  1  0.94332961  0.70522281  0.15490092  1
  Co  Co125  1  0.88898148  0.60210056  0.31013967  1
  Co  Co126  1  0.51957566  0.34492738  0.25945596  1
  Co  Co127  1  0.64279595  -0.02854118  0.52205075  1
  Co  Co128  1  0.49579974  0.93820632  0.59438592  1
  Co  Co129  1  0.09502126  0.27823210  0.79301613  1
  Co  Co130  1  0.87013068  0.14713131  0.53833625  1
  Co  Co131  1  0.97997505  0.23677228  0.44283750  1
  Co  Co132  1  0.10243811  0.66344570  0.97098139  1
  Co  Co133  1  0.66963601  0.68715017  0.20570666  1
  Co  Co134  1  0.37961022  0.67255272  0.82813446  1
  Co  Co135  1  0.93701625  0.46295198  0.06263761  1
  Co  Co136  1  0.63067698  0.91311266  0.36244478  1
  Co  Co137  1  0.28673491  0.18705757  0.55004916  1
  Co  Co138  1  0.69921470  0.05873606  0.37786829  1
  Co  Co139  1  0.34689010  0.81799023  0.90468867  1
  Co  Co140  1  0.96973675  0.02309279  0.30528801  1
  Co  Co141  1  0.05308247  0.93310576  1.00344031  1
  Co  Co142  1  0.93432540  0.44065696  0.26149840  1
  Co  Co143  1  0.40676033  0.39640449  0.74965094  1
  Co  Co144  1  0.26535323  0.17150362  0.21077457  1
  Co  Co145  1  0.93528436  -0.00647660  0.91295652  1
  Co  Co146  1  0.65604370  0.62461723  0.80164917  1
  Co  Co147  1  0.75017391  0.06856766  0.67672713  1
  Co  Co148  1  0.72697082  -0.03860618  0.09834679  1
  Co  Co149  1  0.40068606  0.31569829  0.89048941  1
  Co  Co150  1  0.40969621  0.13489030  0.30495048  1
  Co  Co151  1  0.14866321  0.57813136  0.73104837  1
  Co  Co152  1  0.53623724  0.91376130  0.86008893  1
  Co  Co153  1  0.45500799  0.23663946  0.64764100  1
  Co  Co154  1  0.46590264  0.39674202  0.41148480  1
  Co  Co155  1  0.16483763  0.42678239  0.77198192  1
  Co  Co156  1  0.53337612  0.82211520  0.45977317  1
  Co  Co157  1  0.77947813  0.98271113  0.94661697  1
  Co  Co158  1  0.54795132  0.12703487  0.10020308  1
  Co  Co159  1  0.42010467  0.42977419  0.16606764  1
  Co  Co160  1  0.01514411  0.78746689  0.03649708  1
  Co  Co161  1  0.53501385  0.33177078  0.08933122  1
  Ni  Ni162  1  0.25538858  1.00652988  0.73862770  1
  Ni  Ni163  1  0.73440016  0.30830087  0.28036918  1
  Ni  Ni164  1  0.72303385  0.21903692  0.95827413  1
  Ni  Ni165  1  0.72597946  0.37743755  0.48495350  1
  Ni  Ni166  1  0.17465938  0.81146216  0.94810079  1
  Ni  Ni167  1  0.14255786  0.33233980  0.64121108  1
  Ni  Ni168  1  0.46354794  0.06470755  0.70218739  1
  Ni  Ni169  1  0.26569962  0.93999671  0.46325830  1
  Ni  Ni170  1  0.07755651  0.76385327  0.47430243  1
  Ni  Ni171  1  0.86026772  0.68608096  0.59907419  1
  Ni  Ni172  1  0.66131832  0.77943846  0.74186721  1
  Ni  Ni173  1  0.24672972  0.09982346  0.87936541  1
  Ni  Ni174  1  0.77531716  0.47212137  0.27825914  1
  Ni  Ni175  1  0.49737982  0.93527573  0.26775597  1
  Ni  Ni176  1  0.11803530  0.18387538  0.11161119  1
  Ni  Ni177  1  0.23151237  0.29184182  0.08704710  1
  Ni  Ni178  1  0.10711196  0.82512741  0.73843531  1
  Ni  Ni179  1  0.76256264  0.57334280  0.51092994  1
  Ni  Ni180  1  0.38492750  0.54994024  0.98402657  1
  Ni  Ni181  1  0.80128067  0.47953176  0.76346568  1
  Ni  Ni182  1  0.17747504  1.04097367  0.02021602  1
  Ni  Ni183  1  0.30113563  0.60837702  0.32557009  1
  Ni  Ni184  1  0.06311401  0.94218643  0.54148571  1
  Ni  Ni185  1  0.84778846  0.77701992  0.88800389  1
  Ni  Ni186  1  0.29205798  0.38480616  0.43818742  1
  Ni  Ni187  1  0.69079931  0.23369561  0.41621799  1
  Ni  Ni188  1  1.00164112  0.41549200  0.55260298  1
  Ni  Ni189  1  0.39981483  0.50779952  0.61976058  1
  Ni  Ni190  1  0.14350775  0.62929829  0.29733565  1
  Ni  Ni191  1  0.64105553  0.77828629  0.05439390  1
  Ni  Ni192  1  0.93788885  0.26063487  0.84039392  1
  Ni  Ni193  1  0.20316439  0.37883548  0.92732882  1
  Ni  Ni194  1  0.17272944  0.88044119  0.25562865  1
  Ni  Ni195  1  0.60137197  0.14455154  0.68955537  1
  Ni  Ni196  1  0.48558532  0.45146623  0.88346113  1
  Ni  Ni197  1  0.94103411  0.86280522  0.36830694  1
  Ni  Ni198  1  0.55446055  0.92692041  0.11682626  1
  Ni  Ni199  1  0.40094731  0.69957410  0.23210459  1
  Ni  Ni200  1  0.96303353  0.89286808  0.70964585  1
  Ni  Ni201  1  0.89836718  0.97220645  0.07839360  1
  Ni  Ni202  1  0.80493880  0.93730353  0.60849350  1
  Ni  Ni203  1  0.09746041  -0.00798877  0.70288068  1
  Ni  Ni204  1  0.14486811  0.46488111  0.48096983  1
  Ni  Ni205  1  1.01173692  0.39095396  0.90889144  1
  Ni  Ni206  1  0.16612554  0.70858425  0.62932964  1
  Ni  Ni207  1  0.82219882  0.20649916  0.18056818  1
  Ni  Ni208  1  0.34591145  0.77532628  0.08274925  1
  Ni  Ni209  1  0.96100865  0.53614404  0.80426627  1
  Ni  Ni210  1  0.44133777  0.06602685  -0.02324218  1
  Ni  Ni211  1  0.24603956  0.73765641  0.22707987  1
  Ni  Ni212  1  0.53984650  0.58881886  0.40863965  1
  Ni  Ni213  1  0.24966490  0.42436330  0.17380179  1
  Ni  Ni214  1  0.72101538  0.24761732  0.66841018  1
  Ni  Ni215  1  0.54443632  0.08103830  0.84289999  1
