# generated using pymatgen
data_Ti2CoNi
_symmetry_space_group_name_H-M   'P 1'
_cell_length_a   14.63796958
_cell_length_b   14.66222529
_cell_length_c   14.64349043
_cell_angle_alpha   90.18539287
_cell_angle_beta   89.86437768
_cell_angle_gamma   90.08764361
_symmetry_Int_Tables_number   1
_chemical_formula_structural   Ti2CoNi
_chemical_formula_sum   'Ti108 Co54 Ni54'
_cell_volume   3142.83327905
_cell_formula_units_Z   54
loop_
 _symmetry_equiv_pos_site_id
 _symmetry_equiv_pos_as_xyz
  1  'x, y, z'
loop_
 _atom_site_type_symbol
 _atom_site_label
 _atom_site_symmetry_multiplicity
 _atom_site_fract_x
 _atom_site_fract_y
 _atom_site_fract_z
 _atom_site_occupancy
  Ti  Ti0  1  -0.03570425  -0.02241965  -0.01239244  1
  Ti  Ti1  1  -0.01540960  -0.02807280  0.28097457  1
  Ti  Ti2  1  0.03132064  -0.04942637  0.65906279  1
  Ti  Ti3  1  0.04993569  0.41742657  -0.03077382  1
  Ti  Ti4  1  -0.03465741  0.30673932  0.39524212  1
  Ti  Ti5  1  0.03172894  0.33191999  0.60053835  1
  Ti  Ti6  1  0.01889500  0.63552807  -0.06401872  1
  Ti  Ti7  1  0.08175674  0.62680129  0.34506105  1
  Ti  Ti8  1  -0.00588970  0.69518493  0.62795617  1
  Ti  Ti9  1  0.31149195  -0.06028087  -0.03183163  1
  Ti  Ti10  1  0.28827690  -0.00069584  0.35611530  1
  Ti  Ti11  1  0.36201980  0.03781345  0.71133383  1
  Ti  Ti12  1  0.34847820  0.38785678  -0.05371107  1
  Ti  Ti13  1  0.34840784  0.23021332  0.33114777  1
  Ti  Ti14  1  0.35302508  0.37428051  0.71893853  1
  Ti  Ti15  1  0.36968266  0.66189672  0.11430428  1
  Ti  Ti16  1  0.28417106  0.68071866  0.33637472  1
  Ti  Ti17  1  0.29063142  0.66863432  0.66828839  1
  Ti  Ti18  1  0.63636617  0.04250618  0.00237961  1
  Ti  Ti19  1  0.71270073  -0.02249453  0.36359580  1
  Ti  Ti20  1  0.65220448  -0.02005030  0.55580451  1
  Ti  Ti21  1  0.65375266  0.34701949  0.03680306  1
  Ti  Ti22  1  0.65256751  0.34456669  0.32327192  1
  Ti  Ti23  1  0.57023154  0.38338779  0.65424694  1
  Ti  Ti24  1  0.61953306  0.69133515  -0.01017334  1
  Ti  Ti25  1  0.74280591  0.64998114  0.29942170  1
  Ti  Ti26  1  0.70560597  0.66000603  0.71743629  1
  Ti  Ti27  1  0.01790165  0.22363273  0.12017694  1
  Ti  Ti28  1  0.01761588  0.08782731  0.47334848  1
  Ti  Ti29  1  0.02440347  0.21124774  0.76899382  1
  Ti  Ti30  1  -0.04121178  0.41737727  0.17661281  1
  Ti  Ti31  1  -0.03334743  0.50736290  0.45317299  1
  Ti  Ti32  1  -0.00424921  0.50456935  0.77246704  1
  Ti  Ti33  1  0.04541875  0.85605353  0.12885513  1
  Ti  Ti34  1  -0.08361282  0.81335649  0.50049799  1
  Ti  Ti35  1  0.01562344  0.85239160  0.85358065  1
  Ti  Ti36  1  0.33338421  0.15327181  0.10497071  1
  Ti  Ti37  1  0.38304481  0.11933693  0.47795699  1
  Ti  Ti38  1  0.36909722  0.13381547  0.90391832  1
  Ti  Ti39  1  0.38506666  0.50153006  0.23866065  1
  Ti  Ti40  1  0.29371435  0.42845864  0.51989262  1
  Ti  Ti41  1  0.31736525  0.54094559  0.81487092  1
  Ti  Ti42  1  0.33332566  0.97556080  0.16615674  1
  Ti  Ti43  1  0.37287939  0.84089924  0.44688057  1
  Ti  Ti44  1  0.29015299  0.82919668  0.78491889  1
  Ti  Ti45  1  0.68429937  0.15401164  0.25760778  1
  Ti  Ti46  1  0.65408884  0.14604747  0.64209625  1
  Ti  Ti47  1  0.70441682  0.14246077  0.84515940  1
  Ti  Ti48  1  0.76390191  0.48364884  0.17838530  1
  Ti  Ti49  1  0.65322241  0.54190581  0.57283443  1
  Ti  Ti50  1  0.64860989  0.43983988  0.84065773  1
  Ti  Ti51  1  0.63604097  0.77880767  0.17880765  1
  Ti  Ti52  1  0.58087078  0.80744145  0.46010762  1
  Ti  Ti53  1  0.68437425  0.90222244  0.87295905  1
  Ti  Ti54  1  0.13463225  0.05438733  0.11257132  1
  Ti  Ti55  1  0.19184126  0.00915380  0.53288725  1
  Ti  Ti56  1  0.16338421  -0.01756244  0.83959610  1
  Ti  Ti57  1  0.16037833  0.40562679  0.16020257  1
  Ti  Ti58  1  0.16947881  0.29785505  0.40593566  1
  Ti  Ti59  1  0.21568482  0.24078126  0.83215447  1
  Ti  Ti60  1  0.17645363  0.71424102  0.16976504  1
  Ti  Ti61  1  0.17093483  0.59401736  0.52379583  1
  Ti  Ti62  1  0.18770452  0.68094244  0.83498222  1
  Ti  Ti63  1  0.53700330  -0.04270145  0.16027663  1
  Ti  Ti64  1  0.50146583  -0.02194404  0.43754751  1
  Ti  Ti65  1  0.50534041  -0.00865438  0.85032006  1
  Ti  Ti66  1  0.45961871  0.32800769  0.17844055  1
  Ti  Ti67  1  0.48625338  0.32491455  0.45704404  1
  Ti  Ti68  1  0.47594013  0.27954246  0.82487064  1
  Ti  Ti69  1  0.58018885  0.60417527  0.17284349  1
  Ti  Ti70  1  0.44196906  0.66040759  0.55511887  1
  Ti  Ti71  1  0.45835651  0.68029849  0.86673584  1
  Ti  Ti72  1  0.77268741  0.03208002  0.15580183  1
  Ti  Ti73  1  0.85100616  0.02462456  0.56776207  1
  Ti  Ti74  1  0.86684610  0.00586556  0.81300515  1
  Ti  Ti75  1  0.80684873  0.28676929  0.14468423  1
  Ti  Ti76  1  0.77406702  0.29814263  0.46352485  1
  Ti  Ti77  1  0.89479966  0.34947480  0.86581086  1
  Ti  Ti78  1  0.89866419  0.64743903  0.16524571  1
  Ti  Ti79  1  0.74266556  0.69708858  0.49066942  1
  Ti  Ti80  1  0.88235666  0.70156401  0.80954743  1
  Ti  Ti81  1  0.18108186  0.24922955  0.01795087  1
  Ti  Ti82  1  0.08524103  0.13786546  0.29262668  1
  Ti  Ti83  1  0.16272399  0.10588303  0.69779798  1
  Ti  Ti84  1  0.22388425  0.59505148  0.00157799  1
  Ti  Ti85  1  0.21234237  0.48574156  0.34513160  1
  Ti  Ti86  1  0.17673540  0.46644652  0.68752183  1
  Ti  Ti87  1  0.15842786  0.79050644  -0.02197350  1
  Ti  Ti88  1  0.10669976  0.83273932  0.33033343  1
  Ti  Ti89  1  0.16535660  0.80516739  0.58699496  1
  Ti  Ti90  1  0.52690661  0.15022897  0.13113917  1
  Ti  Ti91  1  0.57341206  0.14676486  0.42872931  1
  Ti  Ti92  1  0.47966050  0.21417895  0.62557341  1
  Ti  Ti93  1  0.49352971  0.48772574  0.05694393  1
  Ti  Ti94  1  0.55514388  0.52328741  0.36224949  1
  Ti  Ti95  1  0.51421482  0.57515848  0.71037819  1
  Ti  Ti96  1  0.52100023  0.85323698  -0.00386280  1
  Ti  Ti97  1  0.44927712  0.79237945  0.23904218  1
  Ti  Ti98  1  0.48858890  0.87369983  0.64516923  1
  Ti  Ti99  1  0.84962651  0.13197722  0.01806320  1
  Ti  Ti100  1  0.87148064  0.11120461  0.35060763  1
  Ti  Ti101  1  0.84446022  0.18558707  0.69960669  1
  Ti  Ti102  1  0.79801692  0.60652822  -0.02462609  1
  Ti  Ti103  1  0.76578227  0.49774356  0.41084963  1
  Ti  Ti104  1  0.78405657  0.44988346  0.68780458  1
  Ti  Ti105  1  0.81160572  0.80141484  0.03795242  1
  Ti  Ti106  1  0.87829856  0.81038864  0.29276186  1
  Ti  Ti107  1  0.73482890  0.85156785  0.69555912  1
  Co  Co108  1  0.07237310  0.36521565  0.78641565  1
  Co  Co109  1  1.01351230  0.72826199  0.24225478  1
  Co  Co110  1  0.41177549  0.09379831  0.26613603  1
  Co  Co111  1  0.46637218  0.46694600  0.81483767  1
  Co  Co112  1  0.83860738  0.39896942  0.30751577  1
  Co  Co113  1  0.58507021  0.63657892  0.47198207  1
  Co  Co114  1  0.22651598  0.56675145  0.20009957  1
  Co  Co115  1  0.94332498  0.53699540  0.06030937  1
  Co  Co116  1  0.99503677  0.10990927  0.63809751  1
  Co  Co117  1  0.04673302  0.91027943  0.49193911  1
  Co  Co118  1  0.61755633  0.60396408  0.85182356  1
  Co  Co119  1  0.04862926  0.26271393  0.92408736  1
  Co  Co120  1  0.59258529  0.70791765  0.32566778  1
  Co  Co121  1  0.21208076  0.85715089  0.44251264  1
  Co  Co122  1  0.05206640  0.55850086  0.20764434  1
  Co  Co123  1  0.90448380  0.51293303  0.90298560  1
  Co  Co124  1  0.75720477  0.30924305  0.78819384  1
  Co  Co125  1  0.72850748  0.80723401  0.36335316  1
  Co  Co126  1  0.51008870  0.12525185  0.76316332  1
  Co  Co127  1  0.22016961  0.87165266  0.10698721  1
  Co  Co128  1  0.43046037  0.93464446  0.30268623  1
  Co  Co129  1  0.59891010  0.97142248  0.72233660  1
  Co  Co130  1  0.05468271  0.44352619  0.32948278  1
  Co  Co131  1  0.10753443  0.53014375  0.06793393  1
  Co  Co132  1  0.44532403  0.70354596  0.40430180  1
  Co  Co133  1  0.13574142  0.52921792  0.86130682  1
  Co  Co134  1  0.43351857  0.73885621  0.71717802  1
  Co  Co135  1  0.21280330  0.14232789  0.42145928  1
  Co  Co136  1  0.83067703  0.73286016  0.62714770  1
  Co  Co137  1  0.12412052  0.00128403  0.38154977  1
  Co  Co138  1  0.82074817  0.42433988  0.03411505  1
  Co  Co139  1  0.28400102  0.71234472  0.49931281  1
  Co  Co140  1  0.51739322  0.22007950  0.29419694  1
  Co  Co141  1  0.01956224  0.04921054  0.81072780  1
  Co  Co142  1  0.92001814  0.29196995  0.02070710  1
  Co  Co143  1  0.90101954  0.16847601  0.87377635  1
  Co  Co144  1  0.45294130  0.63463312  0.26538186  1
  Co  Co145  1  0.22080723  0.39737863  0.84512183  1
  Co  Co146  1  0.34504400  0.56841810  0.44293238  1
  Co  Co147  1  0.61585368  0.25883939  0.74915193  1
  Co  Co148  1  0.62635142  0.25948034  0.52546956  1
  Co  Co149  1  0.77290730  0.55764585  0.82268817  1
  Co  Co150  1  0.16456426  0.95850731  0.23402235  1
  Co  Co151  1  0.59188380  0.88122085  0.30549775  1
  Co  Co152  1  0.03879571  0.11800736  -0.01302870  1
  Co  Co153  1  0.12588993  0.94810635  0.99038383  1
  Co  Co154  1  0.56604360  0.04831083  0.28685960  1
  Co  Co155  1  0.63149194  0.41209572  0.48149295  1
  Co  Co156  1  0.62375937  0.28177640  0.17768103  1
  Co  Co157  1  0.74579969  0.30277963  0.62656294  1
  Co  Co158  1  0.90595359  0.34079305  0.70265093  1
  Co  Co159  1  0.04342806  0.68481878  0.08426457  1
  Co  Co160  1  0.72592786  0.73505171  0.86968519  1
  Co  Co161  1  0.69118922  0.17698117  0.07039518  1
  Ni  Ni162  1  0.34321533  0.20046804  0.73365904  1
  Ni  Ni163  1  0.54053392  0.15394657  0.93079447  1
  Ni  Ni164  1  0.27078656  0.15251564  0.58715916  1
  Ni  Ni165  1  0.28045369  0.83880067  0.27118748  1
  Ni  Ni166  1  0.48374677  0.49117567  0.52183587  1
  Ni  Ni167  1  0.45212605  0.02560905  0.01947383  1
  Ni  Ni168  1  0.66503901  0.51859764  0.03299809  1
  Ni  Ni169  1  0.94679573  0.07839949  0.15996549  1
  Ni  Ni170  1  0.30739827  0.32050397  0.09720861  1
  Ni  Ni171  1  0.24395610  0.11732985  0.24584019  1
  Ni  Ni172  1  0.50032790  0.04811415  0.60172941  1
  Ni  Ni173  1  0.38267473  0.41926568  0.37894666  1
  Ni  Ni174  1  0.90834401  0.54128913  0.29549876  1
  Ni  Ni175  1  0.02194106  0.52105234  0.60870961  1
  Ni  Ni176  1  0.06704524  0.73572602  0.47122968  1
  Ni  Ni177  1  0.91133533  0.66947058  0.40122839  1
  Ni  Ni178  1  0.11854880  0.43367873  0.49603278  1
  Ni  Ni179  1  0.35585303  0.96633393  0.55783580  1
  Ni  Ni180  1  0.21844100  0.93826897  0.68257052  1
  Ni  Ni181  1  0.52707888  0.38129564  0.94003502  1
  Ni  Ni182  1  0.38547725  0.83249231  0.08634226  1
  Ni  Ni183  1  0.89094229  0.91491334  0.13426963  1
  Ni  Ni184  1  0.74040544  0.12401166  0.46363375  1
  Ni  Ni185  1  0.79584362  0.97244364  0.98269464  1
  Ni  Ni186  1  0.21543651  0.09434422  0.96136119  1
  Ni  Ni187  1  0.89327993  0.19601825  0.52919803  1
  Ni  Ni188  1  0.28894733  0.35957336  0.25543950  1
  Ni  Ni189  1  0.67546435  0.89198526  0.06201244  1
  Ni  Ni190  1  0.77053999  0.26632993  0.94832856  1
  Ni  Ni191  1  0.34998885  0.28594460  0.56406628  1
  Ni  Ni192  1  0.32231639  0.73957893  0.95658698  1
  Ni  Ni193  1  0.11441179  0.19476345  0.55136264  1
  Ni  Ni194  1  0.73371642  0.65328273  0.12267172  1
  Ni  Ni195  1  0.58139508  0.79487559  0.79328889  1
  Ni  Ni196  1  0.44062620  0.25736033  1.01421707  1
  Ni  Ni197  1  0.91095201  0.84824240  0.71205647  1
  Ni  Ni198  1  0.81126495  0.24880458  0.30375593  1
  Ni  Ni199  1  0.12069506  0.80276638  0.74300567  1
  Ni  Ni200  1  0.83782578  0.57424967  0.54361729  1
  Ni  Ni201  1  0.12478802  0.62659400  0.69508703  1
  Ni  Ni202  1  0.42924662  0.84622923  0.85690109  1
  Ni  Ni203  1  0.31918394  0.48275814  0.08875906  1
  Ni  Ni204  1  0.84816381  0.85068454  0.87922768  1
  Ni  Ni205  1  0.38797448  0.57180433  0.96561293  1
  Ni  Ni206  1  0.36074149  0.52192280  0.63890896  1
  Ni  Ni207  1  0.58672137  0.73035072  0.62264641  1
  Ni  Ni208  1  0.07519378  0.30038508  0.26197418  1
  Ni  Ni209  1  0.75768532  0.86342981  0.51946640  1
  Ni  Ni210  1  0.87837910  0.39905365  0.54921839  1
  Ni  Ni211  1  0.74881257  0.88444894  0.21773390  1
  Ni  Ni212  1  0.75044710  0.02558614  0.70495740  1
  Ni  Ni213  1  0.59080647  0.44238095  0.19438864  1
  Ni  Ni214  1  0.87780894  0.58731726  0.69294208  1
  Ni  Ni215  1  0.88175537  0.95214959  0.41590259  1
