# generated using pymatgen
data_Ti2CoNi
_symmetry_space_group_name_H-M   'P 1'
_cell_length_a   14.59510960
_cell_length_b   14.56973569
_cell_length_c   14.55828027
_cell_angle_alpha   89.97191243
_cell_angle_beta   89.90818993
_cell_angle_gamma   89.93372792
_symmetry_Int_Tables_number   1
_chemical_formula_structural   Ti2CoNi
_chemical_formula_sum   'Ti108 Co54 Ni54'
_cell_volume   3095.76659867
_cell_formula_units_Z   54
loop_
 _symmetry_equiv_pos_site_id
 _symmetry_equiv_pos_as_xyz
  1  'x, y, z'
loop_
 _atom_site_type_symbol
 _atom_site_label
 _atom_site_symmetry_multiplicity
 _atom_site_fract_x
 _atom_site_fract_y
 _atom_site_fract_z
 _atom_site_occupancy
  Ti  Ti0  1  -0.03137338  -0.06423743  -0.05789209  1
  Ti  Ti1  1  0.00113869  0.07609619  0.30843208  1
  Ti  Ti2  1  0.02952206  -0.00600214  0.67924395  1
  Ti  Ti3  1  -0.05689934  0.36471252  -0.06420696  1
  Ti  Ti4  1  -0.01960123  0.27475622  0.24629480  1
  Ti  Ti5  1  0.08084606  0.33433888  0.65896459  1
  Ti  Ti6  1  0.03571962  0.60818611  -0.01222502  1
  Ti  Ti7  1  -0.06813821  0.63184925  0.25766702  1
  Ti  Ti8  1  0.02324311  0.65097595  0.68324186  1
  Ti  Ti9  1  0.36357250  0.00415576  0.04968358  1
  Ti  Ti10  1  0.39297106  0.03321420  0.33506529  1
  Ti  Ti11  1  0.35624197  -0.03592733  0.68778230  1
  Ti  Ti12  1  0.31136509  0.33915816  -0.04182178  1
  Ti  Ti13  1  0.34528536  0.32818471  0.43410982  1
  Ti  Ti14  1  0.33041770  0.37259592  0.70540205  1
  Ti  Ti15  1  0.28825395  0.65900814  0.00998782  1
  Ti  Ti16  1  0.31802699  0.63525588  0.43075729  1
  Ti  Ti17  1  0.29374715  0.68641818  0.68052194  1
  Ti  Ti18  1  0.65386784  0.03010621  -0.01773431  1
  Ti  Ti19  1  0.67644513  0.03167567  0.38033914  1
  Ti  Ti20  1  0.74424274  0.01750457  0.62418247  1
  Ti  Ti21  1  0.65202220  0.25140534  0.04964040  1
  Ti  Ti22  1  0.64519766  0.31947269  0.24868778  1
  Ti  Ti23  1  0.67026911  0.33984637  0.59830756  1
  Ti  Ti24  1  0.59513467  0.63149410  0.06172369  1
  Ti  Ti25  1  0.61973488  0.66197005  0.38123776  1
  Ti  Ti26  1  0.61487097  0.69175082  0.58758312  1
  Ti  Ti27  1  0.06211005  0.11945090  0.13846469  1
  Ti  Ti28  1  -0.09123292  0.18523611  0.44051183  1
  Ti  Ti29  1  -0.00514142  0.24215100  0.81707831  1
  Ti  Ti30  1  -0.01417577  0.43461115  0.10563345  1
  Ti  Ti31  1  0.03682482  0.43579610  0.50599354  1
  Ti  Ti32  1  -0.06192676  0.53117109  0.82439444  1
  Ti  Ti33  1  -0.03724503  0.83771244  0.22851945  1
  Ti  Ti34  1  0.00567174  0.82415147  0.52656022  1
  Ti  Ti35  1  -0.00715185  0.76508467  0.85248572  1
  Ti  Ti36  1  0.28587520  0.13945135  0.17336526  1
  Ti  Ti37  1  0.38659574  0.11267512  0.55215891  1
  Ti  Ti38  1  0.35191385  0.11770814  0.88574007  1
  Ti  Ti39  1  0.35281234  0.48334582  0.22496090  1
  Ti  Ti40  1  0.34841044  0.49567167  0.56481092  1
  Ti  Ti41  1  0.40191847  0.49507637  0.85082054  1
  Ti  Ti42  1  0.29894132  0.81606012  0.19781704  1
  Ti  Ti43  1  0.27897075  0.81880999  0.51207284  1
  Ti  Ti44  1  0.25588166  0.82881875  0.86115868  1
  Ti  Ti45  1  0.70433057  0.05750577  0.17393818  1
  Ti  Ti46  1  0.65835506  0.17056869  0.50127108  1
  Ti  Ti47  1  0.70519938  0.17849535  0.86162109  1
  Ti  Ti48  1  0.67628358  0.51655802  0.21713435  1
  Ti  Ti49  1  0.67230110  0.46482076  0.41766949  1
  Ti  Ti50  1  0.61534800  0.45730163  0.79032071  1
  Ti  Ti51  1  0.64732652  0.84064146  0.09288538  1
  Ti  Ti52  1  0.68274760  0.87564805  0.49482144  1
  Ti  Ti53  1  0.66484414  0.86653708  0.87939283  1
  Ti  Ti54  1  0.19261535  -0.02356470  0.13282076  1
  Ti  Ti55  1  0.24565983  0.02147857  0.48039936  1
  Ti  Ti56  1  0.14802940  0.11791311  0.82261635  1
  Ti  Ti57  1  0.24387072  0.32669427  0.14027171  1
  Ti  Ti58  1  0.11871184  0.26668346  0.44480467  1
  Ti  Ti59  1  0.17457008  0.39048202  0.81366982  1
  Ti  Ti60  1  0.14068399  0.68280927  0.25198049  1
  Ti  Ti61  1  0.11996632  0.66048581  0.46114220  1
  Ti  Ti62  1  0.15550627  0.58604333  0.82439440  1
  Ti  Ti63  1  0.51783886  -0.02040691  0.14784142  1
  Ti  Ti64  1  0.55230346  0.01561669  0.61451561  1
  Ti  Ti65  1  0.51897125  -0.01086916  0.81758943  1
  Ti  Ti66  1  0.46384637  0.31297650  0.14533938  1
  Ti  Ti67  1  0.50316594  0.40252250  0.51490062  1
  Ti  Ti68  1  0.46650926  0.29494756  0.83163464  1
  Ti  Ti69  1  0.49106153  0.72050431  0.21063713  1
  Ti  Ti70  1  0.47794332  0.78278800  0.43772976  1
  Ti  Ti71  1  0.54149101  0.62738277  0.84586206  1
  Ti  Ti72  1  0.87338209  -0.01369885  0.12602766  1
  Ti  Ti73  1  0.84939137  0.00517208  0.46092939  1
  Ti  Ti74  1  0.81547205  0.00463494  0.87684441  1
  Ti  Ti75  1  0.82513758  0.38742407  0.24077517  1
  Ti  Ti76  1  0.85584281  0.37199350  0.55648160  1
  Ti  Ti77  1  0.79255805  0.31696217  0.76394170  1
  Ti  Ti78  1  0.76973901  0.64495747  0.11149791  1
  Ti  Ti79  1  0.90688635  0.66408810  0.46656125  1
  Ti  Ti80  1  0.72851763  0.63846284  0.87149722  1
  Ti  Ti81  1  0.19790242  0.16922657  0.00724687  1
  Ti  Ti82  1  0.25931878  0.17806956  0.34756232  1
  Ti  Ti83  1  0.22821107  0.20356774  0.66088952  1
  Ti  Ti84  1  0.17918078  0.49091163  0.05577930  1
  Ti  Ti85  1  0.15498727  0.49130286  0.25162643  1
  Ti  Ti86  1  0.17614628  0.53732402  0.60214992  1
  Ti  Ti87  1  0.12274465  0.83623541  0.02514393  1
  Ti  Ti88  1  0.13328424  0.89289811  0.37642185  1
  Ti  Ti89  1  0.18757607  0.87582137  0.68274999  1
  Ti  Ti90  1  0.50520006  0.13773312  0.01543285  1
  Ti  Ti91  1  0.50634524  0.20296965  0.33702130  1
  Ti  Ti92  1  0.52129789  0.21370305  0.64737637  1
  Ti  Ti93  1  0.49571439  0.46910538  0.00850821  1
  Ti  Ti94  1  0.51272775  0.43294619  0.31230085  1
  Ti  Ti95  1  0.47579504  0.57062985  0.67411476  1
  Ti  Ti96  1  0.44275005  0.80273358  -0.09047483  1
  Ti  Ti97  1  0.61010393  0.86119006  0.29580735  1
  Ti  Ti98  1  0.47446201  0.79234398  0.71159415  1
  Ti  Ti99  1  0.93647999  0.15860487  -0.00872687  1
  Ti  Ti100  1  0.77530731  0.19466639  0.31564406  1
  Ti  Ti101  1  0.85656929  0.12117451  0.73257261  1
  Ti  Ti102  1  0.82519953  0.49725200  0.00809509  1
  Ti  Ti103  1  0.86881575  0.49237743  0.40134423  1
  Ti  Ti104  1  0.81797570  0.59049892  0.63761193  1
  Ti  Ti105  1  0.90418456  0.79022063  0.04476343  1
  Ti  Ti106  1  0.81956612  0.79636594  0.36859260  1
  Ti  Ti107  1  0.77450469  0.82217886  0.71483157  1
  Co  Co108  1  0.74357561  0.75326094  -0.00701433  1
  Co  Co109  1  0.29081119  0.53305518  0.73933079  1
  Co  Co110  1  0.20737842  0.04685744  0.64424229  1
  Co  Co111  1  0.68572911  0.02709117  0.78235728  1
  Co  Co112  1  0.31015605  0.89947522  0.36711426  1
  Co  Co113  1  0.07283965  0.95606435  0.24108207  1
  Co  Co114  1  0.07476624  0.45677831  0.92770461  1
  Co  Co115  1  0.75553710  0.38550188  0.09341195  1
  Co  Co116  1  0.51519767  0.53687485  0.18258342  1
  Co  Co117  1  0.76618627  0.23291584  0.16327431  1
  Co  Co118  1  -0.02274283  0.56039305  0.56253499  1
  Co  Co119  1  0.65987212  0.60112726  0.71437707  1
  Co  Co120  1  0.38533986  0.28936797  0.58611245  1
  Co  Co121  1  0.96936500  0.46469734  0.26284671  1
  Co  Co122  1  0.62598420  0.89633087  0.70396026  1
  Co  Co123  1  1.03906626  0.55841108  0.37803000  1
  Co  Co124  1  0.20886332  0.02887713  0.29577728  1
  Co  Co125  1  0.51628089  0.93846733  -0.01628388  1
  Co  Co126  1  0.62100131  0.29203181  0.75482927  1
  Co  Co127  1  0.58267578  0.74888479  0.95500625  1
  Co  Co128  1  0.93052895  0.33797026  0.39266134  1
  Co  Co129  1  0.44817692  0.88792383  0.26917331  1
  Co  Co130  1  -0.00215804  0.24867250  0.54687264  1
  Co  Co131  1  0.74750770  0.45630660  0.68724037  1
  Co  Co132  1  0.53749851  0.85453154  0.57478177  1
  Co  Co133  1  0.22087143  0.75805912  0.36128533  1
  Co  Co134  1  0.05098918  0.15729390  0.68703772  1
  Co  Co135  1  0.54878693  0.04266167  0.29172689  1
  Co  Co136  1  0.25654670  0.50005342  0.91327083  1
  Co  Co137  1  1.02311752  0.94131337  0.09554100  1
  Co  Co138  1  0.62074557  0.74798707  0.77310945  1
  Co  Co139  1  0.34262750  0.47936983  0.06290898  1
  Co  Co140  1  0.78203718  0.12212864  0.02712337  1
  Co  Co141  1  0.91828969  0.26780562  0.67730664  1
  Co  Co142  1  0.92581379  0.09225466  0.58999919  1
  Co  Co143  1  0.78335746  0.91458566  1.01240487  1
  Co  Co144  1  0.35873666  0.20229970  0.04216942  1
  Co  Co145  1  0.48860946  0.30800015  0.98674001  1
  Co  Co146  1  0.06007161  0.57273050  0.15676632  1
  Co  Co147  1  0.37305176  0.75059518  0.32666296  1
  Co  Co148  1  0.91815603  0.61484277  0.09724295  1
  Co  Co149  1  0.44061170  0.12938564  0.18527153  1
  Co  Co150  1  0.60199393  0.41209344  0.11517176  1
  Co  Co151  1  0.89389864  0.14066149  0.16812249  1
  Co  Co152  1  0.89830911  0.28993044  0.08870907  1
  Co  Co153  1  0.53567419  0.93653641  0.42392131  1
  Co  Co154  1  0.25923062  0.20221709  0.50703465  1
  Co  Co155  1  0.91899752  0.44956890  0.68131190  1
  Co  Co156  1  0.06682833  0.48939506  0.71119075  1
  Co  Co157  1  0.67460042  0.15876732  0.68225542  1
  Co  Co158  1  0.51790112  0.08939076  0.46073848  1
  Co  Co159  1  0.09851837  0.90664822  0.83933530  1
  Co  Co160  1  0.23712015  0.99338268  0.79555284  1
  Co  Co161  1  0.59527656  0.17030204  0.18737603  1
  Ni  Ni162  1  0.12145169  0.93826660  0.54305898  1
  Ni  Ni163  1  0.77092064  0.74640377  0.53990849  1
  Ni  Ni164  1  0.76578425  0.32122960  0.42442659  1
  Ni  Ni165  1  0.21749517  -0.01821831  0.95571524  1
  Ni  Ni166  1  0.44541392  0.63301560  0.98143988  1
  Ni  Ni167  1  0.79572134  0.29264738  0.95136921  1
  Ni  Ni168  1  0.01134082  0.75144443  0.36438488  1
  Ni  Ni169  1  0.76117263  0.91451772  0.26776376  1
  Ni  Ni170  1  0.90467986  0.74666167  0.63416779  1
  Ni  Ni171  1  0.85708171  0.89107227  0.57699661  1
  Ni  Ni172  1  0.11131206  0.10177134  0.42445401  1
  Ni  Ni173  1  0.27862136  0.24849270  0.81742738  1
  Ni  Ni174  1  0.74418672  0.59763035  0.47984008  1
  Ni  Ni175  1  0.45510246  0.60550425  0.32292365  1
  Ni  Ni176  1  0.40150761  0.94160294  0.51959474  1
  Ni  Ni177  1  0.86722170  0.68392649  0.77932587  1
  Ni  Ni178  1  0.20685876  0.49280921  0.42481316  1
  Ni  Ni179  1  0.77631961  0.62361986  0.31460836  1
  Ni  Ni180  1  0.41831834  0.69268114  0.56878026  1
  Ni  Ni181  1  0.07789374  0.05549863  -0.02207169  1
  Ni  Ni182  1  0.50601075  0.57481862  0.47973420  1
  Ni  Ni183  1  0.13988183  0.23604941  0.24377998  1
  Ni  Ni184  1  0.54586631  0.14889002  0.82659991  1
  Ni  Ni185  1  0.42357992  0.77077309  0.07359260  1
  Ni  Ni186  1  0.65844026  0.70882346  0.22324709  1
  Ni  Ni187  1  0.95664282  0.91292256  0.37726434  1
  Ni  Ni188  1  0.23639100  0.35892743  0.31189927  1
  Ni  Ni189  1  0.60326934  0.30975528  0.42225079  1
  Ni  Ni190  1  0.07929238  0.39076702  0.35026606  1
  Ni  Ni191  1  0.84058268  0.04381836  0.29665990  1
  Ni  Ni192  1  0.14913721  0.71236046  0.93003249  1
  Ni  Ni193  1  0.80313644  0.78472020  0.18691447  1
  Ni  Ni194  1  0.63534757  0.34372723  0.91076082  1
  Ni  Ni195  1  0.07598669  0.29228400  0.08840321  1
  Ni  Ni196  1  0.22424539  0.36667648  0.55760490  1
  Ni  Ni197  1  0.92395038  0.90681840  0.77364872  1
  Ni  Ni198  1  0.78579444  0.45146437  0.85401616  1
  Ni  Ni199  1  0.39532025  0.13544944  0.72830581  1
  Ni  Ni200  1  0.11616377  0.28568219  0.92833277  1
  Ni  Ni201  1  0.66072061  0.50350058  0.96271852  1
  Ni  Ni202  1  0.13682130  0.74553996  0.77074942  1
  Ni  Ni203  1  0.37805930  0.48304058  0.39942219  1
  Ni  Ni204  1  0.98367741  0.06532013  0.83223447  1
  Ni  Ni205  1  0.28138776  0.62837966  0.17885080  1
  Ni  Ni206  1  0.80157455  0.20155143  0.57887972  1
  Ni  Ni207  1  0.37018936  0.95104436  0.88648325  1
  Ni  Ni208  1  0.87678364  0.65987855  0.94179182  1
  Ni  Ni209  1  0.15140121  0.72952856  0.60519259  1
  Ni  Ni210  1  0.37231105  0.28079867  0.26916107  1
  Ni  Ni211  1  0.04193681  0.73140103  0.12432236  1
  Ni  Ni212  1  0.62029370  0.50805237  0.58632052  1
  Ni  Ni213  1  0.29173218  0.85259345  0.02893386  1
  Ni  Ni214  1  0.50115562  0.39299962  0.68265464  1
  Ni  Ni215  1  0.37036968  0.66337663  0.82548675  1
