# generated using pymatgen
data_Ti2CoNi
_symmetry_space_group_name_H-M   'P 1'
_cell_length_a   14.57240666
_cell_length_b   14.64511106
_cell_length_c   14.62111173
_cell_angle_alpha   90.12189542
_cell_angle_beta   89.68903027
_cell_angle_gamma   89.96091185
_symmetry_Int_Tables_number   1
_chemical_formula_structural   Ti2CoNi
_chemical_formula_sum   'Ti108 Co54 Ni54'
_cell_volume   3120.30368314
_cell_formula_units_Z   54
loop_
 _symmetry_equiv_pos_site_id
 _symmetry_equiv_pos_as_xyz
  1  'x, y, z'
loop_
 _atom_site_type_symbol
 _atom_site_label
 _atom_site_symmetry_multiplicity
 _atom_site_fract_x
 _atom_site_fract_y
 _atom_site_fract_z
 _atom_site_occupancy
  Ti  Ti0  1  -0.04902039  -0.00043113  -0.02885054  1
  Ti  Ti1  1  -0.01938939  -0.03839479  0.25161242  1
  Ti  Ti2  1  0.02767741  -0.04575654  0.67655225  1
  Ti  Ti3  1  -0.00375522  0.37271443  -0.04726908  1
  Ti  Ti4  1  0.05654902  0.35242480  0.35943903  1
  Ti  Ti5  1  -0.00501561  0.37661212  0.59793533  1
  Ti  Ti6  1  0.08622282  0.59095468  0.01602728  1
  Ti  Ti7  1  -0.10606631  0.69480191  0.34090820  1
  Ti  Ti8  1  -0.00728762  0.69077620  0.62775014  1
  Ti  Ti9  1  0.30965234  0.00992586  0.00323531  1
  Ti  Ti10  1  0.34091468  0.00170984  0.32260862  1
  Ti  Ti11  1  0.31926789  0.04019818  0.67346471  1
  Ti  Ti12  1  0.35328080  0.39523525  0.02843514  1
  Ti  Ti13  1  0.28168049  0.30689830  0.36162679  1
  Ti  Ti14  1  0.33974091  0.24572116  0.74821395  1
  Ti  Ti15  1  0.27019920  0.72581025  0.05063381  1
  Ti  Ti16  1  0.35885984  0.73336551  0.27104648  1
  Ti  Ti17  1  0.32493595  0.67192976  0.56391614  1
  Ti  Ti18  1  0.68173893  0.06976999  -0.01676003  1
  Ti  Ti19  1  0.63811038  0.05271823  0.38724598  1
  Ti  Ti20  1  0.60682591  -0.04147401  0.67986625  1
  Ti  Ti21  1  0.64705071  0.27004393  -0.05203875  1
  Ti  Ti22  1  0.70664894  0.41491655  0.34183593  1
  Ti  Ti23  1  0.67981746  0.30942626  0.67090430  1
  Ti  Ti24  1  0.54400997  0.76151960  -0.02676079  1
  Ti  Ti25  1  0.65314456  0.61915206  0.29423724  1
  Ti  Ti26  1  0.63764726  0.65457436  0.63960003  1
  Ti  Ti27  1  -0.03636273  0.14274610  0.17374690  1
  Ti  Ti28  1  -0.03153068  0.18747104  0.48350173  1
  Ti  Ti29  1  -0.07571162  0.14299910  0.82474696  1
  Ti  Ti30  1  0.01555913  0.53892831  0.19080485  1
  Ti  Ti31  1  -0.03872355  0.54880105  0.48922543  1
  Ti  Ti32  1  -0.04169752  0.54700970  0.85797208  1
  Ti  Ti33  1  0.03818261  0.77332526  0.22065229  1
  Ti  Ti34  1  0.07052802  0.84070583  0.51898731  1
  Ti  Ti35  1  0.03088642  0.76439641  0.91154075  1
  Ti  Ti36  1  0.26274969  0.16761052  0.22510610  1
  Ti  Ti37  1  0.32972362  0.13740445  0.45694507  1
  Ti  Ti38  1  0.38115528  0.16468312  0.90503282  1
  Ti  Ti39  1  0.35842620  0.56691772  0.14826575  1
  Ti  Ti40  1  0.27719187  0.48684742  0.52357301  1
  Ti  Ti41  1  0.31562530  0.45348976  0.83146746  1
  Ti  Ti42  1  0.36293626  0.89280474  0.15241738  1
  Ti  Ti43  1  0.33535240  0.91112614  0.51889292  1
  Ti  Ti44  1  0.36703623  0.82306556  0.71219291  1
  Ti  Ti45  1  0.64242785  0.19766720  0.13098460  1
  Ti  Ti46  1  0.69013829  0.11123912  0.57470133  1
  Ti  Ti47  1  0.70445432  0.10531039  0.77784535  1
  Ti  Ti48  1  0.63524588  0.50804464  0.12100939  1
  Ti  Ti49  1  0.63391700  0.51204142  0.48834594  1
  Ti  Ti50  1  0.65162401  0.42987146  0.83318308  1
  Ti  Ti51  1  0.69394960  0.81802492  0.08872934  1
  Ti  Ti52  1  0.69804139  0.82429943  0.54882318  1
  Ti  Ti53  1  0.64820611  0.89702745  0.85442397  1
  Ti  Ti54  1  0.18640357  -0.01258925  0.19025367  1
  Ti  Ti55  1  0.12288071  0.05238651  0.51924106  1
  Ti  Ti56  1  0.09395989  0.06596470  0.83514835  1
  Ti  Ti57  1  0.19868575  0.32983449  0.16393115  1
  Ti  Ti58  1  0.18661025  0.32715392  0.54539091  1
  Ti  Ti59  1  0.15638443  0.33956243  0.79006434  1
  Ti  Ti60  1  0.18137644  0.64796745  0.20624069  1
  Ti  Ti61  1  0.14699699  0.62686878  0.50455865  1
  Ti  Ti62  1  0.22840153  0.64672865  0.87511152  1
  Ti  Ti63  1  0.51443130  0.04077451  0.22371655  1
  Ti  Ti64  1  0.49918668  -0.03341439  0.46725239  1
  Ti  Ti65  1  0.41961471  -0.01420382  0.82928425  1
  Ti  Ti66  1  0.43538114  0.28666806  0.18363337  1
  Ti  Ti67  1  0.49734794  0.33236384  0.41859354  1
  Ti  Ti68  1  0.47358241  0.34389814  0.84523724  1
  Ti  Ti69  1  0.53472795  0.82419584  0.17327909  1
  Ti  Ti70  1  0.45938132  0.53886749  0.53191959  1
  Ti  Ti71  1  0.55298595  0.68753032  0.80893466  1
  Ti  Ti72  1  0.80937609  -0.01462586  0.12597800  1
  Ti  Ti73  1  0.93401543  -0.03715866  0.48201902  1
  Ti  Ti74  1  0.86238022  -0.12217981  0.83315086  1
  Ti  Ti75  1  0.77597045  0.35255497  0.12024635  1
  Ti  Ti76  1  0.86311571  0.35380746  0.44222945  1
  Ti  Ti77  1  0.90462167  0.34182211  0.79524881  1
  Ti  Ti78  1  0.80932611  0.66450873  0.16667716  1
  Ti  Ti79  1  0.80138458  0.65552258  0.53091000  1
  Ti  Ti80  1  0.75058803  0.71527326  0.88218119  1
  Ti  Ti81  1  0.16578375  0.13414762  0.01527162  1
  Ti  Ti82  1  0.09052866  0.15940762  0.31582184  1
  Ti  Ti83  1  0.16881353  0.15143161  0.69312325  1
  Ti  Ti84  1  0.17600891  0.41030337  -0.01739704  1
  Ti  Ti85  1  0.20890054  0.49603941  0.32642850  1
  Ti  Ti86  1  0.19407345  0.53928050  0.70384237  1
  Ti  Ti87  1  0.25095555  0.84905434  -0.11626182  1
  Ti  Ti88  1  0.17647380  0.75710122  0.37216102  1
  Ti  Ti89  1  0.17240002  0.76814641  0.69197915  1
  Ti  Ti90  1  0.49376690  0.13197108  0.04429251  1
  Ti  Ti91  1  0.59347502  0.21751583  0.31224050  1
  Ti  Ti92  1  0.49826830  0.23963187  0.60148992  1
  Ti  Ti93  1  0.45270017  0.57483159  -0.02909024  1
  Ti  Ti94  1  0.49942387  0.48323900  0.28578134  1
  Ti  Ti95  1  0.53096927  0.50356252  0.71193732  1
  Ti  Ti96  1  0.50990819  0.94849616  0.00624314  1
  Ti  Ti97  1  0.55484385  0.76788840  0.35788096  1
  Ti  Ti98  1  0.49993833  0.77700331  0.54377324  1
  Ti  Ti99  1  0.84090007  0.19544952  -0.01362066  1
  Ti  Ti100  1  0.79594621  0.16653329  0.38024803  1
  Ti  Ti101  1  0.87353418  0.21505748  0.66819178  1
  Ti  Ti102  1  0.86655441  0.51284373  0.04244086  1
  Ti  Ti103  1  0.90623643  0.49574233  0.33073494  1
  Ti  Ti104  1  0.86499289  0.54081875  0.67671101  1
  Ti  Ti105  1  0.87147135  0.80191776  0.02666297  1
  Ti  Ti106  1  0.79882568  0.88265044  0.33666045  1
  Ti  Ti107  1  0.87011332  0.82656616  0.65262710  1
  Co  Co108  1  0.93015842  0.29225863  0.08515298  1
  Co  Co109  1  0.20085714  0.92124456  0.44336417  1
  Co  Co110  1  0.30471994  0.67274694  0.73605058  1
  Co  Co111  1  0.13151878  0.50806590  0.86468205  1
  Co  Co112  1  0.73863536  0.74074810  0.39675745  1
  Co  Co113  1  0.62682193  0.92701422  0.26407808  1
  Co  Co114  1  0.22283784  0.88398268  0.05737882  1
  Co  Co115  1  0.82678157  0.35762821  0.94916093  1
  Co  Co116  1  0.41345944  0.58061474  0.81578392  1
  Co  Co117  1  0.92852374  0.25287761  0.31331777  1
  Co  Co118  1  -0.04551010  0.08288491  0.36243123  1
  Co  Co119  1  0.05029594  0.28564586  0.20275232  1
  Co  Co120  1  0.69669118  0.48343358  0.65054074  1
  Co  Co121  1  0.69171138  0.36695449  0.51648674  1
  Co  Co122  1  0.49072418  0.85133020  0.84040151  1
  Co  Co123  1  0.59574844  0.34557229  0.08209517  1
  Co  Co124  1  0.47324112  0.44597153  0.12200187  1
  Co  Co125  1  0.55568391  0.80737463  0.69101761  1
  Co  Co126  1  0.62875483  0.98702584  0.10961964  1
  Co  Co127  1  0.86724849  0.82255598  0.19738095  1
  Co  Co128  1  0.06842669  0.22934264  0.59010697  1
  Co  Co129  1  0.80738377  0.48822851  0.51431405  1
  Co  Co130  1  0.97686801  0.83883612  0.36434995  1
  Co  Co131  1  0.27422401  0.54993976  0.99812547  1
  Co  Co132  1  0.21454708  0.81257636  0.20811412  1
  Co  Co133  1  0.77428480  0.57556332  0.38562604  1
  Co  Co134  1  0.63925424  0.88871784  0.42083299  1
  Co  Co135  1  0.91563481  0.38686859  0.21589753  1
  Co  Co136  1  0.61894650  0.67147097  0.47730579  1
  Co  Co137  1  0.89418801  0.65683264  0.95777539  1
  Co  Co138  1  0.38059691  0.84773188  0.98619580  1
  Co  Co139  1  0.22832321  0.78781161  0.53531632  1
  Co  Co140  1  0.27282006  0.38071673  0.67377424  1
  Co  Co141  1  0.73417031  0.65225005  0.02923787  1
  Co  Co142  1  0.38654747  0.72980224  0.87334522  1
  Co  Co143  1  0.59837898  0.35763471  0.23626563  1
  Co  Co144  1  0.19569674  0.93041404  0.60870631  1
  Co  Co145  1  0.12167548  0.90389870  0.31290921  1
  Co  Co146  1  0.01000080  0.70515662  0.45326003  1
  Co  Co147  1  0.46684369  0.28533902  1.00431730  1
  Co  Co148  1  0.20108466  0.05773276  0.36594754  1
  Co  Co149  1  0.25776968  0.04712529  0.85424639  1
  Co  Co150  1  0.35786199  0.52760110  0.66898063  1
  Co  Co151  1  0.00286378  0.10641784  0.66727274  1
  Co  Co152  1  0.04934053  0.41434660  0.10183336  1
  Co  Co153  1  0.87394116  0.80035961  0.48992621  1
  Co  Co154  1  0.53660285  0.43556670  0.96273653  1
  Co  Co155  1  0.69547953  0.77944887  0.24728342  1
  Co  Co156  1  0.63307710  0.22637926  0.47873109  1
  Co  Co157  1  0.45097707  0.94036240  0.64133657  1
  Co  Co158  1  0.16752207  0.19804912  0.45301629  1
  Co  Co159  1  0.68307504  0.08450831  0.23491495  1
  Co  Co160  1  0.70285349  0.44548936  -0.01091953  1
  Co  Co161  1  1.03301464  0.25212768  0.74541692  1
  Ni  Ni162  1  1.01811600  0.80801019  0.75211738  1
  Ni  Ni163  1  0.43539644  0.37699909  0.67539068  1
  Ni  Ni164  1  0.98992709  0.88777588  0.09419179  1
  Ni  Ni165  1  0.33416349  0.42056747  0.22462448  1
  Ni  Ni166  1  0.10808562  0.46214058  0.47412156  1
  Ni  Ni167  1  0.31478928  0.22155181  0.06035971  1
  Ni  Ni168  1  0.46097524  0.66242515  0.66802296  1
  Ni  Ni169  1  0.37215746  0.77343870  0.42785910  1
  Ni  Ni170  1  0.06924411  0.59282679  0.34418175  1
  Ni  Ni171  1  0.47030621  0.12363741  0.73735984  1
  Ni  Ni172  1  0.48322588  0.61779694  0.39186691  1
  Ni  Ni173  1  0.76028185  0.27812379  0.26723296  1
  Ni  Ni174  1  0.55275552  0.08201018  0.87675814  1
  Ni  Ni175  1  0.19542642  0.49550952  0.13725008  1
  Ni  Ni176  1  0.45501147  0.88795000  0.31397445  1
  Ni  Ni177  1  0.49629670  0.64506575  0.22797034  1
  Ni  Ni178  1  0.87243506  0.01481010  0.72672005  1
  Ni  Ni179  1  0.97183047  0.68060182  0.10031707  1
  Ni  Ni180  1  0.36730537  0.33939805  0.52372372  1
  Ni  Ni181  1  0.04785022  0.21744902  0.91564545  1
  Ni  Ni182  1  0.06163328  0.03209641  0.09519608  1
  Ni  Ni183  1  0.21344197  0.20534928  0.87043627  1
  Ni  Ni184  1  0.70054000  0.59071103  0.77861498  1
  Ni  Ni185  1  0.90218213  0.69478196  0.78701891  1
  Ni  Ni186  1  0.31258744  0.61393631  0.39577880  1
  Ni  Ni187  1  0.58600716  0.23511375  0.78883789  1
  Ni  Ni188  1  0.29810441  0.20648496  0.59814254  1
  Ni  Ni189  1  0.49882054  0.14271074  0.44076168  1
  Ni  Ni190  1  0.41349598  0.17561296  0.30731497  1
  Ni  Ni191  1  0.03113867  0.44005284  0.75083118  1
  Ni  Ni192  1  0.37187090  0.45129487  0.38893661  1
  Ni  Ni193  1  0.62420751  0.58388713  0.92809620  1
  Ni  Ni194  1  0.18340017  0.93494816  0.76428458  1
  Ni  Ni195  1  0.10865610  0.76744354  0.06018500  1
  Ni  Ni196  1  0.82667757  0.37951712  0.63081736  1
  Ni  Ni197  1  0.36790266  0.07242600  0.14685415  1
  Ni  Ni198  1  0.71937213  0.80114676  0.73275444  1
  Ni  Ni199  1  0.79230111  0.23897768  0.53367401  1
  Ni  Ni200  1  0.76994576  0.95629880  0.61740214  1
  Ni  Ni201  1  0.80727853  0.16827766  0.15104882  1
  Ni  Ni202  1  0.42377453  0.72210956  0.09652467  1
  Ni  Ni203  1  0.80967424  0.03363969  0.88095337  1
  Ni  Ni204  1  0.57897204  0.65609339  0.08995353  1
  Ni  Ni205  1  0.07211742  0.64745131  0.78125084  1
  Ni  Ni206  1  0.86364177  0.08347679  0.57268081  1
  Ni  Ni207  1  0.12230953  0.95040645  0.95201619  1
  Ni  Ni208  1  0.76154970  0.91504387  0.97370845  1
  Ni  Ni209  1  0.77714088  0.00603309  0.45587405  1
  Ni  Ni210  1  0.82794513  0.03958570  0.28064001  1
  Ni  Ni211  1  0.52332478  0.07682365  0.58853378  1
  Ni  Ni212  1  0.05460964  0.53648210  0.62528190  1
  Ni  Ni213  1  0.80299399  0.46136223  0.80641461  1
  Ni  Ni214  1  0.75797173  0.25864877  0.82133883  1
  Ni  Ni215  1  0.78795580  0.50739432  0.21206002  1
