# generated using pymatgen
data_Ti2CoNi
_symmetry_space_group_name_H-M   'P 1'
_cell_length_a   14.59444953
_cell_length_b   14.60011836
_cell_length_c   14.59057051
_cell_angle_alpha   90.22642700
_cell_angle_beta   90.00621265
_cell_angle_gamma   89.96400068
_symmetry_Int_Tables_number   1
_chemical_formula_structural   Ti2CoNi
_chemical_formula_sum   'Ti108 Co54 Ni54'
_cell_volume   3108.94393082
_cell_formula_units_Z   54
loop_
 _symmetry_equiv_pos_site_id
 _symmetry_equiv_pos_as_xyz
  1  'x, y, z'
loop_
 _atom_site_type_symbol
 _atom_site_label
 _atom_site_symmetry_multiplicity
 _atom_site_fract_x
 _atom_site_fract_y
 _atom_site_fract_z
 _atom_site_occupancy
  Ti  Ti0  1  0.01175201  -0.02599018  -0.04350477  1
  Ti  Ti1  1  0.02316945  -0.06760741  0.40712884  1
  Ti  Ti2  1  0.03096823  -0.09060780  0.61671210  1
  Ti  Ti3  1  -0.03198754  0.42301801  0.04392380  1
  Ti  Ti4  1  -0.05473028  0.29204362  0.37231503  1
  Ti  Ti5  1  0.03203661  0.26993982  0.58461041  1
  Ti  Ti6  1  0.03353964  0.63365189  0.04645151  1
  Ti  Ti7  1  -0.02563029  0.61936573  0.37484968  1
  Ti  Ti8  1  -0.06385347  0.60252905  0.60107096  1
  Ti  Ti9  1  0.22485684  -0.00867975  -0.01973739  1
  Ti  Ti10  1  0.29624618  -0.01052205  0.24416514  1
  Ti  Ti11  1  0.41979951  0.01199041  0.68074899  1
  Ti  Ti12  1  0.35895906  0.29416985  0.04780997  1
  Ti  Ti13  1  0.30452427  0.33529861  0.23095762  1
  Ti  Ti14  1  0.26665645  0.30087205  0.64406398  1
  Ti  Ti15  1  0.35375133  0.63333598  -0.01121916  1
  Ti  Ti16  1  0.34045599  0.59519412  0.35463406  1
  Ti  Ti17  1  0.34433892  0.68539263  0.67773242  1
  Ti  Ti18  1  0.63088930  0.09787509  0.04288800  1
  Ti  Ti19  1  0.56294722  -0.01894643  0.32328000  1
  Ti  Ti20  1  0.62380062  0.04878732  0.68770162  1
  Ti  Ti21  1  0.63546301  0.33611430  0.05684016  1
  Ti  Ti22  1  0.69174917  0.44313492  0.35289971  1
  Ti  Ti23  1  0.69433804  0.34877500  0.71646787  1
  Ti  Ti24  1  0.68375222  0.60549340  -0.00403392  1
  Ti  Ti25  1  0.66786334  0.62400290  0.38791566  1
  Ti  Ti26  1  0.65934254  0.73536444  0.68164904  1
  Ti  Ti27  1  -0.04862738  0.09654326  0.10925691  1
  Ti  Ti28  1  0.05524494  0.09156397  0.52871149  1
  Ti  Ti29  1  0.04569807  0.17942149  0.87555320  1
  Ti  Ti30  1  -0.09850118  0.56507066  0.16402328  1
  Ti  Ti31  1  -0.02978559  0.44648806  0.49893489  1
  Ti  Ti32  1  0.07004877  0.55301285  0.85375737  1
  Ti  Ti33  1  0.00510863  0.89906630  0.15535950  1
  Ti  Ti34  1  0.01136028  0.75996423  0.50578272  1
  Ti  Ti35  1  0.01160443  0.83363399  0.79119795  1
  Ti  Ti36  1  0.38819349  0.15247996  0.19553211  1
  Ti  Ti37  1  0.35770430  0.23435466  0.49129152  1
  Ti  Ti38  1  0.31385348  0.16359858  0.76049475  1
  Ti  Ti39  1  0.40398580  0.53168270  0.16524596  1
  Ti  Ti40  1  0.37002210  0.45834464  0.51414528  1
  Ti  Ti41  1  0.27243275  0.52646354  0.83048692  1
  Ti  Ti42  1  0.27725816  0.81840629  0.18313580  1
  Ti  Ti43  1  0.31764977  0.77951544  0.50386810  1
  Ti  Ti44  1  0.37520278  0.84828313  0.79337286  1
  Ti  Ti45  1  0.67254671  0.20118965  0.21565443  1
  Ti  Ti46  1  0.72443667  0.18082619  0.48257835  1
  Ti  Ti47  1  0.76465542  0.20679610  0.83257330  1
  Ti  Ti48  1  0.66444974  0.55679744  0.17596461  1
  Ti  Ti49  1  0.68651115  0.42604566  0.53913662  1
  Ti  Ti50  1  0.63003807  0.47196125  0.83925704  1
  Ti  Ti51  1  0.64918883  0.91408168  0.15165656  1
  Ti  Ti52  1  0.70098139  0.91318372  0.48999545  1
  Ti  Ti53  1  0.64372704  0.85047257  0.86831085  1
  Ti  Ti54  1  0.11809445  0.08635378  0.21266587  1
  Ti  Ti55  1  0.20549867  0.05574610  0.40646054  1
  Ti  Ti56  1  0.11172416  0.01443042  0.80086992  1
  Ti  Ti57  1  0.11234607  0.32420765  0.18088027  1
  Ti  Ti58  1  0.15711399  0.39277725  0.52900061  1
  Ti  Ti59  1  0.15801483  0.34689450  0.79893917  1
  Ti  Ti60  1  0.21888446  0.62343651  0.13434339  1
  Ti  Ti61  1  0.15549576  0.66168538  0.43442866  1
  Ti  Ti62  1  0.20194587  0.70919858  0.80639795  1
  Ti  Ti63  1  0.46128757  -0.00572252  0.11380984  1
  Ti  Ti64  1  0.43904272  0.01346068  0.49052111  1
  Ti  Ti65  1  0.49380929  -0.01183683  0.87153530  1
  Ti  Ti66  1  0.50798522  0.30285335  0.25022289  1
  Ti  Ti67  1  0.52199316  0.34541420  0.45527190  1
  Ti  Ti68  1  0.48447319  0.31938243  0.78339149  1
  Ti  Ti69  1  0.55861782  0.73852523  0.15973109  1
  Ti  Ti70  1  0.51376607  0.62130920  0.58423093  1
  Ti  Ti71  1  0.54249239  0.66942357  0.89414487  1
  Ti  Ti72  1  0.82555043  -0.02910121  0.21959676  1
  Ti  Ti73  1  0.85205906  0.02469450  0.42627443  1
  Ti  Ti74  1  0.83214975  -0.08066888  0.86587590  1
  Ti  Ti75  1  0.85083332  0.27816436  0.12526203  1
  Ti  Ti76  1  0.83585729  0.30597449  0.59570965  1
  Ti  Ti77  1  0.90085062  0.29067762  0.91376019  1
  Ti  Ti78  1  0.77647205  0.76166846  0.11800171  1
  Ti  Ti79  1  0.79469890  0.71278257  0.53309008  1
  Ti  Ti80  1  0.89511007  0.68478050  0.85066560  1
  Ti  Ti81  1  0.18054572  0.25427017  -0.00419171  1
  Ti  Ti82  1  0.13465990  0.24898354  0.37268062  1
  Ti  Ti83  1  0.20670712  0.04879395  0.64277024  1
  Ti  Ti84  1  0.16853399  0.47124178  0.00878626  1
  Ti  Ti85  1  0.16181652  0.51044959  0.28353924  1
  Ti  Ti86  1  0.06832388  0.46991206  0.68125795  1
  Ti  Ti87  1  0.15579785  0.79954730  0.01657106  1
  Ti  Ti88  1  0.19300912  0.83509731  0.37386397  1
  Ti  Ti89  1  0.20531007  0.85455680  0.68760589  1
  Ti  Ti90  1  0.48317120  0.16236135  -0.07108367  1
  Ti  Ti91  1  0.53574633  0.16237075  0.39631643  1
  Ti  Ti92  1  0.55289505  0.21729422  0.60900894  1
  Ti  Ti93  1  0.45819546  0.48007089  -0.07851892  1
  Ti  Ti94  1  0.52600875  0.49815677  0.30089218  1
  Ti  Ti95  1  0.41833918  0.50022321  0.71613683  1
  Ti  Ti96  1  0.44741212  0.80397719  0.01842070  1
  Ti  Ti97  1  0.55732733  0.78998983  0.35520046  1
  Ti  Ti98  1  0.47870238  0.82096311  0.60548143  1
  Ti  Ti99  1  0.82202795  0.08882171  -0.03419357  1
  Ti  Ti100  1  0.85502254  0.15393166  0.28846849  1
  Ti  Ti101  1  0.88579035  0.15210075  0.68731239  1
  Ti  Ti102  1  0.78051252  0.43162812  -0.02607936  1
  Ti  Ti103  1  0.86997131  0.47138196  0.32433679  1
  Ti  Ti104  1  0.75785181  0.54287277  0.69165785  1
  Ti  Ti105  1  0.93287584  0.79924763  0.00130366  1
  Ti  Ti106  1  0.87773495  0.79820466  0.30876949  1
  Ti  Ti107  1  0.82240792  0.89877853  0.65125223  1
  Co  Co108  1  0.91881872  0.52108896  0.92717159  1
  Co  Co109  1  0.60643659  0.06100538  0.50884297  1
  Co  Co110  1  0.06002050  0.63284723  0.22871859  1
  Co  Co111  1  0.32785761  0.91500975  0.59774366  1
  Co  Co112  1  0.73476956  0.77362864  0.39792417  1
  Co  Co113  1  0.94151921  0.97156969  0.74646901  1
  Co  Co114  1  0.71838220  0.19001306  0.65928193  1
  Co  Co115  1  0.94041813  0.73183112  0.16294472  1
  Co  Co116  1  0.31529126  0.93603895  0.41706744  1
  Co  Co117  1  0.06412842  0.35401352  0.93220829  1
  Co  Co118  1  0.04701932  0.66697753  0.72617131  1
  Co  Co119  1  0.08636769  0.57621471  0.54983782  1
  Co  Co120  1  0.67463472  0.59573815  0.55865610  1
  Co  Co121  1  0.16869778  0.73110781  0.59346022  1
  Co  Co122  1  0.21310608  0.68781310  0.28352363  1
  Co  Co123  1  0.03048322  0.09483601  0.69057769  1
  Co  Co124  1  0.97462800  0.01362268  0.27528568  1
  Co  Co125  1  -0.02406879  0.41881904  0.81945500  1
  Co  Co126  1  0.30806153  0.08854178  0.53743755  1
  Co  Co127  1  0.54506946  0.10429571  0.22620101  1
  Co  Co128  1  0.81162663  0.41882019  0.81036656  1
  Co  Co129  1  0.26426801  0.46566708  0.65642535  1
  Co  Co130  1  0.37923353  0.08247252  0.35637819  1
  Co  Co131  1  0.77107471  0.57174383  0.86059226  1
  Co  Co132  1  0.61274264  0.74788589  0.51763448  1
  Co  Co133  1  0.95591605  0.38466773  0.21501887  1
  Co  Co134  1  0.76027106  1.05285413  0.58088871  1
  Co  Co135  1  0.11344205  0.77512325  0.17025238  1
  Co  Co136  1  0.12310981  0.92466089  0.27129696  1
  Co  Co137  1  0.71772748  0.90518488  0.31454124  1
  Co  Co138  1  0.91854852  0.55607092  0.76376370  1
  Co  Co139  1  0.23913916  0.45407020  0.15162137  1
  Co  Co140  1  0.00076535  0.20914383  0.22845541  1
  Co  Co141  1  0.37390872  0.93681933  0.96122531  1
  Co  Co142  1  0.76979180  0.76200858  -0.06013080  1
  Co  Co143  1  0.79801761  0.31618936  0.27537973  1
  Co  Co144  1  0.18457827  0.59665446  0.68922674  1
  Co  Co145  1  0.92072295  0.09193612  0.84294990  1
  Co  Co146  1  0.38643893  0.24732540  0.34225424  1
  Co  Co147  1  0.62594224  0.76889846  1.01546036  1
  Co  Co148  1  0.91729740  0.01964797  0.58433372  1
  Co  Co149  1  0.04594104  0.76400394  0.32405716  1
  Co  Co150  1  0.33409279  0.37222666  0.77492693  1
  Co  Co151  1  0.64139650  0.38439587  0.21248334  1
  Co  Co152  1  0.34257313  0.47307749  0.03239162  1
  Co  Co153  1  0.75394598  0.23676075  1.00351766  1
  Co  Co154  1  0.34677967  0.24515954  0.88973661  1
  Co  Co155  1  0.16549301  0.93542328  0.11891202  1
  Co  Co156  1  0.24638976  0.16985845  0.28711846  1
  Co  Co157  1  0.71075601  0.95566471  0.99159570  1
  Co  Co158  1  0.68693592  0.73616817  0.25059652  1
  Co  Co159  1  0.39103221  0.65483661  0.82888273  1
  Co  Co160  1  0.07237258  0.49453060  0.14652986  1
  Co  Co161  1  0.55873281  0.92142947  0.00935437  1
  Ni  Ni162  1  0.55141338  0.50940674  0.46676013  1
  Ni  Ni163  1  0.44996057  0.68292741  0.44982147  1
  Ni  Ni164  1  0.51794412  0.61404750  0.05465029  1
  Ni  Ni165  1  0.61207374  0.21474464  0.78496048  1
  Ni  Ni166  1  0.79066499  0.43584026  0.15737146  1
  Ni  Ni167  1  0.80576064  0.35035592  0.44039692  1
  Ni  Ni168  1  0.29483527  0.60624280  0.54311512  1
  Ni  Ni169  1  0.25825072  0.35516055  0.39748399  1
  Ni  Ni170  1  0.50669151  0.32624357  0.95323004  1
  Ni  Ni171  1  0.27160497  0.38014776  0.92150729  1
  Ni  Ni172  1  1.05858696  0.72343965  0.90082237  1
  Ni  Ni173  1  0.54991795  0.90344952  0.73333110  1
  Ni  Ni174  1  0.48016056  0.13788095  0.76094319  1
  Ni  Ni175  1  0.35213019  0.10102965  0.02274947  1
  Ni  Ni176  1  0.51058216  0.74978948  0.75578946  1
  Ni  Ni177  1  0.30297370  0.78261225  0.92888339  1
  Ni  Ni178  1  0.64563708  0.07125381  0.87190448  1
  Ni  Ni179  1  0.38776902  0.69942659  0.14754903  1
  Ni  Ni180  1  0.14476854  0.19837705  0.71424108  1
  Ni  Ni181  1  0.17134172  0.86935253  0.86271885  1
  Ni  Ni182  1  0.78635118  0.78650635  0.77402244  1
  Ni  Ni183  1  0.18685644  0.20716111  0.52907501  1
  Ni  Ni184  1  0.28718628  0.98988935  0.80175045  1
  Ni  Ni185  1  0.77706557  0.09989523  0.12927733  1
  Ni  Ni186  1  0.18754078  0.63690530  0.96008000  1
  Ni  Ni187  1  0.43009662  0.33667582  0.62121679  1
  Ni  Ni188  1  0.81731348  0.52967154  0.48561874  1
  Ni  Ni189  1  0.10152042  0.09811682  0.03392912  1
  Ni  Ni190  1  0.70523772  0.07279400  0.34468044  1
  Ni  Ni191  1  0.65777028  0.28193422  0.36697721  1
  Ni  Ni192  1  0.86065940  0.94121911  0.05360286  1
  Ni  Ni193  1  0.89969967  0.43518525  0.66018594  1
  Ni  Ni194  1  0.06413055  0.41204615  0.36466998  1
  Ni  Ni195  1  0.77964560  0.04178749  0.75515964  1
  Ni  Ni196  1  0.21250612  0.13252711  0.88776329  1
  Ni  Ni197  1  0.55809132  0.59039911  0.74453102  1
  Ni  Ni198  1  0.54563910  0.89689973  0.48014728  1
  Ni  Ni199  1  0.90335574  0.17580103  0.49967978  1
  Ni  Ni200  1  0.01100617  0.13044473  0.37600464  1
  Ni  Ni201  1  0.17247207  0.91480638  0.52540612  1
  Ni  Ni202  1  0.86856483  0.86271030  0.46753178  1
  Ni  Ni203  1  0.91762767  0.75793808  0.66815577  1
  Ni  Ni204  1  0.39752421  0.41585124  0.34895171  1
  Ni  Ni205  1  0.56263292  0.44172249  0.64979491  1
  Ni  Ni206  1  0.99655322  0.28573101  0.74301838  1
  Ni  Ni207  1  0.81462375  0.64097552  0.28306546  1
  Ni  Ni208  1  0.47946642  0.65787548  0.28524658  1
  Ni  Ni209  1  0.48081426  0.39277000  0.11056369  1
  Ni  Ni210  1  0.21202587  0.50793338  0.43994010  1
  Ni  Ni211  1  0.44660303  0.86147144  0.21578062  1
  Ni  Ni212  1  0.23561366  0.16594817  0.12498144  1
  Ni  Ni213  1  0.50910041  0.21373404  0.09277240  1
  Ni  Ni214  1  0.85043602  0.63368968  0.01862315  1
  Ni  Ni215  1  1.01570448  0.24787835  0.05630306  1
