# generated using pymatgen
data_Ti2CoNi
_symmetry_space_group_name_H-M   'P 1'
_cell_length_a   14.54793160
_cell_length_b   14.49480608
_cell_length_c   14.56014196
_cell_angle_alpha   89.83098765
_cell_angle_beta   90.32113919
_cell_angle_gamma   90.13071986
_symmetry_Int_Tables_number   1
_chemical_formula_structural   Ti2CoNi
_chemical_formula_sum   'Ti108 Co54 Ni54'
_cell_volume   3070.21962865
_cell_formula_units_Z   54
loop_
 _symmetry_equiv_pos_site_id
 _symmetry_equiv_pos_as_xyz
  1  'x, y, z'
loop_
 _atom_site_type_symbol
 _atom_site_label
 _atom_site_symmetry_multiplicity
 _atom_site_fract_x
 _atom_site_fract_y
 _atom_site_fract_z
 _atom_site_occupancy
  Ti  Ti0  1  0.02279125  0.03988478  -0.04288094  1
  Ti  Ti1  1  0.11797911  -0.00569684  0.31163192  1
  Ti  Ti2  1  -0.03976022  -0.04805916  0.64589391  1
  Ti  Ti3  1  0.04241556  0.36995571  -0.01024200  1
  Ti  Ti4  1  0.03676649  0.25446676  0.39375569  1
  Ti  Ti5  1  0.02184280  0.27133613  0.65231064  1
  Ti  Ti6  1  -0.05406772  0.70527149  0.00779671  1
  Ti  Ti7  1  -0.02136317  0.70538446  0.30276507  1
  Ti  Ti8  1  -0.01946801  0.70143042  0.64927786  1
  Ti  Ti9  1  0.30200374  -0.03480300  0.05016123  1
  Ti  Ti10  1  0.32661524  0.03666071  0.34873189  1
  Ti  Ti11  1  0.29214222  0.02895207  0.56321852  1
  Ti  Ti12  1  0.39267115  0.32563293  0.06358979  1
  Ti  Ti13  1  0.37966108  0.32602409  0.36519031  1
  Ti  Ti14  1  0.35579851  0.35477855  0.60852837  1
  Ti  Ti15  1  0.36497209  0.68124104  -0.03521121  1
  Ti  Ti16  1  0.39101558  0.69847528  0.28306740  1
  Ti  Ti17  1  0.32740688  0.59767258  0.66600287  1
  Ti  Ti18  1  0.63422002  0.04093007  -0.04954135  1
  Ti  Ti19  1  0.62401021  0.02488411  0.40190046  1
  Ti  Ti20  1  0.62800102  0.03314409  0.62821085  1
  Ti  Ti21  1  0.70817758  0.30366454  -0.07609379  1
  Ti  Ti22  1  0.70522963  0.30477845  0.23280605  1
  Ti  Ti23  1  0.62588517  0.36015835  0.73176620  1
  Ti  Ti24  1  0.71506749  0.73983911  -0.01449068  1
  Ti  Ti25  1  0.58470590  0.64476446  0.32629673  1
  Ti  Ti26  1  0.65913391  0.71909012  0.70159057  1
  Ti  Ti27  1  -0.00823789  0.14148572  0.21619779  1
  Ti  Ti28  1  0.01129615  0.12015443  0.52480642  1
  Ti  Ti29  1  -0.04095600  0.11653947  0.76159173  1
  Ti  Ti30  1  0.04905281  0.43125079  0.16218557  1
  Ti  Ti31  1  -0.08426809  0.41883372  0.46529224  1
  Ti  Ti32  1  0.01079245  0.44713805  0.82829134  1
  Ti  Ti33  1  0.00147417  0.80728975  0.14048699  1
  Ti  Ti34  1  0.00417174  0.85634518  0.42687652  1
  Ti  Ti35  1  -0.00026738  0.81535609  0.83492809  1
  Ti  Ti36  1  0.40257904  0.11573003  0.14520866  1
  Ti  Ti37  1  0.26989095  0.22780311  0.48446515  1
  Ti  Ti38  1  0.34907024  0.23302504  0.82132054  1
  Ti  Ti39  1  0.34032242  0.52714494  0.18682172  1
  Ti  Ti40  1  0.28773677  0.45559130  0.45860701  1
  Ti  Ti41  1  0.38361582  0.48252333  0.85914785  1
  Ti  Ti42  1  0.28975131  0.84998286  0.26413782  1
  Ti  Ti43  1  0.26169444  0.82111539  0.55596264  1
  Ti  Ti44  1  0.27432439  0.77813564  0.79704605  1
  Ti  Ti45  1  0.70022274  0.10568092  0.23305382  1
  Ti  Ti46  1  0.74194115  0.12803848  0.52889642  1
  Ti  Ti47  1  0.65040751  0.14841270  0.78229435  1
  Ti  Ti48  1  0.68905500  0.52252242  0.16335825  1
  Ti  Ti49  1  0.73203565  0.49469233  0.46772363  1
  Ti  Ti50  1  0.68686184  0.55434461  0.87758512  1
  Ti  Ti51  1  0.70098437  0.91304410  0.22077481  1
  Ti  Ti52  1  0.70545915  0.85089723  0.54675412  1
  Ti  Ti53  1  0.58113376  0.82884035  0.85205854  1
  Ti  Ti54  1  0.12008483  -0.03130494  0.11884804  1
  Ti  Ti55  1  0.11619548  -0.03527859  0.52490932  1
  Ti  Ti56  1  0.21132612  -0.02992927  0.85668013  1
  Ti  Ti57  1  0.19836749  0.29752183  0.07658158  1
  Ti  Ti58  1  0.10654408  0.39861783  0.52094947  1
  Ti  Ti59  1  0.13469002  0.30714199  0.83355318  1
  Ti  Ti60  1  0.17173386  0.65171493  0.20876408  1
  Ti  Ti61  1  0.13774153  0.58741995  0.50171630  1
  Ti  Ti62  1  0.15720713  0.67523724  0.92940713  1
  Ti  Ti63  1  0.55912540  -0.03491543  0.12675491  1
  Ti  Ti64  1  0.47304779  -0.02167462  0.50758676  1
  Ti  Ti65  1  0.46594096  0.07166060  0.82928108  1
  Ti  Ti66  1  0.50505837  0.39311882  0.21062655  1
  Ti  Ti67  1  0.57935483  0.35799586  0.39794659  1
  Ti  Ti68  1  0.49956304  0.33432177  0.91337324  1
  Ti  Ti69  1  0.53045875  0.71126225  0.13361300  1
  Ti  Ti70  1  0.46790037  0.72213992  0.49223740  1
  Ti  Ti71  1  0.45519368  0.69033383  0.78717850  1
  Ti  Ti72  1  0.86805152  -0.00234708  0.26461898  1
  Ti  Ti73  1  0.86144457  -0.03042769  0.47102067  1
  Ti  Ti74  1  0.73179155  -0.05651992  0.79306819  1
  Ti  Ti75  1  0.84480982  0.36525025  0.10371092  1
  Ti  Ti76  1  0.74053449  0.30769315  0.48680442  1
  Ti  Ti77  1  0.82400433  0.40118020  0.79844814  1
  Ti  Ti78  1  0.83736755  0.67315805  0.17725549  1
  Ti  Ti79  1  0.81029149  0.66418662  0.55659212  1
  Ti  Ti80  1  0.86166355  0.65779693  0.85918161  1
  Ti  Ti81  1  0.20114773  0.16343512  -0.06775874  1
  Ti  Ti82  1  0.23208662  0.19677635  0.25786727  1
  Ti  Ti83  1  0.17731944  0.15180361  0.73346080  1
  Ti  Ti84  1  0.21101361  0.48308582  -0.04827634  1
  Ti  Ti85  1  0.18453769  0.46202707  0.30257368  1
  Ti  Ti86  1  0.10016065  0.56053903  0.68897182  1
  Ti  Ti87  1  0.11164293  0.84696783  -0.01957998  1
  Ti  Ti88  1  0.15565930  0.73531041  0.38976886  1
  Ti  Ti89  1  0.11685169  0.84512425  0.69400824  1
  Ti  Ti90  1  0.58558400  0.17914242  0.09413882  1
  Ti  Ti91  1  0.52114371  0.19702597  0.32763082  1
  Ti  Ti92  1  0.45415611  0.13677842  0.63126394  1
  Ti  Ti93  1  0.54919378  0.47088891  0.03531357  1
  Ti  Ti94  1  0.43850854  0.52398452  0.35498789  1
  Ti  Ti95  1  0.50076475  0.50569555  0.63753432  1
  Ti  Ti96  1  0.44530802  0.89042936  -0.04000539  1
  Ti  Ti97  1  0.49161730  0.88989522  0.31098926  1
  Ti  Ti98  1  0.53075222  0.84625412  0.64271751  1
  Ti  Ti99  1  0.83963804  0.16459607  0.01263955  1
  Ti  Ti100  1  0.85174027  0.21818859  0.35051743  1
  Ti  Ti101  1  0.79356095  0.25050650  0.68188906  1
  Ti  Ti102  1  0.88168536  0.49199932  -0.04015615  1
  Ti  Ti103  1  0.90203513  0.49784556  0.25290728  1
  Ti  Ti104  1  0.78213645  0.55982476  0.70151417  1
  Ti  Ti105  1  0.82942761  0.88178009  0.08463091  1
  Ti  Ti106  1  0.81219568  0.76345941  0.38854780  1
  Ti  Ti107  1  0.84194718  0.80166711  0.71027108  1
  Co  Co108  1  0.69618359  0.74682523  0.14485503  1
  Co  Co109  1  0.40660421  0.18968247  0.98175184  1
  Co  Co110  1  0.83373247  0.81842399  0.23872456  1
  Co  Co111  1  0.11325194  0.70116019  0.77777244  1
  Co  Co112  1  0.95613831  0.28711017  0.80247979  1
  Co  Co113  1  0.72506210  0.90341293  0.37990805  1
  Co  Co114  1  0.28093747  0.82632936  0.95868641  1
  Co  Co115  1  0.16328643  0.14484734  0.57107422  1
  Co  Co116  1  0.31579865  0.07059199  0.74450951  1
  Co  Co117  1  0.98095545  0.07322775  0.37162780  1
  Co  Co118  1  0.20221650  0.68505911  0.64065700  1
  Co  Co119  1  0.19553092  0.29309493  0.62700875  1
  Co  Co120  1  0.45988859  0.42714017  0.49016197  1
  Co  Co121  1  0.10898901  0.40349526  0.70129325  1
  Co  Co122  1  0.61132388  0.39696984  0.55698882  1
  Co  Co123  1  0.62255052  0.23330930  0.62672444  1
  Co  Co124  1  0.26285950  0.14075897  0.07704292  1
  Co  Co125  1  0.38872967  0.57118784  0.51431150  1
  Co  Co126  1  0.37098765  0.91623587  0.81754756  1
  Co  Co127  1  0.76052805  0.40882187  0.62709453  1
  Co  Co128  1  0.51105742  0.58223109  0.92035617  1
  Co  Co129  1  0.88156831  0.57619969  0.39929613  1
  Co  Co130  1  0.59858247  0.84614912  0.04030434  1
  Co  Co131  1  0.25399804  0.92605875  0.69457942  1
  Co  Co132  1  0.79033506  0.08195575  0.73422760  1
  Co  Co133  1  0.82458260  0.19238693  0.16695294  1
  Co  Co134  1  0.98334571  0.89614792  0.27517813  1
  Co  Co135  1  0.50136431  0.55934499  0.19204538  1
  Co  Co136  1  0.19431666  0.31786326  0.36915347  1
  Co  Co137  1  0.21763107  0.81778523  0.11428995  1
  Co  Co138  1  0.09317027  0.68640200  0.07761986  1
  Co  Co139  1  0.62852420  0.61354983  0.03784875  1
  Co  Co140  1  0.92180809  0.31427976  0.24309748  1
  Co  Co141  1  0.28849698  0.33590485  0.93266049  1
  Co  Co142  1  0.23216790  0.47599177  0.61517229  1
  Co  Co143  1  0.78366902  0.07005684  0.37584283  1
  Co  Co144  1  0.33171229  0.05865358  0.92064018  1
  Co  Co145  1  0.70431096  0.64904691  0.43756394  1
  Co  Co146  1  0.55469068  0.46257208  0.82932891  1
  Co  Co147  1  0.11433668  0.02501018  0.67097923  1
  Co  Co148  1  0.51920100  0.72964352  0.96152023  1
  Co  Co149  1  0.47932264  0.04550046  0.01431074  1
  Co  Co150  1  0.89281565  0.95251497  0.79490104  1
  Co  Co151  1  0.65540953  0.55689029  0.60421147  1
  Co  Co152  1  0.68047305  0.20133124  0.37334506  1
  Co  Co153  1  0.10021724  0.28856042  0.22532110  1
  Co  Co154  1  0.58168358  0.59596422  0.75171291  1
  Co  Co155  1  0.72263202  0.45711069  0.00808191  1
  Co  Co156  1  0.61457458  0.70776708  0.54608551  1
  Co  Co157  1  -0.03229074  0.54819260  0.55553413  1
  Co  Co158  1  0.88265175  0.31744961  0.94537921  1
  Co  Co159  1  0.41166294  0.95447892  0.66306352  1
  Co  Co160  1  -0.03462834  0.69091518  0.47103302  1
  Co  Co161  1  0.56388363  0.54860065  0.46818102  1
  Ni  Ni162  1  0.56766898  0.19156435  0.92538678  1
  Ni  Ni163  1  0.87935044  0.11325282  0.60807314  1
  Ni  Ni164  1  0.63890321  0.33674482  0.08009003  1
  Ni  Ni165  1  0.09217538  0.76540533  0.54327063  1
  Ni  Ni166  1  0.37296789  0.86859147  0.42690495  1
  Ni  Ni167  1  0.40518006  0.25568317  0.21885178  1
  Ni  Ni168  1  0.19935902  0.46620133  0.11601622  1
  Ni  Ni169  1  0.61833377  0.79174013  0.28656873  1
  Ni  Ni170  1  0.25327217  0.61751176  0.06632650  1
  Ni  Ni171  1  0.95786244  0.99014756  0.11704821  1
  Ni  Ni172  1  0.01976130  0.20645550  0.93551749  1
  Ni  Ni173  1  0.86977342  0.84094540  0.92400445  1
  Ni  Ni174  1  0.79212293  0.40735059  0.33168798  1
  Ni  Ni175  1  0.79356729  0.96105643  0.63193486  1
  Ni  Ni176  1  0.12483847  0.81980438  0.25192017  1
  Ni  Ni177  1  0.93960317  0.57023585  0.74989741  1
  Ni  Ni178  1  0.38922229  0.52080593  0.02978178  1
  Ni  Ni179  1  0.05118400  0.54859575  0.97695049  1
  Ni  Ni180  1  0.75618613  0.59517347  0.29693314  1
  Ni  Ni181  1  0.28631388  0.36286113  0.21811364  1
  Ni  Ni182  1  0.25016539  0.03077544  0.19870984  1
  Ni  Ni183  1  0.57307343  0.84902967  0.45022830  1
  Ni  Ni184  1  0.94997921  0.55868520  0.10268640  1
  Ni  Ni185  1  0.90154798  0.26515911  0.53379463  1
  Ni  Ni186  1  0.74279586  0.77496492  0.83302130  1
  Ni  Ni187  1  0.46570175  0.26920626  0.51339178  1
  Ni  Ni188  1  0.15326511  0.12705909  0.40430584  1
  Ni  Ni189  1  0.27021010  0.37417727  0.75538758  1
  Ni  Ni190  1  0.44042039  0.37556300  0.74564799  1
  Ni  Ni191  1  0.57222907  0.15321883  0.49613676  1
  Ni  Ni192  1  0.40902328  0.12878028  0.45454315  1
  Ni  Ni193  1  0.85895858  0.00973587  0.95370980  1
  Ni  Ni194  1  0.31284790  0.70829393  0.44942304  1
  Ni  Ni195  1  0.27127367  0.60455878  0.82536635  1
  Ni  Ni196  1  0.79417822  0.60396717  1.03790627  1
  Ni  Ni197  1  0.05398994  0.97763830  0.80782392  1
  Ni  Ni198  1  0.97671502  0.25612831  0.09351434  1
  Ni  Ni199  1  0.88325038  0.82170752  0.55079802  1
  Ni  Ni200  1  0.93339381  0.42064316  0.65853085  1
  Ni  Ni201  1  0.21511371  0.90401322  0.41298552  1
  Ni  Ni202  1  0.26028108  0.59976262  0.34880996  1
  Ni  Ni203  1  0.37754893  0.77769890  0.65772887  1
  Ni  Ni204  1  0.05731952  0.56816954  0.31383124  1
  Ni  Ni205  1  0.72215763  0.90924750  0.96003735  1
  Ni  Ni206  1  0.63167835  0.48166989  0.31342235  1
  Ni  Ni207  1  0.82590289  0.18672535  0.84733338  1
  Ni  Ni208  1  0.03052050  0.40653667  0.33727897  1
  Ni  Ni209  1  0.74875877  0.03818591  0.08503550  1
  Ni  Ni210  1  0.52425354  0.05300675  0.26368142  1
  Ni  Ni211  1  0.38868470  0.80378309  0.11490360  1
  Ni  Ni212  1  0.50796653  0.22956681  0.75906350  1
  Ni  Ni213  1  0.56220699  0.96968984  0.76522724  1
  Ni  Ni214  1  0.40128695  0.95682008  0.19348083  1
  Ni  Ni215  1  0.09751724  0.14334431  0.08595539  1
