# generated using pymatgen
data_Ti2CoNi
_symmetry_space_group_name_H-M   'P 1'
_cell_length_a   14.69396036
_cell_length_b   14.67605877
_cell_length_c   14.67398251
_cell_angle_alpha   89.94844037
_cell_angle_beta   89.96832979
_cell_angle_gamma   89.77235959
_symmetry_Int_Tables_number   1
_chemical_formula_structural   Ti2CoNi
_chemical_formula_sum   'Ti108 Co54 Ni54'
_cell_volume   3164.40916917
_cell_formula_units_Z   54
loop_
 _symmetry_equiv_pos_site_id
 _symmetry_equiv_pos_as_xyz
  1  'x, y, z'
loop_
 _atom_site_type_symbol
 _atom_site_label
 _atom_site_symmetry_multiplicity
 _atom_site_fract_x
 _atom_site_fract_y
 _atom_site_fract_z
 _atom_site_occupancy
  Ti  Ti0  1  0.03866540  0.02402149  -0.06123585  1
  Ti  Ti1  1  -0.04266488  -0.08017570  0.25572598  1
  Ti  Ti2  1  -0.05245786  -0.04253227  0.74504507  1
  Ti  Ti3  1  0.03715528  0.32197488  0.03067161  1
  Ti  Ti4  1  0.06284304  0.39357863  0.23891805  1
  Ti  Ti5  1  0.06670832  0.41069312  0.63109320  1
  Ti  Ti6  1  0.05641191  0.63080103  -0.02488348  1
  Ti  Ti7  1  0.01504788  0.70676867  0.30374618  1
  Ti  Ti8  1  0.00285326  0.65487810  0.61867107  1
  Ti  Ti9  1  0.32386789  -0.00387676  0.06510724  1
  Ti  Ti10  1  0.33184324  -0.06947237  0.32657836  1
  Ti  Ti11  1  0.36490726  0.12184069  0.70723813  1
  Ti  Ti12  1  0.35825030  0.27657355  -0.14057540  1
  Ti  Ti13  1  0.31208185  0.45151581  0.38804195  1
  Ti  Ti14  1  0.28296735  0.30199664  0.61917116  1
  Ti  Ti15  1  0.26910896  0.60361908  -0.04777559  1
  Ti  Ti16  1  0.37615280  0.64391844  0.38144001  1
  Ti  Ti17  1  0.31614623  0.66552543  0.66976564  1
  Ti  Ti18  1  0.64706919  0.04376783  0.03619052  1
  Ti  Ti19  1  0.66669150  0.03021787  0.29014632  1
  Ti  Ti20  1  0.68912865  0.05866621  0.68619472  1
  Ti  Ti21  1  0.68778284  0.30077528  0.01543333  1
  Ti  Ti22  1  0.73885418  0.39316754  0.34948225  1
  Ti  Ti23  1  0.61227516  0.22650504  0.66889943  1
  Ti  Ti24  1  0.62929011  0.70083490  0.01882826  1
  Ti  Ti25  1  0.67518553  0.78140204  0.29427295  1
  Ti  Ti26  1  0.59924067  0.63553115  0.59596304  1
  Ti  Ti27  1  0.02238041  0.10879684  0.25987574  1
  Ti  Ti28  1  -0.02672763  0.17512423  0.57079892  1
  Ti  Ti29  1  -0.04160504  0.17378304  0.77918704  1
  Ti  Ti30  1  -0.05328573  0.55328453  0.20577189  1
  Ti  Ti31  1  0.02232941  0.44496280  0.43643808  1
  Ti  Ti32  1  -0.00989947  0.55483553  0.79826116  1
  Ti  Ti33  1  -0.08130654  0.78862398  0.10831571  1
  Ti  Ti34  1  0.01264459  0.85580014  0.51820172  1
  Ti  Ti35  1  0.03801155  0.81647742  0.85342142  1
  Ti  Ti36  1  0.31883136  0.17104681  0.18748275  1
  Ti  Ti37  1  0.33291421  0.08856577  0.44232684  1
  Ti  Ti38  1  0.44292382  0.09702979  0.89386357  1
  Ti  Ti39  1  0.33734996  0.54227319  0.13931979  1
  Ti  Ti40  1  0.45004216  0.52028578  0.53139748  1
  Ti  Ti41  1  0.39294442  0.46740488  0.88255379  1
  Ti  Ti42  1  0.29586353  0.79394933  0.02419424  1
  Ti  Ti43  1  0.32683249  0.84513784  0.60233966  1
  Ti  Ti44  1  0.26555892  0.83579760  0.79323403  1
  Ti  Ti45  1  0.65121176  0.19436742  0.16860916  1
  Ti  Ti46  1  0.68111829  0.20377811  0.37486530  1
  Ti  Ti47  1  0.61710668  0.15745133  0.86608983  1
  Ti  Ti48  1  0.63219807  0.42186311  0.17707023  1
  Ti  Ti49  1  0.66574697  0.50866878  0.47881887  1
  Ti  Ti50  1  0.68720214  0.52854559  0.75779265  1
  Ti  Ti51  1  0.76507995  0.91955050  0.16767515  1
  Ti  Ti52  1  0.67315737  0.95318706  0.48587870  1
  Ti  Ti53  1  0.67930565  0.84900005  0.75873261  1
  Ti  Ti54  1  0.12875012  0.00784025  0.13259535  1
  Ti  Ti55  1  0.14143887  0.04235515  0.41188530  1
  Ti  Ti56  1  0.14355544  0.09216124  0.78883635  1
  Ti  Ti57  1  0.23028458  0.34417353  0.15438708  1
  Ti  Ti58  1  0.11635720  0.27185974  0.49688935  1
  Ti  Ti59  1  0.09107844  0.33483714  0.81375731  1
  Ti  Ti60  1  0.20761115  0.70689101  0.19263052  1
  Ti  Ti61  1  0.22451002  0.73922774  0.47581692  1
  Ti  Ti62  1  0.15343760  0.65805962  0.77704106  1
  Ti  Ti63  1  0.52281012  -0.04805231  0.17496748  1
  Ti  Ti64  1  0.46168535  -0.06445885  0.49864918  1
  Ti  Ti65  1  0.48911395  -0.08949982  0.82238844  1
  Ti  Ti66  1  0.43369585  0.37468119  0.19963944  1
  Ti  Ti67  1  0.48870632  0.34791590  0.60893052  1
  Ti  Ti68  1  0.55569561  0.37001081  0.79534405  1
  Ti  Ti69  1  0.55186971  0.61772135  0.20629337  1
  Ti  Ti70  1  0.55731784  0.76466326  0.46025574  1
  Ti  Ti71  1  0.48122311  0.65799843  0.90750830  1
  Ti  Ti72  1  0.92665577  0.02000960  0.10094556  1
  Ti  Ti73  1  0.87006250  0.01047384  0.54676434  1
  Ti  Ti74  1  0.82471452  0.01365359  0.93687617  1
  Ti  Ti75  1  0.86612093  0.40167713  0.13195402  1
  Ti  Ti76  1  0.87941469  0.33114354  0.49748911  1
  Ti  Ti77  1  0.78573103  0.25511470  0.84010270  1
  Ti  Ti78  1  0.75327177  0.58625608  0.13963634  1
  Ti  Ti79  1  0.80818811  0.61013134  0.56449169  1
  Ti  Ti80  1  0.77539259  0.68891920  0.84933992  1
  Ti  Ti81  1  0.19821774  0.16423200  0.01075475  1
  Ti  Ti82  1  0.17643213  0.21209051  0.31829668  1
  Ti  Ti83  1  0.19202753  0.12288170  0.59291401  1
  Ti  Ti84  1  0.23104467  0.39989926  -0.01930741  1
  Ti  Ti85  1  0.15461419  0.57432434  0.38038600  1
  Ti  Ti86  1  0.25246653  0.48689213  0.64226580  1
  Ti  Ti87  1  0.09705219  0.83778107  0.03289560  1
  Ti  Ti88  1  0.13352295  0.86670095  0.34688057  1
  Ti  Ti89  1  0.15080330  0.93387861  0.63575336  1
  Ti  Ti90  1  0.48012984  0.14325231  0.08513292  1
  Ti  Ti91  1  0.44629790  0.21682679  0.35936347  1
  Ti  Ti92  1  0.51501054  0.08707681  0.58358387  1
  Ti  Ti93  1  0.56270900  0.42801406  -0.03171142  1
  Ti  Ti94  1  0.52948391  0.42589286  0.37283324  1
  Ti  Ti95  1  0.47382151  0.56027406  0.72824350  1
  Ti  Ti96  1  0.47456256  0.83444808  0.00962904  1
  Ti  Ti97  1  0.46299581  0.77705954  0.28482819  1
  Ti  Ti98  1  0.50602058  0.77893486  0.67366035  1
  Ti  Ti99  1  0.86609505  0.21898095  0.08950453  1
  Ti  Ti100  1  0.86170068  0.21907576  0.29709985  1
  Ti  Ti101  1  0.79572468  0.23837361  0.64009518  1
  Ti  Ti102  1  0.85097608  0.53088890  -0.05475715  1
  Ti  Ti103  1  0.82098051  0.60271232  0.36172121  1
  Ti  Ti104  1  0.85686612  0.42166495  0.75664214  1
  Ti  Ti105  1  0.76179043  0.84174680  -0.03139481  1
  Ti  Ti106  1  0.85788269  0.80139925  0.37110053  1
  Ti  Ti107  1  0.85555929  0.79401054  0.65693942  1
  Co  Co108  1  0.63612053  0.97031579  0.88617642  1
  Co  Co109  1  0.31396468  0.01345238  0.58478241  1
  Co  Co110  1  0.23038650  0.48098919  0.24048879  1
  Co  Co111  1  0.13329484  0.49539418  0.75655083  1
  Co  Co112  1  0.38283670  0.02798209  0.21271907  1
  Co  Co113  1  0.50592929  0.26440340  0.93335039  1
  Co  Co114  1  0.76433074  0.92397706  0.63058140  1
  Co  Co115  1  0.63118414  0.88677231  0.04364411  1
  Co  Co116  1  0.68389555  0.57104858  0.92546404  1
  Co  Co117  1  0.59886824  0.46571306  0.62289926  1
  Co  Co118  1  0.14612061  0.19655498  0.16246988  1
  Co  Co119  1  0.38747724  0.84768317  0.16298636  1
  Co  Co120  1  0.60369836  0.80073611  0.89505064  1
  Co  Co121  1  0.18793469  0.42513340  0.50336864  1
  Co  Co122  1  0.28796234  0.77427245  0.31390716  1
  Co  Co123  1  0.69550657  0.35889232  0.71652961  1
  Co  Co124  1  0.85990969  0.05436129  0.27272562  1
  Co  Co125  1  0.49577209  -0.00868679  0.99968444  1
  Co  Co126  1  0.58255195  0.92866425  0.63786546  1
  Co  Co127  1  0.97075971  0.59088809  0.45696059  1
  Co  Co128  1  0.41293504  0.35425050  0.46488631  1
  Co  Co129  1  0.72697834  0.40950224  0.87484488  1
  Co  Co130  1  0.05006861  0.68263513  0.12543442  1
  Co  Co131  1  0.73579892  0.45309102  0.03297889  1
  Co  Co132  1  0.93271311  0.49024951  0.60533221  1
  Co  Co133  1  0.78492159  0.07644881  0.41773297  1
  Co  Co134  1  0.48467161  0.21840011  0.76454181  1
  Co  Co135  1  0.77470536  0.44835127  0.61142796  1
  Co  Co136  1  0.12385658  0.49377714  0.91828444  1
  Co  Co137  1  0.06644797  0.71842615  0.45515512  1
  Co  Co138  1  0.03414642  0.06538216  0.67085309  1
  Co  Co139  1  0.85361599  0.08827096  0.69126655  1
  Co  Co140  1  0.25360148  0.91611278  0.46836327  1
  Co  Co141  1  0.38608485  0.80735346  0.43958801  1
  Co  Co142  1  0.08390458  0.46192588  0.09065241  1
  Co  Co143  1  0.89849751  0.72796350  0.49933360  1
  Co  Co144  1  0.75182591  0.30992879  0.21242955  1
  Co  Co145  1  0.10212772  0.57114711  0.22840043  1
  Co  Co146  1  0.66271614  0.80093895  0.58409379  1
  Co  Co147  1  0.99028077  0.25930547  0.19339353  1
  Co  Co148  1  0.89900143  0.62629880  0.07116267  1
  Co  Co149  1  0.84442670  0.47837633  0.46285635  1
  Co  Co150  1  0.29085856  0.54920212  0.78950059  1
  Co  Co151  1  0.24573006  0.38775426  0.80531698  1
  Co  Co152  1  0.04136173  1.02108467  0.52247275  1
  Co  Co153  1  0.42718262  0.94761038  0.67859689  1
  Co  Co154  1  0.09810256  0.23523517  0.67093718  1
  Co  Co155  1  0.78013685  0.93126724  0.34537357  1
  Co  Co156  1  0.21738781  0.04916047  0.25746772  1
  Co  Co157  1  0.53816008  0.05807880  0.75225448  1
  Co  Co158  1  0.17156511  0.37000408  0.35483260  1
  Co  Co159  1  0.18627531  0.57535482  0.08509625  1
  Co  Co160  1  0.94929340  0.96390560  0.40068051  1
  Co  Co161  1  0.53129337  0.29917426  0.09046899  1
  Ni  Ni162  1  0.27222879  0.99096202  0.75118666  1
  Ni  Ni163  1  0.86494813  0.83728494  0.83202517  1
  Ni  Ni164  1  0.34896632  0.93582409  0.90860347  1
  Ni  Ni165  1  0.02755834  0.14727785  0.06763583  1
  Ni  Ni166  1  0.93790328  0.89179023  -0.02524912  1
  Ni  Ni167  1  0.43620190  0.52985374  0.27939475  1
  Ni  Ni168  1  0.55002400  0.91108220  0.35418931  1
  Ni  Ni169  1  0.56678303  0.78656351  0.15616849  1
  Ni  Ni170  1  0.72003288  0.70894337  0.45113241  1
  Ni  Ni171  1  -0.05155031  0.12506640  0.41345258  1
  Ni  Ni172  1  0.38599183  0.41727009  0.71771044  1
  Ni  Ni173  1  0.17177815  0.75669474  0.63634549  1
  Ni  Ni174  1  0.90253427  0.40245955  0.31424551  1
  Ni  Ni175  1  0.54911809  0.07914608  0.41790221  1
  Ni  Ni176  1  0.94667820  0.30977048  0.68006301  1
  Ni  Ni177  1  0.91646910  0.72554813  0.94161276  1
  Ni  Ni178  1  0.67400466  0.54171195  0.29771421  1
  Ni  Ni179  1  0.57786692  0.29748310  0.28024206  1
  Ni  Ni180  1  0.84801867  0.70109545  0.22944846  1
  Ni  Ni181  1  0.73199760  0.76334828  0.13138232  1
  Ni  Ni182  1  0.85093650  0.59460729  0.72471537  1
  Ni  Ni183  1  0.43367019  0.69475830  0.09745385  1
  Ni  Ni184  1  0.12517203  0.57724799  0.54930302  1
  Ni  Ni185  1  0.77334186  0.08549362  0.13864699  1
  Ni  Ni186  1  0.39280648  0.38598542  0.03597525  1
  Ni  Ni187  1  0.72450657  0.69324865  0.68963309  1
  Ni  Ni188  1  0.23312986  0.22812910  0.76234500  1
  Ni  Ni189  1  0.19294493  0.96067337  0.95819777  1
  Ni  Ni190  1  0.69637589  0.33095585  0.52805148  1
  Ni  Ni191  1  0.07840275  0.83144558  0.19227378  1
  Ni  Ni192  1  0.42728469  0.68582036  0.54931921  1
  Ni  Ni193  1  0.55283291  0.61421007  0.38384539  1
  Ni  Ni194  1  0.27780363  0.25564060  0.45147625  1
  Ni  Ni195  1  0.03024709  0.81063877  0.69180367  1
  Ni  Ni196  1  0.28320568  0.09852862  0.88548869  1
  Ni  Ni197  1  0.28715505  0.58124392  0.50708004  1
  Ni  Ni198  1  0.40885262  0.20615689  0.54094820  1
  Ni  Ni199  1  0.91671094  0.15451051  0.94384269  1
  Ni  Ni200  1  0.67446570  0.14251056  0.52922663  1
  Ni  Ni201  1  0.78254108  -0.02567803  0.78949404  1
  Ni  Ni202  1  0.55764684  0.26213416  0.47412236  1
  Ni  Ni203  1  0.07052569  0.19819119  0.91179230  1
  Ni  Ni204  1  0.75453148  0.15660963  0.97885391  1
  Ni  Ni205  1  0.34138334  0.69865100  0.83551881  1
  Ni  Ni206  1  0.31859425  0.30892993  0.29930373  1
  Ni  Ni207  1  0.59830728  0.67129497  0.79009836  1
  Ni  Ni208  1  0.60109348  0.54824428  0.06601311  1
  Ni  Ni209  1  0.35183822  0.22650248  0.01869058  1
  Ni  Ni210  1  0.86677845  0.35709030  0.96228637  1
  Ni  Ni211  1  1.01072466  0.27676440  0.36664573  1
  Ni  Ni212  1  0.18148318  0.75053323  0.91315716  1
  Ni  Ni213  1  0.23400222  0.88653109  0.18715177  1
  Ni  Ni214  1  0.52119662  0.11527925  0.25179719  1
  Ni  Ni215  1  0.44595845  0.54624009  1.02258680  1
