# generated using pymatgen
data_Ti2CoNi
_symmetry_space_group_name_H-M   'P 1'
_cell_length_a   14.51035230
_cell_length_b   14.55169285
_cell_length_c   14.51786618
_cell_angle_alpha   89.92955975
_cell_angle_beta   89.83205746
_cell_angle_gamma   90.32468154
_symmetry_Int_Tables_number   1
_chemical_formula_structural   Ti2CoNi
_chemical_formula_sum   'Ti108 Co54 Ni54'
_cell_volume   3065.38543103
_cell_formula_units_Z   54
loop_
 _symmetry_equiv_pos_site_id
 _symmetry_equiv_pos_as_xyz
  1  'x, y, z'
loop_
 _atom_site_type_symbol
 _atom_site_label
 _atom_site_symmetry_multiplicity
 _atom_site_fract_x
 _atom_site_fract_y
 _atom_site_fract_z
 _atom_site_occupancy
  Ti  Ti0  1  0.03619846  -0.01379748  -0.08034279  1
  Ti  Ti1  1  -0.04221721  0.03520988  0.34702868  1
  Ti  Ti2  1  0.02352738  -0.05993110  0.66995755  1
  Ti  Ti3  1  0.04270785  0.36909647  0.04235461  1
  Ti  Ti4  1  -0.05107544  0.40005570  0.41860152  1
  Ti  Ti5  1  0.01626836  0.28971540  0.64062020  1
  Ti  Ti6  1  -0.05035812  0.69740367  -0.01132814  1
  Ti  Ti7  1  -0.04616607  0.68470490  0.28213435  1
  Ti  Ti8  1  0.06348806  0.69296467  0.65211500  1
  Ti  Ti9  1  0.34203961  -0.08118172  -0.00485533  1
  Ti  Ti10  1  0.40557234  -0.01453189  0.36703593  1
  Ti  Ti11  1  0.21563724  0.03486520  0.66784581  1
  Ti  Ti12  1  0.28155493  0.36296844  0.08510037  1
  Ti  Ti13  1  0.35095696  0.37344743  0.31063527  1
  Ti  Ti14  1  0.29302088  0.33323831  0.63251305  1
  Ti  Ti15  1  0.30740045  0.68075799  -0.04183584  1
  Ti  Ti16  1  0.26969565  0.70204862  0.27594961  1
  Ti  Ti17  1  0.38998763  0.63727433  0.60749120  1
  Ti  Ti18  1  0.71484621  0.01942920  0.05343452  1
  Ti  Ti19  1  0.65606163  0.02813135  0.40506133  1
  Ti  Ti20  1  0.66238240  -0.02851858  0.67485628  1
  Ti  Ti21  1  0.69275539  0.32844728  0.05425795  1
  Ti  Ti22  1  0.68631668  0.39679394  0.40809273  1
  Ti  Ti23  1  0.63016315  0.41655413  0.60482082  1
  Ti  Ti24  1  0.61176751  0.74191685  -0.03462333  1
  Ti  Ti25  1  0.73638164  0.66759353  0.28943611  1
  Ti  Ti26  1  0.56882993  0.62851848  0.66987587  1
  Ti  Ti27  1  0.02423342  0.21409964  0.13481820  1
  Ti  Ti28  1  -0.05185393  0.17998992  0.46026293  1
  Ti  Ti29  1  -0.03360769  0.17523895  0.78300700  1
  Ti  Ti30  1  0.02806247  0.46716298  0.24790504  1
  Ti  Ti31  1  0.00338206  0.48843318  0.58795427  1
  Ti  Ti32  1  -0.06989508  0.53238834  0.82563458  1
  Ti  Ti33  1  -0.04074712  0.91367181  0.19059953  1
  Ti  Ti34  1  0.02462052  0.73329437  0.47704952  1
  Ti  Ti35  1  0.03485784  0.79917910  0.85244054  1
  Ti  Ti36  1  0.36523989  0.14002145  0.20791948  1
  Ti  Ti37  1  0.32725771  0.15758444  0.39242376  1
  Ti  Ti38  1  0.36887018  0.09826409  0.81442560  1
  Ti  Ti39  1  0.40908513  0.50384156  0.15689760  1
  Ti  Ti40  1  0.29294725  0.51856406  0.52179666  1
  Ti  Ti41  1  0.35170874  0.50230670  0.79260851  1
  Ti  Ti42  1  0.36621557  0.75523251  0.12691940  1
  Ti  Ti43  1  0.38463129  0.82741297  0.50869848  1
  Ti  Ti44  1  0.29955354  0.84724068  0.79199687  1
  Ti  Ti45  1  0.57098966  0.14397442  0.12495188  1
  Ti  Ti46  1  0.73126567  0.17138167  0.49720236  1
  Ti  Ti47  1  0.67349193  0.21513435  0.81030509  1
  Ti  Ti48  1  0.59258726  0.48985735  0.11060209  1
  Ti  Ti49  1  0.65943278  0.58573488  0.47533131  1
  Ti  Ti50  1  0.71135943  0.48319626  0.83442774  1
  Ti  Ti51  1  0.69878481  0.83437108  0.13342296  1
  Ti  Ti52  1  0.70894287  0.88040083  0.52412789  1
  Ti  Ti53  1  0.72926530  0.81496284  0.80242256  1
  Ti  Ti54  1  0.21801524  0.01397475  0.10548429  1
  Ti  Ti55  1  0.23241529  -0.01945307  0.47204184  1
  Ti  Ti56  1  0.22301170  0.03231987  0.87931720  1
  Ti  Ti57  1  0.15299010  0.33460520  0.22226120  1
  Ti  Ti58  1  0.17042303  0.17805442  0.51465680  1
  Ti  Ti59  1  0.19698465  0.36332247  0.81406041  1
  Ti  Ti60  1  0.12603224  0.65460759  0.07407737  1
  Ti  Ti61  1  0.21721385  0.72958686  0.47930924  1
  Ti  Ti62  1  0.10336397  0.61167307  0.82901481  1
  Ti  Ti63  1  0.53086677  -0.01778340  0.23164796  1
  Ti  Ti64  1  0.50648181  0.02009203  0.52868705  1
  Ti  Ti65  1  0.56362799  0.03038295  0.81636445  1
  Ti  Ti66  1  0.49475220  0.31320536  0.17469270  1
  Ti  Ti67  1  0.44480936  0.23781469  0.52882505  1
  Ti  Ti68  1  0.46301874  0.30807627  0.89571318  1
  Ti  Ti69  1  0.56322597  0.66195636  0.18033363  1
  Ti  Ti70  1  0.54566807  0.75444004  0.52744593  1
  Ti  Ti71  1  0.45444393  0.70938060  0.83361526  1
  Ti  Ti72  1  0.79847820  -0.00512493  0.21623201  1
  Ti  Ti73  1  0.91569898  -0.10342587  0.50780638  1
  Ti  Ti74  1  0.77346746  0.02067233  0.83677854  1
  Ti  Ti75  1  0.86162515  0.34691545  0.23229334  1
  Ti  Ti76  1  0.84233363  0.30737747  0.57916069  1
  Ti  Ti77  1  0.91211112  0.34593370  0.86797074  1
  Ti  Ti78  1  0.80300779  0.62969828  0.11598759  1
  Ti  Ti79  1  0.82623322  0.72733945  0.46581920  1
  Ti  Ti80  1  0.79401407  0.63524219  0.89571497  1
  Ti  Ti81  1  0.15212884  0.18047986  -0.02626555  1
  Ti  Ti82  1  0.14823170  0.13766244  0.27095327  1
  Ti  Ti83  1  0.17984314  0.20293049  0.72738967  1
  Ti  Ti84  1  0.20336177  0.50524579  -0.04556817  1
  Ti  Ti85  1  0.16155172  0.43100478  0.41447797  1
  Ti  Ti86  1  0.19012415  0.53263460  0.67914054  1
  Ti  Ti87  1  0.06458274  0.86503670  0.05238637  1
  Ti  Ti88  1  0.12924717  0.85742755  0.32479623  1
  Ti  Ti89  1  0.20679000  0.84583376  0.62696916  1
  Ti  Ti90  1  0.46712626  0.11614648  -0.03770158  1
  Ti  Ti91  1  0.61964285  0.23986962  0.33887888  1
  Ti  Ti92  1  0.50584160  0.22388727  0.71774842  1
  Ti  Ti93  1  0.51058481  0.54438676  -0.06022481  1
  Ti  Ti94  1  0.54609168  0.50652838  0.31278608  1
  Ti  Ti95  1  0.45664794  0.44499605  0.60400863  1
  Ti  Ti96  1  0.54114164  0.93849903  0.01800195  1
  Ti  Ti97  1  0.45295325  0.79784362  0.31318516  1
  Ti  Ti98  1  0.48266599  0.89107253  0.68181954  1
  Ti  Ti99  1  0.79759630  0.18546447  -0.03959158  1
  Ti  Ti100  1  0.81424811  0.16457890  0.31351619  1
  Ti  Ti101  1  0.88988193  0.09535134  0.61489775  1
  Ti  Ti102  1  0.88340304  0.48149828  0.01879681  1
  Ti  Ti103  1  0.84584632  0.55221833  0.40968207  1
  Ti  Ti104  1  0.80367381  0.56216062  0.62886312  1
  Ti  Ti105  1  0.86541452  0.89242998  -0.02723450  1
  Ti  Ti106  1  0.81361944  0.82987821  0.30985439  1
  Ti  Ti107  1  0.85205604  0.76758278  0.64743129  1
  Co  Co108  1  0.14434977  0.59085211  0.22857965  1
  Co  Co109  1  0.17867388  0.89344204  0.93277605  1
  Co  Co110  1  0.78939659  0.44478256  0.52240203  1
  Co  Co111  1  0.31961060  0.37877402  0.92620192  1
  Co  Co112  1  0.10936415  0.03003902  0.39319884  1
  Co  Co113  1  0.46132475  0.39025899  0.03800784  1
  Co  Co114  1  0.39713479  0.76515407  0.68546074  1
  Co  Co115  1  0.30259449  0.11016344  1.00358770  1
  Co  Co116  1  0.10086318  0.68777336  0.34385770  1
  Co  Co117  1  0.69550025  0.25624219  0.64393863  1
  Co  Co118  1  0.72481655  0.66274715  0.73256352  1
  Co  Co119  1  0.92536322  0.63792031  0.71806499  1
  Co  Co120  1  0.34863387  0.19246264  0.67637298  1
  Co  Co121  1  0.32582045  0.10964561  0.54693214  1
  Co  Co122  1  0.40286487  0.22097674  1.07236742  1
  Co  Co123  1  0.56798433  0.25160504  0.00128186  1
  Co  Co124  1  0.93860281  0.61994523  0.54482284  1
  Co  Co125  1  0.25109759  0.47109127  0.23348631  1
  Co  Co126  1  0.45391394  0.79535319  -0.02322722  1
  Co  Co127  1  0.14010020  0.91316720  0.77531652  1
  Co  Co128  1  0.69801704  0.70646209  0.57903265  1
  Co  Co129  1  0.59368210  0.35476048  0.76784414  1
  Co  Co130  1  0.25926221  0.00864035  0.30001284  1
  Co  Co131  1  1.01515975  0.02532490  0.51995918  1
  Co  Co132  1  0.60100870  0.40663492  0.93665744  1
  Co  Co133  1  0.83624893  0.26230607  0.74316368  1
  Co  Co134  1  0.67093834  0.92692725  0.28505250  1
  Co  Co135  1  0.97318622  0.86988533  0.36164432  1
  Co  Co136  1  0.16696766  0.75203785  0.76919295  1
  Co  Co137  1  0.46292488  0.64492834  0.05532431  1
  Co  Co138  1  0.54452280  0.90171393  0.41648788  1
  Co  Co139  1  0.66854446  0.76574296  0.41043375  1
  Co  Co140  1  0.42037419  0.03094110  0.09686006  1
  Co  Co141  1  0.13339197  0.47826362  0.11040092  1
  Co  Co142  1  1.03740783  0.54597062  0.39244958  1
  Co  Co143  1  0.51083523  0.11701269  0.39805735  1
  Co  Co144  1  0.13762918  0.58790527  0.52038946  1
  Co  Co145  1  0.36360058  0.51790254  0.98795149  1
  Co  Co146  1  0.10381644  0.98502923  0.23038298  1
  Co  Co147  1  0.98069597  0.57210417  0.13338253  1
  Co  Co148  1  0.60826074  0.79450424  0.68992155  1
  Co  Co149  1  0.74817076  0.33434425  0.88520378  1
  Co  Co150  1  0.60997513  0.78834686  0.26577421  1
  Co  Co151  1  0.09642930  0.87828576  0.50421988  1
  Co  Co152  1  0.05784516  0.12419110  0.63551896  1
  Co  Co153  1  0.16428471  0.73537523  0.93507956  1
  Co  Co154  1  0.14893724  0.75979334  0.19491891  1
  Co  Co155  1  0.21681344  0.21313139  0.12207006  1
  Co  Co156  1  0.31435337  0.24830537  0.82801616  1
  Co  Co157  1  0.51475875  0.83390118  0.14254341  1
  Co  Co158  1  0.68489288  0.91215566  0.92892507  1
  Co  Co159  1  0.24367056  0.68774277  0.63681595  1
  Co  Co160  1  0.37299815  0.90886226  0.19654505  1
  Co  Co161  1  0.56123996  0.84773962  0.84416073  1
  Ni  Ni162  1  0.82026496  0.30171443  0.40366827  1
  Ni  Ni163  1  0.48823893  0.56312877  0.49124629  1
  Ni  Ni164  1  0.63867416  0.38209537  0.22868620  1
  Ni  Ni165  1  0.59999116  0.26917901  0.51593129  1
  Ni  Ni166  1  0.27177878  0.57934451  0.10475869  1
  Ni  Ni167  1  0.41622057  0.36215679  0.74643143  1
  Ni  Ni168  1  0.59782510  0.12576655  0.62295393  1
  Ni  Ni169  1  0.87314466  0.31750525  0.06565574  1
  Ni  Ni170  1  0.83348459  0.93733429  0.66072782  1
  Ni  Ni171  1  0.75178828  0.11252943  0.69323518  1
  Ni  Ni172  1  0.22335744  0.83080990  0.07284059  1
  Ni  Ni173  1  0.05447072  0.04624502  0.08118489  1
  Ni  Ni174  1  0.06505645  0.30317256  0.47197934  1
  Ni  Ni175  1  0.51936281  0.40078029  0.44555639  1
  Ni  Ni176  1  0.80413895  0.15350055  0.12504066  1
  Ni  Ni177  1  0.09215293  0.07308896  0.79035363  1
  Ni  Ni178  1  0.67010760  0.09770934  0.24426555  1
  Ni  Ni179  1  0.86868470  0.52817737  0.24475355  1
  Ni  Ni180  1  0.42675252  0.92927892  0.85635455  1
  Ni  Ni181  1  0.74938631  0.39610183  0.70682629  1
  Ni  Ni182  1  1.06115533  0.43617734  0.89283688  1
  Ni  Ni183  1  -0.00054641  0.74318183  0.14239447  1
  Ni  Ni184  1  0.03111142  0.55755867  0.98109265  1
  Ni  Ni185  1  0.70174977  0.54424299  0.99895138  1
  Ni  Ni186  1  0.06175515  0.43528694  0.73619548  1
  Ni  Ni187  1  0.54167443  0.66250235  0.37347825  1
  Ni  Ni188  1  0.90356979  0.41896021  0.70472282  1
  Ni  Ni189  1  0.88183119  0.75558305  0.82569853  1
  Ni  Ni190  1  0.85268808  0.79376645  0.13527231  1
  Ni  Ni191  1  0.63611222  0.10709520  0.94449568  1
  Ni  Ni192  1  0.52493319  0.50272712  0.76622412  1
  Ni  Ni193  1  0.29224614  0.65103774  0.79189931  1
  Ni  Ni194  1  0.77479203  0.76473392  -0.00943199  1
  Ni  Ni195  1  0.81973203  0.03012691  0.45561396  1
  Ni  Ni196  1  0.06611166  0.27551434  0.87612703  1
  Ni  Ni197  1  0.71192015  0.51080947  0.28695719  1
  Ni  Ni198  1  0.29376143  0.84627924  0.37087572  1
  Ni  Ni199  1  0.14675636  0.39429514  0.58556098  1
  Ni  Ni200  1  0.76201763  0.45845146  0.13467785  1
  Ni  Ni201  1  0.36889344  0.67701546  0.42124187  1
  Ni  Ni202  1  0.21087759  0.27592666  0.36567150  1
  Ni  Ni203  1  0.71485600  0.25112272  0.20217402  1
  Ni  Ni204  1  0.91079733  0.92263700  0.80463840  1
  Ni  Ni205  1  0.94280813  0.09073553  0.19594518  1
  Ni  Ni206  1  0.22453848  0.58170877  0.37688281  1
  Ni  Ni207  1  0.44838495  0.06216558  0.67531342  1
  Ni  Ni208  1  0.34100197  0.36068531  0.47298968  1
  Ni  Ni209  1  0.34434770  0.95394767  0.59996186  1
  Ni  Ni210  1  0.41363155  0.61781807  0.27174280  1
  Ni  Ni211  1  0.91214493  0.08016138  0.90122022  1
  Ni  Ni212  1  0.45865152  0.25762474  0.34014265  1
  Ni  Ni213  1  0.88358200  1.03250644  0.05390159  1
  Ni  Ni214  1  -0.00687444  0.25435378  0.30211898  1
  Ni  Ni215  1  0.61821443  0.62442421  0.84288204  1
