# generated using pymatgen
data_Ti2CoNi
_symmetry_space_group_name_H-M   'P 1'
_cell_length_a   14.57578891
_cell_length_b   14.58431507
_cell_length_c   14.58967911
_cell_angle_alpha   89.91754605
_cell_angle_beta   90.01383650
_cell_angle_gamma   89.97269072
_symmetry_Int_Tables_number   1
_chemical_formula_structural   Ti2CoNi
_chemical_formula_sum   'Ti108 Co54 Ni54'
_cell_volume   3101.43965997
_cell_formula_units_Z   54
loop_
 _symmetry_equiv_pos_site_id
 _symmetry_equiv_pos_as_xyz
  1  'x, y, z'
loop_
 _atom_site_type_symbol
 _atom_site_label
 _atom_site_symmetry_multiplicity
 _atom_site_fract_x
 _atom_site_fract_y
 _atom_site_fract_z
 _atom_site_occupancy
  Ti  Ti0  1  0.03224289  0.02569415  0.01476467  1
  Ti  Ti1  1  0.01582661  -0.01684370  0.30538578  1
  Ti  Ti2  1  -0.05933223  0.00824025  0.61012280  1
  Ti  Ti3  1  -0.00969662  0.31883276  -0.04495022  1
  Ti  Ti4  1  0.04952326  0.34304876  0.33422611  1
  Ti  Ti5  1  0.01273131  0.27149133  0.63671813  1
  Ti  Ti6  1  -0.09535361  0.64352618  -0.00485930  1
  Ti  Ti7  1  -0.02125743  0.70454072  0.39500928  1
  Ti  Ti8  1  0.04087916  0.69455288  0.70494889  1
  Ti  Ti9  1  0.39784611  -0.01627042  0.03604466  1
  Ti  Ti10  1  0.29764427  -0.06979877  0.36303197  1
  Ti  Ti11  1  0.35927002  -0.00275007  0.65101247  1
  Ti  Ti12  1  0.35625487  0.34165420  0.04805819  1
  Ti  Ti13  1  0.35831231  0.34826575  0.37371583  1
  Ti  Ti14  1  0.21674779  0.32238387  0.63992986  1
  Ti  Ti15  1  0.35809259  0.56836481  -0.00641109  1
  Ti  Ti16  1  0.29740919  0.66786084  0.32407396  1
  Ti  Ti17  1  0.35275962  0.66645207  0.65578832  1
  Ti  Ti18  1  0.59980936  -0.05168722  0.04619083  1
  Ti  Ti19  1  0.70642613  0.07129708  0.33570438  1
  Ti  Ti20  1  0.74768526  -0.00390435  0.66124363  1
  Ti  Ti21  1  0.70743309  0.38289700  0.00845553  1
  Ti  Ti22  1  0.67957120  0.29876709  0.24404100  1
  Ti  Ti23  1  0.71887541  0.32597304  0.70887388  1
  Ti  Ti24  1  0.71256192  0.62163905  0.02794586  1
  Ti  Ti25  1  0.68996332  0.63016411  0.30652747  1
  Ti  Ti26  1  0.69022686  0.76798319  0.70704594  1
  Ti  Ti27  1  -0.07087603  0.11561768  0.15408224  1
  Ti  Ti28  1  -0.02466876  0.18760021  0.44192789  1
  Ti  Ti29  1  0.05887434  0.14925831  0.87615397  1
  Ti  Ti30  1  0.05018542  0.45093290  0.15687075  1
  Ti  Ti31  1  -0.05851843  0.51133306  0.46191980  1
  Ti  Ti32  1  -0.00752550  0.54261926  0.82931994  1
  Ti  Ti33  1  0.08462459  0.88317432  0.13025531  1
  Ti  Ti34  1  0.07045559  0.84459837  0.56711163  1
  Ti  Ti35  1  -0.05889617  0.77216327  0.85743928  1
  Ti  Ti36  1  0.34096101  0.16971836  0.14638885  1
  Ti  Ti37  1  0.35162032  0.13166210  0.44113186  1
  Ti  Ti38  1  0.35550284  0.16182891  0.76622836  1
  Ti  Ti39  1  0.24457720  0.49319792  0.15069552  1
  Ti  Ti40  1  0.34280424  0.46225250  0.58452163  1
  Ti  Ti41  1  0.30915322  0.47377191  0.78939875  1
  Ti  Ti42  1  0.28881022  0.83268876  0.13429597  1
  Ti  Ti43  1  0.26074553  0.83845562  0.53503838  1
  Ti  Ti44  1  0.37235533  0.81463314  0.79448255  1
  Ti  Ti45  1  0.63926615  0.13276048  0.12419742  1
  Ti  Ti46  1  0.66520211  0.18537768  0.56258586  1
  Ti  Ti47  1  0.58358925  0.15728620  0.80243463  1
  Ti  Ti48  1  0.61300822  0.48853560  0.14839352  1
  Ti  Ti49  1  0.60241016  0.51956254  0.46073279  1
  Ti  Ti50  1  0.65254925  0.49732730  0.85899164  1
  Ti  Ti51  1  0.66821285  0.79554679  0.18791965  1
  Ti  Ti52  1  0.62475854  0.89755447  0.44649070  1
  Ti  Ti53  1  0.67033859  0.84352674  0.89102748  1
  Ti  Ti54  1  0.14549515  0.09752436  0.16240532  1
  Ti  Ti55  1  0.20443873  0.02425900  0.53471479  1
  Ti  Ti56  1  0.13281631  -0.02563792  0.82698774  1
  Ti  Ti57  1  0.16395878  0.29014327  0.17339868  1
  Ti  Ti58  1  0.19825652  0.29254323  0.45558667  1
  Ti  Ti59  1  0.11500335  0.36900262  0.81290683  1
  Ti  Ti60  1  0.07422715  0.65241077  0.11326305  1
  Ti  Ti61  1  0.24956534  0.62105024  0.50398695  1
  Ti  Ti62  1  0.20850221  0.65538936  0.83299158  1
  Ti  Ti63  1  0.56763068  -0.03317296  0.24718923  1
  Ti  Ti64  1  0.45040418  -0.06218263  0.49096658  1
  Ti  Ti65  1  0.49466079  -0.05879766  0.86037313  1
  Ti  Ti66  1  0.49033092  0.33850755  0.20411083  1
  Ti  Ti67  1  0.52751543  0.35900377  0.54537214  1
  Ti  Ti68  1  0.44847068  0.31783981  0.84154654  1
  Ti  Ti69  1  0.51255210  0.66740020  0.16132003  1
  Ti  Ti70  1  0.48603072  0.69465470  0.48777583  1
  Ti  Ti71  1  0.54124261  0.67103441  0.86719309  1
  Ti  Ti72  1  0.76427871  -0.02045699  0.15277279  1
  Ti  Ti73  1  0.84225007  -0.04357316  0.43939484  1
  Ti  Ti74  1  0.90126989  0.02133513  0.82988918  1
  Ti  Ti75  1  0.88410992  0.27339532  0.26484914  1
  Ti  Ti76  1  0.76645015  0.42797895  0.53105199  1
  Ti  Ti77  1  0.79862277  0.23525868  0.87729866  1
  Ti  Ti78  1  0.85753012  0.66821534  0.19480520  1
  Ti  Ti79  1  0.79286597  0.67125451  0.51659478  1
  Ti  Ti80  1  0.84522969  0.67186122  0.74191622  1
  Ti  Ti81  1  0.24825610  0.08312602  -0.05608849  1
  Ti  Ti82  1  0.15253611  0.11246471  0.36482937  1
  Ti  Ti83  1  0.17943019  0.13906035  0.71869579  1
  Ti  Ti84  1  0.13314699  0.50624416  -0.03221079  1
  Ti  Ti85  1  0.11997698  0.53603195  0.36635991  1
  Ti  Ti86  1  0.16640518  0.54184639  0.67869870  1
  Ti  Ti87  1  0.17187218  0.81016091  -0.02616947  1
  Ti  Ti88  1  0.14461964  0.79253727  0.29105179  1
  Ti  Ti89  1  0.21689266  0.86438266  0.70930695  1
  Ti  Ti90  1  0.49282046  0.17433372  0.00140366  1
  Ti  Ti91  1  0.48809270  0.16841005  0.30021399  1
  Ti  Ti92  1  0.46745786  0.17065696  0.60108190  1
  Ti  Ti93  1  0.52209156  0.41005716  -0.01198215  1
  Ti  Ti94  1  0.43963836  0.50011236  0.29058653  1
  Ti  Ti95  1  0.50492144  0.45736719  0.72545896  1
  Ti  Ti96  1  0.45802672  0.79860380  -0.01756568  1
  Ti  Ti97  1  0.45848638  0.81873770  0.30267507  1
  Ti  Ti98  1  0.55243561  0.89992337  0.66751731  1
  Ti  Ti99  1  0.81264697  0.24345122  0.07028674  1
  Ti  Ti100  1  0.78036646  0.22940752  0.41131746  1
  Ti  Ti101  1  0.84576363  0.16848593  0.68405810  1
  Ti  Ti102  1  0.87602337  0.45359996  -0.01018190  1
  Ti  Ti103  1  0.78328430  0.44682511  0.32715749  1
  Ti  Ti104  1  0.79823338  0.50438337  0.70621411  1
  Ti  Ti105  1  0.85664182  0.90105931  -0.01003506  1
  Ti  Ti106  1  0.87066924  0.84955102  0.26687567  1
  Ti  Ti107  1  0.88311575  0.82527351  0.62951319  1
  Co  Co108  1  0.77162034  0.07983724  0.02576043  1
  Co  Co109  1  0.64339254  0.46528513  0.64119876  1
  Co  Co110  1  0.37004543  0.71024878  0.08951932  1
  Co  Co111  1  0.18519058  0.23738139  0.88877386  1
  Co  Co112  1  0.28596542  0.16253459  0.59415466  1
  Co  Co113  1  0.93679723  0.45684034  0.28483948  1
  Co  Co114  1  0.07454115  0.57414336  0.53319902  1
  Co  Co115  1  0.60728691  0.77001723  0.34297106  1
  Co  Co116  1  0.78705581  0.40075079  0.85068593  1
  Co  Co117  1  0.55920226  1.06429969  0.42661710  1
  Co  Co118  1  0.92187424  0.53687571  0.12276175  1
  Co  Co119  1  0.35701876  0.60000795  0.19368529  1
  Co  Co120  1  0.75630761  0.98700160  0.89862207  1
  Co  Co121  1  0.44076216  0.01048295  0.33960008  1
  Co  Co122  1  0.48914247  0.04657954  0.72862221  1
  Co  Co123  1  0.70566268  0.03403940  0.50488280  1
  Co  Co124  1  0.13464962  0.35584160  0.02462120  1
  Co  Co125  1  0.61752039  0.46741388  0.30156940  1
  Co  Co126  1  0.92068296  0.15554080  0.97262325  1
  Co  Co127  1  0.60938125  0.21012280  0.39870926  1
  Co  Co128  1  0.04896104  0.36180543  0.50108956  1
  Co  Co129  1  0.27957056  0.30712689  0.78488185  1
  Co  Co130  1  0.39714382  0.33033071  0.67559020  1
  Co  Co131  1  0.03476538  0.17871499  0.26545730  1
  Co  Co132  1  0.91460858  0.41479448  0.59717873  1
  Co  Co133  1  0.43612294  0.48240532  0.11769984  1
  Co  Co134  1  0.30218164  0.99536073  0.80164810  1
  Co  Co135  1  0.21407081  0.64379785  0.02291831  1
  Co  Co136  1  0.96208402  0.55107529  0.66874493  1
  Co  Co137  1  0.42668992  0.07840418  0.88843710  1
  Co  Co138  1  0.22741383  0.21782379  0.04008389  1
  Co  Co139  1  0.62333517  0.32619055  0.85521525  1
  Co  Co140  1  0.06793463  0.42627790  0.65620818  1
  Co  Co141  1  0.06889233  0.19039280  0.04410791  1
  Co  Co142  1  0.90233616  0.35340493  0.41965527  1
  Co  Co143  1  0.84195779  0.11115408  0.52174705  1
  Co  Co144  1  0.18604178  0.45337084  0.51943788  1
  Co  Co145  1  0.66295875  0.20645867  0.96696637  1
  Co  Co146  1  0.76457328  0.53425164  0.17311617  1
  Co  Co147  1  0.61486629  0.05586040  0.93151246  1
  Co  Co148  1  0.31685058  0.73391397  0.93662350  1
  Co  Co149  1  0.88731713  0.09052262  0.33055553  1
  Co  Co150  1  0.30671057  0.89973809  0.93073902  1
  Co  Co151  1  0.64616643  0.96993472  0.78377705  1
  Co  Co152  1  0.81848209  0.86324940  0.79048896  1
  Co  Co153  1  0.56348086  0.03744353  0.58290248  1
  Co  Co154  1  0.22024837  0.68967486  0.17712884  1
  Co  Co155  1  0.33048176  0.35627836  0.20565316  1
  Co  Co156  1  0.78370295  0.73390275  0.90117976  1
  Co  Co157  1  0.59323783  0.78074142  0.56172057  1
  Co  Co158  1  0.34856516  0.22068088  0.93165027  1
  Co  Co159  1  0.73755650  0.11154790  0.79138750  1
  Co  Co160  1  0.84801230  0.60594604  0.35457814  1
  Co  Co161  1  0.77477635  0.15734316  0.21627626  1
  Ni  Ni162  1  0.93262369  0.40357031  0.76725700  1
  Ni  Ni163  1  0.83608542  0.39132035  0.15295581  1
  Ni  Ni164  1  0.59067484  0.29159005  0.08843681  1
  Ni  Ni165  1  0.46043744  0.51015006  0.87394343  1
  Ni  Ni166  1  0.37009667  0.95932912  0.20289564  1
  Ni  Ni167  1  0.79231323  0.77430772  0.07354044  1
  Ni  Ni168  1  0.02153158  0.89665322  0.91859836  1
  Ni  Ni169  1  0.37987590  0.63916187  0.81488558  1
  Ni  Ni170  1  0.48864116  0.84521103  0.13930785  1
  Ni  Ni171  1  0.95363454  0.68334871  0.56319428  1
  Ni  Ni172  1  0.01090435  0.11096637  0.71820193  1
  Ni  Ni173  1  0.14572510  0.73642441  0.44551041  1
  Ni  Ni174  1  0.19013277  0.95841609  0.24216746  1
  Ni  Ni175  1  0.35680912  0.77691424  0.43074749  1
  Ni  Ni176  1  0.30125456  0.08394903  0.28294060  1
  Ni  Ni177  1  0.11894087  0.16845854  0.53898723  1
  Ni  Ni178  1  0.00755446  0.60051891  0.26005621  1
  Ni  Ni179  1  -0.02439907  0.78563908  0.04433672  1
  Ni  Ni180  1  0.73690990  0.85753138  0.56126498  1
  Ni  Ni181  1  0.48302866  0.07567232  0.15037551  1
  Ni  Ni182  1  0.61435167  0.75863309  1.03042123  1
  Ni  Ni183  1  0.51918128  0.35231266  0.37026533  1
  Ni  Ni184  1  0.06512554  0.66880770  0.93422484  1
  Ni  Ni185  1  0.21653567  0.97364055  0.06789613  1
  Ni  Ni186  1  0.28822311  0.50247068  0.39080795  1
  Ni  Ni187  1  0.49623768  0.57445408  0.61030338  1
  Ni  Ni188  1  0.80402679  0.56754015  0.87853238  1
  Ni  Ni189  1  0.99882179  0.76444179  0.21788994  1
  Ni  Ni190  1  0.78157983  0.76976391  0.38321705  1
  Ni  Ni191  1  0.55720813  0.28910108  0.69859563  1
  Ni  Ni192  1  0.18439569  0.71323617  0.62934467  1
  Ni  Ni193  1  0.26393799  0.39017281  0.92647033  1
  Ni  Ni194  1  0.95061103  0.24469233  0.79861172  1
  Ni  Ni195  1  0.98739601  0.30059816  0.13525076  1
  Ni  Ni196  1  0.62810481  0.60456669  0.73568887  1
  Ni  Ni197  1  0.51090123  0.72620721  0.70584330  1
  Ni  Ni198  1  0.11227233  0.79569018  0.81842518  1
  Ni  Ni199  1  0.52489394  0.62780974  0.33891289  1
  Ni  Ni200  1  0.25550538  0.23561179  0.30253281  1
  Ni  Ni201  1  0.41124080  0.82182794  0.61369025  1
  Ni  Ni202  1  0.10312545  0.99173966  0.65689554  1
  Ni  Ni203  1  0.66773488  0.35549111  0.42699439  1
  Ni  Ni204  1  0.13839198  0.91468592  0.41358372  1
  Ni  Ni205  1  0.43727981  0.51671374  0.46375277  1
  Ni  Ni206  1  0.36427627  0.28802287  0.52305703  1
  Ni  Ni207  1  0.99557336  0.89064743  0.73991600  1
  Ni  Ni208  1  0.54815353  0.58163747  0.01191261  1
  Ni  Ni209  1  0.20108709  0.40182289  0.29595737  1
  Ni  Ni210  1  0.93369737  0.94928885  0.14671503  1
  Ni  Ni211  1  0.71731131  0.90104390  0.30694171  1
  Ni  Ni212  1  0.03263470  0.02328831  0.47619738  1
  Ni  Ni213  1  0.65376019  0.62430984  0.57991210  1
  Ni  Ni214  1  0.97628960  0.86299725  0.43161932  1
  Ni  Ni215  1  0.85162751  0.27474136  0.55783619  1
