# generated using pymatgen
data_Ti2CoNi
_symmetry_space_group_name_H-M   'P 1'
_cell_length_a   14.61844795
_cell_length_b   14.62445757
_cell_length_c   14.58420855
_cell_angle_alpha   89.83256402
_cell_angle_beta   90.02803868
_cell_angle_gamma   90.02754686
_symmetry_Int_Tables_number   1
_chemical_formula_structural   Ti2CoNi
_chemical_formula_sum   'Ti108 Co54 Ni54'
_cell_volume   3117.89827893
_cell_formula_units_Z   54
loop_
 _symmetry_equiv_pos_site_id
 _symmetry_equiv_pos_as_xyz
  1  'x, y, z'
loop_
 _atom_site_type_symbol
 _atom_site_label
 _atom_site_symmetry_multiplicity
 _atom_site_fract_x
 _atom_site_fract_y
 _atom_site_fract_z
 _atom_site_occupancy
  Ti  Ti0  1  -0.02654073  0.01004905  0.07510156  1
  Ti  Ti1  1  -0.04996275  0.06024715  0.40155098  1
  Ti  Ti2  1  -0.05319149  -0.00525984  0.73503753  1
  Ti  Ti3  1  0.04409982  0.33271958  -0.05786153  1
  Ti  Ti4  1  -0.03843253  0.28470131  0.37146807  1
  Ti  Ti5  1  0.02128492  0.30113103  0.69103235  1
  Ti  Ti6  1  -0.03555431  0.65491446  -0.00447237  1
  Ti  Ti7  1  0.04787491  0.71595510  0.33962139  1
  Ti  Ti8  1  -0.03063074  0.67021183  0.65849171  1
  Ti  Ti9  1  0.34088571  -0.00066057  -0.08450168  1
  Ti  Ti10  1  0.42905741  0.05493650  0.36419349  1
  Ti  Ti11  1  0.33048029  -0.03102486  0.70291642  1
  Ti  Ti12  1  0.36157421  0.40363751  0.03242105  1
  Ti  Ti13  1  0.33027562  0.29772418  0.28251307  1
  Ti  Ti14  1  0.40090717  0.41881599  0.61641859  1
  Ti  Ti15  1  0.31417378  0.57804858  -0.06857111  1
  Ti  Ti16  1  0.37172456  0.68717801  0.27115654  1
  Ti  Ti17  1  0.30358440  0.59625385  0.64133765  1
  Ti  Ti18  1  0.67269015  -0.06306397  -0.05417179  1
  Ti  Ti19  1  0.61988934  0.11782589  0.33875345  1
  Ti  Ti20  1  0.70451802  0.03124711  0.68733139  1
  Ti  Ti21  1  0.68732613  0.35015815  0.01065093  1
  Ti  Ti22  1  0.64746774  0.37669363  0.34188948  1
  Ti  Ti23  1  0.69017690  0.34178727  0.67055777  1
  Ti  Ti24  1  0.63625668  0.63779474  -0.04088483  1
  Ti  Ti25  1  0.64407293  0.69337357  0.33365343  1
  Ti  Ti26  1  0.64055758  0.65289674  0.64115462  1
  Ti  Ti27  1  0.02904246  0.19015305  0.12595736  1
  Ti  Ti28  1  0.08479876  0.18574628  0.45735191  1
  Ti  Ti29  1  0.03624745  0.12281290  0.92692229  1
  Ti  Ti30  1  0.00732732  0.50074924  0.15250559  1
  Ti  Ti31  1  -0.02146771  0.49352241  0.47249145  1
  Ti  Ti32  1  0.05384740  0.56804725  0.80588063  1
  Ti  Ti33  1  0.02960589  0.83667819  0.16025580  1
  Ti  Ti34  1  -0.06809658  0.86730630  0.49627645  1
  Ti  Ti35  1  0.06098515  0.82807182  0.80825950  1
  Ti  Ti36  1  0.30800117  0.10425668  0.11756520  1
  Ti  Ti37  1  0.32119894  0.21627338  0.53484027  1
  Ti  Ti38  1  0.31027319  0.18395951  0.85279183  1
  Ti  Ti39  1  0.34485278  0.55799950  0.13517957  1
  Ti  Ti40  1  0.25979841  0.48429107  0.47759915  1
  Ti  Ti41  1  0.38270079  0.42272868  0.83078525  1
  Ti  Ti42  1  0.24323297  0.80488487  0.13463924  1
  Ti  Ti43  1  0.33483892  0.90738555  0.49428650  1
  Ti  Ti44  1  0.30505251  0.81705916  0.95102989  1
  Ti  Ti45  1  0.63083977  0.14265738  0.13707047  1
  Ti  Ti46  1  0.77677809  0.24525187  0.38435403  1
  Ti  Ti47  1  0.63274185  0.10696803  0.86185721  1
  Ti  Ti48  1  0.75922193  0.44582748  0.17321777  1
  Ti  Ti49  1  0.62793022  0.53379520  0.45941535  1
  Ti  Ti50  1  0.61363052  0.48188107  0.81542074  1
  Ti  Ti51  1  0.68025124  0.82801825  0.12268379  1
  Ti  Ti52  1  0.70376734  0.90923282  0.48098280  1
  Ti  Ti53  1  0.71681221  0.78211433  0.80969768  1
  Ti  Ti54  1  0.16386685  -0.01667892  0.21873925  1
  Ti  Ti55  1  0.13053123  -0.00410709  0.52856994  1
  Ti  Ti56  1  0.16128842  0.04116865  0.76513356  1
  Ti  Ti57  1  0.11428445  0.31893718  0.26612248  1
  Ti  Ti58  1  0.11976868  0.34923822  0.54705918  1
  Ti  Ti59  1  0.15070406  0.39983615  0.79009597  1
  Ti  Ti60  1  0.15642910  0.62710431  0.18808180  1
  Ti  Ti61  1  0.18764630  0.67719685  0.48969618  1
  Ti  Ti62  1  0.21858816  0.69796752  0.80388327  1
  Ti  Ti63  1  0.53326221  -0.04147374  0.21781171  1
  Ti  Ti64  1  0.52280106  -0.01479577  0.55471076  1
  Ti  Ti65  1  0.48873318  0.04259040  0.74968896  1
  Ti  Ti66  1  0.52009233  0.29610643  0.10847053  1
  Ti  Ti67  1  0.53331529  0.34982240  0.50247765  1
  Ti  Ti68  1  0.49729673  0.24016567  0.80451437  1
  Ti  Ti69  1  0.52991207  0.68433551  0.11988269  1
  Ti  Ti70  1  0.45197754  0.69707198  0.53735748  1
  Ti  Ti71  1  0.44256188  0.70946217  0.88439251  1
  Ti  Ti72  1  0.74330013  -0.00876903  0.25632616  1
  Ti  Ti73  1  0.82682591  0.03795749  0.55090830  1
  Ti  Ti74  1  0.83975139  0.10590436  0.85248817  1
  Ti  Ti75  1  0.89087075  0.31739138  0.18482395  1
  Ti  Ti76  1  0.87913618  0.34322911  0.55186723  1
  Ti  Ti77  1  0.83514019  0.32011347  0.87248692  1
  Ti  Ti78  1  0.78471651  0.66862275  0.18416720  1
  Ti  Ti79  1  0.86841398  0.63924970  0.38862978  1
  Ti  Ti80  1  0.88706884  0.70652712  0.83422590  1
  Ti  Ti81  1  0.20752740  0.24336597  0.02593395  1
  Ti  Ti82  1  0.22895636  0.14317061  0.34915088  1
  Ti  Ti83  1  0.20920683  0.22817900  0.69827781  1
  Ti  Ti84  1  0.16962713  0.48443654  0.03018294  1
  Ti  Ti85  1  0.24068592  0.46948659  0.27797657  1
  Ti  Ti86  1  0.11935199  0.53206672  0.62195337  1
  Ti  Ti87  1  0.13104270  0.92922525  -0.01828323  1
  Ti  Ti88  1  0.17747261  0.86408352  0.39488749  1
  Ti  Ti89  1  0.19009554  0.85748911  0.64958419  1
  Ti  Ti90  1  0.46781082  0.12385012  0.01200117  1
  Ti  Ti91  1  0.50667741  0.25702059  0.30148440  1
  Ti  Ti92  1  0.59361192  0.17449716  0.62793761  1
  Ti  Ti93  1  0.53430434  0.49085326  0.05185523  1
  Ti  Ti94  1  0.45130349  0.46762345  0.34900506  1
  Ti  Ti95  1  0.47237877  0.57424310  0.71443433  1
  Ti  Ti96  1  0.49083617  0.85565064  0.02691991  1
  Ti  Ti97  1  0.48416242  0.82787510  0.37893875  1
  Ti  Ti98  1  0.52998942  0.79183449  0.71861447  1
  Ti  Ti99  1  0.80768245  0.14280927  0.06829292  1
  Ti  Ti100  1  0.87053562  0.13589625  0.24410574  1
  Ti  Ti101  1  0.87307702  0.18350516  0.67747057  1
  Ti  Ti102  1  0.80155833  0.51539912  -0.05976482  1
  Ti  Ti103  1  0.82105388  0.43929968  0.37816929  1
  Ti  Ti104  1  0.80240158  0.52558481  0.64153514  1
  Ti  Ti105  1  0.83574654  0.83144692  -0.00953970  1
  Ti  Ti106  1  0.86685711  0.81769915  0.27486004  1
  Ti  Ti107  1  0.83264869  0.84857515  0.66412033  1
  Co  Co108  1  0.71928544  0.54885802  0.30214754  1
  Co  Co109  1  0.57733232  1.00285285  0.06584304  1
  Co  Co110  1  0.63303543  0.23632078  0.45826789  1
  Co  Co111  1  0.03508379  0.13313034  0.73513493  1
  Co  Co112  1  0.13564485  0.07723036  0.08344004  1
  Co  Co113  1  0.04760010  0.15363643  0.28037513  1
  Co  Co114  1  0.08620446  0.71786462  0.07392219  1
  Co  Co115  1  0.26051377  0.95342911  0.07186126  1
  Co  Co116  1  0.26281316  0.06889696  0.59305499  1
  Co  Co117  1  0.10452529  0.02506834  0.36540563  1
  Co  Co118  1  0.34747634  -0.00357178  0.23284884  1
  Co  Co119  1  0.79840471  0.68582290  0.68062498  1
  Co  Co120  1  0.50856549  -0.00365418  0.91934342  1
  Co  Co121  1  0.89306341  0.54837462  0.80559020  1
  Co  Co122  1  0.96460427  0.23609597  0.83077821  1
  Co  Co123  1  -0.00366692  0.97148421  0.89180696  1
  Co  Co124  1  0.64937378  0.07482421  0.50368428  1
  Co  Co125  1  0.97288327  0.42295927  0.29514462  1
  Co  Co126  1  0.87961858  0.54354736  0.25858857  1
  Co  Co127  1  0.74026258  0.60895103  0.81127962  1
  Co  Co128  1  0.74991902  0.19958619  0.56936145  1
  Co  Co129  1  0.76701271  0.95188347  0.80942442  1
  Co  Co130  1  0.47305816  0.12589990  0.20080032  1
  Co  Co131  1  0.33560584  0.86271743  0.31396430  1
  Co  Co132  1  0.45930110  0.25474741  0.62152680  1
  Co  Co133  1  0.57903445  0.23049105  -0.03514222  1
  Co  Co134  1  0.32811671  0.73895910  0.42123837  1
  Co  Co135  1  0.05787070  0.55953995  0.30714451  1
  Co  Co136  1  -0.02984219  0.40794131  0.81178310  1
  Co  Co137  1  0.41497928  0.41114682  0.19282154  1
  Co  Co138  1  0.12443109  0.15415617  0.60075813  1
  Co  Co139  1  0.89286098  0.86483385  0.83132410  1
  Co  Co140  1  0.57771905  0.96167824  0.39290908  1
  Co  Co141  1  0.58206298  0.65482803  0.80384822  1
  Co  Co142  1  0.22448298  0.60962017  0.34829485  1
  Co  Co143  1  0.73605166  0.20576368  0.93812684  1
  Co  Co144  1  0.87528116  0.72668376  0.54319346  1
  Co  Co145  1  0.54854222  0.79311114  0.22860293  1
  Co  Co146  1  0.36909309  0.25380380  0.13092938  1
  Co  Co147  1  0.36625721  0.13987767  0.70351486  1
  Co  Co148  1  0.23470736  0.65892144  0.04039865  1
  Co  Co149  1  0.52263373  0.37728742  0.72386717  1
  Co  Co150  1  0.84015508  0.93763747  0.37936711  1
  Co  Co151  1  0.24545342  0.36972453  0.14668800  1
  Co  Co152  1  0.52637969  0.38361310  0.92894920  1
  Co  Co153  1  0.11858647  0.60929418  0.94068809  1
  Co  Co154  1  0.90468914  0.19065205  0.50111879  1
  Co  Co155  1  0.26881521  0.99884713  0.37984630  1
  Co  Co156  1  0.41807284  -0.01885642  0.08513408  1
  Co  Co157  1  0.68413576  0.85235072  0.30084765  1
  Co  Co158  1  0.13963851  0.22705906  0.84571661  1
  Co  Co159  1  0.77869442  0.08825989  0.40197535  1
  Co  Co160  1  0.72554165  0.19444429  0.74921676  1
  Co  Co161  1  0.15199873  0.76849132  0.93997356  1
  Ni  Ni162  1  0.58442135  0.79136311  0.90745243  1
  Ni  Ni163  1  0.96532846  0.67167230  0.19052344  1
  Ni  Ni164  1  0.21744313  0.30571293  0.41613129  1
  Ni  Ni165  1  0.37094650  0.36112156  0.44493882  1
  Ni  Ni166  1  0.29920737  0.75361618  0.58964608  1
  Ni  Ni167  1  0.01455670  0.65024060  0.49518207  1
  Ni  Ni168  1  0.71468931  0.38574570  0.50986824  1
  Ni  Ni169  1  0.01498147  0.87050905  0.64929450  1
  Ni  Ni170  1  0.65354921  0.31557145  0.83788308  1
  Ni  Ni171  1  0.96616095  0.47048800  0.65073248  1
  Ni  Ni172  1  0.73319135  -0.00372153  0.09062862  1
  Ni  Ni173  1  0.07491851  0.35691466  0.10418152  1
  Ni  Ni174  1  0.08149062  0.80428546  0.51919755  1
  Ni  Ni175  1  0.77088090  0.44164174  0.78454793  1
  Ni  Ni176  1  0.34906754  0.77536110  0.74568395  1
  Ni  Ni177  1  0.59487090  0.48047741  0.61498959  1
  Ni  Ni178  1  0.20997852  0.75550281  0.28525014  1
  Ni  Ni179  1  0.24061529  0.41323767  0.64908662  1
  Ni  Ni180  1  0.77929841  0.77758828  0.41521953  1
  Ni  Ni181  1  0.23845209  0.36168287  0.91982530  1
  Ni  Ni182  1  0.84626960  -0.00593951  0.96699642  1
  Ni  Ni183  1  0.91620501  0.23337269  -0.00340595  1
  Ni  Ni184  1  0.40305890  0.26994501  0.95401190  1
  Ni  Ni185  1  0.66864393  0.86995615  0.65343406  1
  Ni  Ni186  1  0.85736019  0.90872057  0.14016430  1
  Ni  Ni187  1  0.49020390  0.63526392  0.38391604  1
  Ni  Ni188  1  0.49793821  0.56172407  0.22536237  1
  Ni  Ni189  1  0.87477068  0.39273282  0.03804375  1
  Ni  Ni190  1  0.96744838  -0.00624477  0.24157048  1
  Ni  Ni191  1  0.20276559  0.08868255  0.93738511  1
  Ni  Ni192  1  0.48438081  0.17004372  0.47329012  1
  Ni  Ni193  1  0.65187213  0.57497644  0.14711691  1
  Ni  Ni194  1  0.24527440  0.53229584  0.78284423  1
  Ni  Ni195  1  0.99502831  0.82251388  0.96917583  1
  Ni  Ni196  1  0.42489452  0.86054257  0.62168689  1
  Ni  Ni197  1  0.74870271  0.63384375  0.51283809  1
  Ni  Ni198  1  0.86597630  0.55440262  0.09004346  1
  Ni  Ni199  1  0.38093967  0.71647528  0.06377531  1
  Ni  Ni200  1  0.72126390  0.27025970  0.21531349  1
  Ni  Ni201  1  0.19774178  0.19716310  0.19372182  1
  Ni  Ni202  1  0.98809941  0.06483536  0.58139362  1
  Ni  Ni203  1  0.10929838  0.42617558  0.39749639  1
  Ni  Ni204  1  0.56744201  0.81553689  0.53726392  1
  Ni  Ni205  1  0.59999327  0.92561234  0.79382983  1
  Ni  Ni206  1  0.58592600  0.41926468  0.19997174  1
  Ni  Ni207  1  0.43393715  0.88193051  0.83385165  1
  Ni  Ni208  1  0.01481541  0.88341103  0.34894897  1
  Ni  Ni209  1  0.13064194  0.70242271  0.66264809  1
  Ni  Ni210  1  0.45985030  0.53099479  0.51606065  1
  Ni  Ni211  1  0.22663766  0.88568877  0.81967085  1
  Ni  Ni212  1  0.35055602  0.30461848  0.72900677  1
  Ni  Ni213  1  0.48036452  0.54674891  0.90364923  1
  Ni  Ni214  1  0.98680422  0.49277429  0.95900944  1
  Ni  Ni215  1  0.78321723  0.67782187  0.01347476  1
