# generated using pymatgen
data_Ti2CoNi
_symmetry_space_group_name_H-M   'P 1'
_cell_length_a   14.56943716
_cell_length_b   14.55571980
_cell_length_c   14.55328911
_cell_angle_alpha   90.04258426
_cell_angle_beta   90.08703070
_cell_angle_gamma   89.88133205
_symmetry_Int_Tables_number   1
_chemical_formula_structural   Ti2CoNi
_chemical_formula_sum   'Ti108 Co54 Ni54'
_cell_volume   3086.28527570
_cell_formula_units_Z   54
loop_
 _symmetry_equiv_pos_site_id
 _symmetry_equiv_pos_as_xyz
  1  'x, y, z'
loop_
 _atom_site_type_symbol
 _atom_site_label
 _atom_site_symmetry_multiplicity
 _atom_site_fract_x
 _atom_site_fract_y
 _atom_site_fract_z
 _atom_site_occupancy
  Ti  Ti0  1  -0.01035708  -0.04341221  0.04961642  1
  Ti  Ti1  1  0.02378393  0.06911209  0.38613240  1
  Ti  Ti2  1  0.02813905  0.07594323  0.60543488  1
  Ti  Ti3  1  0.04503032  0.41832189  -0.02304918  1
  Ti  Ti4  1  0.02375523  0.33274977  0.36858871  1
  Ti  Ti5  1  -0.02623282  0.32859444  0.69073352  1
  Ti  Ti6  1  -0.00697303  0.60373435  0.01164995  1
  Ti  Ti7  1  0.01889876  0.67942673  0.29856712  1
  Ti  Ti8  1  -0.06578113  0.67312247  0.70246415  1
  Ti  Ti9  1  0.26685043  -0.02231112  0.05376220  1
  Ti  Ti10  1  0.39375241  0.03177385  0.38898535  1
  Ti  Ti11  1  0.34216730  0.02685804  0.59799030  1
  Ti  Ti12  1  0.34841549  0.28193811  0.00130065  1
  Ti  Ti13  1  0.35539861  0.32763775  0.26938972  1
  Ti  Ti14  1  0.37177423  0.35412497  0.75781614  1
  Ti  Ti15  1  0.34627315  0.68462356  0.08870050  1
  Ti  Ti16  1  0.33878422  0.70699025  0.30080472  1
  Ti  Ti17  1  0.37576845  0.73760058  0.69202919  1
  Ti  Ti18  1  0.69068162  0.03040949  -0.09003582  1
  Ti  Ti19  1  0.65562415  0.01904601  0.35787029  1
  Ti  Ti20  1  0.70753184  0.01935497  0.58583646  1
  Ti  Ti21  1  0.74850093  0.27756147  0.06049442  1
  Ti  Ti22  1  0.56401106  0.32252984  0.34269416  1
  Ti  Ti23  1  0.67914626  0.30364540  0.62910214  1
  Ti  Ti24  1  0.58076496  0.65240732  -0.04074882  1
  Ti  Ti25  1  0.60868824  0.62458803  0.26645819  1
  Ti  Ti26  1  0.61220620  0.70297712  0.67793656  1
  Ti  Ti27  1  0.00458215  0.15097874  0.09081979  1
  Ti  Ti28  1  -0.04182436  0.20785936  0.49212490  1
  Ti  Ti29  1  0.02317223  0.20502928  0.90339760  1
  Ti  Ti30  1  -0.05525670  0.52323319  0.19732057  1
  Ti  Ti31  1  0.01548593  0.52790548  0.44338650  1
  Ti  Ti32  1  0.02072339  0.48660782  0.78124803  1
  Ti  Ti33  1  0.04080906  0.84907075  0.20251720  1
  Ti  Ti34  1  0.04109218  0.90889771  0.50103155  1
  Ti  Ti35  1  -0.10821318  0.77834488  0.86777088  1
  Ti  Ti36  1  0.32753234  0.11248732  0.21277419  1
  Ti  Ti37  1  0.29289944  0.22651946  0.47509419  1
  Ti  Ti38  1  0.31213201  0.18965162  0.82484754  1
  Ti  Ti39  1  0.34391324  0.47000835  0.10059579  1
  Ti  Ti40  1  0.34892929  0.56692519  0.47675236  1
  Ti  Ti41  1  0.32589603  0.53635074  0.79087755  1
  Ti  Ti42  1  0.25430748  0.86845665  0.21386615  1
  Ti  Ti43  1  0.36435803  0.76469398  0.48670959  1
  Ti  Ti44  1  0.31988054  0.84425308  0.91062173  1
  Ti  Ti45  1  0.66370786  0.18052929  0.20571789  1
  Ti  Ti46  1  0.58704634  0.16026144  0.49345033  1
  Ti  Ti47  1  0.66565668  0.14745482  0.73364527  1
  Ti  Ti48  1  0.66732393  0.50159049  0.10279275  1
  Ti  Ti49  1  0.69546104  0.47136010  0.57238761  1
  Ti  Ti50  1  0.64992814  0.44775183  0.84026072  1
  Ti  Ti51  1  0.69370575  0.91894772  0.08318254  1
  Ti  Ti52  1  0.73926282  0.77138866  0.54586564  1
  Ti  Ti53  1  0.72399825  0.85999288  0.85057608  1
  Ti  Ti54  1  0.12893159  0.03840070  0.17832775  1
  Ti  Ti55  1  0.20017529  0.02956682  0.46445459  1
  Ti  Ti56  1  0.14080738  -0.04676957  0.79444865  1
  Ti  Ti57  1  0.06967998  0.33589290  0.17823436  1
  Ti  Ti58  1  0.14420049  0.35238201  0.52345826  1
  Ti  Ti59  1  0.18158187  0.32506344  0.87374834  1
  Ti  Ti60  1  0.13199482  0.69672877  0.10940334  1
  Ti  Ti61  1  0.17821864  0.63018931  0.42479183  1
  Ti  Ti62  1  0.11856227  0.64654642  0.82693117  1
  Ti  Ti63  1  0.46454003  -0.01750845  0.14688166  1
  Ti  Ti64  1  0.51493312  -0.04192507  0.50369787  1
  Ti  Ti65  1  0.42370062  -0.00797613  0.80412218  1
  Ti  Ti66  1  0.49583035  0.44980123  0.19455807  1
  Ti  Ti67  1  0.45997964  0.30035599  0.57698871  1
  Ti  Ti68  1  0.52014048  0.28213937  0.89841680  1
  Ti  Ti69  1  0.52015509  0.75981280  0.15510837  1
  Ti  Ti70  1  0.60737506  0.62822709  0.49796485  1
  Ti  Ti71  1  0.48813379  0.62674360  0.79830541  1
  Ti  Ti72  1  0.82346395  0.07630823  0.14993432  1
  Ti  Ti73  1  0.86692364  -0.04507213  0.38790228  1
  Ti  Ti74  1  0.88091261  -0.02558450  0.78645233  1
  Ti  Ti75  1  0.88779207  0.28039842  0.19667503  1
  Ti  Ti76  1  0.85461476  0.34916841  0.53051786  1
  Ti  Ti77  1  0.76941960  0.30107003  0.84394637  1
  Ti  Ti78  1  0.79227622  0.67963153  0.22752332  1
  Ti  Ti79  1  0.89614205  0.66968755  0.52370062  1
  Ti  Ti80  1  0.82063024  0.54730502  0.80904600  1
  Ti  Ti81  1  0.20202481  0.14528140  -0.00448467  1
  Ti  Ti82  1  0.17463054  0.18556487  0.30030130  1
  Ti  Ti83  1  0.14567564  0.17570565  0.74481419  1
  Ti  Ti84  1  0.21220324  0.54791227  0.00051206  1
  Ti  Ti85  1  0.13169820  0.50227106  0.28504762  1
  Ti  Ti86  1  0.20811309  0.51955962  0.63331089  1
  Ti  Ti87  1  0.12162173  0.80580930  -0.06796667  1
  Ti  Ti88  1  0.18118058  0.81960339  0.42263185  1
  Ti  Ti89  1  0.16846542  0.81097662  0.64375068  1
  Ti  Ti90  1  0.53726651  0.16846097  0.04797476  1
  Ti  Ti91  1  0.51154757  0.12679943  0.29173595  1
  Ti  Ti92  1  0.47991371  0.17208376  0.73373987  1
  Ti  Ti93  1  0.48916718  0.47096845  -0.03924974  1
  Ti  Ti94  1  0.49163060  0.51129614  0.37641462  1
  Ti  Ti95  1  0.48709459  0.49542359  0.62225300  1
  Ti  Ti96  1  0.52365802  0.84463006  -0.02443645  1
  Ti  Ti97  1  0.55781867  0.82613735  0.35068789  1
  Ti  Ti98  1  0.52796330  0.87170096  0.69505351  1
  Ti  Ti99  1  0.83990756  0.14228352  -0.03332103  1
  Ti  Ti100  1  0.82752067  0.13099085  0.33048508  1
  Ti  Ti101  1  0.84438849  0.16348119  0.64854128  1
  Ti  Ti102  1  0.84314656  0.44817396  -0.00514077  1
  Ti  Ti103  1  0.82444841  0.51001918  0.42349017  1
  Ti  Ti104  1  0.89787332  0.50970338  0.61722241  1
  Ti  Ti105  1  0.81725624  0.77123572  0.05859518  1
  Ti  Ti106  1  0.75308455  0.80345846  0.36371286  1
  Ti  Ti107  1  0.86864146  0.87095813  0.63221962  1
  Co  Co108  1  0.37870166  0.84637521  0.08830019  1
  Co  Co109  1  0.45103367  0.80644058  0.82634177  1
  Co  Co110  1  0.66961103  0.67791268  0.09613744  1
  Co  Co111  1  0.26888310  0.02145512  0.88609911  1
  Co  Co112  1  0.88310756  0.67989459  0.36935632  1
  Co  Co113  1  0.03561086  0.79023893  0.77294983  1
  Co  Co114  1  0.65420705  0.49633011  0.40402570  1
  Co  Co115  1  0.42455783  0.60018175  0.23080696  1
  Co  Co116  1  0.68094318  0.19575791  0.36620238  1
  Co  Co117  1  0.56158455  1.00465865  0.01407231  1
  Co  Co118  1  0.14257702  0.37692177  0.72103597  1
  Co  Co119  1  0.74349039  0.31278672  0.26480882  1
  Co  Co120  1  0.72924820  0.64295052  0.39735122  1
  Co  Co121  1  -0.00777007  0.90221599  0.88924748  1
  Co  Co122  1  0.62202460  0.02106468  0.18518650  1
  Co  Co123  1  0.67126125  0.20099410  0.91302309  1
  Co  Co124  1  0.80973102  0.42257886  0.16131920  1
  Co  Co125  1  0.81842428  0.57988450  0.09906863  1
  Co  Co126  1  1.02084068  0.92765796  0.67806640  1
  Co  Co127  1  0.40980826  0.12682274  0.91868212  1
  Co  Co128  1  0.12393958  0.19388268  0.45386863  1
  Co  Co129  1  0.84154272  0.64111108  0.95672938  1
  Co  Co130  1  0.34988562  0.18656596  0.65347283  1
  Co  Co131  1  -0.05369846  0.69481213  0.14809276  1
  Co  Co132  1  0.45460202  0.23181472  0.18367461  1
  Co  Co133  1  0.79996632  0.10815317  0.80773858  1
  Co  Co134  1  0.26677773  0.05812280  0.73223612  1
  Co  Co135  1  0.16923210  0.98033790  0.62445534  1
  Co  Co136  1  0.64645612  0.37412232  0.98377951  1
  Co  Co137  1  0.69270431  0.10314880  0.05578479  1
  Co  Co138  1  0.90323978  0.41906391  0.31467040  1
  Co  Co139  1  0.77121499  0.53127691  0.27040494  1
  Co  Co140  1  0.04383495  0.72686877  0.45238585  1
  Co  Co141  1  0.20387684  0.14324579  0.58995872  1
  Co  Co142  1  0.14122853  0.87587247  0.07724769  1
  Co  Co143  1  0.09573342  0.50311996  0.11568799  1
  Co  Co144  1  0.64540776  0.43938232  0.26102416  1
  Co  Co145  1  0.56158691  0.39654278  0.50003666  1
  Co  Co146  1  0.24061551  0.58117887  0.18006039  1
  Co  Co147  1  0.95548421  0.05465505  0.91956137  1
  Co  Co148  1  0.71165980  0.55096952  0.95314736  1
  Co  Co149  1  0.96332240  0.63248456  0.85474562  1
  Co  Co150  1  0.37354912  0.12310234  0.06860027  1
  Co  Co151  1  0.47575513  0.34701145  0.06658827  1
  Co  Co152  1  0.74513499  0.20221822  0.51852351  1
  Co  Co153  1  -0.01152436  0.77998446  0.02126968  1
  Co  Co154  1  0.43539859  0.13085986  0.52149185  1
  Co  Co155  1  0.41014854  0.97251713  0.97316464  1
  Co  Co156  1  0.07908683  0.24108097  0.61266024  1
  Co  Co157  1  0.71391938  0.34573739  0.43716321  1
  Co  Co158  1  0.33951802  0.43028952  0.57989319  1
  Co  Co159  1  0.55024034  0.09778653  0.86583087  1
  Co  Co160  1  0.01915000  0.07120781  0.77409760  1
  Co  Co161  1  0.85643308  0.27506609  0.37692621  1
  Ni  Ni162  1  0.17697357  0.71946372  0.26741308  1
  Ni  Ni163  1  0.54549303  0.79037529  0.53327331  1
  Ni  Ni164  1  0.83249919  0.94060015  0.97382750  1
  Ni  Ni165  1  0.53268297  0.04909918  0.64097175  1
  Ni  Ni166  1  0.75872617  0.61815150  0.61365397  1
  Ni  Ni167  1  0.24199926  0.00948331  0.30628427  1
  Ni  Ni168  1  0.30015684  0.89225657  0.73764750  1
  Ni  Ni169  1  0.66850060  0.90033110  0.47594508  1
  Ni  Ni170  1  0.90287205  0.82018269  0.46826008  1
  Ni  Ni171  1  0.60530986  0.75874998  0.83634017  1
  Ni  Ni172  1  0.11335267  0.01342877  -0.04566945  1
  Ni  Ni173  1  0.26552749  0.25230488  0.14060345  1
  Ni  Ni174  1  0.80469269  0.40426159  0.71067522  1
  Ni  Ni175  1  0.23866688  0.66734144  0.73111999  1
  Ni  Ni176  1  0.57261566  0.31750757  0.74931535  1
  Ni  Ni177  1  0.22085969  0.40735098  0.18259576  1
  Ni  Ni178  1  0.10135508  0.93293570  0.33054901  1
  Ni  Ni179  1  0.46093884  0.65266027  0.57591288  1
  Ni  Ni180  1  0.00356143  0.18127420  0.26603725  1
  Ni  Ni181  1  0.07029527  0.62381704  0.58917991  1
  Ni  Ni182  1  0.61172271  0.32888249  0.14796641  1
  Ni  Ni183  1  0.77206257  0.72701800  0.74044176  1
  Ni  Ni184  1  0.21638604  0.46789654  0.43786803  1
  Ni  Ni185  1  0.85041698  0.07558620  0.49830729  1
  Ni  Ni186  1  1.05219614  0.46065387  0.60442448  1
  Ni  Ni187  1  0.23890315  0.67885689  0.56809226  1
  Ni  Ni188  1  0.90795892  0.21978335  0.79466502  1
  Ni  Ni189  1  0.64291809  0.54703969  0.71324876  1
  Ni  Ni190  1  0.25444275  0.30542151  0.63920746  1
  Ni  Ni191  1  0.31472745  0.49668022  0.30410807  1
  Ni  Ni192  1  0.17478224  0.48418362  0.85033872  1
  Ni  Ni193  1  0.39155671  0.59934599  0.95297624  1
  Ni  Ni194  1  0.19664029  0.34100719  0.34142116  1
  Ni  Ni195  1  0.25158907  0.69132479  0.92841494  1
  Ni  Ni196  1  0.49299340  0.46040773  0.78605087  1
  Ni  Ni197  1  0.92727243  0.29037128  0.01865749  1
  Ni  Ni198  1  0.70414231  0.86754590  0.68085744  1
  Ni  Ni199  1  0.11812710  0.27935612  1.03543162  1
  Ni  Ni200  1  1.01081004  0.77972309  0.60335103  1
  Ni  Ni201  1  0.86540202  0.91181021  0.14126559  1
  Ni  Ni202  1  0.96573782  0.01458150  0.23142040  1
  Ni  Ni203  1  0.89137163  0.81788672  0.26730152  1
  Ni  Ni204  1  0.75843763  0.94383026  0.25604527  1
  Ni  Ni205  1  0.42799199  0.86567697  0.25532795  1
  Ni  Ni206  1  0.32898201  0.88344796  0.38133834  1
  Ni  Ni207  1  0.92523385  0.37385002  0.86037164  1
  Ni  Ni208  1  0.39083645  0.39020214  0.43137394  1
  Ni  Ni209  1  0.32013925  0.42883717  0.92358357  1
  Ni  Ni210  1  0.50740728  0.59406811  0.09430880  1
  Ni  Ni211  1  0.43515370  0.23128116  0.39516217  1
  Ni  Ni212  1  0.62765722  0.98746901  0.76006821  1
  Ni  Ni213  1  0.38900211  0.87361026  0.59516078  1
  Ni  Ni214  1  0.67379612  0.80312513  0.20950597  1
  Ni  Ni215  1  0.48065539  0.68397314  0.39735086  1
