# generated using pymatgen
data_Ti2CoNi
_symmetry_space_group_name_H-M   'P 1'
_cell_length_a   14.57262021
_cell_length_b   14.72246646
_cell_length_c   14.70686173
_cell_angle_alpha   90.28401981
_cell_angle_beta   89.95328157
_cell_angle_gamma   89.85486576
_symmetry_Int_Tables_number   1
_chemical_formula_structural   Ti2CoNi
_chemical_formula_sum   'Ti108 Co54 Ni54'
_cell_volume   3155.23238827
_cell_formula_units_Z   54
loop_
 _symmetry_equiv_pos_site_id
 _symmetry_equiv_pos_as_xyz
  1  'x, y, z'
loop_
 _atom_site_type_symbol
 _atom_site_label
 _atom_site_symmetry_multiplicity
 _atom_site_fract_x
 _atom_site_fract_y
 _atom_site_fract_z
 _atom_site_occupancy
  Ti  Ti0  1  -0.08163573  0.03022109  -0.02693293  1
  Ti  Ti1  1  -0.07752338  0.03646615  0.33608222  1
  Ti  Ti2  1  0.12453133  -0.02362183  0.69125453  1
  Ti  Ti3  1  0.01648627  0.39668663  -0.01535482  1
  Ti  Ti4  1  -0.00206469  0.32677229  0.33959844  1
  Ti  Ti5  1  -0.03041310  0.31098396  0.61472417  1
  Ti  Ti6  1  -0.04677597  0.72484608  -0.01145462  1
  Ti  Ti7  1  -0.06760937  0.68882118  0.30021190  1
  Ti  Ti8  1  0.01485361  0.64587363  0.73545521  1
  Ti  Ti9  1  0.30203950  -0.05781116  0.08556046  1
  Ti  Ti10  1  0.38978500  -0.01846754  0.32809932  1
  Ti  Ti11  1  0.31891138  0.00978041  0.62390985  1
  Ti  Ti12  1  0.28318017  0.39328267  0.06831983  1
  Ti  Ti13  1  0.33420919  0.36714058  0.26816455  1
  Ti  Ti14  1  0.31615092  0.29671599  0.73492465  1
  Ti  Ti15  1  0.38839437  0.60561260  0.05988987  1
  Ti  Ti16  1  0.38908070  0.67898876  0.26732181  1
  Ti  Ti17  1  0.30526929  0.67763959  0.69483347  1
  Ti  Ti18  1  0.68976005  0.03141780  -0.06741008  1
  Ti  Ti19  1  0.70429504  0.00117633  0.39962953  1
  Ti  Ti20  1  0.65288440  -0.02836832  0.71823651  1
  Ti  Ti21  1  0.71295205  0.37576150  0.00467880  1
  Ti  Ti22  1  0.66754951  0.39606196  0.31802275  1
  Ti  Ti23  1  0.60708097  0.39541423  0.65651271  1
  Ti  Ti24  1  0.59311379  0.68867430  -0.05236311  1
  Ti  Ti25  1  0.70297769  0.69535755  0.38273989  1
  Ti  Ti26  1  0.63620672  0.57995427  0.67140791  1
  Ti  Ti27  1  -0.00260112  0.17679985  0.07548456  1
  Ti  Ti28  1  0.00161656  0.17312936  0.47055142  1
  Ti  Ti29  1  0.02961116  0.21806671  0.87871993  1
  Ti  Ti30  1  0.01787973  0.50109118  0.21903165  1
  Ti  Ti31  1  0.04735138  0.52061562  0.56105934  1
  Ti  Ti32  1  -0.03775583  0.44530559  0.79187910  1
  Ti  Ti33  1  0.02929772  0.80912844  0.18674146  1
  Ti  Ti34  1  0.05100651  0.87475730  0.52407222  1
  Ti  Ti35  1  -0.04738389  0.85606922  0.82127402  1
  Ti  Ti36  1  0.29592698  0.13660102  0.17639687  1
  Ti  Ti37  1  0.24222350  0.16329759  0.49771178  1
  Ti  Ti38  1  0.39275133  0.21255278  0.92084044  1
  Ti  Ti39  1  0.23185464  0.53719798  0.20657709  1
  Ti  Ti40  1  0.36344852  0.43315035  0.47320633  1
  Ti  Ti41  1  0.36257737  0.48071386  0.77826641  1
  Ti  Ti42  1  0.43749651  0.79639226  0.11099933  1
  Ti  Ti43  1  0.38561894  0.76561800  0.55685218  1
  Ti  Ti44  1  0.27508848  0.71108512  0.87413855  1
  Ti  Ti45  1  0.67312088  0.12481856  0.19738939  1
  Ti  Ti46  1  0.68560678  0.24347494  0.44790368  1
  Ti  Ti47  1  0.75320897  0.12026335  0.77246095  1
  Ti  Ti48  1  0.60260081  0.44820177  0.14490844  1
  Ti  Ti49  1  0.77681951  0.53527546  0.54110656  1
  Ti  Ti50  1  0.64956588  0.52434374  0.86855369  1
  Ti  Ti51  1  0.65226672  0.84609309  0.18378899  1
  Ti  Ti52  1  0.59645830  0.82726948  0.51495003  1
  Ti  Ti53  1  0.71423470  0.84211518  0.85442587  1
  Ti  Ti54  1  0.11637298  0.06576968  0.21049996  1
  Ti  Ti55  1  0.20817663  -0.01962812  0.41353275  1
  Ti  Ti56  1  0.23387884  -0.09660004  0.85409135  1
  Ti  Ti57  1  0.12895156  0.28955868  0.15843496  1
  Ti  Ti58  1  0.15935090  0.36799564  0.47039370  1
  Ti  Ti59  1  0.15855259  0.38386117  0.82881874  1
  Ti  Ti60  1  0.23477010  0.73641004  0.16246373  1
  Ti  Ti61  1  0.19333612  0.72911067  0.51526202  1
  Ti  Ti62  1  0.09857954  0.61492692  0.90591389  1
  Ti  Ti63  1  0.47294354  0.01496346  0.15929564  1
  Ti  Ti64  1  0.53319062  0.02216961  0.54401795  1
  Ti  Ti65  1  0.40859065  0.01143794  0.88537099  1
  Ti  Ti66  1  0.44376795  0.25678728  0.11087575  1
  Ti  Ti67  1  0.46795431  0.26309430  0.52879718  1
  Ti  Ti68  1  0.50366746  0.30143051  0.78210765  1
  Ti  Ti69  1  0.57172652  0.64834271  0.13975102  1
  Ti  Ti70  1  0.50174503  0.63235701  0.45939650  1
  Ti  Ti71  1  0.48546005  0.67439597  0.77684152  1
  Ti  Ti72  1  0.93344583  -0.02619251  0.16013500  1
  Ti  Ti73  1  0.86883116  -0.02803117  0.52430148  1
  Ti  Ti74  1  0.95533744  0.05269056  0.77926720  1
  Ti  Ti75  1  0.90385120  0.33453369  0.14403829  1
  Ti  Ti76  1  0.78199575  0.35235618  0.61039979  1
  Ti  Ti77  1  0.80809345  0.31704630  0.80834033  1
  Ti  Ti78  1  0.77961989  0.65209052  0.17457797  1
  Ti  Ti79  1  0.88103979  0.72789041  0.50163417  1
  Ti  Ti80  1  0.78614337  0.65440406  0.91987744  1
  Ti  Ti81  1  0.20494400  0.08287716  -0.03315043  1
  Ti  Ti82  1  0.17435834  0.24141911  0.32825508  1
  Ti  Ti83  1  0.19186625  0.16100156  0.69872342  1
  Ti  Ti84  1  0.27228996  0.51931426  -0.06908280  1
  Ti  Ti85  1  0.16053836  0.58916587  0.38343041  1
  Ti  Ti86  1  0.24037766  0.47523590  0.63345889  1
  Ti  Ti87  1  0.13825242  0.85115898  0.01774689  1
  Ti  Ti88  1  0.18057673  0.79964069  0.32512299  1
  Ti  Ti89  1  0.13328994  0.78879495  0.70242779  1
  Ti  Ti90  1  0.55163269  0.11851922  0.01741613  1
  Ti  Ti91  1  0.53292980  0.13119800  0.36700662  1
  Ti  Ti92  1  0.53594376  0.13530186  0.68455693  1
  Ti  Ti93  1  0.47061960  0.40969347  -0.05993733  1
  Ti  Ti94  1  0.50270943  0.49462865  0.33739136  1
  Ti  Ti95  1  0.44793750  0.55490179  0.61798236  1
  Ti  Ti96  1  0.55451691  0.88410794  -0.01313680  1
  Ti  Ti97  1  0.45835677  0.80591748  0.38293871  1
  Ti  Ti98  1  0.47644478  0.88266638  0.69101651  1
  Ti  Ti99  1  0.78708373  0.19142238  0.05080593  1
  Ti  Ti100  1  0.82304488  0.21754868  0.30421760  1
  Ti  Ti101  1  0.82479268  0.16899252  0.60340596  1
  Ti  Ti102  1  0.87430577  0.52093646  0.04678756  1
  Ti  Ti103  1  0.81764554  0.53803309  0.34409578  1
  Ti  Ti104  1  0.83181777  0.62019589  0.69694190  1
  Ti  Ti105  1  0.79323962  0.87949114  0.02725434  1
  Ti  Ti106  1  0.81668040  0.84647279  0.28858374  1
  Ti  Ti107  1  0.78612165  0.82110025  0.65879178  1
  Co  Co108  1  0.62512187  0.24445992  0.59252138  1
  Co  Co109  1  0.50383153  0.86403288  0.24257663  1
  Co  Co110  1  0.86615236  0.79106132  0.14279761  1
  Co  Co111  1  0.96966321  0.92551812  0.65981857  1
  Co  Co112  1  0.33602593  0.85607722  0.23674517  1
  Co  Co113  1  0.63310450  0.98071534  0.09620391  1
  Co  Co114  1  0.71201357  0.56280642  1.03914821  1
  Co  Co115  1  0.16139414  0.62340567  0.63605548  1
  Co  Co116  1  0.52387214  0.48214857  0.77080363  1
  Co  Co117  1  0.39024266  0.81344334  0.81015755  1
  Co  Co118  1  0.30054235  0.84126421  0.41236476  1
  Co  Co119  1  0.53760166  0.95215106  0.40091798  1
  Co  Co120  1  0.31819823  0.68262906  0.40983149  1
  Co  Co121  1  0.22041693  0.21188964  0.85751187  1
  Co  Co122  1  0.44392772  0.73349115  -0.05408571  1
  Co  Co123  1  0.32211971  0.53310174  0.35355298  1
  Co  Co124  1  0.15934481  0.41010904  0.28233725  1
  Co  Co125  1  0.81883672  -0.00299481  0.67650738  1
  Co  Co126  1  0.55459695  0.53121569  0.01536950  1
  Co  Co127  1  0.30432440  0.35298032  0.89999841  1
  Co  Co128  1  0.76384576  0.47194069  0.72489609  1
  Co  Co129  1  0.10029196  0.70131061  0.06751824  1
  Co  Co130  1  0.37161983  0.87304471  0.96158505  1
  Co  Co131  1  0.78330561  0.03206826  0.08391114  1
  Co  Co132  1  0.31135229  0.59623019  0.53931973  1
  Co  Co133  1  0.37955203  0.09250323  0.04132264  1
  Co  Co134  1  0.77047884  0.98969972  0.24078247  1
  Co  Co135  1  0.86865179  0.12779572  0.18009341  1
  Co  Co136  1  0.95736990  0.64667791  0.14290499  1
  Co  Co137  1  0.03809769  0.68875292  0.56029125  1
  Co  Co138  1  0.03441175  0.55178717  1.03639739  1
  Co  Co139  1  0.60802846  0.24801928  0.28322077  1
  Co  Co140  1  0.43788309  0.42473006  0.09519927  1
  Co  Co141  1  0.09768797  0.77989235  0.86457697  1
  Co  Co142  1  0.21127282  0.58821847  0.05485339  1
  Co  Co143  1  0.12858928  0.43900260  0.10354563  1
  Co  Co144  1  0.93256188  0.58635680  0.87614920  1
  Co  Co145  1  0.11829649  0.08636184  0.82886302  1
  Co  Co146  1  0.26860743  0.03887384  0.78410977  1
  Co  Co147  1  0.32966278  0.27999489  0.40673958  1
  Co  Co148  1  0.55262654  0.27349420  0.95427770  1
  Co  Co149  1  0.13158319  0.05464397  0.54962524  1
  Co  Co150  1  0.55536168  0.81387458  0.82719757  1
  Co  Co151  1  0.28714019  0.86002401  0.70210117  1
  Co  Co152  1  0.28942167  0.74749773  1.02163483  1
  Co  Co153  1  0.09699892  0.65879570  0.24301696  1
  Co  Co154  1  0.56160080  0.97480714  0.84773451  1
  Co  Co155  1  0.50060708  0.35469372  0.22909769  1
  Co  Co156  1  0.50049464  0.32793422  0.38613057  1
  Co  Co157  1  0.97102441  0.88048408  0.01902004  1
  Co  Co158  1  0.85374340  0.73604184  0.80260285  1
  Co  Co159  1  0.64538204  0.37183686  0.84725685  1
  Co  Co160  1  0.94307147  0.77181354  0.65440834  1
  Co  Co161  1  0.59935275  -0.00212214  0.26455498  1
  Ni  Ni162  1  0.44221772  0.57391997  0.89888453  1
  Ni  Ni163  1  0.04823724  0.74041224  0.40390085  1
  Ni  Ni164  1  0.41546049  0.21094676  0.27959316  1
  Ni  Ni165  1  0.28253520  0.31235126  0.57297209  1
  Ni  Ni166  1  0.07093709  0.94963468  0.89490607  1
  Ni  Ni167  1  0.86848538  0.27861951  0.47127827  1
  Ni  Ni168  1  0.04710360  0.46974237  0.39339281  1
  Ni  Ni169  1  0.11412018  0.23979021  0.58011676  1
  Ni  Ni170  1  0.06182246  0.93320419  0.31383828  1
  Ni  Ni171  1  0.76836228  0.40183694  0.44364236  1
  Ni  Ni172  1  0.40918084  0.52341385  0.20981805  1
  Ni  Ni173  1  0.61336078  0.26098926  0.10447587  1
  Ni  Ni174  1  0.53240731  0.44814505  0.50828944  1
  Ni  Ni175  1  0.85079515  0.38613044  0.29480592  1
  Ni  Ni176  1  0.36672704  0.16904898  0.61744960  1
  Ni  Ni177  1  0.39813696  0.09451113  0.46723703  1
  Ni  Ni178  1  0.27635663  0.22728968  0.04049443  1
  Ni  Ni179  1  0.65717255  0.56609016  0.26684307  1
  Ni  Ni180  1  0.70075772  0.93974965  0.56651766  1
  Ni  Ni181  1  0.53626733  0.71382054  0.61960900  1
  Ni  Ni182  1  0.28902191  0.12039684  0.34205033  1
  Ni  Ni183  1  0.90961164  0.47387617  0.63934468  1
  Ni  Ni184  1  0.68505019  0.09688651  0.56152425  1
  Ni  Ni185  1  0.64969246  0.53938319  0.43039750  1
  Ni  Ni186  1  0.93337801  0.86736939  0.39942368  1
  Ni  Ni187  1  0.70572693  0.74090020  0.05608551  1
  Ni  Ni188  1  0.66223459  0.24889796  0.74422343  1
  Ni  Ni189  1  0.17331082  0.90960756  0.18862916  1
  Ni  Ni190  1  0.76417120  0.83849970  0.45695154  1
  Ni  Ni191  1  0.56335216  0.70541981  0.29396775  1
  Ni  Ni192  1  0.81634290  0.12087010  0.44315145  1
  Ni  Ni193  1  0.81960917  0.46635799  0.89352861  1
  Ni  Ni194  1  0.81676387  0.97336998  0.84465208  1
  Ni  Ni195  1  0.21988731  0.89004720  0.55750118  1
  Ni  Ni196  1  0.07667419  0.00964338  0.05822279  1
  Ni  Ni197  1  0.98093070  0.09396006  0.62032950  1
  Ni  Ni198  1  0.69895991  0.21705795  0.90988326  1
  Ni  Ni199  1  0.74091773  0.31003833  0.18656007  1
  Ni  Ni200  1  0.14058623  0.28941847  0.98473049  1
  Ni  Ni201  1  0.87384995  0.31430597  -0.03334260  1
  Ni  Ni202  1  0.40323286  0.92586307  0.50392774  1
  Ni  Ni203  1  0.38977056  0.14398388  0.77272140  1
  Ni  Ni204  1  0.42846330  0.39137760  0.64091027  1
  Ni  Ni205  1  0.09857103  0.09300874  0.37270152  1
  Ni  Ni206  1  0.95668998  0.59485939  0.43743862  1
  Ni  Ni207  1  0.56229270  0.13880621  0.84777083  1
  Ni  Ni208  1  0.00309869  0.18456760  0.25518041  1
  Ni  Ni209  1  0.19942111  0.56067734  0.78080972  1
  Ni  Ni210  1  0.67918095  0.70196696  0.77465906  1
  Ni  Ni211  1  0.86163266  0.16463358  0.89452424  1
  Ni  Ni212  1  0.92234987  0.21241892  0.74102884  1
  Ni  Ni213  1  0.70796616  0.69667313  0.56465097  1
  Ni  Ni214  1  0.77275115  0.47376079  0.17624025  1
  Ni  Ni215  1  0.10748450  0.38314603  0.66864148  1
