# generated using pymatgen
data_Ti2CoNi
_symmetry_space_group_name_H-M   'P 1'
_cell_length_a   14.44047701
_cell_length_b   14.54339269
_cell_length_c   14.56949533
_cell_angle_alpha   89.97579200
_cell_angle_beta   89.84839492
_cell_angle_gamma   89.78139453
_symmetry_Int_Tables_number   1
_chemical_formula_structural   Ti2CoNi
_chemical_formula_sum   'Ti108 Co54 Ni54'
_cell_volume   3059.75787023
_cell_formula_units_Z   54
loop_
 _symmetry_equiv_pos_site_id
 _symmetry_equiv_pos_as_xyz
  1  'x, y, z'
loop_
 _atom_site_type_symbol
 _atom_site_label
 _atom_site_symmetry_multiplicity
 _atom_site_fract_x
 _atom_site_fract_y
 _atom_site_fract_z
 _atom_site_occupancy
  Ti  Ti0  1  0.04040066  0.03114872  -0.03840679  1
  Ti  Ti1  1  -0.00841675  -0.07335186  0.31166170  1
  Ti  Ti2  1  -0.01581124  -0.01359713  0.61958699  1
  Ti  Ti3  1  0.01937031  0.25640031  0.06903221  1
  Ti  Ti4  1  -0.00391026  0.22450941  0.34860431  1
  Ti  Ti5  1  -0.02790839  0.26196072  0.70274860  1
  Ti  Ti6  1  -0.09178457  0.68227886  0.02356441  1
  Ti  Ti7  1  0.00257388  0.65339050  0.30682250  1
  Ti  Ti8  1  0.02577258  0.58396178  0.67046529  1
  Ti  Ti9  1  0.37037958  0.03532762  -0.01376629  1
  Ti  Ti10  1  0.38300542  -0.03016517  0.31939392  1
  Ti  Ti11  1  0.28275413  -0.02492474  0.63556855  1
  Ti  Ti12  1  0.34227968  0.36266116  0.06134752  1
  Ti  Ti13  1  0.25020004  0.33551669  0.24499649  1
  Ti  Ti14  1  0.34272132  0.34479402  0.72958294  1
  Ti  Ti15  1  0.22997518  0.65914632  0.00931659  1
  Ti  Ti16  1  0.32747045  0.60321543  0.25662632  1
  Ti  Ti17  1  0.31127592  0.75730041  0.65624533  1
  Ti  Ti18  1  0.68378227  -0.00990485  -0.09724028  1
  Ti  Ti19  1  0.58922186  0.05788896  0.35399798  1
  Ti  Ti20  1  0.67900978  0.02156047  0.61574769  1
  Ti  Ti21  1  0.61144600  0.37023079  -0.07339611  1
  Ti  Ti22  1  0.71657675  0.31986781  0.33561387  1
  Ti  Ti23  1  0.66106012  0.36996286  0.70889814  1
  Ti  Ti24  1  0.70879146  0.67639388  -0.00878910  1
  Ti  Ti25  1  0.67294730  0.67708058  0.35575367  1
  Ti  Ti26  1  0.59402347  0.68688986  0.70902826  1
  Ti  Ti27  1  0.06222991  0.07860211  0.17238915  1
  Ti  Ti28  1  0.04316485  0.15371540  0.53880373  1
  Ti  Ti29  1  0.03840601  0.19568114  0.87566431  1
  Ti  Ti30  1  -0.03886884  0.53165229  0.13848389  1
  Ti  Ti31  1  -0.02768484  0.43441261  0.50483936  1
  Ti  Ti32  1  0.02691289  0.50525973  0.84823704  1
  Ti  Ti33  1  -0.01636451  0.88551479  0.11139823  1
  Ti  Ti34  1  0.03515370  0.86335503  0.49363176  1
  Ti  Ti35  1  -0.01340639  0.84228153  0.91410068  1
  Ti  Ti36  1  0.28346985  0.13470813  0.18573995  1
  Ti  Ti37  1  0.41031987  0.23977535  0.50232382  1
  Ti  Ti38  1  0.38802191  0.18588473  0.85733010  1
  Ti  Ti39  1  0.41925134  0.42594474  0.24226811  1
  Ti  Ti40  1  0.29333155  0.54332696  0.50627599  1
  Ti  Ti41  1  0.33564918  0.52091331  0.82001267  1
  Ti  Ti42  1  0.38990180  0.79947976  0.21527905  1
  Ti  Ti43  1  0.30665348  0.86273289  0.45868344  1
  Ti  Ti44  1  0.23254936  0.86291969  0.78144667  1
  Ti  Ti45  1  0.60076420  0.12624437  0.17720544  1
  Ti  Ti46  1  0.72821032  0.22888370  0.54349219  1
  Ti  Ti47  1  0.69554927  0.19819644  0.85396035  1
  Ti  Ti48  1  0.66712897  0.53821818  0.17796802  1
  Ti  Ti49  1  0.68872452  0.41394500  0.51024133  1
  Ti  Ti50  1  0.56444797  0.55873523  0.86641069  1
  Ti  Ti51  1  0.66404757  0.80301464  0.15331116  1
  Ti  Ti52  1  0.66972773  0.90933230  0.42848451  1
  Ti  Ti53  1  0.68979854  0.79800229  0.83862507  1
  Ti  Ti54  1  0.19984929  -0.06560734  0.21522545  1
  Ti  Ti55  1  0.16125728  0.01191359  0.49984240  1
  Ti  Ti56  1  0.22534951  0.05472002  0.81613088  1
  Ti  Ti57  1  0.12990238  0.41625181  0.12830985  1
  Ti  Ti58  1  0.25271414  0.34337352  0.52618299  1
  Ti  Ti59  1  0.19643942  0.24996156  0.80224574  1
  Ti  Ti60  1  0.12216499  0.62733340  0.16264201  1
  Ti  Ti61  1  0.08653233  0.67571198  0.50332115  1
  Ti  Ti62  1  0.17654602  0.62981988  0.82049266  1
  Ti  Ti63  1  0.51267531  -0.05525708  0.14159452  1
  Ti  Ti64  1  0.46536451  -0.00125663  0.59192121  1
  Ti  Ti65  1  0.50333561  -0.05911011  0.85462401  1
  Ti  Ti66  1  0.60641717  0.33879177  0.18971530  1
  Ti  Ti67  1  0.49341597  0.40747164  0.44193043  1
  Ti  Ti68  1  0.52162166  0.28679977  0.78373520  1
  Ti  Ti69  1  0.53230972  0.69249956  0.06619856  1
  Ti  Ti70  1  0.52690516  0.68747153  0.51355696  1
  Ti  Ti71  1  0.42583301  0.75865112  0.80867233  1
  Ti  Ti72  1  0.82970101  0.05847334  0.14564711  1
  Ti  Ti73  1  0.83474190  -0.07739836  0.53705224  1
  Ti  Ti74  1  0.88585243  0.07035125  0.83671801  1
  Ti  Ti75  1  0.83044807  0.36439769  0.18041777  1
  Ti  Ti76  1  0.83633009  0.36611807  0.61002662  1
  Ti  Ti77  1  0.87436778  0.42875405  0.77497591  1
  Ti  Ti78  1  0.82270550  0.63978882  0.24149731  1
  Ti  Ti79  1  0.85988760  0.71191199  0.55581477  1
  Ti  Ti80  1  0.82869473  0.58845564  0.85066914  1
  Ti  Ti81  1  0.19562686  0.15941977  -0.02006132  1
  Ti  Ti82  1  0.18816857  0.20717313  0.39872587  1
  Ti  Ti83  1  0.16305850  0.11724335  0.66031568  1
  Ti  Ti84  1  0.19874253  0.46953137  -0.05698546  1
  Ti  Ti85  1  0.15144088  0.42873112  0.39649977  1
  Ti  Ti86  1  0.18597781  0.45151353  0.69366241  1
  Ti  Ti87  1  0.19163715  0.89722871  -0.00965414  1
  Ti  Ti88  1  0.21729746  0.75817171  0.32000752  1
  Ti  Ti89  1  0.10140701  0.76804862  0.70627686  1
  Ti  Ti90  1  0.54939135  0.13053870  -0.04720059  1
  Ti  Ti91  1  0.50148048  0.23269742  0.32354236  1
  Ti  Ti92  1  0.46945009  0.17197544  0.66033388  1
  Ti  Ti93  1  0.40438756  0.53587853  0.02982804  1
  Ti  Ti94  1  0.47802661  0.59049899  0.36663976  1
  Ti  Ti95  1  0.53568455  0.52109204  0.60165913  1
  Ti  Ti96  1  0.39248934  0.82347919  0.01202583  1
  Ti  Ti97  1  0.49059929  0.80197149  0.37522150  1
  Ti  Ti98  1  0.56662288  0.87336792  0.70110898  1
  Ti  Ti99  1  0.72704434  0.24142802  0.04296025  1
  Ti  Ti100  1  0.81184209  0.15537358  0.36459147  1
  Ti  Ti101  1  0.85639248  0.13188589  0.63703611  1
  Ti  Ti102  1  0.86225083  0.43830157  -0.00520235  1
  Ti  Ti103  1  0.89903367  0.48340004  0.32897970  1
  Ti  Ti104  1  0.80115013  0.54342645  0.62703797  1
  Ti  Ti105  1  0.78246796  0.87704055  0.01779401  1
  Ti  Ti106  1  0.79251391  0.87856617  0.27657064  1
  Ti  Ti107  1  0.85798216  0.82443730  0.72976251  1
  Co  Co108  1  0.17548694  0.84727156  0.57118439  1
  Co  Co109  1  0.05591056  0.78253749  0.35851476  1
  Co  Co110  1  0.01467820  0.10289308  0.73788346  1
  Co  Co111  1  0.84043298  0.75358062  0.89521847  1
  Co  Co112  1  0.44951444  0.44255772  0.90275380  1
  Co  Co113  1  0.43778307  0.09752874  0.26144737  1
  Co  Co114  1  0.91509829  0.65636326  0.73895093  1
  Co  Co115  1  0.58783001  0.53750039  0.03388784  1
  Co  Co116  1  0.97878717  0.78025256  0.62683974  1
  Co  Co117  1  0.72255574  0.51230665  0.93642623  1
  Co  Co118  1  0.44591966  0.61570665  0.73865346  1
  Co  Co119  1  0.11022670  0.23135787  0.20893973  1
  Co  Co120  1  0.50925950  0.39801273  0.08450057  1
  Co  Co121  1  0.79968411  0.56002141  0.08877063  1
  Co  Co122  1  0.96120427  0.33502459  0.91568072  1
  Co  Co123  1  0.24384758  0.70646744  0.51573234  1
  Co  Co124  1  0.45392554  0.29878321  0.95377158  1
  Co  Co125  1  0.11722141  0.51595114  0.54830024  1
  Co  Co126  1  0.34486117  0.96193503  0.13256088  1
  Co  Co127  1  0.19139696  0.61354500  0.37038768  1
  Co  Co128  1  0.42602549  0.38034880  0.60147340  1
  Co  Co129  1  0.21631644  0.26369067  0.09873404  1
  Co  Co130  1  0.86626807  0.23201742  0.83967976  1
  Co  Co131  1  0.83064387  0.38089448  0.42861595  1
  Co  Co132  1  0.55664183  0.24106627  0.06023382  1
  Co  Co133  1  0.43177467  0.08943408  0.44219433  1
  Co  Co134  1  0.74296095  0.08680735  0.76348110  1
  Co  Co135  1  0.64071919  0.17415715  0.66886252  1
  Co  Co136  1  0.26742490  0.51203226  0.10710713  1
  Co  Co137  1  0.83411489  0.91864069  0.86303036  1
  Co  Co138  1  0.77869217  0.25428637  0.71452258  1
  Co  Co139  1  0.11690161  0.94499129  0.68174347  1
  Co  Co140  1  0.45361902  0.09784647  0.10872065  1
  Co  Co141  1  0.20969511  0.49736465  0.25341125  1
  Co  Co142  1  0.39908080  0.88998321  0.71415476  1
  Co  Co143  1  0.39348681  0.64915470  0.57755703  1
  Co  Co144  1  0.02401434  0.44744045  0.01012470  1
  Co  Co145  1  0.50291792  0.94538926  0.44619627  1
  Co  Co146  1  0.13272095  0.31797903  0.96798707  1
  Co  Co147  1  0.97047817  0.94135673  0.76957262  1
  Co  Co148  1  0.32319195  0.46113144  0.37468573  1
  Co  Co149  1  0.36589296  0.67727445  0.10962926  1
  Co  Co150  1  0.36665826  0.70326888  0.41612919  1
  Co  Co151  1  0.10679905  0.93590557  0.84247962  1
  Co  Co152  1  0.72071024  0.82600533  0.63601472  1
  Co  Co153  1  0.93591934  0.78951479  0.24293398  1
  Co  Co154  1  0.39884912  0.64008957  0.91958094  1
  Co  Co155  1  0.35904676  0.51031292  0.65651620  1
  Co  Co156  1  0.50956706  0.44665382  0.74148606  1
  Co  Co157  1  0.71063610  0.93671117  0.75005254  1
  Co  Co158  1  0.70503164  0.41428519  0.06170642  1
  Co  Co159  1  0.05687701  0.05556144  0.38791479  1
  Co  Co160  1  0.09545281  0.80026456  0.19747740  1
  Co  Co161  1  0.21071418  0.62713956  0.66169690  1
  Ni  Ni162  1  0.92971148  0.07192676  0.27723730  1
  Ni  Ni163  1  0.87587737  0.82126256  0.40773363  1
  Ni  Ni164  1  0.87499640  1.01084906  -0.00327728  1
  Ni  Ni165  1  0.23148851  0.05389168  0.35196188  1
  Ni  Ni166  1  0.73933839  0.20649182  0.21671124  1
  Ni  Ni167  1  0.05390995  0.49432875  0.28038058  1
  Ni  Ni168  1  0.56328441  0.12791860  0.52996129  1
  Ni  Ni169  1  0.69002682  0.52471783  0.76488154  1
  Ni  Ni170  1  0.41977503  0.25338006  0.18378894  1
  Ni  Ni171  1  0.61880527  0.54005142  0.44536443  1
  Ni  Ni172  1  0.30915619  0.11046649  0.54401259  1
  Ni  Ni173  1  0.55308602  0.72825466  0.90321876  1
  Ni  Ni174  1  0.82697049  0.76743669  0.13503216  1
  Ni  Ni175  1  0.59210497  0.82788704  0.54779882  1
  Ni  Ni176  1  0.48842476  0.56502173  0.18078461  1
  Ni  Ni177  1  0.70032754  0.07704980  0.03469365  1
  Ni  Ni178  1  0.91025553  0.26083082  0.49926437  1
  Ni  Ni179  1  0.01279044  0.68481099  0.85720735  1
  Ni  Ni180  1  0.59332010  0.85505342  0.01007029  1
  Ni  Ni181  1  0.25125742  0.80166208  0.11129422  1
  Ni  Ni182  1  0.94596293  0.59026422  0.46682692  1
  Ni  Ni183  1  0.20537509  0.03222640  0.07608094  1
  Ni  Ni184  1  0.68066502  0.65153713  0.57053864  1
  Ni  Ni185  1  1.00772705  0.42183276  0.66249594  1
  Ni  Ni186  1  0.27985491  0.75846398  0.89497027  1
  Ni  Ni187  1  0.73345806  0.06678685  0.46962411  1
  Ni  Ni188  1  0.61037774  0.24537369  0.43474608  1
  Ni  Ni189  1  0.39497037  0.04202804  0.76699314  1
  Ni  Ni190  1  0.59774039  0.87577939  0.28346805  1
  Ni  Ni191  1  0.91912962  0.05855071  0.47463557  1
  Ni  Ni192  1  0.56010663  0.69443637  0.24501933  1
  Ni  Ni193  1  0.07434314  0.35953698  0.79601676  1
  Ni  Ni194  1  0.07666327  0.30658039  0.49749923  1
  Ni  Ni195  1  0.56450315  0.30707014  0.57840610  1
  Ni  Ni196  1  0.31415619  0.18004177  0.69792549  1
  Ni  Ni197  1  0.68627642  0.97444080  0.18603492  1
  Ni  Ni198  1  0.15614472  0.91063461  0.36866826  1
  Ni  Ni199  1  0.35445883  0.19764733  1.02994805  1
  Ni  Ni200  1  0.76865754  0.35087299  0.87954923  1
  Ni  Ni201  1  0.73116719  0.77028243  0.47130325  1
  Ni  Ni202  1  0.13666427  0.28512349  0.64758466  1
  Ni  Ni203  1  0.34327245  0.91735703  0.87835835  1
  Ni  Ni204  1  0.73770352  0.49033057  0.33376110  1
  Ni  Ni205  1  0.58189270  0.46599471  0.29803073  1
  Ni  Ni206  1  0.09633322  0.75783432  0.04219599  1
  Ni  Ni207  1  0.34548397  0.29692686  0.36533569  1
  Ni  Ni208  1  0.99421162  0.34431093  0.22393538  1
  Ni  Ni209  1  0.90069585  0.20335470  0.16534531  1
  Ni  Ni210  1  0.43252957  0.83197813  0.56015803  1
  Ni  Ni211  1  0.56472887  0.07465342  0.77530528  1
  Ni  Ni212  1  0.87519353  0.17218918  0.98911804  1
  Ni  Ni213  1  0.29930520  0.34195201  0.89796561  1
  Ni  Ni214  1  0.76033432  0.67967552  0.71433149  1
  Ni  Ni215  1  0.07171136  0.59895398  0.98334400  1
