# generated using pymatgen
data_Ti2CoNi
_symmetry_space_group_name_H-M   'P 1'
_cell_length_a   14.47577451
_cell_length_b   14.49345227
_cell_length_c   14.51886484
_cell_angle_alpha   89.83450140
_cell_angle_beta   89.68704717
_cell_angle_gamma   89.98667982
_symmetry_Int_Tables_number   1
_chemical_formula_structural   Ti2CoNi
_chemical_formula_sum   'Ti108 Co54 Ni54'
_cell_volume   3046.05693121
_cell_formula_units_Z   54
loop_
 _symmetry_equiv_pos_site_id
 _symmetry_equiv_pos_as_xyz
  1  'x, y, z'
loop_
 _atom_site_type_symbol
 _atom_site_label
 _atom_site_symmetry_multiplicity
 _atom_site_fract_x
 _atom_site_fract_y
 _atom_site_fract_z
 _atom_site_occupancy
  Ti  Ti0  1  -0.00329138  0.04913199  0.00280587  1
  Ti  Ti1  1  -0.00837397  -0.02582575  0.34712124  1
  Ti  Ti2  1  0.05877721  0.03210299  0.67467978  1
  Ti  Ti3  1  -0.03862602  0.31431453  -0.02081223  1
  Ti  Ti4  1  0.00837931  0.23626982  0.33406425  1
  Ti  Ti5  1  0.05501355  0.29125419  0.68334968  1
  Ti  Ti6  1  0.02708270  0.62980276  -0.03138891  1
  Ti  Ti7  1  -0.01502362  0.70374759  0.35828087  1
  Ti  Ti8  1  0.00973325  0.58162469  0.61336805  1
  Ti  Ti9  1  0.32860595  -0.04550147  0.04915923  1
  Ti  Ti10  1  0.26748835  0.01773982  0.30474662  1
  Ti  Ti11  1  0.26943398  0.05672911  0.75948499  1
  Ti  Ti12  1  0.26883687  0.38882131  -0.01220714  1
  Ti  Ti13  1  0.36272931  0.31329960  0.31994876  1
  Ti  Ti14  1  0.33575678  0.30325255  0.64088993  1
  Ti  Ti15  1  0.33494022  0.67234706  0.02060785  1
  Ti  Ti16  1  0.30351834  0.70776235  0.38415230  1
  Ti  Ti17  1  0.37410490  0.69140237  0.59558619  1
  Ti  Ti18  1  0.60911163  0.00752703  0.03372559  1
  Ti  Ti19  1  0.69755928  -0.00638002  0.31002707  1
  Ti  Ti20  1  0.68503245  -0.01495218  0.64893056  1
  Ti  Ti21  1  0.66112380  0.36992441  -0.02051782  1
  Ti  Ti22  1  0.62228141  0.31962292  0.30537152  1
  Ti  Ti23  1  0.64978053  0.31664908  0.75108713  1
  Ti  Ti24  1  0.62910543  0.69135811  0.05167375  1
  Ti  Ti25  1  0.72561126  0.72240664  0.40679366  1
  Ti  Ti26  1  0.67160350  0.65090279  0.63110710  1
  Ti  Ti27  1  -0.02351713  0.10019036  0.18240972  1
  Ti  Ti28  1  -0.14099633  0.23034286  0.47190767  1
  Ti  Ti29  1  0.08836263  0.17215813  0.83438643  1
  Ti  Ti30  1  0.03795928  0.54576331  0.14836504  1
  Ti  Ti31  1  -0.01903150  0.38387104  0.51406191  1
  Ti  Ti32  1  -0.08207371  0.49327352  0.81654416  1
  Ti  Ti33  1  0.00279254  0.86042711  0.20246178  1
  Ti  Ti34  1  0.03597037  0.79064998  0.53855113  1
  Ti  Ti35  1  -0.00176425  0.85849148  0.77331587  1
  Ti  Ti36  1  0.33899799  0.23984156  0.13233448  1
  Ti  Ti37  1  0.32636312  0.07108968  0.53318270  1
  Ti  Ti38  1  0.39813415  0.20979227  0.80182043  1
  Ti  Ti39  1  0.33472125  0.49869112  0.16041656  1
  Ti  Ti40  1  0.32799043  0.50917734  0.56711576  1
  Ti  Ti41  1  0.40625794  0.52828932  0.84273328  1
  Ti  Ti42  1  0.33383838  0.84022413  0.18296962  1
  Ti  Ti43  1  0.27059358  0.84391517  0.51929905  1
  Ti  Ti44  1  0.34476958  0.87627177  0.86070632  1
  Ti  Ti45  1  0.73998499  0.22438233  0.12234409  1
  Ti  Ti46  1  0.68539023  0.12057768  0.46782785  1
  Ti  Ti47  1  0.72760810  0.17598963  0.83215602  1
  Ti  Ti48  1  0.74481171  0.49683048  0.12425794  1
  Ti  Ti49  1  0.60670913  0.46093795  0.44205603  1
  Ti  Ti50  1  0.69468692  0.56272207  0.81418802  1
  Ti  Ti51  1  0.59998415  0.84101181  0.14698893  1
  Ti  Ti52  1  0.59532314  0.87202664  0.47991721  1
  Ti  Ti53  1  0.75478394  0.84433482  0.83215613  1
  Ti  Ti54  1  0.17554559  0.05833392  0.12869764  1
  Ti  Ti55  1  0.15103349  -0.02286677  0.48481313  1
  Ti  Ti56  1  0.16956024  0.01142528  0.93051395  1
  Ti  Ti57  1  0.15583406  0.37563592  0.24299957  1
  Ti  Ti58  1  0.25015099  0.36230520  0.45276131  1
  Ti  Ti59  1  0.18693896  0.36458325  0.80538201  1
  Ti  Ti60  1  0.14579915  0.69812889  0.10178573  1
  Ti  Ti61  1  0.15981744  0.67004038  0.48160856  1
  Ti  Ti62  1  0.13227471  0.65499036  0.79113520  1
  Ti  Ti63  1  0.53070161  0.08137576  0.18094979  1
  Ti  Ti64  1  0.52253699  0.03144967  0.55702172  1
  Ti  Ti65  1  0.49959968  -0.00842006  0.76928124  1
  Ti  Ti66  1  0.53729771  0.25180546  0.08227774  1
  Ti  Ti67  1  0.45980808  0.37245201  0.50161747  1
  Ti  Ti68  1  0.49097232  0.33840678  0.90118928  1
  Ti  Ti69  1  0.45503801  0.69494703  0.18420358  1
  Ti  Ti70  1  0.46851486  0.64325135  0.40813218  1
  Ti  Ti71  1  0.51958764  0.65949924  0.91263975  1
  Ti  Ti72  1  0.78498477  -0.12661267  0.16020555  1
  Ti  Ti73  1  0.87781681  0.05513128  0.56742250  1
  Ti  Ti74  1  0.83993698  0.01990754  0.85458225  1
  Ti  Ti75  1  0.93542835  0.34463061  0.17560707  1
  Ti  Ti76  1  0.76354955  0.41391366  0.57882834  1
  Ti  Ti77  1  0.89644269  0.29848374  0.81337751  1
  Ti  Ti78  1  0.73851418  0.68034580  0.21332289  1
  Ti  Ti79  1  0.86423303  0.67633779  0.50380307  1
  Ti  Ti80  1  0.83399305  0.66826367  0.91931704  1
  Ti  Ti81  1  0.23775044  0.17749777  -0.04214697  1
  Ti  Ti82  1  0.13093775  0.11763608  0.34305767  1
  Ti  Ti83  1  0.17916965  0.16644824  0.58633109  1
  Ti  Ti84  1  0.09959390  0.47109845  -0.04182787  1
  Ti  Ti85  1  0.13544409  0.56330194  0.31204224  1
  Ti  Ti86  1  0.20889319  0.50461175  0.69308977  1
  Ti  Ti87  1  0.18379203  0.81668101  -0.04161599  1
  Ti  Ti88  1  0.16934178  0.75495360  0.27201111  1
  Ti  Ti89  1  0.26296707  0.80568942  0.71176682  1
  Ti  Ti90  1  0.44771389  0.09362492  0.01002957  1
  Ti  Ti91  1  0.43228172  0.12698834  0.35678159  1
  Ti  Ti92  1  0.53288045  0.21392886  0.59667091  1
  Ti  Ti93  1  0.53459294  0.50833709  0.04583578  1
  Ti  Ti94  1  0.50771232  0.48343259  0.27007051  1
  Ti  Ti95  1  0.47979234  0.40671143  0.70519435  1
  Ti  Ti96  1  0.57939436  0.84564347  -0.10385580  1
  Ti  Ti97  1  0.48679714  0.84725771  0.32342501  1
  Ti  Ti98  1  0.49727464  0.80189332  0.70597092  1
  Ti  Ti99  1  0.81020280  0.04428474  0.04203694  1
  Ti  Ti100  1  0.82266562  0.19786603  0.28218326  1
  Ti  Ti101  1  0.84133276  0.23841625  0.65426964  1
  Ti  Ti102  1  0.89935738  0.51081262  0.01886478  1
  Ti  Ti103  1  0.84928907  0.51016105  0.38281372  1
  Ti  Ti104  1  0.83485171  0.56556325  0.66151827  1
  Ti  Ti105  1  0.89582566  0.84718513  -0.04705686  1
  Ti  Ti106  1  0.85193652  0.87817020  0.41361742  1
  Ti  Ti107  1  0.83597685  0.84991680  0.60756161  1
  Co  Co108  1  0.94742751  0.64441617  0.79821594  1
  Co  Co109  1  0.25560443  0.55033865  0.42759271  1
  Co  Co110  1  0.28350819  0.45430449  0.31036141  1
  Co  Co111  1  0.94793987  0.14292247  0.73462649  1
  Co  Co112  1  0.40843711  0.48711910  0.41722122  1
  Co  Co113  1  0.03847048  0.73473464  0.69699638  1
  Co  Co114  1  0.70903807  0.79133290  0.55438737  1
  Co  Co115  1  0.68268379  0.84310574  0.31193532  1
  Co  Co116  1  0.77007226  0.76156175  0.03665552  1
  Co  Co117  1  0.60731330  0.58437147  0.18816041  1
  Co  Co118  1  0.04825151  0.90451217  0.93097714  1
  Co  Co119  1  0.55534735  1.01528227  0.39647053  1
  Co  Co120  1  0.42425685  0.98445036  0.28682644  1
  Co  Co121  1  0.91321757  0.15060594  0.90147539  1
  Co  Co122  1  0.92736164  0.94359777  0.09718730  1
  Co  Co123  1  0.46586255  0.93134138  0.13426501  1
  Co  Co124  1  0.00403236  0.02762686  0.83071522  1
  Co  Co125  1  0.17483748  0.67795740  0.63072413  1
  Co  Co126  1  1.00947136  0.56168351  0.44149411  1
  Co  Co127  1  0.75972745  0.36357895  0.40049771  1
  Co  Co128  1  0.99184631  0.46952628  0.28559593  1
  Co  Co129  1  0.68484561  0.17992640  0.64362634  1
  Co  Co130  1  0.61784942  0.04391397  0.86949244  1
  Co  Co131  1  0.90066452  0.70981091  0.64765739  1
  Co  Co132  1  0.90486496  0.19308780  0.08131396  1
  Co  Co133  1  0.19181279  0.27096750  0.08614262  1
  Co  Co134  1  0.40673418  0.10891663  0.68004893  1
  Co  Co135  1  -0.00615940  0.69801916  0.19691338  1
  Co  Co136  1  0.21743244  -0.01624418  0.63714538  1
  Co  Co137  1  0.39339578  -0.03911192  0.44598041  1
  Co  Co138  1  0.12787950  0.85079647  0.64689791  1
  Co  Co139  1  0.67811928  0.28076389  0.50545899  1
  Co  Co140  1  0.86470307  0.64657925  0.09383790  1
  Co  Co141  1  0.72419632  0.96009132  0.48773423  1
  Co  Co142  1  0.08000981  0.17171400  0.01684744  1
  Co  Co143  1  0.90421082  0.35389518  0.34528689  1
  Co  Co144  1  0.82318372  0.36735052  0.07002817  1
  Co  Co145  1  0.28117930  0.67114429  0.18382287  1
  Co  Co146  1  0.06565031  0.44670914  0.66504132  1
  Co  Co147  1  0.02241587  0.80043314  0.05581325  1
  Co  Co148  1  0.79126423  0.08870454  0.71654427  1
  Co  Co149  1  1.02140973  0.75287229  0.89255970  1
  Co  Co150  1  0.61695808  0.60864248  0.38643763  1
  Co  Co151  1  0.24054210  0.53469263  0.86555537  1
  Co  Co152  1  0.13607929  0.51625539  0.53346252  1
  Co  Co153  1  0.34326607  0.38383894  0.79740332  1
  Co  Co154  1  0.22804302  0.21001402  0.24968846  1
  Co  Co155  1  0.16654508  0.35466680  0.58489037  1
  Co  Co156  1  0.36051878  0.52049946  0.99873799  1
  Co  Co157  1  0.59696936  0.38776820  0.15063728  1
  Co  Co158  1  0.99886548  0.17893968  0.59103086  1
  Co  Co159  1  0.36372521  0.58801587  0.29247274  1
  Co  Co160  1  0.09041457  0.39234714  0.39660459  1
  Co  Co161  1  0.79250881  0.70452287  0.75978463  1
  Ni  Ni162  1  0.58875231  0.71790618  0.27771044  1
  Ni  Ni163  1  0.56994624  0.48172633  0.87434802  1
  Ni  Ni164  1  0.88237756  0.95470426  0.71394605  1
  Ni  Ni165  1  0.55901395  0.17709887  0.77123416  1
  Ni  Ni166  1  0.85364210  0.77905219  0.27571387  1
  Ni  Ni167  1  0.38958238  0.93887031  0.64762674  1
  Ni  Ni168  1  0.78429041  0.24978307  0.96341154  1
  Ni  Ni169  1  0.69158357  0.55190937  0.97979764  1
  Ni  Ni170  1  0.13766768  0.93623377  0.26923497  1
  Ni  Ni171  1  0.62616554  0.17539527  -0.03102666  1
  Ni  Ni172  1  0.07057781  0.22541805  0.17455994  1
  Ni  Ni173  1  0.26250122  0.70085910  0.87711637  1
  Ni  Ni174  1  0.80745603  0.41957509  0.92164260  1
  Ni  Ni175  1  0.45740531  0.79008640  0.02801758  1
  Ni  Ni176  1  0.33331651  0.07864656  0.16452285  1
  Ni  Ni177  1  0.43456761  0.81293593  0.48675935  1
  Ni  Ni178  1  0.01223903  0.09735894  0.46404090  1
  Ni  Ni179  1  0.29630043  0.86829719  0.34526215  1
  Ni  Ni180  1  0.07659368  0.50563078  0.80688109  1
  Ni  Ni181  1  0.11294134  0.83019414  0.40147070  1
  Ni  Ni182  1  0.73166230  0.55490181  0.50173828  1
  Ni  Ni183  1  0.83443940  0.06527163  0.40512181  1
  Ni  Ni184  1  0.98127444  0.93680991  0.51285185  1
  Ni  Ni185  1  0.54612282  0.71757186  0.55613840  1
  Ni  Ni186  1  0.23431764  0.21993073  0.73812538  1
  Ni  Ni187  1  0.10425589  0.25080132  0.46992833  1
  Ni  Ni188  1  0.63169782  0.71551716  0.80431282  1
  Ni  Ni189  1  0.46693498  0.94676184  0.94298314  1
  Ni  Ni190  1  0.64924203  0.84383062  0.70709978  1
  Ni  Ni191  1  0.30943010  0.62824750  0.73089325  1
  Ni  Ni192  1  0.85949639  0.01267004  0.24035593  1
  Ni  Ni193  1  0.71488351  0.06685378  0.16956644  1
  Ni  Ni194  1  0.19469114  0.52854335  0.08534614  1
  Ni  Ni195  1  0.49241158  0.24091573  0.24458530  1
  Ni  Ni196  1  0.15616409  0.91497158  0.79912781  1
  Ni  Ni197  1  0.60055272  0.38512364  0.59980872  1
  Ni  Ni198  1  0.70199590  0.49582393  0.29562799  1
  Ni  Ni199  1  0.42783045  0.38075074  0.08397626  1
  Ni  Ni200  1  0.77776190  0.41946138  0.76385715  1
  Ni  Ni201  1  0.38822211  0.24776144  0.97628690  1
  Ni  Ni202  1  0.18531119  0.88428551  0.11605725  1
  Ni  Ni203  1  0.76001279  0.35124363  0.22652152  1
  Ni  Ni204  1  0.38431049  0.23007300  0.49195631  1
  Ni  Ni205  1  0.63976166  0.15199262  0.30683470  1
  Ni  Ni206  1  0.34198791  0.05918561  0.89830211  1
  Ni  Ni207  1  0.40933394  0.72474287  0.81955017  1
  Ni  Ni208  1  0.11754325  0.30565864  0.93993269  1
  Ni  Ni209  1  0.26082288  0.18779730  0.41102198  1
  Ni  Ni210  1  0.50795006  0.54180194  0.57285403  1
  Ni  Ni211  1  0.71712379  0.91020281  0.97827286  1
  Ni  Ni212  1  0.91002324  0.40105010  0.66915387  1
  Ni  Ni213  1  0.53802810  0.23321246  0.41301472  1
  Ni  Ni214  1  0.53100154  0.58189871  0.72810419  1
  Ni  Ni215  1  0.07905101  0.38527413  0.09251461  1
