# generated using pymatgen
data_Ti2CoNi
_symmetry_space_group_name_H-M   'P 1'
_cell_length_a   14.46807979
_cell_length_b   14.46490559
_cell_length_c   14.53795792
_cell_angle_alpha   90.06643063
_cell_angle_beta   89.83462527
_cell_angle_gamma   90.07653545
_symmetry_Int_Tables_number   1
_chemical_formula_structural   Ti2CoNi
_chemical_formula_sum   'Ti108 Co54 Ni54'
_cell_volume   3042.47781229
_cell_formula_units_Z   54
loop_
 _symmetry_equiv_pos_site_id
 _symmetry_equiv_pos_as_xyz
  1  'x, y, z'
loop_
 _atom_site_type_symbol
 _atom_site_label
 _atom_site_symmetry_multiplicity
 _atom_site_fract_x
 _atom_site_fract_y
 _atom_site_fract_z
 _atom_site_occupancy
  Ti  Ti0  1  -0.04087765  0.01200828  0.04049801  1
  Ti  Ti1  1  -0.00073401  -0.00044768  0.42751650  1
  Ti  Ti2  1  -0.03035007  0.00578095  0.60906323  1
  Ti  Ti3  1  0.04824182  0.38954846  -0.04705297  1
  Ti  Ti4  1  -0.02675416  0.27559493  0.41332299  1
  Ti  Ti5  1  0.06296626  0.40351725  0.69724393  1
  Ti  Ti6  1  0.01734826  0.71037936  0.01415960  1
  Ti  Ti7  1  0.05765984  0.68005726  0.26637457  1
  Ti  Ti8  1  -0.00266988  0.62388758  0.62029852  1
  Ti  Ti9  1  0.33142166  -0.01368019  0.04281208  1
  Ti  Ti10  1  0.31489770  0.01244881  0.37400380  1
  Ti  Ti11  1  0.33848607  -0.04876917  0.61492067  1
  Ti  Ti12  1  0.32292427  0.28523107  -0.00521319  1
  Ti  Ti13  1  0.24016726  0.36303392  0.37395198  1
  Ti  Ti14  1  0.24290616  0.27301936  0.66283587  1
  Ti  Ti15  1  0.31812735  0.61125701  0.00737116  1
  Ti  Ti16  1  0.32584507  0.67107254  0.37724171  1
  Ti  Ti17  1  0.35052950  0.73204514  0.74019084  1
  Ti  Ti18  1  0.65675417  0.12325994  -0.00417823  1
  Ti  Ti19  1  0.69952444  -0.02992308  0.27831513  1
  Ti  Ti20  1  0.63651746  -0.02726101  0.64812836  1
  Ti  Ti21  1  0.63927533  0.36173013  -0.07633661  1
  Ti  Ti22  1  0.65737507  0.31394708  0.39760504  1
  Ti  Ti23  1  0.65284427  0.34056544  0.59347036  1
  Ti  Ti24  1  0.57819543  0.70712070  0.00975468  1
  Ti  Ti25  1  0.67769074  0.72948490  0.30161060  1
  Ti  Ti26  1  0.70862757  0.68426037  0.58150103  1
  Ti  Ti27  1  -0.01468919  0.18938857  0.13102477  1
  Ti  Ti28  1  0.09278408  0.15744133  0.56022443  1
  Ti  Ti29  1  -0.02480836  0.26590941  0.85043969  1
  Ti  Ti30  1  -0.00845472  0.51601195  0.08876518  1
  Ti  Ti31  1  0.00043879  0.48395008  0.50142155  1
  Ti  Ti32  1  -0.01950174  0.55766277  0.89602695  1
  Ti  Ti33  1  0.01255344  0.88659273  0.21724286  1
  Ti  Ti34  1  -0.11013773  0.82746702  0.48885643  1
  Ti  Ti35  1  0.05185920  0.80190902  0.82545812  1
  Ti  Ti36  1  0.40406241  0.11376304  0.22833949  1
  Ti  Ti37  1  0.28314785  0.18414319  0.49013762  1
  Ti  Ti38  1  0.37279924  0.09113972  0.78160506  1
  Ti  Ti39  1  0.37170592  0.46010928  0.27804088  1
  Ti  Ti40  1  0.34696432  0.48964881  0.47398040  1
  Ti  Ti41  1  0.34985654  0.46236169  0.89910959  1
  Ti  Ti42  1  0.28398133  0.81558156  0.10354655  1
  Ti  Ti43  1  0.42051535  0.75358001  0.51524203  1
  Ti  Ti44  1  0.25698930  0.80920029  0.89297077  1
  Ti  Ti45  1  0.64377105  0.12370133  0.18799411  1
  Ti  Ti46  1  0.72820641  0.14525570  0.55139201  1
  Ti  Ti47  1  0.67247930  0.12410806  0.74929427  1
  Ti  Ti48  1  0.60849114  0.57682495  0.16194572  1
  Ti  Ti49  1  0.69388685  0.50731453  0.42561854  1
  Ti  Ti50  1  0.67937805  0.48448130  0.75656764  1
  Ti  Ti51  1  0.74381443  0.82673750  0.14710780  1
  Ti  Ti52  1  0.63889575  0.85614068  0.49860937  1
  Ti  Ti53  1  0.69999028  0.75463231  0.76891976  1
  Ti  Ti54  1  0.21025192  0.08036726  0.21292184  1
  Ti  Ti55  1  0.17065570  -0.01773266  0.52751330  1
  Ti  Ti56  1  0.16887337  -0.01333406  0.85693932  1
  Ti  Ti57  1  0.24761518  0.27772649  0.16977139  1
  Ti  Ti58  1  0.14774684  0.35449252  0.53338123  1
  Ti  Ti59  1  0.19716191  0.42986232  0.80803968  1
  Ti  Ti60  1  0.17662769  0.60779996  0.13472657  1
  Ti  Ti61  1  0.12667469  0.73296148  0.52470440  1
  Ti  Ti62  1  0.16629757  0.65285818  0.84843562  1
  Ti  Ti63  1  0.48595177  -0.04792760  0.20128222  1
  Ti  Ti64  1  0.48949255  0.05140239  0.49953993  1
  Ti  Ti65  1  0.56647323  0.01105233  0.86822268  1
  Ti  Ti66  1  0.55616686  0.39053552  0.18082609  1
  Ti  Ti67  1  0.46160987  0.27639285  0.54396421  1
  Ti  Ti68  1  0.46592495  0.32684717  0.88987319  1
  Ti  Ti69  1  0.43007169  0.69763411  0.22155651  1
  Ti  Ti70  1  0.53908400  0.59035819  0.50207523  1
  Ti  Ti71  1  0.53666626  0.65545095  0.78881303  1
  Ti  Ti72  1  0.79086337  0.02419714  0.07754877  1
  Ti  Ti73  1  0.83602478  0.07054856  0.38977731  1
  Ti  Ti74  1  0.82349022  -0.02326782  0.87425124  1
  Ti  Ti75  1  0.79279619  0.38145160  0.13200414  1
  Ti  Ti76  1  0.82837977  0.39664894  0.48267720  1
  Ti  Ti77  1  0.80497769  0.35451811  0.82784987  1
  Ti  Ti78  1  0.84095039  0.58521369  0.15859238  1
  Ti  Ti79  1  0.83596225  0.59117659  0.46886844  1
  Ti  Ti80  1  0.83874207  0.65342962  0.81887172  1
  Ti  Ti81  1  0.14827808  0.17971365  0.03884823  1
  Ti  Ti82  1  0.04888649  0.12725868  0.29893888  1
  Ti  Ti83  1  0.14589237  0.18163427  0.79201573  1
  Ti  Ti84  1  0.21949251  0.43360884  0.04410772  1
  Ti  Ti85  1  0.15687099  0.55727345  0.36989585  1
  Ti  Ti86  1  0.23061648  0.59902174  0.69139713  1
  Ti  Ti87  1  0.10225009  0.87386342  -0.01959473  1
  Ti  Ti88  1  0.19547316  0.81917138  0.33182830  1
  Ti  Ti89  1  0.12815623  0.90914334  0.68024287  1
  Ti  Ti90  1  0.48293519  0.23662156  0.07283024  1
  Ti  Ti91  1  0.53241046  0.22497855  0.30066537  1
  Ti  Ti92  1  0.48403484  0.23599610  0.72955965  1
  Ti  Ti93  1  0.51009507  0.48544448  0.01154516  1
  Ti  Ti94  1  0.51772992  0.42182001  0.34722480  1
  Ti  Ti95  1  0.44630981  0.47938338  0.67912949  1
  Ti  Ti96  1  0.50931970  0.88831978  0.01337537  1
  Ti  Ti97  1  0.41191787  0.83174849  0.32889656  1
  Ti  Ti98  1  0.49894029  0.86525839  0.73318913  1
  Ti  Ti99  1  0.86573366  0.20475321  -0.01032057  1
  Ti  Ti100  1  0.85694439  0.21939105  0.26233566  1
  Ti  Ti101  1  0.88333419  0.14100230  0.70934206  1
  Ti  Ti102  1  0.75468827  0.53845809  -0.02724100  1
  Ti  Ti103  1  0.92563084  0.52056367  0.31956204  1
  Ti  Ti104  1  0.86110023  0.46936431  0.65203429  1
  Ti  Ti105  1  0.74062533  0.78634173  -0.04758871  1
  Ti  Ti106  1  0.87694197  0.73712779  0.30919985  1
  Ti  Ti107  1  0.81659641  0.84072822  0.66052205  1
  Co  Co108  1  0.18666288  0.72687066  1.01376606  1
  Co  Co109  1  0.98102738  0.33299239  0.55375307  1
  Co  Co110  1  0.68577456  0.45087058  0.27092816  1
  Co  Co111  1  0.07735965  0.41030653  0.37251472  1
  Co  Co112  1  0.12641707  0.23565458  0.40848005  1
  Co  Co113  1  0.05967445  0.87829715  0.50751095  1
  Co  Co114  1  0.31601107  0.61228055  0.83478149  1
  Co  Co115  1  0.91403546  0.13421218  0.51412847  1
  Co  Co116  1  0.91028564  0.75136684  0.15078033  1
  Co  Co117  1  0.27551481  0.20606549  0.32993593  1
  Co  Co118  1  0.31419041  0.14276310  0.08197904  1
  Co  Co119  1  0.13342360  0.95420065  0.34843146  1
  Co  Co120  1  0.58623516  0.82936815  0.88302341  1
  Co  Co121  1  0.52365403  0.72436805  0.37111429  1
  Co  Co122  1  0.31493443  0.23365791  0.84035690  1
  Co  Co123  1  0.82566921  0.26831231  0.57574017  1
  Co  Co124  1  0.86181608  0.90793885  0.17059065  1
  Co  Co125  1  0.09693576  0.32940318  0.11206207  1
  Co  Co126  1  0.90093168  0.10507348  0.86554703  1
  Co  Co127  1  0.41921949  0.15479309  0.38891421  1
  Co  Co128  1  0.59723272  0.57395375  0.32187712  1
  Co  Co129  1  0.03740938  0.81951798  0.37054711  1
  Co  Co130  1  0.17305925  0.08349687  0.40726313  1
  Co  Co131  1  0.93081377  0.33749169  0.07749461  1
  Co  Co132  1  0.68256592  0.12460430  0.34731125  1
  Co  Co133  1  0.44465510  0.57814455  0.35176505  1
  Co  Co134  1  0.90486605  0.32280833  0.69817742  1
  Co  Co135  1  0.32390346  0.94247267  0.21265851  1
  Co  Co136  1  0.05272703  0.49410236  0.23106460  1
  Co  Co137  1  0.74731956  0.19977710  0.85907429  1
  Co  Co138  1  0.69360584  0.94875814  0.96813030  1
  Co  Co139  1  0.92203184  0.93063578  0.74668529  1
  Co  Co140  1  0.10562574  0.27393085  0.26169582  1
  Co  Co141  1  0.41282351  0.13346696  0.93513929  1
  Co  Co142  1  0.38117250  0.61028744  0.60113482  1
  Co  Co143  1  0.73855136  0.27517376  0.70435096  1
  Co  Co144  1  0.97333915  0.35179410  0.23203401  1
  Co  Co145  1  0.61256323  0.32210540  0.77940720  1
  Co  Co146  1  0.58463562  0.17933528  0.46011759  1
  Co  Co147  1  0.81341351  0.36559336  0.32274103  1
  Co  Co148  1  0.70055630  0.91453392  0.80327650  1
  Co  Co149  1  0.20401445  0.43870115  0.21767902  1
  Co  Co150  1  0.25157779  0.10457980  0.92302321  1
  Co  Co151  1  0.12359835  0.77968941  0.15639289  1
  Co  Co152  1  0.02612077  0.22683154  0.68754794  1
  Co  Co153  1  0.68524636  0.27995054  0.23494141  1
  Co  Co154  1  0.18411389  0.31114843  0.92057332  1
  Co  Co155  1  0.65159679  0.27164206  0.05675429  1
  Co  Co156  1  0.04213692  0.05020859  0.74875927  1
  Co  Co157  1  -0.00287166  0.94724219  0.88327976  1
  Co  Co158  1  0.06765248  0.55214726  0.76585762  1
  Co  Co159  1  0.77726243  0.61222907  0.30111961  1
  Co  Co160  1  0.56329091  0.18211887  0.87422521  1
  Co  Co161  1  0.12932367  0.52859113  0.57871022  1
  Ni  Ni162  1  0.46558765  0.60452442  0.08916865  1
  Ni  Ni163  1  0.16081969  0.92511125  0.12782801  1
  Ni  Ni164  1  0.53624636  0.73012874  0.62723525  1
  Ni  Ni165  1  0.37762169  0.13887706  0.62173155  1
  Ni  Ni166  1  0.84561063  0.89969832  0.32335033  1
  Ni  Ni167  1  0.88818124  0.81847960  0.86417115  1
  Ni  Ni168  1  0.71879399  0.51317773  0.58998240  1
  Ni  Ni169  1  0.66740848  0.46055153  0.07472681  1
  Ni  Ni170  1  0.99750500  0.65077766  0.42554160  1
  Ni  Ni171  1  0.41453794  0.75230360  0.05141217  1
  Ni  Ni172  1  0.58965420  0.87431667  0.34722775  1
  Ni  Ni173  1  0.36191244  0.35920043  0.75240906  1
  Ni  Ni174  1  0.39100274  0.31338425  0.39969433  1
  Ni  Ni175  1  0.40690472  0.96752355  0.90409356  1
  Ni  Ni176  1  0.91925922  0.04521407  0.22506787  1
  Ni  Ni177  1  0.46796327  0.61821949  0.92299775  1
  Ni  Ni178  1  0.28199530  0.44863201  0.62455594  1
  Ni  Ni179  1  0.05680776  0.09538458  0.93616493  1
  Ni  Ni180  1  0.80393588  0.97775953  0.52332073  1
  Ni  Ni181  1  0.95210769  0.43088894  0.80082875  1
  Ni  Ni182  1  0.10190627  0.71007127  0.69946964  1
  Ni  Ni183  1  0.47673581  0.89178500  0.54647980  1
  Ni  Ni184  1  0.32701887  0.55483342  0.15447024  1
  Ni  Ni185  1  0.31459657  0.88161239  0.75762823  1
  Ni  Ni186  1  0.20575559  0.05434628  0.69029842  1
  Ni  Ni187  1  0.76173107  0.73829649  0.43608584  1
  Ni  Ni188  1  0.50278214  0.06721796  0.04127867  1
  Ni  Ni189  1  0.98295320  0.80355923  0.65534830  1
  Ni  Ni190  1  0.52431126  0.42465369  0.50834114  1
  Ni  Ni191  1  0.62390401  0.95456306  0.11874072  1
  Ni  Ni192  1  0.48233964  0.01862167  0.67139783  1
  Ni  Ni193  1  0.77799983  0.19799344  0.12666572  1
  Ni  Ni194  1  0.24633656  0.79671860  0.62603627  1
  Ni  Ni195  1  0.55942189  0.80061331  0.18013970  1
  Ni  Ni196  1  0.57581294  0.13496320  0.61289005  1
  Ni  Ni197  1  0.72886461  0.66893324  0.08700436  1
  Ni  Ni198  1  0.13594922  0.55616415  0.98519852  1
  Ni  Ni199  1  0.24780142  0.62845690  0.51545890  1
  Ni  Ni200  1  0.25414784  0.70691609  0.22297549  1
  Ni  Ni201  1  0.80049469  0.23087660  0.42088286  1
  Ni  Ni202  1  0.06806880  0.04365793  0.14828492  1
  Ni  Ni203  1  0.79733312  0.01403498  0.67663595  1
  Ni  Ni204  1  0.30230872  0.86220882  0.45906700  1
  Ni  Ni205  1  0.90412746  0.85804408  0.01942353  1
  Ni  Ni206  1  0.87553422  0.66988492  -0.00255586  1
  Ni  Ni207  1  0.42925199  0.79884256  0.86656425  1
  Ni  Ni208  1  0.39153054  0.41119418  0.11093317  1
  Ni  Ni209  1  0.52099989  0.48921363  0.83055664  1
  Ni  Ni210  1  0.87467089  0.43126824  0.96336064  1
  Ni  Ni211  1  0.52949916  0.03936827  0.33297368  1
  Ni  Ni212  1  0.66065212  0.61296319  0.87368714  1
  Ni  Ni213  1  0.84580985  0.65355872  0.66177270  1
  Ni  Ni214  1  0.38469690  0.29718686  0.24250854  1
  Ni  Ni215  1  0.59243346  0.56448395  0.64908011  1
