# generated using pymatgen
data_Ti2CoNi
_symmetry_space_group_name_H-M   'P 1'
_cell_length_a   14.49243299
_cell_length_b   14.44538499
_cell_length_c   14.51266172
_cell_angle_alpha   90.12577299
_cell_angle_beta   90.09566217
_cell_angle_gamma   90.00352217
_symmetry_Int_Tables_number   1
_chemical_formula_structural   Ti2CoNi
_chemical_formula_sum   'Ti108 Co54 Ni54'
_cell_volume   3038.19637934
_cell_formula_units_Z   54
loop_
 _symmetry_equiv_pos_site_id
 _symmetry_equiv_pos_as_xyz
  1  'x, y, z'
loop_
 _atom_site_type_symbol
 _atom_site_label
 _atom_site_symmetry_multiplicity
 _atom_site_fract_x
 _atom_site_fract_y
 _atom_site_fract_z
 _atom_site_occupancy
  Ti  Ti0  1  0.01690048  -0.04890784  0.03846016  1
  Ti  Ti1  1  0.03961590  0.01628640  0.34784262  1
  Ti  Ti2  1  -0.03336301  0.01117605  0.71967622  1
  Ti  Ti3  1  -0.08723194  0.38730258  -0.01059560  1
  Ti  Ti4  1  0.05660935  0.36338719  0.35636525  1
  Ti  Ti5  1  -0.00417265  0.33321169  0.63685384  1
  Ti  Ti6  1  0.03916635  0.68095833  0.00564185  1
  Ti  Ti7  1  -0.04133194  0.70733263  0.33946053  1
  Ti  Ti8  1  -0.02319181  0.65247945  0.64820909  1
  Ti  Ti9  1  0.29335606  0.00889907  -0.05732370  1
  Ti  Ti10  1  0.31235390  -0.04350434  0.22882171  1
  Ti  Ti11  1  0.33013966  -0.04193528  0.75887685  1
  Ti  Ti12  1  0.35950423  0.34615566  -0.00459893  1
  Ti  Ti13  1  0.42672836  0.35994936  0.32821066  1
  Ti  Ti14  1  0.34414715  0.37928990  0.62837618  1
  Ti  Ti15  1  0.35191649  0.66769364  0.05016816  1
  Ti  Ti16  1  0.21712421  0.73758094  0.31570240  1
  Ti  Ti17  1  0.38085370  0.66660683  0.54140149  1
  Ti  Ti18  1  0.69339230  0.02613275  0.08894616  1
  Ti  Ti19  1  0.69999105  0.09161310  0.30348243  1
  Ti  Ti20  1  0.56686038  0.03001744  0.71660516  1
  Ti  Ti21  1  0.71586976  0.30977911  -0.01687616  1
  Ti  Ti22  1  0.67068881  0.32981194  0.29494905  1
  Ti  Ti23  1  0.67634165  0.31615192  0.66947830  1
  Ti  Ti24  1  0.67350489  0.72367005  -0.04372449  1
  Ti  Ti25  1  0.64890992  0.66186317  0.28281589  1
  Ti  Ti26  1  0.68518719  0.67707415  0.60700222  1
  Ti  Ti27  1  -0.04297448  0.16514860  0.25348587  1
  Ti  Ti28  1  -0.01869656  0.15091402  0.56030332  1
  Ti  Ti29  1  -0.01890276  0.16292929  0.84983020  1
  Ti  Ti30  1  0.05993821  0.46203277  0.18065885  1
  Ti  Ti31  1  -0.03585410  0.48307389  0.50574927  1
  Ti  Ti32  1  0.04493802  0.47803248  0.76617364  1
  Ti  Ti33  1  0.04782516  0.85053329  0.23726145  1
  Ti  Ti34  1  -0.03131610  0.94320874  0.51919570  1
  Ti  Ti35  1  0.03054835  0.80322310  0.78751434  1
  Ti  Ti36  1  0.37146261  0.15520559  0.20393072  1
  Ti  Ti37  1  0.33906015  0.07987363  0.46726332  1
  Ti  Ti38  1  0.32990145  0.19849161  0.87933905  1
  Ti  Ti39  1  0.27963048  0.51184992  0.11022170  1
  Ti  Ti40  1  0.46484786  0.47644111  0.48745680  1
  Ti  Ti41  1  0.22749084  0.47996482  0.78371385  1
  Ti  Ti42  1  0.37414850  0.86078656  0.07833697  1
  Ti  Ti43  1  0.37010038  0.85296676  0.46776220  1
  Ti  Ti44  1  0.30802524  0.77928043  0.67289123  1
  Ti  Ti45  1  0.69392845  0.19963954  0.14146961  1
  Ti  Ti46  1  0.66975526  0.25799805  0.45571651  1
  Ti  Ti47  1  0.63775389  0.12752036  0.89667940  1
  Ti  Ti48  1  0.70603433  0.49749318  0.23669310  1
  Ti  Ti49  1  0.62141609  0.46750745  0.57674678  1
  Ti  Ti50  1  0.58559598  0.57287742  0.89620017  1
  Ti  Ti51  1  0.70907247  0.74317072  0.14174713  1
  Ti  Ti52  1  0.67943871  0.82087902  0.51737687  1
  Ti  Ti53  1  0.71358259  0.86437971  0.82438311  1
  Ti  Ti54  1  0.18523036  0.11730873  0.17200925  1
  Ti  Ti55  1  0.24093529  -0.06732225  0.57775441  1
  Ti  Ti56  1  0.18523179  0.09980987  0.77972860  1
  Ti  Ti57  1  0.21845315  0.30246659  0.12399090  1
  Ti  Ti58  1  0.26923255  0.28041178  0.47053445  1
  Ti  Ti59  1  0.14356765  0.29457636  0.78853316  1
  Ti  Ti60  1  0.17028295  0.65633665  0.14563218  1
  Ti  Ti61  1  0.08278434  0.61898264  0.45610334  1
  Ti  Ti62  1  0.21058969  0.67636737  0.85376977  1
  Ti  Ti63  1  0.50845012  -0.03786340  0.22259884  1
  Ti  Ti64  1  0.56318111  -0.02580602  0.53728179  1
  Ti  Ti65  1  0.45833838  0.02390625  0.90089325  1
  Ti  Ti66  1  0.51664444  0.28731092  0.18834579  1
  Ti  Ti67  1  0.47037191  0.28342603  0.50471250  1
  Ti  Ti68  1  0.51921166  0.38829515  0.87778563  1
  Ti  Ti69  1  0.49583438  0.60880633  0.18353652  1
  Ti  Ti70  1  0.52429660  0.64392610  0.42028485  1
  Ti  Ti71  1  0.40235140  0.65270470  0.86151659  1
  Ti  Ti72  1  0.86779401  -0.04103731  0.19714458  1
  Ti  Ti73  1  0.79639829  -0.04497180  0.46321752  1
  Ti  Ti74  1  0.78106768  0.03375046  0.76542305  1
  Ti  Ti75  1  0.81344741  0.37256611  0.14206195  1
  Ti  Ti76  1  0.83082475  0.37237030  0.57385016  1
  Ti  Ti77  1  0.79466122  0.40462288  0.81166079  1
  Ti  Ti78  1  0.86640002  0.62718569  0.19496728  1
  Ti  Ti79  1  0.88030865  0.65373171  0.48811307  1
  Ti  Ti80  1  0.86450139  0.73254298  0.87679050  1
  Ti  Ti81  1  0.03306841  0.15841254  0.04930894  1
  Ti  Ti82  1  0.12561525  0.16806861  0.38387608  1
  Ti  Ti83  1  0.17470538  0.16999198  0.60178569  1
  Ti  Ti84  1  0.08512593  0.46257821  -0.04017277  1
  Ti  Ti85  1  0.17348345  0.50537360  0.32682904  1
  Ti  Ti86  1  0.23219268  0.54316717  0.57457721  1
  Ti  Ti87  1  0.16742445  0.83491846  -0.04599147  1
  Ti  Ti88  1  0.12856745  0.85848836  0.41367578  1
  Ti  Ti89  1  0.12328057  0.78783155  0.61994091  1
  Ti  Ti90  1  0.49121339  0.14964717  0.04897366  1
  Ti  Ti91  1  0.52700133  0.08769033  0.39595902  1
  Ti  Ti92  1  0.50865103  0.21262381  0.73633707  1
  Ti  Ti93  1  0.50652434  0.48591239  0.03797096  1
  Ti  Ti94  1  0.36531415  0.55795985  0.29007835  1
  Ti  Ti95  1  0.44654217  0.50634766  0.71096322  1
  Ti  Ti96  1  0.51351345  0.81270926  -0.04611035  1
  Ti  Ti97  1  0.52830804  0.83402119  0.38670113  1
  Ti  Ti98  1  0.47241473  0.85508098  0.66723615  1
  Ti  Ti99  1  0.82849258  0.16246422  -0.00357853  1
  Ti  Ti100  1  0.84686928  0.18309535  0.42672997  1
  Ti  Ti101  1  0.85456006  0.20883059  0.69153380  1
  Ti  Ti102  1  0.76479190  0.52343003  0.02856587  1
  Ti  Ti103  1  0.86107538  0.38282149  0.34756093  1
  Ti  Ti104  1  0.76359067  0.56512963  0.70132446  1
  Ti  Ti105  1  0.80783022  0.86143731  0.01891876  1
  Ti  Ti106  1  0.76130890  0.81157707  0.34246787  1
  Ti  Ti107  1  0.81397067  0.79428866  0.66095743  1
  Co  Co108  1  0.24890542  0.96383671  0.39163051  1
  Co  Co109  1  0.60218525  0.83041313  0.25443881  1
  Co  Co110  1  0.63896110  0.59498381  0.10244412  1
  Co  Co111  1  0.42798384  0.83499167  0.26115387  1
  Co  Co112  1  0.63141565  0.44642497  0.76022035  1
  Co  Co113  1  0.71241714  0.94605978  0.61941810  1
  Co  Co114  1  0.08129374  0.51045628  0.60836097  1
  Co  Co115  1  0.66184837  0.44334174  0.94909196  1
  Co  Co116  1  0.63848991  0.93875279  0.37146523  1
  Co  Co117  1  0.53145288  0.76102192  0.54881114  1
  Co  Co118  1  0.84781878  0.05340683  0.59857945  1
  Co  Co119  1  0.64594204  0.53574909  0.39838275  1
  Co  Co120  1  0.89807542  0.61012668  0.77044141  1
  Co  Co121  1  0.59661011  0.58612261  0.72738167  1
  Co  Co122  1  0.33106702  0.78786094  0.93750265  1
  Co  Co123  1  0.93032479  0.78869043  0.09744792  1
  Co  Co124  1  0.69042646  0.07199139  0.48256480  1
  Co  Co125  1  0.89836088  0.22886303  0.10660183  1
  Co  Co126  1  0.45662657  0.68987305  0.70886191  1
  Co  Co127  1  0.52272403  0.59860559  0.57800740  1
  Co  Co128  1  0.89711505  0.47069735  0.67566870  1
  Co  Co129  1  0.78364165  0.57281550  0.87533444  1
  Co  Co130  1  0.95671856  0.52199204  0.33344395  1
  Co  Co131  1  0.85451666  0.79215750  0.22236822  1
  Co  Co132  1  0.37459801  0.04428981  0.07457319  1
  Co  Co133  1  0.59197639  0.88996660  0.09105534  1
  Co  Co134  1  0.55490283  0.47889832  0.26857856  1
  Co  Co135  1  0.72634817  0.70402842  0.77785853  1
  Co  Co136  1  0.38092132  0.11620242  0.75197506  1
  Co  Co137  1  0.09098837  0.81071846  0.09059055  1
  Co  Co138  1  0.16455540  0.96176065  0.24889966  1
  Co  Co139  1  0.41752353  -0.03688050  0.35771061  1
  Co  Co140  1  0.99481597  0.83220005  0.94374852  1
  Co  Co141  1  0.70571722  0.91955078  0.21588869  1
  Co  Co142  1  0.24436896  0.26092910  0.29138842  1
  Co  Co143  1  0.25778045  0.10364741  0.31305868  1
  Co  Co144  1  0.38705404  0.20523625  0.35781508  1
  Co  Co145  1  0.41108153  0.83410181  0.80969281  1
  Co  Co146  1  0.82195632  0.24654707  0.27038541  1
  Co  Co147  1  0.27369112  0.24341880  0.72634101  1
  Co  Co148  1  0.51062052  0.75429685  0.12979230  1
  Co  Co149  1  0.58067118  0.37835386  0.41935476  1
  Co  Co150  1  0.76371948  0.19366932  0.56141379  1
  Co  Co151  1  0.08470325  0.25796236  0.21991069  1
  Co  Co152  1  0.54679968  0.23731011  0.34515770  1
  Co  Co153  1  0.65760316  0.28816416  0.83189670  1
  Co  Co154  1  0.49727632  0.20509023  0.89132490  1
  Co  Co155  1  0.04400101  0.17507374  0.71700147  1
  Co  Co156  1  0.35168587  0.20467806  0.60312895  1
  Co  Co157  1  0.93492747  0.87179429  0.36981318  1
  Co  Co158  1  0.06200329  0.32919108  0.07937827  1
  Co  Co159  1  0.68039950  0.15485392  0.71528510  1
  Co  Co160  1  0.28513892  0.06659081  0.64016465  1
  Co  Co161  1  0.23523483  0.81995446  0.14913067  1
  Ni  Ni162  1  0.10207966  0.98948701  0.88760489  1
  Ni  Ni163  1  0.19720731  0.30707675  0.95295615  1
  Ni  Ni164  1  0.94912576  0.30572230  0.45290974  1
  Ni  Ni165  1  0.59786492  -0.02852822  0.95664692  1
  Ni  Ni166  1  0.94823428  0.02201220  0.89509628  1
  Ni  Ni167  1  0.28901398  0.17917966  0.03607681  1
  Ni  Ni168  1  0.17722877  0.97839528  0.08909081  1
  Ni  Ni169  1  0.32297462  0.61745441  0.70608836  1
  Ni  Ni170  1  0.15895421  0.44224145  0.48504573  1
  Ni  Ni171  1  0.10581166  0.29144666  0.50799033  1
  Ni  Ni172  1  0.02518277  0.04568037  0.18086584  1
  Ni  Ni173  1  0.71045016  0.67604198  0.44251586  1
  Ni  Ni174  1  0.80024240  0.24227678  0.85994963  1
  Ni  Ni175  1  0.15067846  0.13152584  0.94140292  1
  Ni  Ni176  1  0.51256324  0.35581982  0.68375501  1
  Ni  Ni177  1  0.94893657  0.33780099  0.22015733  1
  Ni  Ni178  1  0.94511196  0.32654868  0.79879922  1
  Ni  Ni179  1  -0.01341945  0.78223783  0.49192723  1
  Ni  Ni180  1  0.11476699  0.03005497  0.48933599  1
  Ni  Ni181  1  0.31116549  0.43729134  0.42552067  1
  Ni  Ni182  1  0.88835076  0.88256590  0.83191347  1
  Ni  Ni183  1  0.56032284  0.11008472  0.20113220  1
  Ni  Ni184  1  0.28056263  0.40577205  0.24086191  1
  Ni  Ni185  1  0.38753887  0.71086491  0.35318838  1
  Ni  Ni186  1  0.56850922  0.16404390  0.57216748  1
  Ni  Ni187  1  0.32466435  0.50784328  0.91823576  1
  Ni  Ni188  1  0.77910309  0.54122412  0.52858121  1
  Ni  Ni189  1  0.80390635  0.58587099  0.35808729  1
  Ni  Ni190  1  0.57247809  0.73297563  0.81262563  1
  Ni  Ni191  1  0.18253166  0.88124717  0.76305083  1
  Ni  Ni192  1  0.87600680  0.02916538  0.05144151  1
  Ni  Ni193  1  0.85570012  0.66717242  0.01947478  1
  Ni  Ni194  1  0.40939722  0.42949982  0.15238768  1
  Ni  Ni195  1  0.53314016  0.31132160  0.03047339  1
  Ni  Ni196  1  0.03267036  0.30375962  0.92017807  1
  Ni  Ni197  1  0.19636510  0.57579415  -0.01679416  1
  Ni  Ni198  1  0.96801847  0.84447810  0.64331743  1
  Ni  Ni199  1  0.10260330  1.01452002  0.64530928  1
  Ni  Ni200  1  0.95920355  0.52742453  0.08727139  1
  Ni  Ni201  1  0.86688002  0.03350984  0.34798243  1
  Ni  Ni202  1  0.35329006  0.37369246  0.81322780  1
  Ni  Ni203  1  0.23070791  0.74069003  0.48854604  1
  Ni  Ni204  1  0.93589873  0.55090659  0.93236698  1
  Ni  Ni205  1  0.34174404  0.70131545  0.20381249  1
  Ni  Ni206  1  0.04850557  0.63735357  0.83369559  1
  Ni  Ni207  1  0.63379237  0.39189020  0.12851873  1
  Ni  Ni208  1  0.55666011  0.90817725  0.82179470  1
  Ni  Ni209  1  0.17555457  0.37226434  0.64513186  1
  Ni  Ni210  1  0.73346294  0.42043967  0.43904476  1
  Ni  Ni211  1  0.76602285  1.00133152  0.93160277  1
  Ni  Ni212  1  0.15333753  0.64483505  0.69776430  1
  Ni  Ni213  1  0.41916754  0.98757533  0.58993793  1
  Ni  Ni214  1  0.07185640  0.61404737  0.27296989  1
  Ni  Ni215  1  0.26743871  0.60194322  0.41804063  1
