# generated using pymatgen
data_Ti2CoNi
_symmetry_space_group_name_H-M   'P 1'
_cell_length_a   14.59539376
_cell_length_b   14.65737818
_cell_length_c   14.63518317
_cell_angle_alpha   90.10707561
_cell_angle_beta   89.84455476
_cell_angle_gamma   89.95940594
_symmetry_Int_Tables_number   1
_chemical_formula_structural   Ti2CoNi
_chemical_formula_sum   'Ti108 Co54 Ni54'
_cell_volume   3130.88996337
_cell_formula_units_Z   54
loop_
 _symmetry_equiv_pos_site_id
 _symmetry_equiv_pos_as_xyz
  1  'x, y, z'
loop_
 _atom_site_type_symbol
 _atom_site_label
 _atom_site_symmetry_multiplicity
 _atom_site_fract_x
 _atom_site_fract_y
 _atom_site_fract_z
 _atom_site_occupancy
  Ti  Ti0  1  0.00176939  -0.03669278  0.05034534  1
  Ti  Ti1  1  0.04410027  0.04037189  0.37973385  1
  Ti  Ti2  1  -0.05607386  -0.02359280  0.67851412  1
  Ti  Ti3  1  0.01368066  0.37403559  0.04078936  1
  Ti  Ti4  1  -0.10077269  0.36665032  0.38610647  1
  Ti  Ti5  1  0.05005734  0.33165560  0.71557069  1
  Ti  Ti6  1  -0.04520912  0.70291958  -0.09084104  1
  Ti  Ti7  1  -0.04999381  0.67605586  0.35201574  1
  Ti  Ti8  1  0.00537436  0.64028412  0.62744169  1
  Ti  Ti9  1  0.33422757  0.01321163  0.01221331  1
  Ti  Ti10  1  0.40435534  0.06761366  0.34383604  1
  Ti  Ti11  1  0.39147834  -0.05783268  0.76111473  1
  Ti  Ti12  1  0.34017141  0.32773388  -0.02906031  1
  Ti  Ti13  1  0.35479719  0.37688619  0.25272176  1
  Ti  Ti14  1  0.34149249  0.28069510  0.69194087  1
  Ti  Ti15  1  0.34096337  0.72526643  0.12081480  1
  Ti  Ti16  1  0.30750967  0.70514223  0.32783278  1
  Ti  Ti17  1  0.33913059  0.59834737  0.53635802  1
  Ti  Ti18  1  0.68453538  -0.03278515  -0.01861573  1
  Ti  Ti19  1  0.65312188  -0.05684610  0.32117820  1
  Ti  Ti20  1  0.65979345  -0.00744232  0.65158372  1
  Ti  Ti21  1  0.64225255  0.26257396  0.05795400  1
  Ti  Ti22  1  0.69891490  0.37529437  0.33284691  1
  Ti  Ti23  1  0.65412853  0.35560079  0.72629920  1
  Ti  Ti24  1  0.76442250  0.67116634  -0.02609939  1
  Ti  Ti25  1  0.62246682  0.65256964  0.36624983  1
  Ti  Ti26  1  0.75497021  0.65590169  0.67807105  1
  Ti  Ti27  1  -0.00251533  0.10690869  0.18809555  1
  Ti  Ti28  1  0.00609274  0.15016444  0.57971865  1
  Ti  Ti29  1  0.00496116  0.15391827  0.79245095  1
  Ti  Ti30  1  -0.02591694  0.45665093  0.20622586  1
  Ti  Ti31  1  0.06165472  0.49061864  0.48897377  1
  Ti  Ti32  1  -0.01989277  0.44722571  0.86017504  1
  Ti  Ti33  1  0.05110813  0.79897645  0.19009429  1
  Ti  Ti34  1  0.00432510  0.85451669  0.40831941  1
  Ti  Ti35  1  0.03643471  0.88928760  0.87083784  1
  Ti  Ti36  1  0.27865053  0.22523399  0.14539165  1
  Ti  Ti37  1  0.31672103  0.15559017  0.50673600  1
  Ti  Ti38  1  0.31163031  0.14012549  0.82985497  1
  Ti  Ti39  1  0.31289411  0.53156019  0.12972794  1
  Ti  Ti40  1  0.25324014  0.43218716  0.41499885  1
  Ti  Ti41  1  0.35101078  0.53392649  0.89257727  1
  Ti  Ti42  1  0.40505249  0.90886290  0.15923296  1
  Ti  Ti43  1  0.34140145  0.80468270  0.47952151  1
  Ti  Ti44  1  0.32347442  0.82452883  0.92193978  1
  Ti  Ti45  1  0.68744325  0.08410537  0.16504520  1
  Ti  Ti46  1  0.67036733  0.13587709  0.50230316  1
  Ti  Ti47  1  0.62298500  0.21354845  0.83788788  1
  Ti  Ti48  1  0.69380686  0.58348795  0.16601365  1
  Ti  Ti49  1  0.65034016  0.50262374  0.61571768  1
  Ti  Ti50  1  0.65165481  0.52215659  0.83275869  1
  Ti  Ti51  1  0.61350436  0.87621160  0.14224926  1
  Ti  Ti52  1  0.64007149  0.83402086  0.48749152  1
  Ti  Ti53  1  0.61966878  0.81602269  0.80333500  1
  Ti  Ti54  1  0.16995104  -0.03530662  0.17756003  1
  Ti  Ti55  1  0.23412741  -0.02618635  0.49952587  1
  Ti  Ti56  1  0.21780221  -0.03766822  0.83218502  1
  Ti  Ti57  1  0.09530865  0.27798782  0.20647430  1
  Ti  Ti58  1  0.13741364  0.26606325  0.43346312  1
  Ti  Ti59  1  0.17387251  0.35833409  0.87308055  1
  Ti  Ti60  1  0.17999899  0.65276487  0.17782948  1
  Ti  Ti61  1  0.12704608  0.74253679  0.50209837  1
  Ti  Ti62  1  0.17168707  0.63686251  0.73599055  1
  Ti  Ti63  1  0.49729478  0.12380342  0.14769206  1
  Ti  Ti64  1  0.43754888  -0.02886077  0.54333607  1
  Ti  Ti65  1  0.57251149  0.00897742  0.82122609  1
  Ti  Ti66  1  0.53315882  0.37312003  0.19237747  1
  Ti  Ti67  1  0.59016025  0.34133512  0.52865470  1
  Ti  Ti68  1  0.50009187  0.39942493  0.85422161  1
  Ti  Ti69  1  0.47908611  0.60304273  0.21745189  1
  Ti  Ti70  1  0.55796328  0.65487895  0.54653903  1
  Ti  Ti71  1  0.44577239  0.70867819  0.82949171  1
  Ti  Ti72  1  0.83752400  -0.06541544  0.15545471  1
  Ti  Ti73  1  0.86684005  0.06685795  0.44891058  1
  Ti  Ti74  1  0.87390115  0.01606955  0.86099335  1
  Ti  Ti75  1  0.82348773  0.31428825  0.15327405  1
  Ti  Ti76  1  0.78005314  0.29871332  0.57094972  1
  Ti  Ti77  1  0.83216305  0.34499814  0.79904664  1
  Ti  Ti78  1  0.88415318  0.67139024  0.12697911  1
  Ti  Ti79  1  0.87512260  0.74172969  0.52708650  1
  Ti  Ti80  1  0.84128097  0.56389585  0.83779019  1
  Ti  Ti81  1  0.09445229  0.21068319  -0.00332991  1
  Ti  Ti82  1  0.20677710  0.12398684  0.30920016  1
  Ti  Ti83  1  0.18626839  0.08682289  0.65795342  1
  Ti  Ti84  1  0.11917671  0.55125316  -0.06818712  1
  Ti  Ti85  1  0.12688861  0.52834584  0.30294380  1
  Ti  Ti86  1  0.20307270  0.42043960  0.63098219  1
  Ti  Ti87  1  0.14169924  0.79566425  0.01703680  1
  Ti  Ti88  1  0.17973766  0.88502992  0.35284804  1
  Ti  Ti89  1  0.14431236  0.86072391  0.66866491  1
  Ti  Ti90  1  0.50448232  0.13423161  -0.04334525  1
  Ti  Ti91  1  0.52018408  0.26661692  0.36735208  1
  Ti  Ti92  1  0.50617000  0.12580591  0.62714291  1
  Ti  Ti93  1  0.51952707  0.57661217  0.02293267  1
  Ti  Ti94  1  0.46831465  0.51326427  0.38029188  1
  Ti  Ti95  1  0.47007282  0.55015534  0.70630256  1
  Ti  Ti96  1  0.52550854  0.81437398  -0.01600163  1
  Ti  Ti97  1  0.48520667  0.79050621  0.28981067  1
  Ti  Ti98  1  0.42129049  0.76314516  0.65196160  1
  Ti  Ti99  1  0.81998606  0.19056707  -0.07182787  1
  Ti  Ti100  1  0.83862942  0.19375286  0.29397445  1
  Ti  Ti101  1  0.80392540  0.15359113  0.71868237  1
  Ti  Ti102  1  0.81942312  0.48026157  0.04181610  1
  Ti  Ti103  1  0.79644632  0.54768029  0.36873018  1
  Ti  Ti104  1  0.90485316  0.45209131  0.61276894  1
  Ti  Ti105  1  0.83480273  0.85816778  -0.06016903  1
  Ti  Ti106  1  0.83017180  0.88412564  0.37033742  1
  Ti  Ti107  1  0.79066336  0.85233065  0.65779029  1
  Co  Co108  1  0.63060976  0.69451615  0.06623224  1
  Co  Co109  1  0.46206332  0.27768559  0.08230470  1
  Co  Co110  1  1.01447060  0.59741654  0.79467227  1
  Co  Co111  1  0.28320391  0.31166403  0.52113517  1
  Co  Co112  1  0.23038024  0.63240723  0.01847115  1
  Co  Co113  1  0.11958906  0.70981768  0.88606207  1
  Co  Co114  1  0.49291373  0.74580187  0.12781094  1
  Co  Co115  1  0.63231446  0.50279071  0.44416174  1
  Co  Co116  1  0.53870396  0.99222564  0.05807894  1
  Co  Co117  1  0.72578915  0.07953012  0.35228105  1
  Co  Co118  1  0.06158905  0.49060236  0.67766754  1
  Co  Co119  1  0.78061243  0.47813132  0.71456508  1
  Co  Co120  1  0.35800864  0.43856542  0.58437029  1
  Co  Co121  1  0.98639196  0.82259535  0.61679712  1
  Co  Co122  1  0.30136703  0.89788338  0.62737609  1
  Co  Co123  1  0.51357122  0.26051381  0.71518909  1
  Co  Co124  1  0.45775443  0.69033009  0.41869869  1
  Co  Co125  1  0.19838712  0.40630335  0.22588998  1
  Co  Co126  1  0.33307163  0.62759352  0.72172261  1
  Co  Co127  1  0.86644828  0.03236685  0.28168824  1
  Co  Co128  1  0.44254286  0.27561189  0.55551441  1
  Co  Co129  1  0.30317237  0.25338525  0.36249031  1
  Co  Co130  1  0.66309766  0.24097628  0.23219581  1
  Co  Co131  1  -0.00390539  0.28802503  0.88269806  1
  Co  Co132  1  0.34152129  0.06488377  0.66356591  1
  Co  Co133  1  0.72010905  0.07611441  0.82938879  1
  Co  Co134  1  0.57246838  0.12228987  0.31034637  1
  Co  Co135  1  0.41078027  0.37346143  0.43531057  1
  Co  Co136  1  0.74431806  0.91886000  0.80490388  1
  Co  Co137  1  0.48434305  0.14364597  0.46509871  1
  Co  Co138  1  0.14312438  0.11050241  0.49034284  1
  Co  Co139  1  0.49829747  0.49845410  0.53703166  1
  Co  Co140  1  0.79227685  0.67178082  0.26426326  1
  Co  Co141  1  0.28599931  0.79745927  0.75958416  1
  Co  Co142  1  0.67045590  0.12243934  0.98543603  1
  Co  Co143  1  0.43261324  0.25612992  0.85628128  1
  Co  Co144  1  0.46306888  0.11853044  0.78150380  1
  Co  Co145  1  0.49343911  0.40223523  0.66684155  1
  Co  Co146  1  0.40032746  0.67310435  0.98356615  1
  Co  Co147  1  0.25114489  0.72776230  0.60770939  1
  Co  Co148  1  0.89736582  0.91841552  0.52160981  1
  Co  Co149  1  0.94646349  0.80742094  0.04777542  1
  Co  Co150  1  0.73699265  0.24507509  0.41022952  1
  Co  Co151  1  0.04456415  0.76696464  0.75904671  1
  Co  Co152  1  0.62251909  0.72195250  0.22245137  1
  Co  Co153  1  0.16745442  0.57989607  0.57814170  1
  Co  Co154  1  0.89837170  0.70571484  0.73056838  1
  Co  Co155  1  0.76944902  0.43193505  0.49201273  1
  Co  Co156  1  0.90443433  0.79707084  0.24362334  1
  Co  Co157  1  0.76519752  0.73826152  0.82430112  1
  Co  Co158  1  0.89808460  0.85229958  0.78479781  1
  Co  Co159  1  0.73104097  0.96409343  0.48846185  1
  Co  Co160  1  0.67526979  0.53064944  0.99128095  1
  Co  Co161  1  0.27590703  0.67492024  0.87151149  1
  Ni  Ni162  1  0.69730056  0.35666969  0.91071023  1
  Ni  Ni163  1  0.75276985  0.80753559  0.07473705  1
  Ni  Ni164  1  0.33215880  0.43871302  0.75703792  1
  Ni  Ni165  1  0.00935793  0.20302354  0.33819767  1
  Ni  Ni166  1  0.15677762  0.24571200  0.60476572  1
  Ni  Ni167  1  0.06000371  0.97032050  0.54679802  1
  Ni  Ni168  1  0.74254946  0.82167313  0.24188915  1
  Ni  Ni169  1  0.57040222  0.40454653  1.00929866  1
  Ni  Ni170  1  0.05428827  0.66587007  0.05419637  1
  Ni  Ni171  1  0.91275446  0.26657276  0.66311093  1
  Ni  Ni172  1  0.23052529  0.81001107  0.21720309  1
  Ni  Ni173  1  0.16148715  0.10995831  0.11625351  1
  Ni  Ni174  1  0.20496969  0.60857241  0.42419891  1
  Ni  Ni175  1  0.45376884  0.94851660  0.92054528  1
  Ni  Ni176  1  0.91554291  0.57596299  0.48964814  1
  Ni  Ni177  1  0.00412998  0.94425967  0.24596785  1
  Ni  Ni178  1  0.49224447  0.87938895  0.41859689  1
  Ni  Ni179  1  0.16070362  0.96168314  0.99263384  1
  Ni  Ni180  1  0.12014269  0.50700689  0.10862943  1
  Ni  Ni181  1  0.97087326  0.10526320  0.96395077  1
  Ni  Ni182  1  0.51328016  0.98164173  0.24999539  1
  Ni  Ni183  1  0.27244183  0.87360076  0.07365917  1
  Ni  Ni184  1  0.89817559  0.22599712  0.47203559  1
  Ni  Ni185  1  0.61049028  0.67169312  0.90251087  1
  Ni  Ni186  1  0.30486437  0.54474433  0.29548589  1
  Ni  Ni187  1  1.01587456  0.33251303  0.54258417  1
  Ni  Ni188  1  0.65852465  0.20070022  0.65748754  1
  Ni  Ni189  1  0.96907715  0.53562217  0.02469497  1
  Ni  Ni190  1  0.61155007  0.50002770  0.27891957  1
  Ni  Ni191  1  0.68440289  0.41083472  0.14127891  1
  Ni  Ni192  1  0.34463945  0.90584319  0.33484728  1
  Ni  Ni193  1  0.75990585  0.73235244  0.40910539  1
  Ni  Ni194  1  0.81235252  0.46872007  0.22667765  1
  Ni  Ni195  1  0.35417415  0.17258011  0.00940106  1
  Ni  Ni196  1  0.81291061  0.04077561  0.60485327  1
  Ni  Ni197  1  0.11799351  0.72139656  0.32933866  1
  Ni  Ni198  1  0.31908039  0.06295984  0.19232330  1
  Ni  Ni199  1  0.57560795  0.01424515  0.45132003  1
  Ni  Ni200  1  0.41479738  0.21773124  0.24671353  1
  Ni  Ni201  1  0.62549292  0.78141082  0.64057457  1
  Ni  Ni202  1  0.42422859  0.43860214  0.06368234  1
  Ni  Ni203  1  0.85961825  0.33895438  0.97578282  1
  Ni  Ni204  1  0.93486409  0.21721766  0.08104208  1
  Ni  Ni205  1  0.52479371  0.90439640  0.67662001  1
  Ni  Ni206  1  0.05959549  0.38001324  0.34026544  1
  Ni  Ni207  1  0.82861949  0.06612381  0.04644693  1
  Ni  Ni208  1  0.59499250  0.65383330  0.73839834  1
  Ni  Ni209  1  0.74766426  0.60208539  0.51913291  1
  Ni  Ni210  1  0.01921001  0.61889136  0.20874238  1
  Ni  Ni211  1  0.17344343  0.22514766  0.77259317  1
  Ni  Ni212  1  0.24608915  0.46620386  0.99595253  1
  Ni  Ni213  1  0.18087300  0.34097527  0.06647365  1
  Ni  Ni214  1  0.07947915  0.01137699  0.75737097  1
  Ni  Ni215  1  0.20939417  0.11011654  0.94932434  1
