# generated using pymatgen
data_Ti2CoNi
_symmetry_space_group_name_H-M   'P 1'
_cell_length_a   14.65916619
_cell_length_b   14.61135347
_cell_length_c   14.69251881
_cell_angle_alpha   90.31284631
_cell_angle_beta   89.72232447
_cell_angle_gamma   89.99820494
_symmetry_Int_Tables_number   1
_chemical_formula_structural   Ti2CoNi
_chemical_formula_sum   'Ti108 Co54 Ni54'
_cell_volume   3146.91053200
_cell_formula_units_Z   54
loop_
 _symmetry_equiv_pos_site_id
 _symmetry_equiv_pos_as_xyz
  1  'x, y, z'
loop_
 _atom_site_type_symbol
 _atom_site_label
 _atom_site_symmetry_multiplicity
 _atom_site_fract_x
 _atom_site_fract_y
 _atom_site_fract_z
 _atom_site_occupancy
  Ti  Ti0  1  -0.03523802  -0.02180616  0.06714004  1
  Ti  Ti1  1  -0.05216902  -0.02167602  0.35755368  1
  Ti  Ti2  1  0.03657830  -0.06271691  0.73669543  1
  Ti  Ti3  1  0.00349428  0.30681932  0.07841776  1
  Ti  Ti4  1  0.09896243  0.35163892  0.31127463  1
  Ti  Ti5  1  0.05425198  0.37748274  0.71258465  1
  Ti  Ti6  1  0.06388162  0.66531208  -0.02659115  1
  Ti  Ti7  1  0.05008820  0.68429580  0.27769223  1
  Ti  Ti8  1  -0.02177451  0.67111471  0.67876895  1
  Ti  Ti9  1  0.33007176  -0.04110479  -0.02283885  1
  Ti  Ti10  1  0.41240654  0.00848196  0.33901607  1
  Ti  Ti11  1  0.29168226  -0.00324565  0.71760102  1
  Ti  Ti12  1  0.30227888  0.34947306  0.02668282  1
  Ti  Ti13  1  0.34790507  0.32830840  0.27737694  1
  Ti  Ti14  1  0.31906839  0.32469310  0.72555459  1
  Ti  Ti15  1  0.37773863  0.63965251  0.02009546  1
  Ti  Ti16  1  0.28658383  0.68451356  0.29157571  1
  Ti  Ti17  1  0.31258192  0.67586693  0.58785914  1
  Ti  Ti18  1  0.65999160  0.08619515  -0.04468626  1
  Ti  Ti19  1  0.63038196  -0.07348626  0.23416045  1
  Ti  Ti20  1  0.68837390  0.04756452  0.64867916  1
  Ti  Ti21  1  0.70353641  0.42018716  0.00355971  1
  Ti  Ti22  1  0.67543917  0.38694989  0.35277166  1
  Ti  Ti23  1  0.61935695  0.35202576  0.56919623  1
  Ti  Ti24  1  0.61170233  0.60637676  -0.01053231  1
  Ti  Ti25  1  0.59984665  0.61598894  0.30401303  1
  Ti  Ti26  1  0.77734779  0.65278784  0.65726104  1
  Ti  Ti27  1  0.08091364  0.11928541  0.10949749  1
  Ti  Ti28  1  0.02831793  0.10873564  0.50938810  1
  Ti  Ti29  1  0.02074610  0.17850936  0.80977366  1
  Ti  Ti30  1  -0.04789559  0.50722517  0.11169590  1
  Ti  Ti31  1  -0.04615277  0.44463872  0.42089124  1
  Ti  Ti32  1  0.06072075  0.56423578  0.80820650  1
  Ti  Ti33  1  0.05364253  0.82406555  0.12903655  1
  Ti  Ti34  1  0.00997735  0.81131656  0.45812916  1
  Ti  Ti35  1  -0.09547942  0.81461135  0.77944826  1
  Ti  Ti36  1  0.29508510  0.05617327  0.16091485  1
  Ti  Ti37  1  0.33032304  0.20716770  0.48899352  1
  Ti  Ti38  1  0.34150195  0.19725388  0.89173156  1
  Ti  Ti39  1  0.37672042  0.51287652  0.17876149  1
  Ti  Ti40  1  0.35222552  0.47986374  0.56547712  1
  Ti  Ti41  1  0.33071840  0.54528031  0.75942328  1
  Ti  Ti42  1  0.27170147  0.85562741  0.13160131  1
  Ti  Ti43  1  0.38267358  0.87636408  0.49436204  1
  Ti  Ti44  1  0.42966763  0.85519543  0.81970825  1
  Ti  Ti45  1  0.70432548  0.18738097  0.13654274  1
  Ti  Ti46  1  0.68858944  0.12534906  0.47003465  1
  Ti  Ti47  1  0.66594101  0.21542239  0.80365767  1
  Ti  Ti48  1  0.60940610  0.46341553  0.16703870  1
  Ti  Ti49  1  0.68794527  0.56259982  0.49685632  1
  Ti  Ti50  1  0.71109924  0.46453660  0.82357149  1
  Ti  Ti51  1  0.67081861  0.89272489  0.03520294  1
  Ti  Ti52  1  0.66863477  0.76971026  0.48763263  1
  Ti  Ti53  1  0.60911599  0.91956598  0.84400643  1
  Ti  Ti54  1  0.11727787  -0.01706000  0.22844782  1
  Ti  Ti55  1  0.15263521  -0.04205167  0.56234338  1
  Ti  Ti56  1  0.16495060  0.03196903  0.87750347  1
  Ti  Ti57  1  0.20095319  0.24121334  0.17948904  1
  Ti  Ti58  1  0.12486857  0.31984092  0.49040559  1
  Ti  Ti59  1  0.17108761  0.33104261  0.84212116  1
  Ti  Ti60  1  0.16363103  0.58386158  0.14018732  1
  Ti  Ti61  1  0.12193139  0.67326048  0.53641895  1
  Ti  Ti62  1  0.24008425  0.70524660  0.86560347  1
  Ti  Ti63  1  0.46448055  -0.04842747  0.13535200  1
  Ti  Ti64  1  0.52898583  0.01394478  0.52036069  1
  Ti  Ti65  1  0.51836741  0.05775191  0.73133417  1
  Ti  Ti66  1  0.55021469  0.27983489  0.25043805  1
  Ti  Ti67  1  0.47022174  0.34673846  0.42728888  1
  Ti  Ti68  1  0.45879932  0.37079586  0.85274621  1
  Ti  Ti69  1  0.59141133  0.74980137  0.14885147  1
  Ti  Ti70  1  0.50667488  0.64585833  0.49638461  1
  Ti  Ti71  1  0.49656363  0.66001230  0.82174784  1
  Ti  Ti72  1  0.80260431  0.02337654  0.19905133  1
  Ti  Ti73  1  0.83841260  0.02108380  0.52493634  1
  Ti  Ti74  1  0.88672385  0.00515751  0.87094221  1
  Ti  Ti75  1  0.79504289  0.37890583  0.19431809  1
  Ti  Ti76  1  0.83670610  0.30437770  0.55792332  1
  Ti  Ti77  1  0.83513283  0.31529906  0.86504778  1
  Ti  Ti78  1  0.79659700  0.69530813  0.18744935  1
  Ti  Ti79  1  0.86972950  0.65669793  0.48062060  1
  Ti  Ti80  1  0.76099964  0.73489621  0.86949727  1
  Ti  Ti81  1  0.14347151  0.22378104  -0.02391581  1
  Ti  Ti82  1  0.09050688  0.14724570  0.33646059  1
  Ti  Ti83  1  0.15738194  0.22281123  0.64730569  1
  Ti  Ti84  1  0.11560769  0.45174578  -0.01629606  1
  Ti  Ti85  1  0.22097904  0.49304788  0.31281749  1
  Ti  Ti86  1  0.16247493  0.49785936  0.60638404  1
  Ti  Ti87  1  0.15042212  0.84866548  -0.04076358  1
  Ti  Ti88  1  0.23146961  0.88704454  0.35182037  1
  Ti  Ti89  1  0.19481193  0.80455235  0.69344677  1
  Ti  Ti90  1  0.50233462  0.15029591  0.11084939  1
  Ti  Ti91  1  0.59748295  0.09865100  0.29401693  1
  Ti  Ti92  1  0.50082919  0.24854019  0.70237942  1
  Ti  Ti93  1  0.48965589  0.44559896  0.02516650  1
  Ti  Ti94  1  0.40240325  0.53342962  0.37763941  1
  Ti  Ti95  1  0.60474033  0.53089017  0.67752157  1
  Ti  Ti96  1  0.48424503  0.81766181  -0.00120998  1
  Ti  Ti97  1  0.50207247  0.79906760  0.35032867  1
  Ti  Ti98  1  0.48620795  0.77668212  0.64218592  1
  Ti  Ti99  1  0.88312029  0.15662567  0.03174745  1
  Ti  Ti100  1  0.87032146  0.16296964  0.35018785  1
  Ti  Ti101  1  0.83838077  0.15931724  0.70670735  1
  Ti  Ti102  1  0.90828569  0.49842094  -0.07361584  1
  Ti  Ti103  1  0.89424137  0.56892645  0.28440866  1
  Ti  Ti104  1  0.87826195  0.46394752  0.69969309  1
  Ti  Ti105  1  0.88085343  0.81354491  0.01720966  1
  Ti  Ti106  1  0.78790921  0.86022119  0.35714445  1
  Ti  Ti107  1  0.73585300  0.84811641  0.67341741  1
  Co  Co108  1  0.91689281  0.30137892  0.72956145  1
  Co  Co109  1  0.20555444  0.55832866  0.90047643  1
  Co  Co110  1  0.45464369  0.60379144  0.65628632  1
  Co  Co111  1  0.17562201  0.77164925  0.22112443  1
  Co  Co112  1  0.50947265  0.16097643  0.86842214  1
  Co  Co113  1  0.29713622  0.42202286  0.88461954  1
  Co  Co114  1  0.62768268  0.04048222  0.11531995  1
  Co  Co115  1  0.76705710  0.85113294  0.16287684  1
  Co  Co116  1  0.74970914  0.02231173  0.35842444  1
  Co  Co117  1  0.07451522  0.75923372  0.80363430  1
  Co  Co118  1  0.62347077  0.68746664  0.62604607  1
  Co  Co119  1  0.76085355  0.33922552  0.70570241  1
  Co  Co120  1  0.06013648  0.85470255  0.30845410  1
  Co  Co121  1  0.49328942  0.43599913  0.27237235  1
  Co  Co122  1  0.87969193  0.64895171  0.01993429  1
  Co  Co123  1  0.65956904  0.62442832  0.80834658  1
  Co  Co124  1  0.33847856  0.20781047  0.09884234  1
  Co  Co125  1  0.27553005  0.51410653  0.03700737  1
  Co  Co126  1  0.16058355  0.73790374  0.39001981  1
  Co  Co127  1  1.01338958  0.62416842  0.42065533  1
  Co  Co128  1  0.42420525  0.32033843  0.57482226  1
  Co  Co129  1  0.75892801  0.66407229  0.36439849  1
  Co  Co130  1  0.60366660  0.77751011  0.76221581  1
  Co  Co131  1  0.05099906  0.51562448  0.28622178  1
  Co  Co132  1  0.25461270  0.34491024  0.58417780  1
  Co  Co133  1  0.94276366  0.68728324  0.87482417  1
  Co  Co134  1  0.40970420  1.01998971  0.84275956  1
  Co  Co135  1  0.66112004  0.77647474  0.29911100  1
  Co  Co136  1  0.76350059  0.57886576  0.93981301  1
  Co  Co137  1  0.15836375  0.97202793  0.06343703  1
  Co  Co138  1  0.72975115  0.73071894  0.03846520  1
  Co  Co139  1  0.79077495  0.52569083  0.09375074  1
  Co  Co140  1  0.79651846  0.00111168  0.03519740  1
  Co  Co141  1  0.98043098  0.38722823  0.57039379  1
  Co  Co142  1  0.18295224  0.64070801  0.71577513  1
  Co  Co143  1  0.18950945  0.46938673  0.76320256  1
  Co  Co144  1  0.03152804  0.07688492  -0.05277396  1
  Co  Co145  1  0.60204740  0.32384615  0.90782554  1
  Co  Co146  1  0.76720806  0.89607722  0.89940026  1
  Co  Co147  1  0.04535717  0.81191930  0.62935546  1
  Co  Co148  1  0.94573802  0.39239709  0.24391072  1
  Co  Co149  1  0.60697905  0.36706852  0.74555105  1
  Co  Co150  1  0.44139087  0.33990755  0.14172764  1
  Co  Co151  1  0.90645376  0.75110575  0.33293494  1
  Co  Co152  1  0.24664893  0.41064152  0.16915798  1
  Co  Co153  1  0.29061990  0.39352030  0.43079752  1
  Co  Co154  1  0.10734362  -0.00905809  0.41031865  1
  Co  Co155  1  0.24090510  0.10725466  1.01423448  1
  Co  Co156  1  0.60564340  0.75610298  0.92293734  1
  Co  Co157  1  0.92478594  0.89537729  0.21669123  1
  Co  Co158  1  0.51964924  0.98783947  -0.01951673  1
  Co  Co159  1  0.40696291  0.09787625  -0.00228585  1
  Co  Co160  1  0.32402497  0.79271821  0.97913982  1
  Co  Co161  1  0.69801341  0.93673244  0.51901957  1
  Ni  Ni162  1  0.60630826  0.25038889  0.41662437  1
  Ni  Ni163  1  0.36477283  0.71675179  0.43323414  1
  Ni  Ni164  1  -0.00802447  0.23167752  0.60783071  1
  Ni  Ni165  1  0.46074765  0.43277035  0.69570662  1
  Ni  Ni166  1  0.41603907  0.53272402  0.90438507  1
  Ni  Ni167  1  0.28867452  1.01485059  0.46178093  1
  Ni  Ni168  1  0.11276832  0.49051713  0.44584693  1
  Ni  Ni169  1  0.40965400  0.15921972  0.25467268  1
  Ni  Ni170  1  0.97126630  0.07617640  0.66141372  1
  Ni  Ni171  1  0.97599823  0.94330284  0.55332401  1
  Ni  Ni172  1  0.95867647  0.07615215  0.21818349  1
  Ni  Ni173  1  0.84427839  0.59420893  0.79309156  1
  Ni  Ni174  1  0.69053144  0.21260611  0.62283344  1
  Ni  Ni175  1  0.40989958  0.75660662  0.13982049  1
  Ni  Ni176  1  0.09171690  0.42038873  0.15785363  1
  Ni  Ni177  1  0.01127470  0.23646945  0.22892725  1
  Ni  Ni178  1  0.00336864  0.33550789  0.89995956  1
  Ni  Ni179  1  0.24815308  0.08275713  0.31756565  1
  Ni  Ni180  1  0.58534911  0.91356404  0.65683035  1
  Ni  Ni181  1  0.46198818  0.27035255  0.99127934  1
  Ni  Ni182  1  0.36525348  0.14995016  0.73012041  1
  Ni  Ni183  1  0.25645626  0.58051162  0.45708113  1
  Ni  Ni184  1  0.97137828  0.26617393  0.44008109  1
  Ni  Ni185  1  0.80869409  0.15103147  0.88087012  1
  Ni  Ni186  1  0.59847113  0.30745376  0.08136965  1
  Ni  Ni187  1  0.25558486  0.10207951  0.59702010  1
  Ni  Ni188  1  0.83595770  0.49789748  0.54873173  1
  Ni  Ni189  1  0.22660611  0.24625593  0.36244698  1
  Ni  Ni190  1  0.73366363  0.53802009  0.24754379  1
  Ni  Ni191  1  0.73177940  0.25011698  0.98782696  1
  Ni  Ni192  1  0.85914349  0.96380682  0.69584657  1
  Ni  Ni193  1  0.59927991  0.92605750  0.39557282  1
  Ni  Ni194  1  0.20980800  0.17103966  0.79515089  1
  Ni  Ni195  1  0.73089243  0.02835266  0.80088052  1
  Ni  Ni196  1  0.51172787  0.60459623  0.12727852  1
  Ni  Ni197  1  0.44736262  0.66324587  0.26939388  1
  Ni  Ni198  1  0.47508309  0.15148249  0.40588890  1
  Ni  Ni199  1  0.86075020  0.36305287  1.02996863  1
  Ni  Ni200  1  0.72408068  0.22553301  0.30060145  1
  Ni  Ni201  1  0.56618212  0.49351344  0.40463845  1
  Ni  Ni202  1  0.85895317  0.22020101  0.18766573  1
  Ni  Ni203  1  0.35096619  0.71795813  0.74235688  1
  Ni  Ni204  1  0.13100318  0.06538831  0.70099618  1
  Ni  Ni205  1  -0.00039004  0.54632945  0.57166246  1
  Ni  Ni206  1  0.79594540  0.48961459  0.39152503  1
  Ni  Ni207  1  0.37728121  0.86140735  0.26433710  1
  Ni  Ni208  1  0.53588448  0.18350966  0.55358033  1
  Ni  Ni209  1  0.00623468  0.89190092  0.90238712  1
  Ni  Ni210  1  0.26387184  0.88138383  0.83683090  1
  Ni  Ni211  1  0.51162580  0.47930292  0.54733267  1
  Ni  Ni212  1  0.22844547  0.81628561  0.51825540  1
  Ni  Ni213  1  0.87923103  0.79206393  0.59800102  1
  Ni  Ni214  1  -0.00317035  0.66616029  0.12384634  1
  Ni  Ni215  1  0.42507644  0.93588405  0.64431504  1
