# generated using pymatgen
data_Ti2CoNi
_symmetry_space_group_name_H-M   'P 1'
_cell_length_a   14.57101583
_cell_length_b   14.64179554
_cell_length_c   14.65983389
_cell_angle_alpha   89.84647996
_cell_angle_beta   89.95099221
_cell_angle_gamma   89.97130293
_symmetry_Int_Tables_number   1
_chemical_formula_structural   Ti2CoNi
_chemical_formula_sum   'Ti108 Co54 Ni54'
_cell_volume   3127.60173801
_cell_formula_units_Z   54
loop_
 _symmetry_equiv_pos_site_id
 _symmetry_equiv_pos_as_xyz
  1  'x, y, z'
loop_
 _atom_site_type_symbol
 _atom_site_label
 _atom_site_symmetry_multiplicity
 _atom_site_fract_x
 _atom_site_fract_y
 _atom_site_fract_z
 _atom_site_occupancy
  Ti  Ti0  1  0.01446079  0.05552291  0.03593932  1
  Ti  Ti1  1  0.01657265  -0.00771621  0.24253966  1
  Ti  Ti2  1  -0.02617692  0.05652132  0.67277002  1
  Ti  Ti3  1  -0.07761805  0.35352515  -0.02360503  1
  Ti  Ti4  1  0.02953463  0.28299651  0.27994670  1
  Ti  Ti5  1  0.02251555  0.32176169  0.73386980  1
  Ti  Ti6  1  0.05502397  0.64839320  -0.04150891  1
  Ti  Ti7  1  -0.06760103  0.70875434  0.36686795  1
  Ti  Ti8  1  -0.11597941  0.68178461  0.68451580  1
  Ti  Ti9  1  0.33742728  0.03209612  0.04508824  1
  Ti  Ti10  1  0.34812760  -0.08061235  0.34155828  1
  Ti  Ti11  1  0.27012205  -0.00158493  0.70934458  1
  Ti  Ti12  1  0.35316585  0.39308420  -0.02585900  1
  Ti  Ti13  1  0.34503679  0.29225501  0.30541250  1
  Ti  Ti14  1  0.40773977  0.29682826  0.60224275  1
  Ti  Ti15  1  0.29623661  0.70268494  0.04236263  1
  Ti  Ti16  1  0.30929112  0.63055425  0.35937731  1
  Ti  Ti17  1  0.40598394  0.61459250  0.65450511  1
  Ti  Ti18  1  0.63028844  -0.00843155  -0.10056346  1
  Ti  Ti19  1  0.68331837  0.05434337  0.33550968  1
  Ti  Ti20  1  0.69505367  -0.05188722  0.71237818  1
  Ti  Ti21  1  0.69804547  0.37446194  -0.01638585  1
  Ti  Ti22  1  0.66200117  0.36089137  0.32599775  1
  Ti  Ti23  1  0.70979056  0.27973464  0.71186963  1
  Ti  Ti24  1  0.62132766  0.60609811  -0.05274971  1
  Ti  Ti25  1  0.72653898  0.76131293  0.34626575  1
  Ti  Ti26  1  0.68751632  0.70065435  0.68488489  1
  Ti  Ti27  1  0.04614702  0.25135273  0.06869134  1
  Ti  Ti28  1  0.04526224  0.22444391  0.47045788  1
  Ti  Ti29  1  -0.00065535  0.16801563  0.86552534  1
  Ti  Ti30  1  -0.00060204  0.55255282  0.13031728  1
  Ti  Ti31  1  0.02618280  0.55509005  0.48570594  1
  Ti  Ti32  1  0.06844932  0.50777259  0.81155499  1
  Ti  Ti33  1  0.00134013  0.84343361  0.11517640  1
  Ti  Ti34  1  0.00287097  0.91420434  0.52774043  1
  Ti  Ti35  1  -0.07044167  0.85720447  0.85390628  1
  Ti  Ti36  1  0.31864660  0.18764052  0.15730283  1
  Ti  Ti37  1  0.26800208  0.21669271  0.47679136  1
  Ti  Ti38  1  0.35175763  0.13327527  0.85782673  1
  Ti  Ti39  1  0.28564508  0.52438784  0.16313208  1
  Ti  Ti40  1  0.33270033  0.50605587  0.52249845  1
  Ti  Ti41  1  0.38390574  0.53827181  0.84950850  1
  Ti  Ti42  1  0.35995491  0.75626409  0.21281765  1
  Ti  Ti43  1  0.35051007  0.81136839  0.53669730  1
  Ti  Ti44  1  0.31933912  0.74754015  0.83488585  1
  Ti  Ti45  1  0.61982223  0.12567393  0.17872010  1
  Ti  Ti46  1  0.63427201  0.14558090  0.54031768  1
  Ti  Ti47  1  0.62606704  0.17678664  0.88470794  1
  Ti  Ti48  1  0.64049815  0.55005810  0.12231752  1
  Ti  Ti49  1  0.68627063  0.43387311  0.57635996  1
  Ti  Ti50  1  0.67613012  0.51262171  0.78493365  1
  Ti  Ti51  1  0.67408759  0.87721078  0.19697742  1
  Ti  Ti52  1  0.66647678  0.79165268  0.51726038  1
  Ti  Ti53  1  0.65742478  0.80283331  0.85719074  1
  Ti  Ti54  1  0.18497603  -0.10749769  0.18333349  1
  Ti  Ti55  1  0.14824761  0.07403570  0.54253003  1
  Ti  Ti56  1  0.09053322  -0.03653694  0.81526290  1
  Ti  Ti57  1  0.21172258  0.33224695  0.06745856  1
  Ti  Ti58  1  0.16704727  0.39580251  0.47089669  1
  Ti  Ti59  1  0.22352838  0.29062080  0.86398083  1
  Ti  Ti60  1  0.13802322  0.68882054  0.22343422  1
  Ti  Ti61  1  0.15196076  0.70630546  0.53935210  1
  Ti  Ti62  1  0.14380616  0.68265808  0.77041577  1
  Ti  Ti63  1  0.53632871  -0.01592776  0.08967231  1
  Ti  Ti64  1  0.49529405  -0.02983759  0.47200204  1
  Ti  Ti65  1  0.48544058  0.00164816  0.77435308  1
  Ti  Ti66  1  0.52757718  0.39662877  0.17760027  1
  Ti  Ti67  1  0.51727969  0.29212647  0.44755888  1
  Ti  Ti68  1  0.47040465  0.30130166  0.86948971  1
  Ti  Ti69  1  0.46562541  0.59808621  0.23902988  1
  Ti  Ti70  1  0.54557178  0.64721391  0.42645982  1
  Ti  Ti71  1  0.52344773  0.67310453  0.78409521  1
  Ti  Ti72  1  0.83090532  0.07182688  0.16505411  1
  Ti  Ti73  1  0.80381665  -0.01386833  0.48463543  1
  Ti  Ti74  1  0.80196464  0.10239855  0.78809936  1
  Ti  Ti75  1  0.86384036  0.30688784  0.17134087  1
  Ti  Ti76  1  0.88238546  0.39677759  0.50453716  1
  Ti  Ti77  1  0.84053545  0.39900679  0.81712745  1
  Ti  Ti78  1  0.78710382  0.66876473  0.18923009  1
  Ti  Ti79  1  0.79721717  0.61926942  0.51199874  1
  Ti  Ti80  1  0.82224997  0.68399681  0.89063440  1
  Ti  Ti81  1  0.18564879  0.14966738  0.00480292  1
  Ti  Ti82  1  0.17591458  0.11304616  0.31788052  1
  Ti  Ti83  1  0.25070141  0.19936470  0.68696212  1
  Ti  Ti84  1  0.12837337  0.46967222  -0.01175318  1
  Ti  Ti85  1  0.12937319  0.48321818  0.29787029  1
  Ti  Ti86  1  0.16806206  0.51690353  0.63353899  1
  Ti  Ti87  1  0.21881769  0.88409117  -0.03470878  1
  Ti  Ti88  1  0.15548466  0.92725004  0.39250910  1
  Ti  Ti89  1  0.03512767  0.81852204  0.68681216  1
  Ti  Ti90  1  0.48680453  0.19828822  0.04434394  1
  Ti  Ti91  1  0.46421472  0.12166870  0.34336976  1
  Ti  Ti92  1  0.52997029  0.20446562  0.71335647  1
  Ti  Ti93  1  0.44601695  0.53203688  0.04404690  1
  Ti  Ti94  1  0.47365003  0.46046826  0.36672880  1
  Ti  Ti95  1  0.50911461  0.43384011  0.71208160  1
  Ti  Ti96  1  0.43380680  0.86000563  -0.01668878  1
  Ti  Ti97  1  0.52989887  0.81408413  0.30911337  1
  Ti  Ti98  1  0.54721935  0.85803124  0.65523089  1
  Ti  Ti99  1  0.79994729  0.08825349  -0.03021751  1
  Ti  Ti100  1  0.90039350  0.12655581  0.33409631  1
  Ti  Ti101  1  0.83775926  0.20611539  0.59045099  1
  Ti  Ti102  1  0.82666720  0.48675883  0.07943908  1
  Ti  Ti103  1  0.80528755  0.49690392  0.26666500  1
  Ti  Ti104  1  0.95349513  0.49912288  0.65992472  1
  Ti  Ti105  1  0.79692373  0.81671707  0.03989680  1
  Ti  Ti106  1  0.86630456  0.84203746  0.23936846  1
  Ti  Ti107  1  0.83283547  0.84391544  0.61393609  1
  Co  Co108  1  0.89312711  0.25589062  0.42893504  1
  Co  Co109  1  0.41891030  0.66836882  0.93866773  1
  Co  Co110  1  0.65610722  0.95379630  0.54907659  1
  Co  Co111  1  0.31868420  0.09274960  0.56878206  1
  Co  Co112  1  0.33582537  0.22903786  -0.00779822  1
  Co  Co113  1  0.95985815  0.77304002  0.97837946  1
  Co  Co114  1  0.72179528  0.29114924  0.49761263  1
  Co  Co115  1  0.31885714  0.07105474  0.40544726  1
  Co  Co116  1  0.12890091  0.77066040  0.04827639  1
  Co  Co117  1  0.34325354  0.45413012  0.68836864  1
  Co  Co118  1  0.75648917  0.44810622  0.42036839  1
  Co  Co119  1  0.54184924  -0.01542001  0.29286167  1
  Co  Co120  1  0.89040945  0.53708761  0.40162280  1
  Co  Co121  1  0.12303204  0.95370106  0.64380414  1
  Co  Co122  1  -0.01741856  0.69727181  0.81326998  1
  Co  Co123  1  0.14261144  0.06222549  0.14657421  1
  Co  Co124  1  0.17321353  0.28320929  0.35358366  1
  Co  Co125  1  0.61242748  0.51630601  0.27911769  1
  Co  Co126  1  0.61405367  0.68744944  0.23662008  1
  Co  Co127  1  0.61309075  0.50455649  0.44869677  1
  Co  Co128  1  0.83978646  0.36912789  0.65704633  1
  Co  Co129  1  0.53784835  0.03577333  0.62371836  1
  Co  Co130  1  0.16182425  0.21665709  0.19169466  1
  Co  Co131  1  0.05440977  0.91484576  0.97409297  1
  Co  Co132  1  0.25404225  0.35059235  0.59591688  1
  Co  Co133  1  0.26286440  0.57831916  0.75273181  1
  Co  Co134  1  0.79262661  0.80624341  0.76910901  1
  Co  Co135  1  0.43191877  0.91920945  0.19976704  1
  Co  Co136  1  0.01535024  0.38573792  0.40720346  1
  Co  Co137  1  0.16757540  0.60654476  0.08355194  1
  Co  Co138  1  0.35569476  0.30679308  0.75840706  1
  Co  Co139  1  0.04138160  0.63644243  0.65380458  1
  Co  Co140  1  0.44924076  0.08513814  0.18190433  1
  Co  Co141  1  0.58271426  0.30888685  0.59571681  1
  Co  Co142  1  0.10916097  0.79706881  0.87918969  1
  Co  Co143  1  0.23394619  0.45631932  0.85715834  1
  Co  Co144  1  0.26930989  0.95318185  0.51168066  1
  Co  Co145  1  0.50481201  0.66424132  0.09530883  1
  Co  Co146  1  0.54770203  0.74908039  0.96250765  1
  Co  Co147  1  0.17638101  0.37873842  0.72643669  1
  Co  Co148  1  0.53407230  0.81019195  0.13762843  1
  Co  Co149  1  0.32219475  0.87120147  0.10256585  1
  Co  Co150  1  0.77510078  0.14581829  0.44161943  1
  Co  Co151  1  0.46021300  0.14256188  0.51965801  1
  Co  Co152  1  0.05501207  0.82238475  0.26991761  1
  Co  Co153  1  0.21671059  0.61348258  0.91506640  1
  Co  Co154  1  0.40034620  0.95323511  0.61862333  1
  Co  Co155  1  0.40072435  0.12657753  0.69607346  1
  Co  Co156  1  0.93323935  0.02103587  0.87650301  1
  Co  Co157  1  0.95334905  0.70403217  0.18896407  1
  Co  Co158  1  0.77889374  0.93453251  0.89134877  1
  Co  Co159  1  0.65708702  0.10479493  0.71575543  1
  Co  Co160  1  0.66890831  0.71551117  0.07591017  1
  Co  Co161  1  1.03975898  0.38664798  0.57884348  1
  Ni  Ni162  1  0.87529519  0.64770351  0.04620441  1
  Ni  Ni163  1  0.78516667  0.25050254  0.89552507  1
  Ni  Ni164  1  0.19072705  0.56319744  0.44781570  1
  Ni  Ni165  1  0.52990310  0.37914437  1.01034681  1
  Ni  Ni166  1  0.82161292  0.97482497  0.30877015  1
  Ni  Ni167  1  0.78588922  0.54063462  0.66757810  1
  Ni  Ni168  1  0.95732965  0.90678287  0.37468654  1
  Ni  Ni169  1  0.53389523  0.47651760  0.87892916  1
  Ni  Ni170  1  0.83999843  0.81525984  0.45411462  1
  Ni  Ni171  1  0.62581037  0.27178770  0.10133206  1
  Ni  Ni172  1  0.29323787  0.02302943  0.21674598  1
  Ni  Ni173  1  0.88202006  0.24050321  0.75673112  1
  Ni  Ni174  1  0.74780870  0.21485803  0.24432433  1
  Ni  Ni175  1  0.94593141  0.51707477  0.95442926  1
  Ni  Ni176  1  0.70826020  0.39380741  0.16576532  1
  Ni  Ni177  1  0.11574972  0.24665898  0.61455914  1
  Ni  Ni178  1  0.35721401  0.36191985  0.45367779  1
  Ni  Ni179  1  0.20760500  0.84587976  0.74881048  1
  Ni  Ni180  1  0.21892343  0.36989499  0.22361325  1
  Ni  Ni181  1  0.77738976  0.52321736  0.92701892  1
  Ni  Ni182  1  0.63083559  0.34696030  0.83452724  1
  Ni  Ni183  1  0.06031824  0.39446304  0.14399031  1
  Ni  Ni184  1  0.95522833  0.43500905  0.26153604  1
  Ni  Ni185  1  0.34640236  0.94335455  0.86249434  1
  Ni  Ni186  1  0.36960611  0.36884470  0.14579623  1
  Ni  Ni187  1  0.22910453  0.78324893  0.33977903  1
  Ni  Ni188  1  0.98657786  0.14746580  0.18267542  1
  Ni  Ni189  1  0.71120789  -0.00235775  0.08094037  1
  Ni  Ni190  1  0.48913830  0.24131664  0.21936711  1
  Ni  Ni191  1  0.96366029  0.73120786  0.54038401  1
  Ni  Ni192  1  0.86465817  0.95363073  0.73607503  1
  Ni  Ni193  1  0.26721506  0.71019577  0.65377673  1
  Ni  Ni194  1  0.63964874  0.86851622  0.01621266  1
  Ni  Ni195  1  0.07277441  0.78445135  0.42398537  1
  Ni  Ni196  1  0.48889340  0.83857683  0.82817123  1
  Ni  Ni197  1  0.49258831  0.45682091  0.54680297  1
  Ni  Ni198  1  0.52026167  0.71362301  0.58496422  1
  Ni  Ni199  1  0.40142488  0.79427872  0.69489777  1
  Ni  Ni200  1  0.59692107  0.57152486  0.62685570  1
  Ni  Ni201  1  0.88711175  0.94891401  0.02453275  1
  Ni  Ni202  1  0.00537225  0.58726193  0.29327937  1
  Ni  Ni203  1  0.72087947  0.60290518  0.36381561  1
  Ni  Ni204  1  0.07256994  0.31551166  0.91117682  1
  Ni  Ni205  1  0.21049263  0.04234360  0.88862276  1
  Ni  Ni206  1  0.62785379  0.20358657  0.36346321  1
  Ni  Ni207  1  0.88904313  0.55778902  0.80584419  1
  Ni  Ni208  1  0.47575068  0.05249530  0.93958509  1
  Ni  Ni209  1  0.93090600  0.09442669  0.51384730  1
  Ni  Ni210  1  0.88924507  0.19953474  0.04416895  1
  Ni  Ni211  1  0.30722389  0.46626140  0.32896582  1
  Ni  Ni212  1  0.40168725  0.75993059  0.39132515  1
  Ni  Ni213  1  0.65646748  0.90395941  0.38837581  1
  Ni  Ni214  1  0.11555971  0.11548804  0.73535257  1
  Ni  Ni215  1  0.04187061  0.05259817  0.40520611  1
