# generated using pymatgen
data_Ti2CoNi
_symmetry_space_group_name_H-M   'P 1'
_cell_length_a   14.67242245
_cell_length_b   14.61219859
_cell_length_c   14.61806542
_cell_angle_alpha   90.26232172
_cell_angle_beta   89.96105382
_cell_angle_gamma   89.60685005
_symmetry_Int_Tables_number   1
_chemical_formula_structural   Ti2CoNi
_chemical_formula_sum   'Ti108 Co54 Ni54'
_cell_volume   3133.95245904
_cell_formula_units_Z   54
loop_
 _symmetry_equiv_pos_site_id
 _symmetry_equiv_pos_as_xyz
  1  'x, y, z'
loop_
 _atom_site_type_symbol
 _atom_site_label
 _atom_site_symmetry_multiplicity
 _atom_site_fract_x
 _atom_site_fract_y
 _atom_site_fract_z
 _atom_site_occupancy
  Ti  Ti0  1  -0.06765508  0.05018916  -0.01542193  1
  Ti  Ti1  1  0.10091281  0.06704425  0.26943204  1
  Ti  Ti2  1  -0.01204750  0.11030001  0.66133417  1
  Ti  Ti3  1  0.03530240  0.35622654  -0.02556316  1
  Ti  Ti4  1  -0.07249527  0.39466056  0.37172358  1
  Ti  Ti5  1  0.03075353  0.37590685  0.68239015  1
  Ti  Ti6  1  0.01469510  0.65403469  0.03440361  1
  Ti  Ti7  1  -0.00846886  0.70717848  0.31085728  1
  Ti  Ti8  1  0.04434267  0.58062331  0.69503404  1
  Ti  Ti9  1  0.39528686  0.04030487  0.07196848  1
  Ti  Ti10  1  0.29844933  0.06742200  0.36757261  1
  Ti  Ti11  1  0.32880594  -0.04693035  0.69805157  1
  Ti  Ti12  1  0.29128310  0.34961662  0.10249570  1
  Ti  Ti13  1  0.35699004  0.31597789  0.31254326  1
  Ti  Ti14  1  0.38059757  0.31955022  0.63238559  1
  Ti  Ti15  1  0.33839817  0.65866877  0.01851760  1
  Ti  Ti16  1  0.33242675  0.65138661  0.23172393  1
  Ti  Ti17  1  0.40525897  0.66208469  0.63476071  1
  Ti  Ti18  1  0.73870828  -0.04271911  0.01781989  1
  Ti  Ti19  1  0.68057487  -0.02865682  0.30573777  1
  Ti  Ti20  1  0.74104832  -0.07432334  0.68374432  1
  Ti  Ti21  1  0.67579993  0.34654884  0.05241013  1
  Ti  Ti22  1  0.65937326  0.29285514  0.35239931  1
  Ti  Ti23  1  0.65759050  0.37989351  0.70269486  1
  Ti  Ti24  1  0.61495685  0.68320472  -0.04457326  1
  Ti  Ti25  1  0.67358222  0.65465007  0.42469729  1
  Ti  Ti26  1  0.68924896  0.72262570  0.72245902  1
  Ti  Ti27  1  -0.02475794  0.16393178  0.14594028  1
  Ti  Ti28  1  -0.00274180  0.18298476  0.44603126  1
  Ti  Ti29  1  -0.03273659  0.18296893  0.83817851  1
  Ti  Ti30  1  -0.01941807  0.46990967  0.13277188  1
  Ti  Ti31  1  0.03214659  0.54901849  0.43348514  1
  Ti  Ti32  1  -0.04990769  0.53090151  0.86529367  1
  Ti  Ti33  1  0.06554704  0.82320636  0.12598408  1
  Ti  Ti34  1  -0.06736651  0.85169329  0.43579310  1
  Ti  Ti35  1  -0.00377894  0.80893997  0.82200739  1
  Ti  Ti36  1  0.23021791  0.16761484  0.11674128  1
  Ti  Ti37  1  0.25856437  0.22032840  0.50870989  1
  Ti  Ti38  1  0.34547039  0.17364842  0.79460967  1
  Ti  Ti39  1  0.41804677  0.48065621  0.17912929  1
  Ti  Ti40  1  0.32878254  0.50704297  0.56539736  1
  Ti  Ti41  1  0.33013802  0.48352027  0.92360492  1
  Ti  Ti42  1  0.32891190  0.89109464  0.20950848  1
  Ti  Ti43  1  0.33795998  0.89168862  0.47543447  1
  Ti  Ti44  1  0.32609823  0.80209452  0.88476150  1
  Ti  Ti45  1  0.58782502  0.11474497  0.07411177  1
  Ti  Ti46  1  0.70568008  0.10125778  0.55350037  1
  Ti  Ti47  1  0.62211796  0.16639715  0.77328338  1
  Ti  Ti48  1  0.62997353  0.47096541  0.21547319  1
  Ti  Ti49  1  0.65478465  0.50295980  0.54349560  1
  Ti  Ti50  1  0.62952670  0.52757355  0.82681647  1
  Ti  Ti51  1  0.67812860  0.76423835  0.13438735  1
  Ti  Ti52  1  0.65465770  0.82461242  0.54030841  1
  Ti  Ti53  1  0.66985392  0.85042603  0.87242290  1
  Ti  Ti54  1  0.20961877  -0.02593469  0.04806298  1
  Ti  Ti55  1  0.03829657  -0.00906882  0.53459145  1
  Ti  Ti56  1  0.25294483  -0.00582698  0.86713759  1
  Ti  Ti57  1  0.09970544  0.31597574  0.17989068  1
  Ti  Ti58  1  0.08278490  0.36037164  0.47929262  1
  Ti  Ti59  1  0.20609659  0.29997683  0.72622716  1
  Ti  Ti60  1  0.14156798  0.58175990  0.19771273  1
  Ti  Ti61  1  0.18365425  0.66328452  0.55932210  1
  Ti  Ti62  1  0.21994992  0.71122155  0.74125764  1
  Ti  Ti63  1  0.48299309  0.03300623  0.24139002  1
  Ti  Ti64  1  0.55890571  -0.00876665  0.46132517  1
  Ti  Ti65  1  0.50407432  -0.01289918  0.89230440  1
  Ti  Ti66  1  0.51344150  0.27026392  0.18596617  1
  Ti  Ti67  1  0.51310664  0.38072701  0.46724995  1
  Ti  Ti68  1  0.51138949  0.35818192  0.87701506  1
  Ti  Ti69  1  0.50718425  0.65443845  0.11607347  1
  Ti  Ti70  1  0.48361154  0.70530779  0.42055914  1
  Ti  Ti71  1  0.51112166  0.68626200  0.78950191  1
  Ti  Ti72  1  0.88361274  -0.02620295  0.26268940  1
  Ti  Ti73  1  0.84806472  0.04972150  0.43730735  1
  Ti  Ti74  1  0.92890037  -0.01586514  0.79342901  1
  Ti  Ti75  1  0.85734968  0.32957996  0.18267535  1
  Ti  Ti76  1  0.87385387  0.33241993  0.55898514  1
  Ti  Ti77  1  0.78638003  0.28355148  0.82046747  1
  Ti  Ti78  1  0.86485334  0.63186092  0.18111219  1
  Ti  Ti79  1  0.92653620  0.65196543  0.54425489  1
  Ti  Ti80  1  0.78565154  0.63673009  0.86121962  1
  Ti  Ti81  1  0.12187410  0.12508553  -0.05126026  1
  Ti  Ti82  1  0.17256778  0.22660367  0.32607866  1
  Ti  Ti83  1  0.17849753  0.10353701  0.67184625  1
  Ti  Ti84  1  0.13822664  0.52963371  -0.03766204  1
  Ti  Ti85  1  0.21143827  0.53423566  0.39439233  1
  Ti  Ti86  1  0.22942782  0.49700157  0.74397338  1
  Ti  Ti87  1  0.13911704  0.79308007  -0.06191646  1
  Ti  Ti88  1  0.16358031  0.82045062  0.35649575  1
  Ti  Ti89  1  0.16774732  0.87013307  0.59658787  1
  Ti  Ti90  1  0.48259324  0.16800732  -0.08121567  1
  Ti  Ti91  1  0.50532142  0.17164466  0.36762635  1
  Ti  Ti92  1  0.51258338  0.14425073  0.60352392  1
  Ti  Ti93  1  0.56932507  0.49247437  0.01609492  1
  Ti  Ti94  1  0.39972809  0.51962908  0.37900015  1
  Ti  Ti95  1  0.43890818  0.49222084  0.75018120  1
  Ti  Ti96  1  0.52935243  0.85744710  0.04251904  1
  Ti  Ti97  1  0.50411088  0.81268322  0.24125591  1
  Ti  Ti98  1  0.53129396  0.86853171  0.70101752  1
  Ti  Ti99  1  0.77191248  0.17954061  0.05787865  1
  Ti  Ti100  1  0.78443473  0.16270628  0.26706471  1
  Ti  Ti101  1  0.79989714  0.10488989  0.72591810  1
  Ti  Ti102  1  0.84051485  0.39576629  -0.02023450  1
  Ti  Ti103  1  0.74502580  0.46631358  0.37811490  1
  Ti  Ti104  1  0.82360914  0.53462663  0.67824530  1
  Ti  Ti105  1  0.86519011  0.78997661  0.05980581  1
  Ti  Ti106  1  0.77573229  0.77520547  0.31251817  1
  Ti  Ti107  1  0.87842535  0.80650226  0.63918233  1
  Co  Co108  1  0.39541511  0.78608328  0.10399928  1
  Co  Co109  1  0.14908931  0.43586016  0.08896683  1
  Co  Co110  1  0.41208463  0.07151872  0.47200735  1
  Co  Co111  1  0.06057850  0.65285951  0.84451943  1
  Co  Co112  1  -0.00435294  0.54991977  0.27541781  1
  Co  Co113  1  -0.00078303  0.27000430  0.29858377  1
  Co  Co114  1  0.06831893  0.74371325  0.69506324  1
  Co  Co115  1  0.34909435  0.37868678  0.46932971  1
  Co  Co116  1  0.66073154  0.59788671  0.11374342  1
  Co  Co117  1  0.72552807  0.51752624  0.96926288  1
  Co  Co118  1  0.08978470  0.44473151  0.81762001  1
  Co  Co119  1  0.65348991  0.06475458  0.92685114  1
  Co  Co120  1  0.48754482  0.60440702  0.26877464  1
  Co  Co121  1  0.77602645  0.66384441  0.02707638  1
  Co  Co122  1  0.08579559  0.41615905  0.31259144  1
  Co  Co123  1  0.38357489  0.80118524  0.73785452  1
  Co  Co124  1  0.77458859  -0.02465127  0.84890506  1
  Co  Co125  1  1.02428600  0.80349048  0.55781631  1
  Co  Co126  1  0.37612433  0.90677906  0.99120898  1
  Co  Co127  1  0.14252309  0.12071028  0.46426399  1
  Co  Co128  1  0.69521853  0.28758639  0.19581234  1
  Co  Co129  1  0.42303773  0.23458840  0.49157428  1
  Co  Co130  1  0.61179304  0.69730312  0.27582487  1
  Co  Co131  1  0.21247007  0.38283729  0.89986252  1
  Co  Co132  1  0.09040563  0.04851103  0.79744859  1
  Co  Co133  1  0.58126124  0.52722208  0.38068481  1
  Co  Co134  1  0.85148033  0.48376335  0.25897363  1
  Co  Co135  1  0.17480950  0.67576826  0.06747564  1
  Co  Co136  1  0.17193426  0.27585317  0.00866161  1
  Co  Co137  1  0.24483159  0.82316309  0.05928830  1
  Co  Co138  1  0.91353603  0.70856251  0.91874301  1
  Co  Co139  1  0.52957720  0.28827202  0.02122172  1
  Co  Co140  1  0.49009022  0.56549516  0.52278382  1
  Co  Co141  1  0.76870565  0.88379619  0.17835319  1
  Co  Co142  1  0.90895523  0.67104138  0.74099247  1
  Co  Co143  1  0.67049208  0.37968355  0.89007207  1
  Co  Co144  1  0.79251605  0.45833212  0.81671980  1
  Co  Co145  1  0.73300289  0.59896997  0.26655712  1
  Co  Co146  1  0.65478786  0.22238647  0.93239780  1
  Co  Co147  1  0.88933741  0.55177217  0.01664341  1
  Co  Co148  1  0.21913688  0.36912803  0.38843387  1
  Co  Co149  1  0.93758711  0.12606888  0.30654067  1
  Co  Co150  1  0.90747652  0.25242135  0.69983447  1
  Co  Co151  1  0.60223792  -0.00425667  0.62493637  1
  Co  Co152  1  0.28229613  0.53250311  0.09949362  1
  Co  Co153  1  0.62809402  1.00169911  0.78093735  1
  Co  Co154  1  1.02204866  0.91629993  0.67994011  1
  Co  Co155  1  0.77958569  0.47857004  0.12081163  1
  Co  Co156  1  0.30141235  0.12151481  0.96029046  1
  Co  Co157  1  0.44501090  0.97603474  0.59265895  1
  Co  Co158  1  0.62075231  0.13636973  0.23380994  1
  Co  Co159  1  0.86347252  0.61220549  0.37322037  1
  Co  Co160  1  -0.13006594  0.99163077  0.60449789  1
  Co  Co161  1  0.67185321  0.11938167  0.39474248  1
  Ni  Ni162  1  0.82891389  0.24183483  0.41014807  1
  Ni  Ni163  1  0.93893666  0.35876307  0.82830949  1
  Ni  Ni164  1  0.50933769  0.39459401  0.30138578  1
  Ni  Ni165  1  0.33829201  0.78360509  0.34028508  1
  Ni  Ni166  1  1.00961521  0.99133414  0.37683392  1
  Ni  Ni167  1  0.91802454  0.81562633  0.21744520  1
  Ni  Ni168  1  0.80867121  0.13203733  0.89984236  1
  Ni  Ni169  1  0.32814981  0.65965656  0.46455898  1
  Ni  Ni170  1  0.60314748  0.23718711  0.50407779  1
  Ni  Ni171  1  0.08683284  0.23367929  0.59818396  1
  Ni  Ni172  1  0.42678252  0.40994503  0.03121843  1
  Ni  Ni173  1  0.36751402  0.16867057  0.23634986  1
  Ni  Ni174  1  0.34635539  0.28406914  0.94624877  1
  Ni  Ni175  1  0.24803039  0.44984345  0.24205854  1
  Ni  Ni176  1  0.91146768  0.94526352  0.10434696  1
  Ni  Ni177  1  0.16037824  0.92104196  0.21234124  1
  Ni  Ni178  1  0.22127806  0.37359667  0.57670650  1
  Ni  Ni179  1  0.80790377  0.74583312  0.47530016  1
  Ni  Ni180  1  0.40352718  0.20349705  0.07791310  1
  Ni  Ni181  1  0.35255792  0.62438648  0.80802457  1
  Ni  Ni182  1  0.73606906  0.65014887  0.58748006  1
  Ni  Ni183  1  0.74098212  0.24803355  0.64657654  1
  Ni  Ni184  1  0.46486175  0.05692697  0.74403351  1
  Ni  Ni185  1  0.51828410  0.42523929  0.62599517  1
  Ni  Ni186  1  0.71913220  0.35031918  0.50644743  1
  Ni  Ni187  1  0.95814456  0.47861611  0.56771683  1
  Ni  Ni188  1  0.60945214  0.83484054  0.37927004  1
  Ni  Ni189  1  0.26060553  0.02623782  0.54706483  1
  Ni  Ni190  1  0.77393827  0.91050297  0.47386612  1
  Ni  Ni191  1  0.21222703  0.75981128  0.20756615  1
  Ni  Ni192  1  0.58546469  0.56963069  0.67674167  1
  Ni  Ni193  1  0.50269148  0.28487356  0.73307615  1
  Ni  Ni194  1  0.30781525  0.78286990  0.59172750  1
  Ni  Ni195  1  0.75552049  0.04425749  0.15756003  1
  Ni  Ni196  1  0.08059546  0.71056165  0.44651685  1
  Ni  Ni197  1  0.13177070  0.50544175  0.57210623  1
  Ni  Ni198  1  0.82189333  0.81260647  0.80226349  1
  Ni  Ni199  1  0.06206247  0.02395568  0.10043772  1
  Ni  Ni200  1  0.10165331  0.27054337  0.84401464  1
  Ni  Ni201  1  0.26792702  0.04299102  0.20911256  1
  Ni  Ni202  1  0.06991856  0.95126743  0.93096647  1
  Ni  Ni203  1  0.61055839  0.95508653  0.15032740  1
  Ni  Ni204  1  0.49533917  0.82184431  0.87985220  1
  Ni  Ni205  1  0.47372320  0.58482385  0.91952343  1
  Ni  Ni206  1  0.35046269  0.13519231  0.62906284  1
  Ni  Ni207  1  0.91874182  0.23313413  -0.00111611  1
  Ni  Ni208  1  0.88993024  0.89266261  0.93661606  1
  Ni  Ni209  1  0.86279687  0.16119290  0.56338218  1
  Ni  Ni210  1  0.16937121  0.87759047  0.77322641  1
  Ni  Ni211  1  0.44675213  0.91945884  0.35560948  1
  Ni  Ni212  1  0.22131314  0.64994398  0.89794059  1
  Ni  Ni213  1  0.34720431  0.35711579  0.79810369  1
  Ni  Ni214  1  0.56176013  0.70542735  0.59386080  1
  Ni  Ni215  1  0.17320774  0.96547594  0.42456383  1
