# generated using pymatgen
data_Ti2CoNi
_symmetry_space_group_name_H-M   'P 1'
_cell_length_a   14.48626183
_cell_length_b   14.50453376
_cell_length_c   14.52216502
_cell_angle_alpha   90.35773098
_cell_angle_beta   89.98683863
_cell_angle_gamma   90.05265962
_symmetry_Int_Tables_number   1
_chemical_formula_structural   Ti2CoNi
_chemical_formula_sum   'Ti108 Co54 Ni54'
_cell_volume   3051.28526598
_cell_formula_units_Z   54
loop_
 _symmetry_equiv_pos_site_id
 _symmetry_equiv_pos_as_xyz
  1  'x, y, z'
loop_
 _atom_site_type_symbol
 _atom_site_label
 _atom_site_symmetry_multiplicity
 _atom_site_fract_x
 _atom_site_fract_y
 _atom_site_fract_z
 _atom_site_occupancy
  Ti  Ti0  1  -0.11424556  -0.02652061  0.00069028  1
  Ti  Ti1  1  0.02182349  0.05245651  0.40745735  1
  Ti  Ti2  1  -0.08536536  0.03083839  0.66998395  1
  Ti  Ti3  1  0.02329789  0.28271534  -0.00591820  1
  Ti  Ti4  1  -0.01709167  0.26187194  0.28092625  1
  Ti  Ti5  1  0.02617457  0.30203415  0.64944945  1
  Ti  Ti6  1  -0.00297316  0.74200754  0.01728235  1
  Ti  Ti7  1  -0.05240184  0.56427201  0.27465634  1
  Ti  Ti8  1  0.06089419  0.72072950  0.68860589  1
  Ti  Ti9  1  0.38470661  -0.04026607  -0.01276081  1
  Ti  Ti10  1  0.30724760  0.08743803  0.34928980  1
  Ti  Ti11  1  0.38351443  -0.01696100  0.64789944  1
  Ti  Ti12  1  0.35037459  0.41005073  0.00038755  1
  Ti  Ti13  1  0.34245232  0.28039179  0.31040296  1
  Ti  Ti14  1  0.41915590  0.35576521  0.68470800  1
  Ti  Ti15  1  0.28312235  0.62833307  -0.00424689  1
  Ti  Ti16  1  0.35991936  0.68886278  0.27538595  1
  Ti  Ti17  1  0.23858810  0.65650152  0.71965273  1
  Ti  Ti18  1  0.73348387  0.06502039  0.00303690  1
  Ti  Ti19  1  0.67899227  0.01206648  0.41841246  1
  Ti  Ti20  1  0.71232823  0.08059003  0.64591457  1
  Ti  Ti21  1  0.59169711  0.26054332  -0.01153607  1
  Ti  Ti22  1  0.68814062  0.41464369  0.40188618  1
  Ti  Ti23  1  0.72035226  0.40710396  0.65320219  1
  Ti  Ti24  1  0.66671616  0.62437798  0.07924423  1
  Ti  Ti25  1  0.62602354  0.66909425  0.30922982  1
  Ti  Ti26  1  0.73333622  0.58862598  0.67050557  1
  Ti  Ti27  1  -0.06687155  0.14934981  0.12549382  1
  Ti  Ti28  1  0.01499344  0.21489787  0.47711275  1
  Ti  Ti29  1  0.00867642  0.18778852  0.80332039  1
  Ti  Ti30  1  -0.09329886  0.50968633  0.08903480  1
  Ti  Ti31  1  0.09086516  0.52342960  0.42251991  1
  Ti  Ti32  1  -0.01383716  0.45230308  0.86693538  1
  Ti  Ti33  1  -0.00629116  0.80788196  0.21608909  1
  Ti  Ti34  1  -0.00298788  0.83446642  0.42474823  1
  Ti  Ti35  1  0.04069125  0.89517493  0.86705647  1
  Ti  Ti36  1  0.35963522  0.24573151  0.07227837  1
  Ti  Ti37  1  0.32865052  0.14318950  0.57311760  1
  Ti  Ti38  1  0.38479577  0.20404268  0.79454108  1
  Ti  Ti39  1  0.22144653  0.50651206  0.13869653  1
  Ti  Ti40  1  0.36651987  0.54610319  0.51740401  1
  Ti  Ti41  1  0.30251457  0.38252531  0.82114486  1
  Ti  Ti42  1  0.33903962  0.83897531  0.15869173  1
  Ti  Ti43  1  0.32556842  0.83932523  0.45395239  1
  Ti  Ti44  1  0.30679675  0.89081201  0.80922598  1
  Ti  Ti45  1  0.69246968  0.08788529  0.21107759  1
  Ti  Ti46  1  0.56696665  0.13968396  0.52741336  1
  Ti  Ti47  1  0.67636008  0.13903043  0.83059204  1
  Ti  Ti48  1  0.74898550  0.48200204  0.17707563  1
  Ti  Ti49  1  0.55252158  0.51164481  0.58137787  1
  Ti  Ti50  1  0.61814407  0.55359556  0.81071576  1
  Ti  Ti51  1  0.67353438  0.81280024  0.16964154  1
  Ti  Ti52  1  0.66235183  0.88962701  0.58179422  1
  Ti  Ti53  1  0.65496970  0.80483775  0.84139174  1
  Ti  Ti54  1  0.20336392  -0.01063984  0.17888197  1
  Ti  Ti55  1  0.10199743  0.04632711  0.59798380  1
  Ti  Ti56  1  0.18800414  0.01971043  0.88092195  1
  Ti  Ti57  1  0.18526950  0.32927531  0.17934262  1
  Ti  Ti58  1  0.17225303  0.36271155  0.50764147  1
  Ti  Ti59  1  0.11772305  0.33652028  0.82106773  1
  Ti  Ti60  1  0.08979789  0.65849940  0.18770637  1
  Ti  Ti61  1  0.14322862  0.70319955  0.51369298  1
  Ti  Ti62  1  0.13210848  0.65831074  0.87606610  1
  Ti  Ti63  1  0.50605882  -0.06942981  0.17657253  1
  Ti  Ti64  1  0.46127018  -0.00507369  0.46142990  1
  Ti  Ti65  1  0.56215464  -0.02035158  0.90058250  1
  Ti  Ti66  1  0.53385146  0.39368347  0.19011964  1
  Ti  Ti67  1  0.43844473  0.32223355  0.49984822  1
  Ti  Ti68  1  0.56903526  0.33445034  0.77593463  1
  Ti  Ti69  1  0.43393617  0.67772585  0.09281342  1
  Ti  Ti70  1  0.57851326  0.71089824  0.51853585  1
  Ti  Ti71  1  0.44479432  0.67762736  0.81616512  1
  Ti  Ti72  1  0.86557512  -0.03574992  0.18470135  1
  Ti  Ti73  1  0.85367334  -0.04277371  0.49668709  1
  Ti  Ti74  1  0.77659880  -0.03320080  0.82571664  1
  Ti  Ti75  1  0.78136807  0.28395857  0.21526699  1
  Ti  Ti76  1  0.86827009  0.36895386  0.50623294  1
  Ti  Ti77  1  0.74897159  0.30402717  0.80836750  1
  Ti  Ti78  1  0.80992098  0.67853913  0.19205436  1
  Ti  Ti79  1  0.90026228  0.65981080  0.47299840  1
  Ti  Ti80  1  0.83836061  0.60613482  0.84829369  1
  Ti  Ti81  1  0.18407914  0.13482055  0.03783251  1
  Ti  Ti82  1  0.14896846  0.19493375  0.32728213  1
  Ti  Ti83  1  0.19832246  0.18004613  0.72093881  1
  Ti  Ti84  1  0.18288535  0.46635990  -0.03972777  1
  Ti  Ti85  1  0.25500026  0.51620909  0.32548230  1
  Ti  Ti86  1  0.18175391  0.51340290  0.60658643  1
  Ti  Ti87  1  0.19605394  0.80954272  0.01336323  1
  Ti  Ti88  1  0.18828520  0.81791907  0.32055604  1
  Ti  Ti89  1  0.19898303  0.86205817  0.59870792  1
  Ti  Ti90  1  0.51547054  0.10862544  0.08156093  1
  Ti  Ti91  1  0.52439743  0.15449378  0.32982154  1
  Ti  Ti92  1  0.50555069  0.08896341  0.72048795  1
  Ti  Ti93  1  0.52456651  0.52580979  -0.02077069  1
  Ti  Ti94  1  0.48443779  0.47442046  0.36748485  1
  Ti  Ti95  1  0.41730502  0.52987630  0.70006904  1
  Ti  Ti96  1  0.56454834  0.83747089  0.02026107  1
  Ti  Ti97  1  0.47880794  0.82216623  0.35560806  1
  Ti  Ti98  1  0.51079570  0.83584728  0.71470762  1
  Ti  Ti99  1  0.87401883  0.15750047  -0.07141101  1
  Ti  Ti100  1  0.83817907  0.10851844  0.31449489  1
  Ti  Ti101  1  0.83409560  0.22892329  0.62292863  1
  Ti  Ti102  1  0.76945612  0.49388097  -0.02469336  1
  Ti  Ti103  1  0.86239129  0.41826688  0.32008968  1
  Ti  Ti104  1  0.89759775  0.50579146  0.66574467  1
  Ti  Ti105  1  0.86319838  0.79818152  -0.09573472  1
  Ti  Ti106  1  0.78528501  0.79847849  0.33371506  1
  Ti  Ti107  1  0.85951719  0.75952728  0.63884666  1
  Co  Co108  1  0.03032439  1.07676094  0.94670022  1
  Co  Co109  1  0.91462548  0.85742064  0.76430855  1
  Co  Co110  1  0.49570418  0.23311755  0.65240612  1
  Co  Co111  1  0.18737903  0.30726582  0.02105581  1
  Co  Co112  1  0.23187411  1.01562045  0.70451357  1
  Co  Co113  1  0.66788426  0.23301249  0.66307039  1
  Co  Co114  1  0.04148746  0.89693514  0.67274598  1
  Co  Co115  1  0.07676744  0.93335955  0.29184485  1
  Co  Co116  1  0.92227316  0.50849712  0.44209211  1
  Co  Co117  1  0.73840112  0.14310379  0.47449685  1
  Co  Co118  1  0.07124258  0.41386961  0.10347837  1
  Co  Co119  1  0.91749697  0.71271583  0.32888525  1
  Co  Co120  1  0.71776496  0.36877850  0.06208614  1
  Co  Co121  1  0.93324734  0.02166847  0.83355534  1
  Co  Co122  1  0.53714925  -0.00409650  0.31486071  1
  Co  Co123  1  0.41352912  0.16830059  0.44678836  1
  Co  Co124  1  1.01005037  0.57857156  0.76708708  1
  Co  Co125  1  0.08150314  0.04835735  0.77251636  1
  Co  Co126  1  0.61495528  0.50496050  0.28135111  1
  Co  Co127  1  0.46256327  0.45873602  0.84858164  1
  Co  Co128  1  0.58575101  0.33897407  0.58796886  1
  Co  Co129  1  0.27474905  -0.01661557  0.52721083  1
  Co  Co130  1  0.96758246  0.71842372  0.82382227  1
  Co  Co131  1  0.34540235  0.39694644  0.21750425  1
  Co  Co132  1  0.73832777  0.25787357  0.95624893  1
  Co  Co133  1  0.80376405  0.92030289  0.65285456  1
  Co  Co134  1  0.20978157  0.34817745  0.68661247  1
  Co  Co135  1  0.17067983  0.50372320  0.78875881  1
  Co  Co136  1  0.17501002  0.10246893  0.45162641  1
  Co  Co137  1  0.86233385  0.35879927  0.92274471  1
  Co  Co138  1  0.92909326  0.39066579  0.17723789  1
  Co  Co139  1  0.16657054  0.80015988  0.79732613  1
  Co  Co140  1  0.35883777  0.04772217  0.10883850  1
  Co  Co141  1  0.68297394  0.75773749  0.64592942  1
  Co  Co142  1  0.87498371  0.29799167  0.06321485  1
  Co  Co143  1  0.83130967  0.14630713  0.77208033  1
  Co  Co144  1  0.28662614  0.26956114  0.92051323  1
  Co  Co145  1  0.01968870  0.59442136  0.56616500  1
  Co  Co146  1  0.25671913  0.24413984  0.44695016  1
  Co  Co147  1  0.61712185  0.56355706  0.42960314  1
  Co  Co148  1  0.53083777  0.70064038  0.93212923  1
  Co  Co149  1  0.57589122  0.65836614  0.69953144  1
  Co  Co150  1  0.25039042  0.69228518  0.14549759  1
  Co  Co151  1  0.72784036  0.30245870  0.51235228  1
  Co  Co152  1  0.05793628  0.45812738  0.68632511  1
  Co  Co153  1  0.15226421  0.21023647  0.57466391  1
  Co  Co154  1  0.55458107  0.55503442  0.14767727  1
  Co  Co155  1  1.01966442  0.41470373  0.53962282  1
  Co  Co156  1  0.77523899  0.72340596  0.77216994  1
  Co  Co157  1  0.41681695  0.54545345  0.24612960  1
  Co  Co158  1  0.88579838  0.11715545  0.50026205  1
  Co  Co159  1  1.00217204  0.78786395  0.56402218  1
  Co  Co160  1  0.15360603  0.83828220  0.17418374  1
  Co  Co161  1  0.77257967  0.49358592  0.51639198  1
  Ni  Ni162  1  0.84579021  0.24440255  0.39457033  1
  Ni  Ni163  1  0.62914791  0.85281528  0.41285624  1
  Ni  Ni164  1  0.35494875  0.93328821  0.29554344  1
  Ni  Ni165  1  0.03822272  0.89098335  0.03746766  1
  Ni  Ni166  1  0.68893024  0.65677086  0.91696248  1
  Ni  Ni167  1  0.64527811  0.97991012  0.09593345  1
  Ni  Ni168  1  0.73852156  0.19477447  0.08951007  1
  Ni  Ni169  1  0.51797118  0.73923902  0.20838689  1
  Ni  Ni170  1  0.51499995  0.14802444  0.90051147  1
  Ni  Ni171  1  0.45001978  0.30241143  0.90755752  1
  Ni  Ni172  1  0.09372653  0.48020905  0.26279044  1
  Ni  Ni173  1  1.02462357  0.07822715  0.24700799  1
  Ni  Ni174  1  0.45616369  0.67489847  0.61152202  1
  Ni  Ni175  1  0.17018779  0.36573991  0.34259432  1
  Ni  Ni176  1  0.77497994  0.57235370  0.34373302  1
  Ni  Ni177  1  0.39346027  0.52427685  0.08954700  1
  Ni  Ni178  1  0.11523273  0.60061419  0.03499214  1
  Ni  Ni179  1  0.71632368  0.91850547  0.96748836  1
  Ni  Ni180  1  0.27378791  0.65426395  0.41377501  1
  Ni  Ni181  1  0.43156805  0.70706186  0.44807214  1
  Ni  Ni182  1  0.33693301  0.10775036  0.94130519  1
  Ni  Ni183  1  0.15042123  0.18480468  0.89532887  1
  Ni  Ni184  1  0.04730879  0.04156216  0.08878416  1
  Ni  Ni185  1  0.68038681  0.20347118  0.32982160  1
  Ni  Ni186  1  0.29748582  0.73688550  0.86444955  1
  Ni  Ni187  1  0.67599086  0.93770410  0.26162548  1
  Ni  Ni188  1  0.55048077  0.00037640  0.60116294  1
  Ni  Ni189  1  0.79197040  0.46634802  0.79687523  1
  Ni  Ni190  1  0.89617373  0.35430686  0.74676786  1
  Ni  Ni191  1  0.38128207  0.79377607  -0.01528298  1
  Ni  Ni192  1  -0.03097529  0.59327253  0.94629476  1
  Ni  Ni193  1  0.46762348  0.85209304  0.56135254  1
  Ni  Ni194  1  0.32645587  0.40321780  0.41430182  1
  Ni  Ni195  1  0.31560266  0.41518625  0.58556953  1
  Ni  Ni196  1  0.25829176  0.15896965  0.19712164  1
  Ni  Ni197  1  0.46481671  0.84588053  0.85690513  1
  Ni  Ni198  1  0.63428289  0.40645236  0.90793349  1
  Ni  Ni199  1  0.87275229  0.81308159  0.09384120  1
  Ni  Ni200  1  0.81816777  0.64513272  0.02248117  1
  Ni  Ni201  1  0.32787549  0.55713405  0.84059196  1
  Ni  Ni202  1  0.58572641  0.26945054  0.44677569  1
  Ni  Ni203  1  0.44984410  0.23513135  0.20659087  1
  Ni  Ni204  1  0.73973288  0.64251261  0.52117148  1
  Ni  Ni205  1  0.35014742  0.79071927  0.68354416  1
  Ni  Ni206  1  0.60793780  0.23316653  0.17427673  1
  Ni  Ni207  1  0.91888792  0.93440792  0.32578380  1
  Ni  Ni208  1  0.13969156  0.94456041  0.44479654  1
  Ni  Ni209  1  0.40054812  0.02478216  0.82579115  1
  Ni  Ni210  1  0.28614791  0.69620908  0.57667617  1
  Ni  Ni211  1  0.08968648  0.19975079  0.15127671  1
  Ni  Ni212  1  0.63836244  0.96414682  0.74621577  1
  Ni  Ni213  1  0.07756254  0.69209930  0.36252219  1
  Ni  Ni214  1  0.76712787  0.79931125  0.50190113  1
  Ni  Ni215  1  0.73000628  0.76838137  0.03198009  1
