# generated using pymatgen
data_Ti2CoNi
_symmetry_space_group_name_H-M   'P 1'
_cell_length_a   14.64052276
_cell_length_b   14.61066836
_cell_length_c   14.64896565
_cell_angle_alpha   90.04430506
_cell_angle_beta   89.81638161
_cell_angle_gamma   89.83269327
_symmetry_Int_Tables_number   1
_chemical_formula_structural   Ti2CoNi
_chemical_formula_sum   'Ti108 Co54 Ni54'
_cell_volume   3133.49793443
_cell_formula_units_Z   54
loop_
 _symmetry_equiv_pos_site_id
 _symmetry_equiv_pos_as_xyz
  1  'x, y, z'
loop_
 _atom_site_type_symbol
 _atom_site_label
 _atom_site_symmetry_multiplicity
 _atom_site_fract_x
 _atom_site_fract_y
 _atom_site_fract_z
 _atom_site_occupancy
  Ti  Ti0  1  0.02857179  -0.02825260  -0.06095244  1
  Ti  Ti1  1  -0.00436309  0.05174071  0.25808866  1
  Ti  Ti2  1  -0.09817787  0.01617301  0.72340941  1
  Ti  Ti3  1  -0.02309079  0.38099395  0.08854324  1
  Ti  Ti4  1  -0.00144123  0.34041452  0.37822729  1
  Ti  Ti5  1  -0.05240559  0.36243812  0.61956238  1
  Ti  Ti6  1  0.07129974  0.62273420  0.00407057  1
  Ti  Ti7  1  -0.01320198  0.69392418  0.31121937  1
  Ti  Ti8  1  0.03218751  0.60140611  0.63322450  1
  Ti  Ti9  1  0.33522686  0.01572922  0.06153554  1
  Ti  Ti10  1  0.38112015  0.01120220  0.37915168  1
  Ti  Ti11  1  0.32106252  -0.00782906  0.66286967  1
  Ti  Ti12  1  0.38381251  0.28188476  0.01320524  1
  Ti  Ti13  1  0.31312019  0.40852990  0.30936331  1
  Ti  Ti14  1  0.37034239  0.28740239  0.68039858  1
  Ti  Ti15  1  0.26177214  0.71045155  -0.02609209  1
  Ti  Ti16  1  0.35972741  0.67365810  0.39433757  1
  Ti  Ti17  1  0.34485251  0.71990626  0.67272924  1
  Ti  Ti18  1  0.69929270  -0.00276228  -0.01416253  1
  Ti  Ti19  1  0.73152625  -0.04939431  0.33006662  1
  Ti  Ti20  1  0.70412968  0.02795704  0.66548308  1
  Ti  Ti21  1  0.63217183  0.39737030  -0.02067788  1
  Ti  Ti22  1  0.64503149  0.35155479  0.32305694  1
  Ti  Ti23  1  0.71897361  0.37280594  0.63543597  1
  Ti  Ti24  1  0.62445311  0.67910627  0.00565487  1
  Ti  Ti25  1  0.68429384  0.73712670  0.28674817  1
  Ti  Ti26  1  0.62936390  0.60510521  0.69713708  1
  Ti  Ti27  1  -0.08624093  0.21273173  0.20811232  1
  Ti  Ti28  1  0.00755940  0.14880621  0.54067893  1
  Ti  Ti29  1  0.01097226  0.17929092  0.82427354  1
  Ti  Ti30  1  -0.01437154  0.53103122  0.20055786  1
  Ti  Ti31  1  0.03758396  0.48290830  0.49670490  1
  Ti  Ti32  1  -0.04376557  0.49524524  0.77450533  1
  Ti  Ti33  1  0.00039743  0.80985062  0.17102415  1
  Ti  Ti34  1  0.01747536  0.79277844  0.53799724  1
  Ti  Ti35  1  0.00055018  0.78484525  0.85577307  1
  Ti  Ti36  1  0.28351173  0.24825860  0.20143819  1
  Ti  Ti37  1  0.33357236  0.17639097  0.51195828  1
  Ti  Ti38  1  0.26800869  0.26340242  0.85916503  1
  Ti  Ti39  1  0.40063637  0.52128021  0.17293668  1
  Ti  Ti40  1  0.34811909  0.51150645  0.57784221  1
  Ti  Ti41  1  0.29122560  0.55404539  0.78816728  1
  Ti  Ti42  1  0.36183697  0.81745911  0.12384253  1
  Ti  Ti43  1  0.30076674  0.85480681  0.48100698  1
  Ti  Ti44  1  0.43659855  0.82865229  0.79887233  1
  Ti  Ti45  1  0.67935307  0.16518803  0.22991429  1
  Ti  Ti46  1  0.63457813  0.22366713  0.47453239  1
  Ti  Ti47  1  0.67137238  0.19756905  0.80633130  1
  Ti  Ti48  1  0.64083183  0.44435751  0.17037398  1
  Ti  Ti49  1  0.62867466  0.53778384  0.50298783  1
  Ti  Ti50  1  0.67781361  0.56035750  0.87575484  1
  Ti  Ti51  1  0.73204627  0.82423769  0.11432700  1
  Ti  Ti52  1  0.62660235  0.76798491  0.52787744  1
  Ti  Ti53  1  0.61686088  0.89797839  0.82107115  1
  Ti  Ti54  1  0.14196772  0.07902524  0.15033390  1
  Ti  Ti55  1  0.11216591  -0.05148380  0.46538479  1
  Ti  Ti56  1  0.19267823  0.03554792  0.82087389  1
  Ti  Ti57  1  0.12612908  0.37271269  0.23219990  1
  Ti  Ti58  1  0.14206608  0.30178271  0.53271982  1
  Ti  Ti59  1  0.16908995  0.32087787  1.03548937  1
  Ti  Ti60  1  0.25247676  0.67871151  0.20620858  1
  Ti  Ti61  1  0.20162941  0.66193469  0.51102761  1
  Ti  Ti62  1  0.19535997  0.73736977  0.79670619  1
  Ti  Ti63  1  0.53004227  -0.00592008  0.11988564  1
  Ti  Ti64  1  0.57271897  -0.01137739  0.47099950  1
  Ti  Ti65  1  0.40493252  0.00890907  0.84544053  1
  Ti  Ti66  1  0.47844489  0.31809387  0.17894076  1
  Ti  Ti67  1  0.40730035  0.34131821  0.44866946  1
  Ti  Ti68  1  0.49629501  0.32357912  0.83592641  1
  Ti  Ti69  1  0.54194669  0.72045042  0.16100342  1
  Ti  Ti70  1  0.47478790  0.65632884  0.55059281  1
  Ti  Ti71  1  0.46438079  0.63051474  0.85126979  1
  Ti  Ti72  1  0.83600705  0.01485561  0.14816316  1
  Ti  Ti73  1  0.86198646  -0.06162307  0.52746175  1
  Ti  Ti74  1  0.82871801  -0.10004653  0.84580813  1
  Ti  Ti75  1  0.78713838  0.32977116  0.12502156  1
  Ti  Ti76  1  0.83513900  0.26315452  0.48812682  1
  Ti  Ti77  1  0.82053379  0.32882485  0.79810845  1
  Ti  Ti78  1  0.84840131  0.66622960  0.13936810  1
  Ti  Ti79  1  0.87719556  0.61997149  0.47307601  1
  Ti  Ti80  1  0.87608242  0.61823072  0.88896954  1
  Ti  Ti81  1  0.11137997  0.14809769  -0.02969579  1
  Ti  Ti82  1  0.17469506  0.11471873  0.36575033  1
  Ti  Ti83  1  0.18673411  0.12465809  0.62629889  1
  Ti  Ti84  1  0.18435557  0.47574492  -0.07225089  1
  Ti  Ti85  1  0.13964811  0.55761504  0.33569587  1
  Ti  Ti86  1  0.13905259  0.41720401  0.71547615  1
  Ti  Ti87  1  0.19047083  0.89561170  0.03144933  1
  Ti  Ti88  1  0.15492562  0.78561531  0.35528747  1
  Ti  Ti89  1  0.11078513  0.91173795  0.69027004  1
  Ti  Ti90  1  0.56545753  0.16642064  0.00414279  1
  Ti  Ti91  1  0.47136095  0.13206571  0.24987316  1
  Ti  Ti92  1  0.49354906  0.14399153  0.72030403  1
  Ti  Ti93  1  0.46027553  0.47119160  -0.01380024  1
  Ti  Ti94  1  0.56341612  0.56426136  0.30080666  1
  Ti  Ti95  1  0.52465496  0.43248003  0.65292055  1
  Ti  Ti96  1  0.45941896  0.77094528  -0.02793363  1
  Ti  Ti97  1  0.46755101  0.83366919  0.30275794  1
  Ti  Ti98  1  0.46104143  0.86220193  0.61213241  1
  Ti  Ti99  1  0.87931704  0.19605786  -0.00698312  1
  Ti  Ti100  1  0.82616232  0.10756338  0.36920774  1
  Ti  Ti101  1  0.87310980  0.19566429  0.68718054  1
  Ti  Ti102  1  0.84107677  0.42433403  -0.05258149  1
  Ti  Ti103  1  0.78497937  0.49124649  0.33621402  1
  Ti  Ti104  1  0.83052937  0.54151393  0.63190513  1
  Ti  Ti105  1  0.88446206  0.87038700  0.02043372  1
  Ti  Ti106  1  0.82236751  0.79203946  0.41975787  1
  Ti  Ti107  1  0.77270637  0.81519758  0.67200201  1
  Co  Co108  1  0.53085105  0.48609783  0.82126269  1
  Co  Co109  1  0.30629330  0.81471841  0.29429333  1
  Co  Co110  1  0.77036507  0.66739889  0.75402325  1
  Co  Co111  1  -0.03467289  0.07872847  0.07184354  1
  Co  Co112  1  0.71071671  0.90777488  0.50974646  1
  Co  Co113  1  1.04441164  0.94783521  0.10576669  1
  Co  Co114  1  0.58732082  0.28167375  0.68682872  1
  Co  Co115  1  1.03686873  0.22528866  0.10046611  1
  Co  Co116  1  0.28364626  0.53082461  0.42624717  1
  Co  Co117  1  0.48554330  0.13963685  0.44012154  1
  Co  Co118  1  0.95289690  0.52463697  0.35923893  1
  Co  Co119  1  0.07014635  0.80209155  0.00620336  1
  Co  Co120  1  0.85558283  0.09736145  0.55998085  1
  Co  Co121  1  0.78278163  0.49232023  0.77592334  1
  Co  Co122  1  0.78197479  0.68908701  -0.00362581  1
  Co  Co123  1  0.88616428  -0.05259395  0.30405697  1
  Co  Co124  1  0.07044889  0.74520404  0.69430653  1
  Co  Co125  1  0.93505989  0.67596591  0.74669300  1
  Co  Co126  1  0.46069178  0.82770403  0.46083867  1
  Co  Co127  1  0.59794541  0.72732859  0.84699718  1
  Co  Co128  1  0.52988888  0.73700611  0.69581693  1
  Co  Co129  1  0.36003364  0.20335754  0.34619638  1
  Co  Co130  1  0.09630602  0.64702001  0.17300357  1
  Co  Co131  1  0.33220782  0.56113776  0.95094247  1
  Co  Co132  1  0.23127391  0.95278044  0.34854496  1
  Co  Co133  1  0.33540202  0.40384347  0.90055830  1
  Co  Co134  1  0.93805548  0.71557593  1.01526910  1
  Co  Co135  1  -0.00578303  0.30066780  0.95067612  1
  Co  Co136  1  0.28223496  0.35819960  0.57610462  1
  Co  Co137  1  0.48856100  0.42173631  0.30330856  1
  Co  Co138  1  0.12172860  0.31597076  0.85711357  1
  Co  Co139  1  0.16760932  0.41663717  0.41441535  1
  Co  Co140  1  0.97736582  0.33825873  0.78881314  1
  Co  Co141  1  1.01919786  0.46496902  0.92248595  1
  Co  Co142  1  0.89094488  0.72201891  0.60321758  1
  Co  Co143  1  0.11689128  0.47564266  0.09345448  1
  Co  Co144  1  0.71740999  0.07720842  0.48786119  1
  Co  Co145  1  0.28266620  0.87663753  0.75405084  1
  Co  Co146  1  0.41588014  0.14892388  0.10160534  1
  Co  Co147  1  0.00599699  0.98230392  0.58657676  1
  Co  Co148  1  0.41517030  0.68197039  0.24319127  1
  Co  Co149  1  0.22613428  0.50709683  0.21075738  1
  Co  Co150  1  0.44966992  0.57881156  0.69884325  1
  Co  Co151  1  0.05025630  0.24706098  0.67334930  1
  Co  Co152  1  0.74138698  0.66827755  0.58208621  1
  Co  Co153  1  0.57582509  0.11061202  0.58478830  1
  Co  Co154  1  0.62285683  0.88525537  0.64863778  1
  Co  Co155  1  0.51715233  0.26081339  0.33984468  1
  Co  Co156  1  0.91503441  0.54318019  0.03587360  1
  Co  Co157  1  0.23434585  0.58557425  0.07222834  1
  Co  Co158  1  0.38338233  0.43201871  0.74462756  1
  Co  Co159  1  0.29786212  0.41875670  0.07833926  1
  Co  Co160  1  0.20555436  0.26527864  0.70624021  1
  Co  Co161  1  0.40689553  0.64772706  0.06872118  1
  Ni  Ni162  1  0.73041441  0.27075019  0.94726576  1
  Ni  Ni163  1  0.63169750  0.27836305  0.10782997  1
  Ni  Ni164  1  0.48726363  0.25156814  0.56581412  1
  Ni  Ni165  1  0.39329153  0.95719182  0.21869858  1
  Ni  Ni166  1  0.60830687  0.88038187  0.21154789  1
  Ni  Ni167  1  0.04896744  0.64830896  0.45276277  1
  Ni  Ni168  1  0.20827659  0.80248207  0.61201057  1
  Ni  Ni169  1  0.29793617  0.11074697  0.92337536  1
  Ni  Ni170  1  0.42500894  1.02027976  0.54198331  1
  Ni  Ni171  1  0.09414379  0.21415523  0.25662682  1
  Ni  Ni172  1  0.15256523  0.87617422  0.86783005  1
  Ni  Ni173  1  0.18310566  0.49188048  0.56688052  1
  Ni  Ni174  1  0.65900916  0.38164313  0.81029396  1
  Ni  Ni175  1  0.46091481  0.93448958  0.97661057  1
  Ni  Ni176  1  -0.03276304  0.02222362  0.42760866  1
  Ni  Ni177  1  0.98589065  0.17900480  0.37765637  1
  Ni  Ni178  1  0.29180221  0.08087171  0.23699812  1
  Ni  Ni179  1  0.45705644  0.52059310  0.44024146  1
  Ni  Ni180  1  0.09695868  0.58732846  0.81125156  1
  Ni  Ni181  1  0.71482848  0.82445576  0.93920163  1
  Ni  Ni182  1  0.05773912  0.07654366  0.70913351  1
  Ni  Ni183  1  0.73253834  0.53058160  1.03404853  1
  Ni  Ni184  1  0.31607655  0.86867400  0.91820857  1
  Ni  Ni185  1  0.98756185  0.85144804  0.38155878  1
  Ni  Ni186  1  0.51294913  0.98521161  0.71182297  1
  Ni  Ni187  1  0.83060198  0.64522372  0.30365503  1
  Ni  Ni188  1  0.72096986  0.39309695  0.46833905  1
  Ni  Ni189  1  0.93947444  0.85315496  0.69847181  1
  Ni  Ni190  1  0.61045760  0.85059889  0.38099038  1
  Ni  Ni191  1  0.79305190  0.26973827  0.32192883  1
  Ni  Ni192  1  0.19654239  0.62399795  0.66992807  1
  Ni  Ni193  1  0.25694744  0.02341243  0.50112436  1
  Ni  Ni194  1  0.71247671  0.64440218  0.41764376  1
  Ni  Ni195  1  0.31880422  0.13740844  0.75292241  1
  Ni  Ni196  1  0.23293111  0.92412710  0.18706624  1
  Ni  Ni197  1  0.44225550  0.17323831  0.88294457  1
  Ni  Ni198  1  0.54001532  0.69182054  0.39404443  1
  Ni  Ni199  1  0.73245145  0.14922338  0.07198774  1
  Ni  Ni200  1  0.87495969  0.43357262  0.48269499  1
  Ni  Ni201  1  0.55971019  0.38572339  0.48797413  1
  Ni  Ni202  1  0.58657862  0.85571481  0.04335485  1
  Ni  Ni203  1  0.55559644  0.55559911  0.09225150  1
  Ni  Ni204  1  0.69186223  0.61035651  0.17827261  1
  Ni  Ni205  1  0.08981455  0.92280651  0.27062730  1
  Ni  Ni206  1  0.75188180  0.05360613  0.83286768  1
  Ni  Ni207  1  0.71869100  0.19420316  0.62182136  1
  Ni  Ni208  1  0.81705553  0.49419563  0.16713062  1
  Ni  Ni209  1  0.25207649  0.16972788  0.06104361  1
  Ni  Ni210  1  0.58209695  0.02230467  0.29740793  1
  Ni  Ni211  1  0.21938058  0.27229179  0.37831596  1
  Ni  Ni212  1  0.57892947  0.06178663  0.86325295  1
  Ni  Ni213  1  0.83950141  0.80900196  0.24338760  1
  Ni  Ni214  1  0.90238225  0.38367336  0.25279189  1
  Ni  Ni215  1  0.89920864  0.05545807  0.90568351  1
