# generated using pymatgen
data_Ti2CoNi
_symmetry_space_group_name_H-M   'P 1'
_cell_length_a   14.46149435
_cell_length_b   14.48939705
_cell_length_c   14.54897033
_cell_angle_alpha   89.56453620
_cell_angle_beta   89.97840920
_cell_angle_gamma   90.24941705
_symmetry_Int_Tables_number   1
_chemical_formula_structural   Ti2CoNi
_chemical_formula_sum   'Ti108 Co54 Ni54'
_cell_volume   3048.44980856
_cell_formula_units_Z   54
loop_
 _symmetry_equiv_pos_site_id
 _symmetry_equiv_pos_as_xyz
  1  'x, y, z'
loop_
 _atom_site_type_symbol
 _atom_site_label
 _atom_site_symmetry_multiplicity
 _atom_site_fract_x
 _atom_site_fract_y
 _atom_site_fract_z
 _atom_site_occupancy
  Ti  Ti0  1  -0.02952736  -0.01299014  0.03696762  1
  Ti  Ti1  1  -0.04229879  0.05107150  0.35671347  1
  Ti  Ti2  1  0.00729426  -0.01718125  0.63190466  1
  Ti  Ti3  1  -0.02739725  0.32089276  -0.06268051  1
  Ti  Ti4  1  -0.01452197  0.40643339  0.27516483  1
  Ti  Ti5  1  -0.00073430  0.36854396  0.73573233  1
  Ti  Ti6  1  -0.07241930  0.61078972  -0.03782620  1
  Ti  Ti7  1  0.04277019  0.62974035  0.24677986  1
  Ti  Ti8  1  -0.05576172  0.71704126  0.67894471  1
  Ti  Ti9  1  0.34375448  -0.08858495  -0.13185253  1
  Ti  Ti10  1  0.33984857  0.01603298  0.28912785  1
  Ti  Ti11  1  0.28267311  0.04943890  0.69838261  1
  Ti  Ti12  1  0.29519133  0.34380865  0.06555277  1
  Ti  Ti13  1  0.31689809  0.26803750  0.35305034  1
  Ti  Ti14  1  0.45195345  0.34575204  0.68833356  1
  Ti  Ti15  1  0.28771763  0.61656373  -0.04476304  1
  Ti  Ti16  1  0.34118664  0.60406838  0.31701452  1
  Ti  Ti17  1  0.29268243  0.64603561  0.72689890  1
  Ti  Ti18  1  0.71440968  0.03417595  0.01375845  1
  Ti  Ti19  1  0.60453505  -0.06900204  0.32984943  1
  Ti  Ti20  1  0.70597761  -0.01759392  0.76264622  1
  Ti  Ti21  1  0.68222580  0.38287997  -0.06999014  1
  Ti  Ti22  1  0.74230730  0.36983884  0.29784703  1
  Ti  Ti23  1  0.66354933  0.34652200  0.73020962  1
  Ti  Ti24  1  0.60011462  0.69081042  0.03738762  1
  Ti  Ti25  1  0.73116187  0.69400221  0.35083544  1
  Ti  Ti26  1  0.74717096  0.69147446  0.66804753  1
  Ti  Ti27  1  0.07931625  0.10260532  0.18081863  1
  Ti  Ti28  1  -0.01401921  0.17439024  0.51617830  1
  Ti  Ti29  1  -0.04630600  0.16624505  0.75701907  1
  Ti  Ti30  1  0.03725467  0.52906520  0.10313547  1
  Ti  Ti31  1  0.05369717  0.45590201  0.51031793  1
  Ti  Ti32  1  0.02705065  0.54142373  0.83003062  1
  Ti  Ti33  1  0.06790705  0.82256301  0.18094058  1
  Ti  Ti34  1  0.08403527  0.83857574  0.49331261  1
  Ti  Ti35  1  -0.05291799  0.81547233  0.93598354  1
  Ti  Ti36  1  0.39422844  0.19944105  0.16403942  1
  Ti  Ti37  1  0.32135386  0.21114234  0.58253663  1
  Ti  Ti38  1  0.37902675  0.13101365  0.86261204  1
  Ti  Ti39  1  0.37052494  0.52752216  0.13025955  1
  Ti  Ti40  1  0.29852005  0.55761024  0.50870662  1
  Ti  Ti41  1  0.41920263  0.55895135  0.83106697  1
  Ti  Ti42  1  0.30618119  0.81486677  0.19599913  1
  Ti  Ti43  1  0.27012530  0.82086638  0.52085087  1
  Ti  Ti44  1  0.34054819  0.84038636  0.69445675  1
  Ti  Ti45  1  0.65372549  0.20880511  0.13819305  1
  Ti  Ti46  1  0.66407311  0.14767142  0.49871140  1
  Ti  Ti47  1  0.59407918  0.10399115  0.83443926  1
  Ti  Ti48  1  0.63522743  0.44702739  0.15460170  1
  Ti  Ti49  1  0.68418067  0.45803617  0.50237453  1
  Ti  Ti50  1  0.74600809  0.50969059  0.82275445  1
  Ti  Ti51  1  0.58998614  0.84991029  0.15080382  1
  Ti  Ti52  1  0.63352787  0.77351540  0.48291162  1
  Ti  Ti53  1  0.62968423  0.86306528  0.89668717  1
  Ti  Ti54  1  0.19809719  -0.03668555  0.13991580  1
  Ti  Ti55  1  0.24228019  0.02424439  0.46775610  1
  Ti  Ti56  1  0.14001397  0.05640441  0.86637661  1
  Ti  Ti57  1  0.16604997  0.39962362  0.22070577  1
  Ti  Ti58  1  0.22127209  0.37093955  0.50580546  1
  Ti  Ti59  1  0.24840585  0.27934024  0.86986614  1
  Ti  Ti60  1  0.19841418  0.66305184  0.11593160  1
  Ti  Ti61  1  0.06385066  0.64004068  0.52507654  1
  Ti  Ti62  1  0.18512758  0.74874023  0.85443773  1
  Ti  Ti63  1  0.45874465  0.00078985  0.14631975  1
  Ti  Ti64  1  0.48842848  0.05128144  0.49297707  1
  Ti  Ti65  1  0.48392481  0.01384683  0.69235504  1
  Ti  Ti66  1  0.53194987  0.31906276  0.24161420  1
  Ti  Ti67  1  0.55603445  0.30710955  0.43360297  1
  Ti  Ti68  1  0.42303105  0.34394124  0.86579272  1
  Ti  Ti69  1  0.46256612  0.70242062  0.19246874  1
  Ti  Ti70  1  0.44792420  0.68426080  0.46232450  1
  Ti  Ti71  1  0.59405007  0.59601487  0.78792709  1
  Ti  Ti72  1  0.78415079  0.00257731  0.25572534  1
  Ti  Ti73  1  0.75394370  -0.03814012  0.45266582  1
  Ti  Ti74  1  0.92369244  -0.00224209  0.83398086  1
  Ti  Ti75  1  0.87031477  0.28072572  0.16773630  1
  Ti  Ti76  1  0.88271274  0.36220672  0.46198093  1
  Ti  Ti77  1  0.83155357  0.31123308  0.80716445  1
  Ti  Ti78  1  0.72808065  0.68798886  0.16237903  1
  Ti  Ti79  1  0.90335682  0.66224678  0.40522779  1
  Ti  Ti80  1  0.83069498  0.70308161  0.83789087  1
  Ti  Ti81  1  0.23240858  0.15998274  0.03216259  1
  Ti  Ti82  1  0.15917240  0.15632360  0.34005434  1
  Ti  Ti83  1  0.13972347  0.22398724  0.68393217  1
  Ti  Ti84  1  0.12782813  0.40794821  -0.03183992  1
  Ti  Ti85  1  0.16345301  0.55016537  0.37692552  1
  Ti  Ti86  1  0.17461059  0.49717315  0.66412637  1
  Ti  Ti87  1  0.21433090  0.81472000  0.01405051  1
  Ti  Ti88  1  0.19615163  0.85360521  0.33585389  1
  Ti  Ti89  1  0.12417340  0.76562182  0.67953556  1
  Ti  Ti90  1  0.52780204  0.12976556  0.00796427  1
  Ti  Ti91  1  0.50712440  0.13630063  0.31230495  1
  Ti  Ti92  1  0.57643114  0.19720841  0.65270551  1
  Ti  Ti93  1  0.52414198  0.48078371  -0.02189028  1
  Ti  Ti94  1  0.46767686  0.48332208  0.44354023  1
  Ti  Ti95  1  0.47690719  0.54493765  0.63058366  1
  Ti  Ti96  1  0.46875382  0.82336869  -0.01217865  1
  Ti  Ti97  1  0.46988240  0.86434389  0.44069706  1
  Ti  Ti98  1  0.52241920  0.81393628  0.62941762  1
  Ti  Ti99  1  0.83886459  0.19316772  -0.01647641  1
  Ti  Ti100  1  0.80954138  0.17467987  0.39461030  1
  Ti  Ti101  1  0.76151095  0.16895244  0.68191113  1
  Ti  Ti102  1  0.75221432  0.53952035  0.03441921  1
  Ti  Ti103  1  0.84599833  0.53888770  0.23733479  1
  Ti  Ti104  1  0.86676004  0.56633250  0.56346939  1
  Ti  Ti105  1  0.85369191  0.85651860  0.12849594  1
  Ti  Ti106  1  0.91226976  0.85014680  0.33395990  1
  Ti  Ti107  1  0.83015663  0.90455592  0.61517133  1
  Co  Co108  1  0.78741248  0.43414423  0.66611451  1
  Co  Co109  1  0.35214802  0.12740154  0.41389896  1
  Co  Co110  1  0.57956576  0.60353253  0.40466233  1
  Co  Co111  1  0.87797184  0.27529510  0.64477304  1
  Co  Co112  1  0.37025936  0.75949156  0.33490872  1
  Co  Co113  1  0.92182477  0.13580134  0.23012179  1
  Co  Co114  1  0.93784850  0.24666242  0.35587384  1
  Co  Co115  1  0.45747073  0.46292601  0.26410882  1
  Co  Co116  1  0.18923877  0.25186553  0.17372351  1
  Co  Co117  1  0.37371867  0.70392580  0.59277566  1
  Co  Co118  1  0.01903588  0.35186163  0.11085473  1
  Co  Co119  1  0.19123884  0.70401545  0.28032765  1
  Co  Co120  1  0.47563289  0.20541711  0.52223650  1
  Co  Co121  1  0.18277807  0.93089863  0.61503687  1
  Co  Co122  1  0.57474710  0.96387116  0.02603624  1
  Co  Co123  1  0.10888171  0.05882979  0.72259791  1
  Co  Co124  1  0.67226151  0.56251397  0.26821345  1
  Co  Co125  1  0.63346359  0.76424630  0.76091810  1
  Co  Co126  1  0.55041470  0.43678719  0.80423256  1
  Co  Co127  1  0.94870815  0.76585494  0.52698825  1
  Co  Co128  1  0.48127710  -0.00255587  0.89475829  1
  Co  Co129  1  0.93042459  0.42537861  0.60899308  1
  Co  Co130  1  0.21834711  0.54846030  0.22174304  1
  Co  Co131  1  0.45881322  0.38750531  0.11228631  1
  Co  Co132  1  0.20871535  0.90986880  0.77872711  1
  Co  Co133  1  0.33664774  0.91023354  0.39538645  1
  Co  Co134  1  0.03984900  0.25263140  0.23811151  1
  Co  Co135  1  0.35394226  0.72874656  0.06429238  1
  Co  Co136  1  0.53194450  0.71563734  0.87996436  1
  Co  Co137  1  0.49335110  0.86875442  0.78920428  1
  Co  Co138  1  0.65586676  0.07301769  0.35879819  1
  Co  Co139  1  0.98398500  0.18841841  0.07366879  1
  Co  Co140  1  0.62878777  0.03744093  0.17075045  1
  Co  Co141  1  0.23609759  0.69814566  0.43056415  1
  Co  Co142  1  0.34138966  0.35137621  0.22096415  1
  Co  Co143  1  0.65217585  0.23555760  0.33693292  1
  Co  Co144  1  0.58196528  0.66404624  0.61638528  1
  Co  Co145  1  0.60234428  0.94118702  0.51755192  1
  Co  Co146  1  0.60317459  0.44601459  0.34888197  1
  Co  Co147  1  0.09868421  0.89930678  0.93859619  1
  Co  Co148  1  0.36925358  0.73659818  0.86364713  1
  Co  Co149  1  0.46006866  0.69241266  0.73088599  1
  Co  Co150  1  0.96980973  0.95924550  0.20771032  1
  Co  Co151  1  0.68748771  0.85022572  0.63039925  1
  Co  Co152  1  0.65748279  0.52228800  0.65595918  1
  Co  Co153  1  0.10338713  0.06808725  0.02230856  1
  Co  Co154  1  0.97550976  0.12492734  0.92596484  1
  Co  Co155  1  0.02619727  0.56677593  0.67080351  1
  Co  Co156  1  0.17979004  0.21867774  0.48460264  1
  Co  Co157  1  0.75570730  0.16487354  0.24384441  1
  Co  Co158  1  0.04708282  0.30613390  0.57942175  1
  Co  Co159  1  0.45128098  0.62917387  0.99307348  1
  Co  Co160  1  0.70811601  0.84483658  0.04460296  1
  Co  Co161  1  0.71145612  0.62757799  0.52048710  1
  Ni  Ni162  1  0.04533423  0.74593799  0.36064605  1
  Ni  Ni163  1  0.33726843  0.44109996  0.61812532  1
  Ni  Ni164  1  0.35971367  0.95787987  0.57171434  1
  Ni  Ni165  1  0.55870555  0.30777141  0.02486714  1
  Ni  Ni166  1  0.92737810  0.92948653  0.47676410  1
  Ni  Ni167  1  0.67898287  0.21321221  0.96259632  1
  Ni  Ni168  1  0.73053114  0.83462713  0.25512743  1
  Ni  Ni169  1  0.21081839  0.67064945  0.58541708  1
  Ni  Ni170  1  0.76976318  0.84410188  0.79883454  1
  Ni  Ni171  1  0.23464528  -0.01984107  0.97579468  1
  Ni  Ni172  1  0.73570204  0.34361876  0.07664981  1
  Ni  Ni173  1  0.89588628  0.63758471  0.11324109  1
  Ni  Ni174  1  0.35229505  0.90375409  0.06042074  1
  Ni  Ni175  1  0.11208523  0.98628147  0.31170514  1
  Ni  Ni176  1  0.82591832  0.09118064  0.11630148  1
  Ni  Ni177  1  0.14828873  0.09859716  0.57614748  1
  Ni  Ni178  1  0.56768606  0.26811174  0.85399076  1
  Ni  Ni179  1  0.42323559  0.17775758  0.71504695  1
  Ni  Ni180  1  0.84192483  0.06833602  0.55730647  1
  Ni  Ni181  1  0.73256134  0.30062846  0.55692858  1
  Ni  Ni182  1  0.07175703  0.01125618  0.47009933  1
  Ni  Ni183  1  0.11278273  0.59625334  0.97023802  1
  Ni  Ni184  1  0.68615547  0.66103042  0.90504247  1
  Ni  Ni185  1  0.45887653  0.87270536  0.25815287  1
  Ni  Ni186  1  0.27498737  0.31818503  0.70816630  1
  Ni  Ni187  1  0.79180856  0.51686051  0.39472387  1
  Ni  Ni188  1  0.68100705  0.03359604  0.61599576  1
  Ni  Ni189  1  0.14255468  0.38756231  0.80058322  1
  Ni  Ni190  1  0.38985562  0.34217427  0.49103531  1
  Ni  Ni191  1  0.18851486  0.55796242  0.83387958  1
  Ni  Ni192  1  0.81149978  0.92726406  0.93648782  1
  Ni  Ni193  1  0.91250933  0.86195080  0.74518449  1
  Ni  Ni194  1  0.79720328  0.71714031  1.00602525  1
  Ni  Ni195  1  0.87617878  0.72530076  0.24138066  1
  Ni  Ni196  1  0.53201249  0.56368275  0.13151993  1
  Ni  Ni197  1  0.21623852  0.49863653  0.06732005  1
  Ni  Ni198  1  0.55254122  0.38842651  0.57713917  1
  Ni  Ni199  1  0.99036561  0.53025472  0.37790845  1
  Ni  Ni200  1  0.88485736  0.44375283  0.07363068  1
  Ni  Ni201  1  0.05735274  0.86874363  0.78919843  1
  Ni  Ni202  1  0.32316843  0.45511664  0.94638289  1
  Ni  Ni203  1  0.36792191  0.06167626  0.01509659  1
  Ni  Ni204  1  0.09000728  0.22717441  0.85843343  1
  Ni  Ni205  1  0.25544084  0.11169180  0.19989623  1
  Ni  Ni206  1  0.56854318  0.75763083  0.31999877  1
  Ni  Ni207  1  0.87231908  0.56734295  0.73978307  1
  Ni  Ni208  1  0.31063127  0.44417838  0.37124628  1
  Ni  Ni209  1  0.87670169  0.45973765  0.90388233  1
  Ni  Ni210  1  0.07397460  0.31652742  0.40822432  1
  Ni  Ni211  1  0.77127654  0.10935907  0.85400188  1
  Ni  Ni212  1  0.39877301  0.23848000  0.99473688  1
  Ni  Ni213  1  0.04814557  0.73904288  0.03995409  1
  Ni  Ni214  1  0.79974129  0.79305771  0.47985580  1
  Ni  Ni215  1  0.30088970  0.46040193  0.77787004  1
