# generated using pymatgen
data_Ti2CoNi
_symmetry_space_group_name_H-M   'P 1'
_cell_length_a   14.47819244
_cell_length_b   14.51304097
_cell_length_c   14.51290434
_cell_angle_alpha   89.90467388
_cell_angle_beta   90.21646975
_cell_angle_gamma   90.00105716
_symmetry_Int_Tables_number   1
_chemical_formula_structural   Ti2CoNi
_chemical_formula_sum   'Ti108 Co54 Ni54'
_cell_volume   3049.46320814
_cell_formula_units_Z   54
loop_
 _symmetry_equiv_pos_site_id
 _symmetry_equiv_pos_as_xyz
  1  'x, y, z'
loop_
 _atom_site_type_symbol
 _atom_site_label
 _atom_site_symmetry_multiplicity
 _atom_site_fract_x
 _atom_site_fract_y
 _atom_site_fract_z
 _atom_site_occupancy
  Ti  Ti0  1  0.00589847  0.04933178  0.00436688  1
  Ti  Ti1  1  0.00362282  -0.10947089  0.30646802  1
  Ti  Ti2  1  -0.01407063  -0.01385784  0.68469999  1
  Ti  Ti3  1  -0.03387128  0.25763386  -0.03222362  1
  Ti  Ti4  1  0.01639552  0.34478959  0.34619215  1
  Ti  Ti5  1  -0.04069561  0.31693226  0.67092407  1
  Ti  Ti6  1  0.00204978  0.70900495  0.00697661  1
  Ti  Ti7  1  0.00414786  0.66037808  0.33495149  1
  Ti  Ti8  1  -0.03894252  0.65703925  0.68488309  1
  Ti  Ti9  1  0.28226135  -0.02547945  0.04483595  1
  Ti  Ti10  1  0.34533478  -0.00911006  0.40844694  1
  Ti  Ti11  1  0.27767161  0.02745323  0.72474402  1
  Ti  Ti12  1  0.36290286  0.43103686  -0.01879001  1
  Ti  Ti13  1  0.37542811  0.27280209  0.31245165  1
  Ti  Ti14  1  0.30874708  0.31846007  0.60462481  1
  Ti  Ti15  1  0.29381616  0.73447401  0.09794894  1
  Ti  Ti16  1  0.34897757  0.68292472  0.37209198  1
  Ti  Ti17  1  0.27577605  0.69853107  0.68170961  1
  Ti  Ti18  1  0.60171428  0.04157419  -0.06194491  1
  Ti  Ti19  1  0.66065867  -0.03081168  0.37589034  1
  Ti  Ti20  1  0.66027187  0.00189412  0.67529940  1
  Ti  Ti21  1  0.68972001  0.40290604  0.01039874  1
  Ti  Ti22  1  0.58678831  0.31013996  0.29633131  1
  Ti  Ti23  1  0.63164853  0.29377087  0.61098769  1
  Ti  Ti24  1  0.62545666  0.72676044  0.05899428  1
  Ti  Ti25  1  0.70856091  0.63262516  0.29114168  1
  Ti  Ti26  1  0.69892935  0.60916599  0.63983682  1
  Ti  Ti27  1  0.02399126  0.16590573  0.24442057  1
  Ti  Ti28  1  -0.00831798  0.06931115  0.50726270  1
  Ti  Ti29  1  0.10097989  0.16143932  0.86915148  1
  Ti  Ti30  1  0.03419394  0.43074942  0.07707698  1
  Ti  Ti31  1  -0.07690040  0.46068946  0.47423874  1
  Ti  Ti32  1  0.07054696  0.49995599  0.80104118  1
  Ti  Ti33  1  0.01071816  0.86486716  0.11629341  1
  Ti  Ti34  1  0.02468823  0.82908128  0.51709775  1
  Ti  Ti35  1  0.04026912  0.82444064  0.80538196  1
  Ti  Ti36  1  0.28922253  0.13452961  0.14171467  1
  Ti  Ti37  1  0.37913798  0.16045978  0.47070019  1
  Ti  Ti38  1  0.30708103  0.12386071  0.89289992  1
  Ti  Ti39  1  0.35593860  0.45831647  0.18271542  1
  Ti  Ti40  1  0.31839592  0.45790458  0.47446207  1
  Ti  Ti41  1  0.36858418  0.56927333  0.79394624  1
  Ti  Ti42  1  0.36167297  0.84339521  0.24964869  1
  Ti  Ti43  1  0.28291936  0.81001792  0.51329823  1
  Ti  Ti44  1  0.38209524  0.79957439  0.81675794  1
  Ti  Ti45  1  0.72394219  0.15871941  0.17665600  1
  Ti  Ti46  1  0.68850610  0.16221461  0.43506108  1
  Ti  Ti47  1  0.65946197  0.24674212  0.91679435  1
  Ti  Ti48  1  0.75731747  0.52106815  0.12523002  1
  Ti  Ti49  1  0.65623470  0.47521082  0.52093737  1
  Ti  Ti50  1  0.67411252  0.52229713  0.81968900  1
  Ti  Ti51  1  0.65457882  0.80486884  0.25126460  1
  Ti  Ti52  1  0.66506068  0.83190910  0.55869069  1
  Ti  Ti53  1  0.67670990  0.78073512  0.89189249  1
  Ti  Ti54  1  0.12028921  0.01501151  0.17517437  1
  Ti  Ti55  1  0.19476746  0.11315196  0.49266361  1
  Ti  Ti56  1  0.11263758  -0.01352734  0.82523956  1
  Ti  Ti57  1  0.14935822  0.29912427  0.18827024  1
  Ti  Ti58  1  0.10915355  0.37117226  0.51629391  1
  Ti  Ti59  1  0.21222033  0.35994578  0.84462679  1
  Ti  Ti60  1  0.22937809  0.60591292  0.21694404  1
  Ti  Ti61  1  0.21223002  0.61310236  0.48387756  1
  Ti  Ti62  1  0.17521379  0.66281878  0.89092977  1
  Ti  Ti63  1  0.54407899  0.09487194  0.09265525  1
  Ti  Ti64  1  0.43140536  0.03639986  0.60204804  1
  Ti  Ti65  1  0.44484624  -0.01170511  0.82757036  1
  Ti  Ti66  1  0.52625103  0.40375327  0.12186947  1
  Ti  Ti67  1  0.48789516  0.35070579  0.46930634  1
  Ti  Ti68  1  0.47483681  0.29056300  0.77965840  1
  Ti  Ti69  1  0.46663165  0.69883382  0.12861046  1
  Ti  Ti70  1  0.50512741  0.69713303  0.54540345  1
  Ti  Ti71  1  0.53690104  0.65464872  0.84220554  1
  Ti  Ti72  1  0.88640713  0.01891884  0.17418172  1
  Ti  Ti73  1  0.84893187  -0.05834180  0.42235112  1
  Ti  Ti74  1  0.83916784  -0.08086246  0.82610446  1
  Ti  Ti75  1  0.88211231  0.30564900  0.16710118  1
  Ti  Ti76  1  0.80417851  0.32489739  0.52161491  1
  Ti  Ti77  1  0.82330643  0.35070357  0.85633823  1
  Ti  Ti78  1  0.81651767  0.69138865  0.13063001  1
  Ti  Ti79  1  0.75021858  0.72855858  0.43958837  1
  Ti  Ti80  1  0.78901848  0.68096887  0.78769217  1
  Ti  Ti81  1  0.21360829  0.26841826  0.00774456  1
  Ti  Ti82  1  0.23871162  0.12781935  0.31999273  1
  Ti  Ti83  1  0.16122333  0.22908582  0.71071470  1
  Ti  Ti84  1  0.19315796  0.56745736  0.03944499  1
  Ti  Ti85  1  0.11797119  0.47941363  0.28445304  1
  Ti  Ti86  1  0.11564742  0.54365625  0.61948367  1
  Ti  Ti87  1  0.14270770  0.86682321  -0.01863141  1
  Ti  Ti88  1  0.19854111  0.89383257  0.36056842  1
  Ti  Ti89  1  0.15949640  0.86675846  0.64791765  1
  Ti  Ti90  1  0.43488582  0.24010967  0.03457274  1
  Ti  Ti91  1  0.47200575  0.10577436  0.27502102  1
  Ti  Ti92  1  0.61507287  0.16485321  0.74925213  1
  Ti  Ti93  1  0.53693706  0.54633271  -0.01208315  1
  Ti  Ti94  1  0.54134116  0.52663259  0.31676672  1
  Ti  Ti95  1  0.46062483  0.42410838  0.64217081  1
  Ti  Ti96  1  0.44329403  0.89730457  0.02515707  1
  Ti  Ti97  1  0.50731867  0.90233685  0.32740357  1
  Ti  Ti98  1  0.52064039  0.84954091  0.69613440  1
  Ti  Ti99  1  0.80987660  0.12231793  -0.03743398  1
  Ti  Ti100  1  0.87707650  0.20465308  0.37797560  1
  Ti  Ti101  1  0.83610710  0.11647942  0.72378891  1
  Ti  Ti102  1  0.86953708  0.54858691  -0.05614980  1
  Ti  Ti103  1  0.80603203  0.42185599  0.32024103  1
  Ti  Ti104  1  0.78749960  0.44111190  0.67033644  1
  Ti  Ti105  1  0.83553214  0.78564749  -0.02700620  1
  Ti  Ti106  1  0.83700943  0.83220779  0.26056383  1
  Ti  Ti107  1  0.83326551  0.87886841  0.60502880  1
  Co  Co108  1  0.14020009  0.74055526  0.40495591  1
  Co  Co109  1  0.35240514  0.40503100  0.78477332  1
  Co  Co110  1  0.63828055  0.36364560  0.78769846  1
  Co  Co111  1  0.27782945  0.99363863  0.56816744  1
  Co  Co112  1  0.43438950  0.12737167  0.74449268  1
  Co  Co113  1  0.61197395  0.71807949  0.73282197  1
  Co  Co114  1  0.36221625  0.57783642  0.07842846  1
  Co  Co115  1  0.71874406  0.92530922  0.94859290  1
  Co  Co116  1  0.13608904  0.38333965  0.66993230  1
  Co  Co117  1  0.23564825  0.75412952  0.26497201  1
  Co  Co118  1  0.72704545  0.02593499  0.08040750  1
  Co  Co119  1  0.53148715  0.35647937  -0.06216336  1
  Co  Co120  1  0.41197390  0.43839100  0.34355057  1
  Co  Co121  1  0.03853022  0.30701469  0.80286644  1
  Co  Co122  1  0.75753755  0.27527461  0.73044079  1
  Co  Co123  1  0.61874320  0.89135763  0.06261310  1
  Co  Co124  1  0.28055763  0.15601511  0.61724875  1
  Co  Co125  1  0.51181791  0.71149702  0.31208615  1
  Co  Co126  1  0.70057077  1.00746248  0.52293711  1
  Co  Co127  1  0.95827514  0.71428034  0.17689016  1
  Co  Co128  1  0.43140686  1.00369934  0.16524882  1
  Co  Co129  1  0.59667015  -0.01306257  0.18819816  1
  Co  Co130  1  0.25335911  0.37487756  0.27980263  1
  Co  Co131  1  0.79094163  0.26934924  1.03441464  1
  Co  Co132  1  0.21311387  0.54097933  0.76158596  1
  Co  Co133  1  0.46197035  0.23968159  0.62528117  1
  Co  Co134  1  0.41022892  0.60728360  0.24112011  1
  Co  Co135  1  0.59457450  0.78960972  0.42024906  1
  Co  Co136  1  0.77296071  0.84924448  0.10310366  1
  Co  Co137  1  0.73350415  0.16028577  0.59740704  1
  Co  Co138  1  0.74186204  0.96117900  0.23145881  1
  Co  Co139  1  0.85773540  0.41025427  0.02267011  1
  Co  Co140  1  0.23438606  0.49580128  0.91123748  1
  Co  Co141  1  0.43951177  0.69800097  0.69822709  1
  Co  Co142  1  0.53280396  0.20294108  0.42492106  1
  Co  Co143  1  0.67432857  0.33156062  0.42908263  1
  Co  Co144  1  0.91736149  0.15717342  0.10627273  1
  Co  Co145  1  0.31554495  0.23728537  0.75493334  1
  Co  Co146  1  0.41337274  0.06015008  -0.01200128  1
  Co  Co147  1  0.13104247  0.71553480  0.08069092  1
  Co  Co148  1  0.38309023  0.59535084  0.58268803  1
  Co  Co149  1  0.19510648  0.86425570  0.14431833  1
  Co  Co150  1  0.79306403  0.06989496  0.33095678  1
  Co  Co151  1  0.36356247  0.28853315  0.89771552  1
  Co  Co152  1  0.06299736  0.51520544  0.42620857  1
  Co  Co153  1  0.89355382  0.81141674  0.72630265  1
  Co  Co154  1  0.12807154  0.71351126  0.57333724  1
  Co  Co155  1  0.51087549  0.05063453  0.42591550  1
  Co  Co156  1  0.11368404  0.68476867  0.73983073  1
  Co  Co157  1  0.95433024  0.05793799  0.32845421  1
  Co  Co158  1  0.57303804  0.11369296  0.56327181  1
  Co  Co159  1  0.08756762  0.77539006  0.24546480  1
  Co  Co160  1  0.51048351  0.84508911  0.17521698  1
  Co  Co161  1  0.27444174  0.52849226  0.34382232  1
  Ni  Ni162  1  0.13422793  0.04801221  0.62856647  1
  Ni  Ni163  1  0.07768180  0.18568490  0.07558322  1
  Ni  Ni164  1  0.27824235  0.48899287  0.63419350  1
  Ni  Ni165  1  0.24287425  0.27706237  0.42718194  1
  Ni  Ni166  1  0.49559423  0.17124138  0.90672583  1
  Ni  Ni167  1  0.06332715  0.59145726  0.16053761  1
  Ni  Ni168  1  0.53671933  0.92611892  0.54394663  1
  Ni  Ni169  1  0.28333563  0.77701233  0.94614719  1
  Ni  Ni170  1  0.72510763  0.06423010  0.83570054  1
  Ni  Ni171  1  0.93778109  0.18825705  0.81412289  1
  Ni  Ni172  1  0.50208966  0.46471622  0.81472053  1
  Ni  Ni173  1  0.61745207  0.62857251  0.44528557  1
  Ni  Ni174  1  0.04217485  0.55803546  0.96026564  1
  Ni  Ni175  1  0.66477296  0.44547940  0.23805905  1
  Ni  Ni176  1  0.88796505  0.73975131  0.56174060  1
  Ni  Ni177  1  0.17854815  0.08041338  0.99325621  1
  Ni  Ni178  1  0.42498026  0.82192856  0.44794808  1
  Ni  Ni179  1  0.07181891  0.19948090  0.58792292  1
  Ni  Ni180  1  0.94986642  0.03113663  0.85569709  1
  Ni  Ni181  1  0.91796539  0.55174681  0.09648871  1
  Ni  Ni182  1  0.52032906  0.81747459  0.91912272  1
  Ni  Ni183  1  0.87577784  0.52478990  0.77678793  1
  Ni  Ni184  1  0.28193743  -0.00799886  0.23100144  1
  Ni  Ni185  1  0.59499077  0.57420642  0.14846473  1
  Ni  Ni186  1  0.61045675  0.91651901  0.81701761  1
  Ni  Ni187  1  0.10745636  0.04509100  0.34923267  1
  Ni  Ni188  1  0.12688364  0.95500755  0.49466253  1
  Ni  Ni189  1  -0.02957063  0.87158364  0.93789135  1
  Ni  Ni190  1  0.85953888  0.96730109  0.01212258  1
  Ni  Ni191  1  0.48187743  0.25202410  0.18636015  1
  Ni  Ni192  1  0.71706276  0.60688489  0.97602945  1
  Ni  Ni193  1  0.98579044  0.40416468  0.91284256  1
  Ni  Ni194  1  0.60119842  0.25435401  0.06734147  1
  Ni  Ni195  1  0.95826768  0.28892625  0.49810242  1
  Ni  Ni196  1  -0.00518947  0.63078944  0.51275825  1
  Ni  Ni197  1  0.07369557  0.19777119  0.41880186  1
  Ni  Ni198  1  0.40536180  0.65523554  0.94629792  1
  Ni  Ni199  1  0.54549392  0.57320889  0.66634878  1
  Ni  Ni200  1  0.49563713  0.52134369  0.50256307  1
  Ni  Ni201  1  0.21831534  0.81806406  0.78833770  1
  Ni  Ni202  1  0.74594112  0.27975115  0.28422236  1
  Ni  Ni203  1  0.84385674  0.03558461  0.57666981  1
  Ni  Ni204  1  0.83923097  0.59008276  0.56586047  1
  Ni  Ni205  1  0.95929546  0.68006457  0.85402437  1
  Ni  Ni206  1  0.88217968  0.59431074  0.25335086  1
  Ni  Ni207  1  0.32063865  0.29655206  0.14042563  1
  Ni  Ni208  1  0.94188604  0.44473486  0.22327557  1
  Ni  Ni209  1  0.35472184  0.87803096  0.65364256  1
  Ni  Ni210  1  0.20229508  0.42350490  0.10503702  1
  Ni  Ni211  1  0.72424951  0.83705361  0.72314254  1
  Ni  Ni212  1  0.89872285  0.77316928  0.40331143  1
  Ni  Ni213  1  0.29053236  0.92914651  0.87953018  1
  Ni  Ni214  1  0.77244661  0.54487088  0.41937834  1
  Ni  Ni215  1  0.96276328  0.49420456  0.63389198  1
