# generated using pymatgen
data_Ti2CoNi
_symmetry_space_group_name_H-M   'P 1'
_cell_length_a   14.60591419
_cell_length_b   14.58348693
_cell_length_c   14.54865767
_cell_angle_alpha   90.12499905
_cell_angle_beta   90.01696180
_cell_angle_gamma   89.94944990
_symmetry_Int_Tables_number   1
_chemical_formula_structural   Ti2CoNi
_chemical_formula_sum   'Ti108 Co54 Ni54'
_cell_volume   3098.93042268
_cell_formula_units_Z   54
loop_
 _symmetry_equiv_pos_site_id
 _symmetry_equiv_pos_as_xyz
  1  'x, y, z'
loop_
 _atom_site_type_symbol
 _atom_site_label
 _atom_site_symmetry_multiplicity
 _atom_site_fract_x
 _atom_site_fract_y
 _atom_site_fract_z
 _atom_site_occupancy
  Ti  Ti0  1  -0.02621119  -0.00539358  0.05174482  1
  Ti  Ti1  1  0.11823586  0.01540216  0.29466055  1
  Ti  Ti2  1  -0.09186157  -0.05595079  0.65725347  1
  Ti  Ti3  1  0.02319460  0.34360880  0.02894070  1
  Ti  Ti4  1  -0.09111672  0.27835924  0.33552712  1
  Ti  Ti5  1  -0.01841181  0.31073956  0.63943512  1
  Ti  Ti6  1  0.02765846  0.67446679  0.02275620  1
  Ti  Ti7  1  0.03516608  0.65795500  0.25634605  1
  Ti  Ti8  1  0.08236080  0.69411610  0.71479975  1
  Ti  Ti9  1  0.34068434  -0.06213691  0.01094824  1
  Ti  Ti10  1  0.31131013  0.04376508  0.30773564  1
  Ti  Ti11  1  0.35893253  -0.02382962  0.57433814  1
  Ti  Ti12  1  0.35447712  0.46887653  -0.04041464  1
  Ti  Ti13  1  0.31961172  0.32636919  0.47654980  1
  Ti  Ti14  1  0.27593415  0.30222910  0.67337783  1
  Ti  Ti15  1  0.36299583  0.67554253  -0.00916320  1
  Ti  Ti16  1  0.33931743  0.75580233  0.33354379  1
  Ti  Ti17  1  0.35610637  0.64459311  0.67600295  1
  Ti  Ti18  1  0.60493275  0.04887045  0.00509902  1
  Ti  Ti19  1  0.68230691  -0.01416754  0.45235571  1
  Ti  Ti20  1  0.67036392  -0.05627071  0.63900343  1
  Ti  Ti21  1  0.66192202  0.39292471  -0.02989114  1
  Ti  Ti22  1  0.71101192  0.31079107  0.39006331  1
  Ti  Ti23  1  0.59384692  0.32422111  0.63505079  1
  Ti  Ti24  1  0.67611209  0.60478404  0.06483320  1
  Ti  Ti25  1  0.61981907  0.61284204  0.27696086  1
  Ti  Ti26  1  0.65952251  0.62476441  0.61784926  1
  Ti  Ti27  1  0.04301174  0.15210847  0.17343795  1
  Ti  Ti28  1  -0.01885172  0.13515300  0.53263236  1
  Ti  Ti29  1  -0.03777088  0.09151033  0.77706698  1
  Ti  Ti30  1  -0.04489535  0.48533982  0.18323431  1
  Ti  Ti31  1  0.06821772  0.54457416  0.42192877  1
  Ti  Ti32  1  0.04239459  0.54284369  0.86062990  1
  Ti  Ti33  1  -0.05189774  0.81347046  0.16306226  1
  Ti  Ti34  1  -0.01157745  0.86488630  0.49901336  1
  Ti  Ti35  1  -0.03583862  0.79531827  0.82618709  1
  Ti  Ti36  1  0.32198789  0.18522574  0.11270397  1
  Ti  Ti37  1  0.32041124  0.15305226  0.57083106  1
  Ti  Ti38  1  0.39457110  0.15197784  0.89436892  1
  Ti  Ti39  1  0.31400643  0.46008309  0.18593060  1
  Ti  Ti40  1  0.34295222  0.58944842  0.48644014  1
  Ti  Ti41  1  0.32644114  0.46213764  0.74627479  1
  Ti  Ti42  1  0.40049059  0.81621005  0.14677168  1
  Ti  Ti43  1  0.27474742  0.78436391  0.51222628  1
  Ti  Ti44  1  0.35055292  0.81777505  0.80078249  1
  Ti  Ti45  1  0.62506347  0.13108803  0.17562417  1
  Ti  Ti46  1  0.66972216  0.16097761  0.52913713  1
  Ti  Ti47  1  0.74113299  0.15089095  0.85022238  1
  Ti  Ti48  1  0.68350589  0.43687487  0.18491500  1
  Ti  Ti49  1  0.58068695  0.49322266  0.49797739  1
  Ti  Ti50  1  0.65770801  0.44740694  0.77984999  1
  Ti  Ti51  1  0.65093699  0.90278241  0.15533049  1
  Ti  Ti52  1  0.68205577  0.77691185  0.45864188  1
  Ti  Ti53  1  0.65521708  0.96391443  0.82496244  1
  Ti  Ti54  1  0.19203864  0.01538338  0.10948744  1
  Ti  Ti55  1  0.18578870  0.05145765  0.48013851  1
  Ti  Ti56  1  0.20179570  -0.02029707  0.87675556  1
  Ti  Ti57  1  0.13998424  0.37569709  0.17716567  1
  Ti  Ti58  1  0.13524316  0.37123436  0.51193052  1
  Ti  Ti59  1  0.09808957  0.34645449  0.81391882  1
  Ti  Ti60  1  0.22471343  0.66126150  0.19546285  1
  Ti  Ti61  1  0.17038681  0.62092750  0.55287608  1
  Ti  Ti62  1  0.21397473  0.66808136  0.85756195  1
  Ti  Ti63  1  0.46999541  0.00022340  0.19084668  1
  Ti  Ti64  1  0.48645008  0.04207883  0.42876811  1
  Ti  Ti65  1  0.46571669  -0.02441176  0.87504858  1
  Ti  Ti66  1  0.57227143  0.29964230  0.23552810  1
  Ti  Ti67  1  0.52080321  0.30146603  0.44627812  1
  Ti  Ti68  1  0.49035077  0.35763434  0.87134147  1
  Ti  Ti69  1  0.42293432  0.63353984  0.17669439  1
  Ti  Ti70  1  0.49848495  0.73669175  0.46427625  1
  Ti  Ti71  1  0.53460382  0.67715801  0.87378494  1
  Ti  Ti72  1  0.90280366  0.00585535  0.22894014  1
  Ti  Ti73  1  0.87092159  0.00591808  0.42787622  1
  Ti  Ti74  1  0.84679114  -0.02436019  0.88857668  1
  Ti  Ti75  1  0.83814497  0.33571588  0.09291016  1
  Ti  Ti76  1  0.84288243  0.38577774  0.49610030  1
  Ti  Ti77  1  0.80508560  0.33754356  0.75865868  1
  Ti  Ti78  1  0.86016820  0.64746472  0.11082318  1
  Ti  Ti79  1  0.88381671  0.69067908  0.48606794  1
  Ti  Ti80  1  0.79634279  0.67665589  0.79401793  1
  Ti  Ti81  1  0.18841687  0.24566534  -0.03205881  1
  Ti  Ti82  1  0.11013456  0.21481442  0.36281002  1
  Ti  Ti83  1  0.11848758  0.17075284  0.71978250  1
  Ti  Ti84  1  0.16152619  0.45926789  -0.02861506  1
  Ti  Ti85  1  0.24394868  0.45443971  0.36382564  1
  Ti  Ti86  1  0.07697305  0.48362356  0.66165660  1
  Ti  Ti87  1  0.10092465  0.84522263  -0.00736632  1
  Ti  Ti88  1  0.13694422  0.81675356  0.33584081  1
  Ti  Ti89  1  0.16645478  0.89994630  0.63391054  1
  Ti  Ti90  1  0.52053622  0.22164751  0.02926103  1
  Ti  Ti91  1  0.44521943  0.17528633  0.27228200  1
  Ti  Ti92  1  0.48266088  0.16443949  0.71665692  1
  Ti  Ti93  1  0.49011655  0.39993521  0.07114457  1
  Ti  Ti94  1  0.47155174  0.46782633  0.26752361  1
  Ti  Ti95  1  0.50611831  0.51547998  0.70902524  1
  Ti  Ti96  1  0.61599279  0.83760677  -0.04197834  1
  Ti  Ti97  1  0.55836105  0.87642944  0.33975374  1
  Ti  Ti98  1  0.44367136  0.82032226  0.62954041  1
  Ti  Ti99  1  0.79346431  0.13882801  0.04287981  1
  Ti  Ti100  1  0.76204198  0.12663670  0.32753321  1
  Ti  Ti101  1  0.83542987  0.17161149  0.65991342  1
  Ti  Ti102  1  0.83710719  0.49598225  -0.11664135  1
  Ti  Ti103  1  0.88828598  0.52740754  0.36458662  1
  Ti  Ti104  1  0.86110658  0.52105905  0.64348650  1
  Ti  Ti105  1  0.83140260  0.80012827  -0.03085048  1
  Ti  Ti106  1  0.83317286  0.82133853  0.33946722  1
  Ti  Ti107  1  0.77997172  0.77982015  0.63481522  1
  Co  Co108  1  0.25850455  0.30715411  0.26050889  1
  Co  Co109  1  0.41994908  0.46194457  0.42617703  1
  Co  Co110  1  0.25604335  0.81383960  0.93222177  1
  Co  Co111  1  0.79938099  0.49291660  0.05876013  1
  Co  Co112  1  0.09786562  0.76382988  0.55921326  1
  Co  Co113  1  -0.04449601  0.43292314  0.76032457  1
  Co  Co114  1  0.50465964  0.91498596  0.05328721  1
  Co  Co115  1  0.45705319  0.34222368  0.72274239  1
  Co  Co116  1  0.03744737  0.22289332  0.90827497  1
  Co  Co117  1  0.08652187  0.10631533  0.00800329  1
  Co  Co118  1  0.44054345  0.25946950  0.58435442  1
  Co  Co119  1  0.00252181  0.61561489  0.57382514  1
  Co  Co120  1  0.48372043  0.60910969  0.56354336  1
  Co  Co121  1  0.24350284  0.89170706  0.23564441  1
  Co  Co122  1  0.07471917  0.91906960  0.17296496  1
  Co  Co123  1  0.42614790  0.43173086  0.58742199  1
  Co  Co124  1  0.49447623  0.60186109  0.37954337  1
  Co  Co125  1  0.04767430  1.01207614  0.60467422  1
  Co  Co126  1  0.10765290  0.76404153  0.15210366  1
  Co  Co127  1  0.81418496  0.85873448  0.77628340  1
  Co  Co128  1  0.75026972  0.03717324  0.15681290  1
  Co  Co129  1  0.79901151  0.04767916  0.56477148  1
  Co  Co130  1  0.83098354  0.40001600  0.26425232  1
  Co  Co131  1  0.64834459  0.61152039  0.77849656  1
  Co  Co132  1  0.40593950  0.87348172  0.45418123  1
  Co  Co133  1  1.03126243  0.70819211  0.41766908  1
  Co  Co134  1  0.39933682  0.33017622  0.32821706  1
  Co  Co135  1  0.50335735  0.74052539  0.27742506  1
  Co  Co136  1  0.68703866  0.54338478  0.91496393  1
  Co  Co137  1  0.20758395  0.06240330  0.64609014  1
  Co  Co138  1  0.94570048  0.19860400  0.06387305  1
  Co  Co139  1  0.37660316  0.29151322  0.97480622  1
  Co  Co140  1  0.26513479  0.18671381  0.37995283  1
  Co  Co141  1  0.98341708  0.45497569  0.52422362  1
  Co  Co142  1  0.03791393  0.00843312  0.43409130  1
  Co  Co143  1  0.39982917  0.90166549  0.29810818  1
  Co  Co144  1  0.88730504  0.67830638  0.28349803  1
  Co  Co145  1  0.41167892  0.18053380  0.43255987  1
  Co  Co146  1  0.40870383  0.30904891  0.16728237  1
  Co  Co147  1  0.99525179  0.28837402  0.47531217  1
  Co  Co148  1  0.60687072  0.17832325  0.36666472  1
  Co  Co149  1  0.58540656  0.42284982  0.35217284  1
  Co  Co150  1  0.83680054  0.20045887  0.47759801  1
  Co  Co151  1  0.44106122  0.81151898  0.94696787  1
  Co  Co152  1  0.72964772  0.96321747  0.99444701  1
  Co  Co153  1  0.80901210  0.87729008  0.51220180  1
  Co  Co154  1  0.78673070  0.55881983  0.22192503  1
  Co  Co155  1  0.93029568  0.10766939  0.93491436  1
  Co  Co156  1  0.60822980  0.78373848  0.60707115  1
  Co  Co157  1  0.94365565  0.25358379  0.78368507  1
  Co  Co158  1  0.26923582  0.35289137  0.07781909  1
  Co  Co159  1  0.70176089  0.70171140  0.93440856  1
  Co  Co160  1  0.23986058  0.83324631  0.09211415  1
  Co  Co161  1  0.93533511  0.36910487  0.90552269  1
  Ni  Ni162  1  0.94093954  0.75456886  0.65031033  1
  Ni  Ni163  1  0.73825982  0.94765647  0.29395613  1
  Ni  Ni164  1  0.34048458  0.58272579  0.31634534  1
  Ni  Ni165  1  0.75345455  0.29515596  0.59461107  1
  Ni  Ni166  1  0.23616186  0.75204036  0.68269881  1
  Ni  Ni167  1  0.67229221  0.27167224  0.08397498  1
  Ni  Ni168  1  0.30415587  0.96543099  0.74023432  1
  Ni  Ni169  1  0.09749600  0.54485066  0.10326938  1
  Ni  Ni170  1  0.15042053  0.20958263  0.55421080  1
  Ni  Ni171  1  0.46908963  -0.01756000  0.70796571  1
  Ni  Ni172  1  0.82652064  0.90362545  0.10774329  1
  Ni  Ni173  1  0.54703485  0.06698508  0.59087982  1
  Ni  Ni174  1  0.89967879  0.64775153  0.92324446  1
  Ni  Ni175  1  0.26027785  0.09722949  0.97205808  1
  Ni  Ni176  1  0.78494779  0.29086468  0.92790768  1
  Ni  Ni177  1  0.20403771  0.57209176  0.72338565  1
  Ni  Ni178  1  0.19851265  0.65357902  0.37884548  1
  Ni  Ni179  1  0.09855027  -0.00690390  0.75329995  1
  Ni  Ni180  1  0.56952807  0.12435629  0.85818830  1
  Ni  Ni181  1  0.13848562  0.83040752  0.81162633  1
  Ni  Ni182  1  0.13144753  0.52195359  0.26216684  1
  Ni  Ni183  1  -0.01486627  0.31347893  0.19682348  1
  Ni  Ni184  1  0.62220583  0.27372825  0.80041414  1
  Ni  Ni185  1  0.70836930  0.45165415  0.61289707  1
  Ni  Ni186  1  0.75327394  0.65336505  0.36811318  1
  Ni  Ni187  1  0.72635033  0.48442022  0.36544220  1
  Ni  Ni188  1  0.66606441  0.78028010  0.77248024  1
  Ni  Ni189  1  0.54478291  0.91231150  0.52405418  1
  Ni  Ni190  1  0.25587101  0.47147677  0.58538465  1
  Ni  Ni191  1  0.25792596  0.19835036  0.81018174  1
  Ni  Ni192  1  0.96165325  0.12221202  0.33948685  1
  Ni  Ni193  1  0.51773255  0.52756747  0.94931164  1
  Ni  Ni194  1  0.95906150  0.51231665  0.01155208  1
  Ni  Ni195  1  0.52243835  0.84451522  0.78636331  1
  Ni  Ni196  1  0.94206025  0.61020960  0.75313272  1
  Ni  Ni197  1  0.52877952  0.70708753  0.05500035  1
  Ni  Ni198  1  0.43853352  0.07197875  0.04526225  1
  Ni  Ni199  1  0.98677261  0.88964839  0.32432837  1
  Ni  Ni200  1  0.67999368  0.77429200  0.26920817  1
  Ni  Ni201  1  0.20120537  0.15638415  0.22432277  1
  Ni  Ni202  1  0.39035834  0.58995272  0.84048925  1
  Ni  Ni203  1  0.26574080  0.35666891  0.85880844  1
  Ni  Ni204  1  0.01893388  0.95285234  0.88873709  1
  Ni  Ni205  1  0.76980949  0.56141529  0.50258030  1
  Ni  Ni206  1  0.78441811  0.03123082  0.73542705  1
  Ni  Ni207  1  0.74726270  0.25724339  0.22572404  1
  Ni  Ni208  1  0.26029392  0.55357566  0.06574782  1
  Ni  Ni209  1  0.07080906  0.37611008  0.33968091  1
  Ni  Ni210  1  0.72564577  0.76334496  0.09762369  1
  Ni  Ni211  1  0.25569185  0.91605924  0.40137812  1
  Ni  Ni212  1  0.59763166  0.03309576  0.29849865  1
  Ni  Ni213  1  0.54284280  0.54239237  0.12254876  1
  Ni  Ni214  1  0.51931866  0.69155928  0.70797883  1
  Ni  Ni215  1  0.19080611  0.69100468  1.02421171  1
