# generated using pymatgen
data_Ti2CoNi
_symmetry_space_group_name_H-M   'P 1'
_cell_length_a   14.64039412
_cell_length_b   14.61847870
_cell_length_c   14.61279612
_cell_angle_alpha   89.99921024
_cell_angle_beta   89.84130022
_cell_angle_gamma   89.77732587
_symmetry_Int_Tables_number   1
_chemical_formula_structural   Ti2CoNi
_chemical_formula_sum   'Ti108 Co54 Ni54'
_cell_volume   3127.39924285
_cell_formula_units_Z   54
loop_
 _symmetry_equiv_pos_site_id
 _symmetry_equiv_pos_as_xyz
  1  'x, y, z'
loop_
 _atom_site_type_symbol
 _atom_site_label
 _atom_site_symmetry_multiplicity
 _atom_site_fract_x
 _atom_site_fract_y
 _atom_site_fract_z
 _atom_site_occupancy
  Ti  Ti0  1  0.00728624  0.04283455  0.09412305  1
  Ti  Ti1  1  0.04260790  0.04425688  0.28406573  1
  Ti  Ti2  1  -0.01120749  0.06892643  0.69961362  1
  Ti  Ti3  1  0.00906483  0.37616904  0.02243304  1
  Ti  Ti4  1  0.05691717  0.27157545  0.31267413  1
  Ti  Ti5  1  -0.00038512  0.31255034  0.67312275  1
  Ti  Ti6  1  -0.06371986  0.67230390  0.03521743  1
  Ti  Ti7  1  -0.05710177  0.72052233  0.40306533  1
  Ti  Ti8  1  0.02090362  0.60525434  0.68786380  1
  Ti  Ti9  1  0.37306779  -0.00830369  -0.01205514  1
  Ti  Ti10  1  0.28543888  -0.03650803  0.31997273  1
  Ti  Ti11  1  0.32044128  -0.03926532  0.65880395  1
  Ti  Ti12  1  0.30609382  0.30759732  0.01166549  1
  Ti  Ti13  1  0.26976413  0.32839832  0.36081912  1
  Ti  Ti14  1  0.39432490  0.29137988  0.63935268  1
  Ti  Ti15  1  0.36587801  0.64433207  0.05757676  1
  Ti  Ti16  1  0.40000761  0.58126719  0.29660298  1
  Ti  Ti17  1  0.37476072  0.70879390  0.69514215  1
  Ti  Ti18  1  0.59039760  -0.04252978  0.01617020  1
  Ti  Ti19  1  0.56717583  0.01300107  0.31807885  1
  Ti  Ti20  1  0.65089298  -0.04253521  0.61581016  1
  Ti  Ti21  1  0.63918847  0.38959389  -0.03396823  1
  Ti  Ti22  1  0.71060790  0.27885267  0.44626117  1
  Ti  Ti23  1  0.65183445  0.41283368  0.70170704  1
  Ti  Ti24  1  0.70662347  0.69554035  -0.08899984  1
  Ti  Ti25  1  0.61958636  0.61724976  0.33377488  1
  Ti  Ti26  1  0.69061971  0.73238025  0.64159366  1
  Ti  Ti27  1  -0.07715976  0.19489828  0.20215378  1
  Ti  Ti28  1  0.03747855  0.08530622  0.51445527  1
  Ti  Ti29  1  -0.02452080  0.20254047  0.83475709  1
  Ti  Ti30  1  0.02227401  0.56867802  0.18880609  1
  Ti  Ti31  1  -0.05116474  0.43289521  0.44537241  1
  Ti  Ti32  1  0.06052090  0.53872992  0.86506745  1
  Ti  Ti33  1  -0.03939585  0.84486008  0.13950452  1
  Ti  Ti34  1  -0.02720370  0.89197066  0.47881896  1
  Ti  Ti35  1  0.03106939  0.92352581  0.81499775  1
  Ti  Ti36  1  0.38500068  0.26650002  0.19714408  1
  Ti  Ti37  1  0.23099259  0.13202708  0.54447946  1
  Ti  Ti38  1  0.37268412  0.25785985  0.83267640  1
  Ti  Ti39  1  0.33675796  0.46437541  0.14251096  1
  Ti  Ti40  1  0.30733426  0.52072185  0.45186051  1
  Ti  Ti41  1  0.39198690  0.51983558  0.80384658  1
  Ti  Ti42  1  0.31947436  0.84180508  0.13247337  1
  Ti  Ti43  1  0.37660674  0.84798898  0.50660977  1
  Ti  Ti44  1  0.32925059  0.80378195  0.89903099  1
  Ti  Ti45  1  0.70534204  0.16581663  0.16395068  1
  Ti  Ti46  1  0.54731197  0.20483084  0.49984248  1
  Ti  Ti47  1  0.73948576  0.23903911  0.80296890  1
  Ti  Ti48  1  0.66912379  0.47420320  0.15736304  1
  Ti  Ti49  1  0.63103161  0.47692848  0.48064459  1
  Ti  Ti50  1  0.74524384  0.48725755  0.85530812  1
  Ti  Ti51  1  0.67470354  0.83757858  0.21779960  1
  Ti  Ti52  1  0.73061662  0.80137515  0.44454965  1
  Ti  Ti53  1  0.73198944  0.88200955  0.77378905  1
  Ti  Ti54  1  0.21540069  0.02246553  0.13511140  1
  Ti  Ti55  1  0.17220862  -0.06850243  0.52038941  1
  Ti  Ti56  1  0.22482836  -0.01959571  0.85301700  1
  Ti  Ti57  1  0.15481539  0.41779115  0.17829300  1
  Ti  Ti58  1  0.16475872  0.33290927  0.55685691  1
  Ti  Ti59  1  0.14297907  0.29937616  0.83654791  1
  Ti  Ti60  1  0.22019928  0.64772000  0.20693758  1
  Ti  Ti61  1  0.15741971  0.59767350  0.54758421  1
  Ti  Ti62  1  0.16503163  0.74673452  0.82446289  1
  Ti  Ti63  1  0.46015537  -0.03119878  0.16424789  1
  Ti  Ti64  1  0.49713319  0.01477022  0.52003561  1
  Ti  Ti65  1  0.56559423  -0.02147746  0.81787933  1
  Ti  Ti66  1  0.48920767  0.36104436  0.06087730  1
  Ti  Ti67  1  0.43561565  0.36449814  0.46071805  1
  Ti  Ti68  1  0.55986889  0.26925466  0.85550446  1
  Ti  Ti69  1  0.54141626  0.63577202  0.16160291  1
  Ti  Ti70  1  0.46150035  0.64998751  0.50170177  1
  Ti  Ti71  1  0.52681389  0.70857752  0.82811606  1
  Ti  Ti72  1  0.78906268  -0.04315628  0.10562729  1
  Ti  Ti73  1  0.78945236  0.01198099  0.47759509  1
  Ti  Ti74  1  0.83249479  0.03167152  0.83894495  1
  Ti  Ti75  1  0.86615497  0.38157798  0.22194631  1
  Ti  Ti76  1  0.86135891  0.30709669  0.55228149  1
  Ti  Ti77  1  0.88506916  0.35037945  0.87347195  1
  Ti  Ti78  1  0.75889370  0.66427856  0.16816335  1
  Ti  Ti79  1  0.78682181  0.60512349  0.48256258  1
  Ti  Ti80  1  0.87861002  0.62388182  0.85665931  1
  Ti  Ti81  1  0.15775694  0.17366858  0.00930412  1
  Ti  Ti82  1  0.22551202  0.15678301  0.29559683  1
  Ti  Ti83  1  0.27036754  0.13589662  0.73316778  1
  Ti  Ti84  1  0.19057369  0.44215318  -0.03090003  1
  Ti  Ti85  1  0.07980520  0.57203659  0.37720999  1
  Ti  Ti86  1  0.21169596  0.46797389  0.71048711  1
  Ti  Ti87  1  0.07457319  0.82278485  -0.01592584  1
  Ti  Ti88  1  0.09730255  0.86709736  0.31818472  1
  Ti  Ti89  1  0.18958307  0.76816366  0.61522553  1
  Ti  Ti90  1  0.45946497  0.16445927  0.00048959  1
  Ti  Ti91  1  0.41248570  0.12852146  0.37246458  1
  Ti  Ti92  1  0.48359056  0.11979162  0.70048823  1
  Ti  Ti93  1  0.53098288  0.55831573  -0.02126964  1
  Ti  Ti94  1  0.58590735  0.38735443  0.31924921  1
  Ti  Ti95  1  0.47367220  0.49296337  0.61712993  1
  Ti  Ti96  1  0.48840369  0.77892505  0.02025353  1
  Ti  Ti97  1  0.53175426  0.79274261  0.36394941  1
  Ti  Ti98  1  0.53438805  0.81056894  0.58396565  1
  Ti  Ti99  1  0.85097504  0.12174860  0.00118206  1
  Ti  Ti100  1  0.79115848  0.14002272  0.33898715  1
  Ti  Ti101  1  0.79541860  0.07424185  0.65862549  1
  Ti  Ti102  1  0.80847132  0.42220808  0.03049703  1
  Ti  Ti103  1  0.88244239  0.56493542  0.31642824  1
  Ti  Ti104  1  0.80822551  0.56548526  0.67669391  1
  Ti  Ti105  1  0.87240854  0.82154345  -0.10412400  1
  Ti  Ti106  1  0.85618215  0.86132543  0.29548857  1
  Ti  Ti107  1  0.89106977  0.74513293  0.61156381  1
  Co  Co108  1  0.40430146  0.86611875  0.29790890  1
  Co  Co109  1  0.91542392  0.48447903  0.78534522  1
  Co  Co110  1  0.48491749  0.95397794  0.67028297  1
  Co  Co111  1  0.73866105  0.24768903  0.96219991  1
  Co  Co112  1  0.63029440  0.83350043  0.91410595  1
  Co  Co113  1  0.75055341  0.94054498  0.94364295  1
  Co  Co114  1  0.24706565  0.82131415  0.42435068  1
  Co  Co115  1  0.37322615  0.72799304  0.37821485  1
  Co  Co116  1  0.14888294  0.03652420  0.66441216  1
  Co  Co117  1  0.06058784  0.43737300  0.73151628  1
  Co  Co118  1  0.91720852  0.50968403  0.96117299  1
  Co  Co119  1  0.57860306  0.24422112  0.69697828  1
  Co  Co120  1  0.39364491  0.41587188  0.30759616  1
  Co  Co121  1  0.61288535  0.19153218  0.32601394  1
  Co  Co122  1  0.24176449  0.79535021  0.26937117  1
  Co  Co123  1  0.95111812  0.59022225  0.51401080  1
  Co  Co124  1  0.28986620  0.39609549  0.84621492  1
  Co  Co125  1  0.69829666  0.08247685  0.01955948  1
  Co  Co126  1  0.71329474  0.32209186  0.11524742  1
  Co  Co127  1  0.92062262  0.45989127  0.62196595  1
  Co  Co128  1  0.62250106  0.68124506  0.48793819  1
  Co  Co129  1  0.81410283  0.37708578  0.71757686  1
  Co  Co130  1  0.30409475  0.40697268  0.56945785  1
  Co  Co131  1  0.57550139  0.29402742  0.19148624  1
  Co  Co132  1  0.35114937  0.49286166  -0.02123194  1
  Co  Co133  1  0.11053790  0.75196396  0.43194670  1
  Co  Co134  1  0.65167439  0.08466312  0.43682198  1
  Co  Co135  1  0.40444915  0.85000657  0.75312000  1
  Co  Co136  1  0.11590717  0.66040730  0.95742989  1
  Co  Co137  1  0.73910107  0.97516221  0.30819924  1
  Co  Co138  1  0.64769559  0.12055953  0.59283546  1
  Co  Co139  1  0.91711080  0.70261077  0.21489186  1
  Co  Co140  1  1.00387347  0.72475662  0.86057848  1
  Co  Co141  1  0.71445172  0.27548386  0.61533877  1
  Co  Co142  1  0.45079473  0.38886200  0.90804764  1
  Co  Co143  1  0.60015534  0.22531514  0.04180762  1
  Co  Co144  1  0.23251507  0.73929354  1.03009216  1
  Co  Co145  1  0.04701748  0.29226942  0.14692593  1
  Co  Co146  1  0.22367395  0.65384231  0.37297798  1
  Co  Co147  1  0.24312039  0.30440163  0.70462121  1
  Co  Co148  1  0.10567910  0.14995318  0.17877932  1
  Co  Co149  1  0.77778303  0.70380115  0.32498261  1
  Co  Co150  1  0.73482454  0.30170783  0.27656706  1
  Co  Co151  1  0.47077239  0.26823011  0.33263988  1
  Co  Co152  1  0.38633213  0.65440692  0.89272792  1
  Co  Co153  1  0.48680824  0.51451069  0.41788643  1
  Co  Co154  1  0.07310426  0.71158236  0.27627856  1
  Co  Co155  1  0.46959230  0.88433207  0.90040316  1
  Co  Co156  1  0.21900829  0.27126632  0.16601682  1
  Co  Co157  1  0.57591131  0.83109876  0.74167936  1
  Co  Co158  1  0.48256851  0.37653477  0.74049014  1
  Co  Co159  1  0.29883237  0.69194018  0.51965286  1
  Co  Co160  1  0.08273620  0.71173036  0.11282645  1
  Co  Co161  1  1.03836580  0.72470259  0.56108943  1
  Ni  Ni162  1  0.17552356  0.88908979  0.72178339  1
  Ni  Ni163  1  1.01425976  0.43054369  0.28491079  1
  Ni  Ni164  1  0.11782539  0.19382828  0.67203914  1
  Ni  Ni165  1  0.92054699  0.93787585  -0.00717170  1
  Ni  Ni166  1  0.56301476  0.34969722  0.57561470  1
  Ni  Ni167  1  0.12558031  0.11774098  0.82998017  1
  Ni  Ni168  1  0.76505135  0.44577457  0.56565193  1
  Ni  Ni169  1  0.15645188  0.04453331  0.40257683  1
  Ni  Ni170  1  0.88088046  0.28583716  0.36686373  1
  Ni  Ni171  1  0.03188568  0.78242939  0.71503851  1
  Ni  Ni172  1  0.71701222  0.56754853  1.01914839  1
  Ni  Ni173  1  0.23139705  0.62979657  0.73800493  1
  Ni  Ni174  1  0.21460236  0.57471144  0.06128385  1
  Ni  Ni175  1  0.86347675  0.54306226  0.13149193  1
  Ni  Ni176  1  0.03756350  0.91853870  0.62754448  1
  Ni  Ni177  1  0.79001424  0.79880331  0.04705373  1
  Ni  Ni178  1  0.36117282  0.08356029  0.21959658  1
  Ni  Ni179  1  0.32484644  0.56455610  0.62084511  1
  Ni  Ni180  1  0.87356487  0.03878184  0.21253742  1
  Ni  Ni181  1  0.87088878  0.27562729  0.06966450  1
  Ni  Ni182  1  0.39296957  0.14482899  0.55361732  1
  Ni  Ni183  1  0.90891366  1.00511847  0.36777076  1
  Ni  Ni184  1  0.10763857  0.99089185  0.97975097  1
  Ni  Ni185  1  0.98754263  0.06039711  0.90630725  1
  Ni  Ni186  1  0.39076159  0.01917560  0.81483834  1
  Ni  Ni187  1  0.31352011  0.15033037  0.08140546  1
  Ni  Ni188  1  0.63877282  0.57371528  0.61221271  1
  Ni  Ni189  1  0.89112469  0.90569552  0.71691031  1
  Ni  Ni190  1  0.80515273  0.88241242  0.58065282  1
  Ni  Ni191  1  0.66723407  0.60997244  0.77096110  1
  Ni  Ni192  1  0.63847101  0.72705107  0.06269693  1
  Ni  Ni193  1  0.23233254  0.89920481  0.00391612  1
  Ni  Ni194  1  0.06609091  0.46607180  0.56068656  1
  Ni  Ni195  1  0.89230772  0.14695067  0.54687706  1
  Ni  Ni196  1  0.05966246  0.53421551  0.03961148  1
  Ni  Ni197  1  0.81513467  0.73449302  0.75734094  1
  Ni  Ni198  1  0.12941737  0.41097769  0.40735414  1
  Ni  Ni199  1  0.50330317  0.47146372  0.18934578  1
  Ni  Ni200  1  0.62292225  0.92034168  0.44617247  1
  Ni  Ni201  1  0.66046613  0.10079746  0.75452395  1
  Ni  Ni202  1  0.00040959  0.20605402  1.00295408  1
  Ni  Ni203  1  0.73441401  0.50218356  0.30906802  1
  Ni  Ni204  1  0.86815807  0.21588556  0.70357748  1
  Ni  Ni205  1  0.12971312  0.88137630  0.14364235  1
  Ni  Ni206  1  0.39467010  0.71868626  0.21242340  1
  Ni  Ni207  1  0.52085376  0.81403971  0.18166273  1
  Ni  Ni208  1  0.32880892  0.01056684  0.47475541  1
  Ni  Ni209  1  0.56381811  0.49042034  0.82996806  1
  Ni  Ni210  1  0.63954394  1.00740901  0.16828418  1
  Ni  Ni211  1  0.59659122  0.11789686  0.90676433  1
  Ni  Ni212  1  0.13416741  0.21507268  0.44056940  1
  Ni  Ni213  1  0.29455113  0.13192259  0.91179933  1
  Ni  Ni214  1  0.51836777  0.13740687  0.19231754  1
  Ni  Ni215  1  0.23872876  0.49880836  0.29899160  1
