# generated using pymatgen
data_Ti2CoNi
_symmetry_space_group_name_H-M   'P 1'
_cell_length_a   14.69273723
_cell_length_b   14.67285452
_cell_length_c   14.67447049
_cell_angle_alpha   89.57441885
_cell_angle_beta   89.69031103
_cell_angle_gamma   90.00803010
_symmetry_Int_Tables_number   1
_chemical_formula_structural   Ti2CoNi
_chemical_formula_sum   'Ti108 Co54 Ni54'
_cell_volume   3163.45332367
_cell_formula_units_Z   54
loop_
 _symmetry_equiv_pos_site_id
 _symmetry_equiv_pos_as_xyz
  1  'x, y, z'
loop_
 _atom_site_type_symbol
 _atom_site_label
 _atom_site_symmetry_multiplicity
 _atom_site_fract_x
 _atom_site_fract_y
 _atom_site_fract_z
 _atom_site_occupancy
  Ti  Ti0  1  -0.03595420  0.05179273  -0.02977229  1
  Ti  Ti1  1  0.06744549  -0.03408649  0.36296540  1
  Ti  Ti2  1  -0.04398548  -0.07764420  0.62428533  1
  Ti  Ti3  1  -0.02604614  0.32249848  -0.03953463  1
  Ti  Ti4  1  -0.10077100  0.29741281  0.35109723  1
  Ti  Ti5  1  -0.04698583  0.30733023  0.63108089  1
  Ti  Ti6  1  0.05213374  0.65952841  0.01748845  1
  Ti  Ti7  1  0.06828483  0.62919235  0.36676539  1
  Ti  Ti8  1  0.02179817  0.66382497  0.63545268  1
  Ti  Ti9  1  0.39200985  0.01375368  -0.01527104  1
  Ti  Ti10  1  0.26977553  -0.01220557  0.35078067  1
  Ti  Ti11  1  0.35404889  0.03535484  0.64037470  1
  Ti  Ti12  1  0.28927916  0.26542361  0.00991699  1
  Ti  Ti13  1  0.38707737  0.33942748  0.33338564  1
  Ti  Ti14  1  0.41746981  0.36103842  0.62412460  1
  Ti  Ti15  1  0.26437800  0.70275475  -0.00590745  1
  Ti  Ti16  1  0.31906990  0.65839793  0.38223892  1
  Ti  Ti17  1  0.32232200  0.64374355  0.58270515  1
  Ti  Ti18  1  0.63357532  -0.03216772  -0.00375616  1
  Ti  Ti19  1  0.68631706  0.05253186  0.34371085  1
  Ti  Ti20  1  0.64070193  -0.00093364  0.80392522  1
  Ti  Ti21  1  0.72024856  0.42306076  0.02197820  1
  Ti  Ti22  1  0.60699726  0.37173829  0.32890583  1
  Ti  Ti23  1  0.64779428  0.35560336  0.60892103  1
  Ti  Ti24  1  0.65467358  0.71925342  -0.03294313  1
  Ti  Ti25  1  0.65925781  0.58548218  0.28443475  1
  Ti  Ti26  1  0.67072985  0.62014218  0.76155771  1
  Ti  Ti27  1  0.04492931  0.16030966  0.22687232  1
  Ti  Ti28  1  0.05068547  0.16867032  0.53654470  1
  Ti  Ti29  1  0.01135392  0.17444061  0.78536396  1
  Ti  Ti30  1  0.03032821  0.47481145  0.08733358  1
  Ti  Ti31  1  -0.00490132  0.51403633  0.52031773  1
  Ti  Ti32  1  0.01041300  0.50608288  0.87857243  1
  Ti  Ti33  1  -0.10513683  0.83303456  0.18673156  1
  Ti  Ti34  1  -0.05760014  0.76226564  0.48715152  1
  Ti  Ti35  1  -0.00047546  0.90470894  0.83620594  1
  Ti  Ti36  1  0.35584193  0.07793853  0.18104713  1
  Ti  Ti37  1  0.30515004  0.14356067  0.49300645  1
  Ti  Ti38  1  0.29166588  0.18845062  0.81572436  1
  Ti  Ti39  1  0.32187561  0.46107093  0.20095661  1
  Ti  Ti40  1  0.30385976  0.46958793  0.46840396  1
  Ti  Ti41  1  0.35802035  0.57781446  0.88937862  1
  Ti  Ti42  1  0.32973108  0.87590094  0.13950628  1
  Ti  Ti43  1  0.32816334  0.87334079  0.53745150  1
  Ti  Ti44  1  0.32674131  0.79184364  0.83681967  1
  Ti  Ti45  1  0.64452676  0.20360467  0.19150651  1
  Ti  Ti46  1  0.67388516  0.15409115  0.53226579  1
  Ti  Ti47  1  0.69043465  0.16759454  0.88336738  1
  Ti  Ti48  1  0.78668020  0.45376011  0.20016538  1
  Ti  Ti49  1  0.70015392  0.49517493  0.45430755  1
  Ti  Ti50  1  0.70240700  0.44458216  0.81538893  1
  Ti  Ti51  1  0.66663306  0.89818568  0.21468735  1
  Ti  Ti52  1  0.65683879  0.81984109  0.55309351  1
  Ti  Ti53  1  0.71505088  0.80762324  0.76675644  1
  Ti  Ti54  1  0.05002271  -0.01308267  0.13184547  1
  Ti  Ti55  1  0.16019492  0.00048865  0.54011978  1
  Ti  Ti56  1  0.16578551  0.02869901  0.80192580  1
  Ti  Ti57  1  0.15685726  0.34142056  0.19229874  1
  Ti  Ti58  1  0.17438027  0.30165712  0.48204417  1
  Ti  Ti59  1  0.15849083  0.36104949  0.88109880  1
  Ti  Ti60  1  0.17140869  0.57741842  0.19154341  1
  Ti  Ti61  1  0.16698144  0.72984610  0.51358825  1
  Ti  Ti62  1  0.14743234  0.68959375  0.82810304  1
  Ti  Ti63  1  0.50351395  -0.04930099  0.13856972  1
  Ti  Ti64  1  0.50914109  0.06340715  0.46433503  1
  Ti  Ti65  1  0.45897487  0.06348371  0.78364943  1
  Ti  Ti66  1  0.48391518  0.36271688  0.15647189  1
  Ti  Ti67  1  0.52026336  0.26911803  0.48139696  1
  Ti  Ti68  1  0.52749039  0.36708556  0.78963538  1
  Ti  Ti69  1  0.50819616  0.59640134  0.13079826  1
  Ti  Ti70  1  0.49744843  0.72047012  0.46781124  1
  Ti  Ti71  1  0.51141873  0.71807009  0.81717476  1
  Ti  Ti72  1  0.82314571  -0.01762220  0.09623003  1
  Ti  Ti73  1  0.81615376  -0.07754014  0.45785667  1
  Ti  Ti74  1  0.83414569  0.04576821  0.83089536  1
  Ti  Ti75  1  0.86719983  0.27185359  0.16362236  1
  Ti  Ti76  1  0.83866061  0.39666160  0.51904890  1
  Ti  Ti77  1  0.88788005  0.35690454  0.80238188  1
  Ti  Ti78  1  0.73697803  0.70955905  0.15644574  1
  Ti  Ti79  1  0.77515883  0.64864629  0.54050057  1
  Ti  Ti80  1  0.84892619  0.66732271  0.85579615  1
  Ti  Ti81  1  0.13160447  0.13166596  0.03813032  1
  Ti  Ti82  1  0.25405601  0.19872714  0.31668343  1
  Ti  Ti83  1  0.16784368  0.27140897  0.68721489  1
  Ti  Ti84  1  0.22365119  0.46598090  0.03937197  1
  Ti  Ti85  1  0.06786191  0.44186489  0.33453646  1
  Ti  Ti86  1  0.16692808  0.49363727  0.72668013  1
  Ti  Ti87  1  0.14348223  0.83287579  0.06882648  1
  Ti  Ti88  1  0.20977189  0.80212880  0.28407000  1
  Ti  Ti89  1  0.12714569  0.84803154  0.69200353  1
  Ti  Ti90  1  0.49010850  0.23654423  -0.02001436  1
  Ti  Ti91  1  0.47978625  0.19593493  0.28141852  1
  Ti  Ti92  1  0.58080075  0.19421168  0.70257748  1
  Ti  Ti93  1  0.52649812  0.45491655  -0.02152442  1
  Ti  Ti94  1  0.46417889  0.52255141  0.31225423  1
  Ti  Ti95  1  0.49583985  0.57091920  0.67274117  1
  Ti  Ti96  1  0.46718333  0.82378386  -0.01452417  1
  Ti  Ti97  1  0.45671320  0.76884463  0.25570967  1
  Ti  Ti98  1  0.44172832  0.79155936  0.66467363  1
  Ti  Ti99  1  0.78799799  0.16793078  0.03740365  1
  Ti  Ti100  1  0.88952760  0.09629434  0.35023560  1
  Ti  Ti101  1  0.88529067  0.10872700  0.63667168  1
  Ti  Ti102  1  0.84621212  0.58189686  0.04548551  1
  Ti  Ti103  1  0.88643607  0.49237822  0.34753370  1
  Ti  Ti104  1  0.85200742  0.54337206  0.70695485  1
  Ti  Ti105  1  0.86345962  0.78556969  -0.00796076  1
  Ti  Ti106  1  0.78740521  0.75124935  0.35026358  1
  Ti  Ti107  1  0.73744935  0.97677186  0.63791145  1
  Co  Co108  1  0.98288155  0.19305742  0.05175277  1
  Co  Co109  1  0.88904780  0.62135015  0.42802564  1
  Co  Co110  1  1.00078967  0.75099562  0.89084646  1
  Co  Co111  1  0.55226858  0.46928351  0.56599974  1
  Co  Co112  1  0.05318878  0.85564612  0.23019873  1
  Co  Co113  1  0.97682570  0.03245398  0.48969219  1
  Co  Co114  1  0.20271700  0.86930873  0.43660480  1
  Co  Co115  1  0.54501755  0.05088147  0.26327221  1
  Co  Co116  1  0.43077342  0.23617856  0.75209946  1
  Co  Co117  1  0.07999699  0.70675039  0.18476174  1
  Co  Co118  1  0.47083372  0.41854500  0.44507826  1
  Co  Co119  1  0.25473460  0.40006302  0.60701911  1
  Co  Co120  1  0.07505802  0.78886176  0.37764339  1
  Co  Co121  1  0.89042124  0.18593752  0.90869332  1
  Co  Co122  1  0.61375728  0.19762043  0.36960692  1
  Co  Co123  1  0.64817730  0.98050462  0.50042401  1
  Co  Co124  1  0.99118867  0.48942566  0.68632356  1
  Co  Co125  1  -0.05045002  0.77680384  0.72919854  1
  Co  Co126  1  0.80614308  0.07510994  0.49581046  1
  Co  Co127  1  -0.00816373  0.56218703  0.21824911  1
  Co  Co128  1  0.93344661  0.86751646  0.35608759  1
  Co  Co129  1  0.94395318  -0.01305450  0.24858449  1
  Co  Co130  1  0.35170172  0.65163927  0.74377987  1
  Co  Co131  1  0.34449443  0.57875391  0.07379055  1
  Co  Co132  1  0.72336164  0.11829494  0.71354582  1
  Co  Co133  1  0.88185452  0.41195815  0.05994590  1
  Co  Co134  1  -0.09482862  0.10737023  0.15358362  1
  Co  Co135  1  0.42968485  0.56851183  0.50096135  1
  Co  Co136  1  0.69911655  0.51799066  0.62876454  1
  Co  Co137  1  0.36062880  0.62328838  0.22972227  1
  Co  Co138  1  0.29081610  0.43455092  0.88840344  1
  Co  Co139  1  0.56545606  0.55990043  0.42477968  1
  Co  Co140  1  0.80147848  0.69736273  0.69051414  1
  Co  Co141  1  0.83116179  0.61559642  0.25064583  1
  Co  Co142  1  0.65429943  0.69375272  0.43334528  1
  Co  Co143  1  0.96337029  0.39346587  0.21647685  1
  Co  Co144  1  0.84754927  0.20796994  0.75931795  1
  Co  Co145  1  0.38162423  0.40762385  0.03392291  1
  Co  Co146  1  0.57531744  0.04230842  0.64367952  1
  Co  Co147  1  0.77944909  0.24564869  0.60982770  1
  Co  Co148  1  0.40916384  0.47007865  0.77835205  1
  Co  Co149  1  0.39409530  0.32116745  0.88692124  1
  Co  Co150  1  0.40940606  0.73202047  0.10507916  1
  Co  Co151  1  0.95037378  0.71683594  0.29629075  1
  Co  Co152  1  0.92788459  0.68456450  0.13007805  1
  Co  Co153  1  0.34073296  0.30224857  0.48650994  1
  Co  Co154  1  0.79816522  0.93458082  0.29310192  1
  Co  Co155  1  0.30202065  0.34712097  0.75214241  1
  Co  Co156  1  0.79439860  0.31124422  0.92876889  1
  Co  Co157  1  0.41231164  0.93937382  0.27729620  1
  Co  Co158  1  0.39365309  0.08583728  0.35583447  1
  Co  Co159  1  0.06651996  0.86578506  0.52432600  1
  Co  Co160  1  0.99446160  0.62786057  0.78681313  1
  Co  Co161  1  0.89119242  0.21597199  0.49587006  1
  Ni  Ni162  1  0.29187814  0.93198317  0.75280813  1
  Ni  Ni163  1  0.76402006  0.21684106  0.30468176  1
  Ni  Ni164  1  0.20415670  0.11844301  0.64653748  1
  Ni  Ni165  1  0.13756537  0.11748564  0.40156372  1
  Ni  Ni166  1  0.04844693  0.36140726  0.76373635  1
  Ni  Ni167  1  0.00284801  0.34513390  0.46962345  1
  Ni  Ni168  1  0.07909177  0.27306573  0.33774951  1
  Ni  Ni169  1  0.63004914  0.31922099  0.91387402  1
  Ni  Ni170  1  0.45012285  0.90537440  0.83411403  1
  Ni  Ni171  1  0.66157556  0.05076539  0.13615428  1
  Ni  Ni172  1  0.70546496  0.56886818  0.92550957  1
  Ni  Ni173  1  0.23494174  0.99512797  0.08049294  1
  Ni  Ni174  1  0.16823285  0.55119927  0.91484945  1
  Ni  Ni175  1  0.35347250  0.82109595  0.38309029  1
  Ni  Ni176  1  0.05149540  0.04853838  0.67434134  1
  Ni  Ni177  1  0.27283363  0.78442491  0.67403193  1
  Ni  Ni178  1  0.13303778  0.20113408  0.89068158  1
  Ni  Ni179  1  0.57448558  0.88094532  0.70637499  1
  Ni  Ni180  1  0.66297347  0.86572013  0.38642164  1
  Ni  Ni181  1  0.11891382  0.97588570  0.96107827  1
  Ni  Ni182  1  0.53614436  0.08045886  0.92902208  1
  Ni  Ni183  1  0.61397442  0.45492453  0.17719578  1
  Ni  Ni184  1  0.22016162  0.18996215  0.15518926  1
  Ni  Ni185  1  0.82373452  0.82482616  0.60348317  1
  Ni  Ni186  1  0.25369737  0.08555206  0.93829684  1
  Ni  Ni187  1  0.79742482  0.39341406  0.67577576  1
  Ni  Ni188  1  0.16300652  0.55540463  0.53246029  1
  Ni  Ni189  1  0.99216526  0.87922667  0.01074781  1
  Ni  Ni190  1  0.21281227  0.53778631  0.34644823  1
  Ni  Ni191  1  0.71702421  0.30649198  0.44610185  1
  Ni  Ni192  1  0.17577121  0.04818204  0.22978294  1
  Ni  Ni193  1  0.49142614  0.92251966  0.56578586  1
  Ni  Ni194  1  0.22563038  0.37272297  0.34037216  1
  Ni  Ni195  1  0.45415832  0.16536139  0.59876915  1
  Ni  Ni196  1  0.84608574  0.90241826  0.75659956  1
  Ni  Ni197  1  0.16780333  0.85132187  0.86804237  1
  Ni  Ni198  1  0.84610608  0.48240768  0.90698624  1
  Ni  Ni199  1  0.57639845  0.78145633  0.11594811  1
  Ni  Ni200  1  0.25153962  0.71538794  0.15292266  1
  Ni  Ni201  1  0.59188323  0.70888961  0.64813683  1
  Ni  Ni202  1  0.61608208  0.31069501  0.07390554  1
  Ni  Ni203  1  0.59814922  0.85066807  0.87630718  1
  Ni  Ni204  1  0.47714622  0.65175564  0.97593957  1
  Ni  Ni205  1  0.11963961  0.30367168  0.03890190  1
  Ni  Ni206  1  0.36373088  0.25818633  0.16567448  1
  Ni  Ni207  1  0.18299855  0.65102108  0.67339024  1
  Ni  Ni208  1  0.54203417  0.55115815  0.84850776  1
  Ni  Ni209  1  0.09580487  0.40190739  0.59663756  1
  Ni  Ni210  1  0.70597948  0.28767239  0.76613774  1
  Ni  Ni211  1  0.50295080  0.12345224  0.10653259  1
  Ni  Ni212  1  0.72675341  0.84634165  0.06250681  1
  Ni  Ni213  1  0.61727042  0.74681815  0.27923718  1
  Ni  Ni214  1  0.76329541  0.89775242  0.90650917  1
  Ni  Ni215  1  0.67205304  0.57697131  0.08731252  1
