# generated using pymatgen
data_Ti2CoNi
_symmetry_space_group_name_H-M   'P 1'
_cell_length_a   14.60529777
_cell_length_b   14.56709912
_cell_length_c   14.58026811
_cell_angle_alpha   89.89611000
_cell_angle_beta   90.12579905
_cell_angle_gamma   90.23895422
_symmetry_Int_Tables_number   1
_chemical_formula_structural   Ti2CoNi
_chemical_formula_sum   'Ti108 Co54 Ni54'
_cell_volume   3102.01197952
_cell_formula_units_Z   54
loop_
 _symmetry_equiv_pos_site_id
 _symmetry_equiv_pos_as_xyz
  1  'x, y, z'
loop_
 _atom_site_type_symbol
 _atom_site_label
 _atom_site_symmetry_multiplicity
 _atom_site_fract_x
 _atom_site_fract_y
 _atom_site_fract_z
 _atom_site_occupancy
  Ti  Ti0  1  0.06723045  0.00784472  -0.01216119  1
  Ti  Ti1  1  -0.01109535  0.03617146  0.39779006  1
  Ti  Ti2  1  -0.01394615  -0.03401860  0.60396454  1
  Ti  Ti3  1  -0.00945153  0.29498229  -0.11185087  1
  Ti  Ti4  1  -0.04944409  0.32504042  0.31019833  1
  Ti  Ti5  1  0.03391289  0.34620793  0.62482424  1
  Ti  Ti6  1  0.05717295  0.61134365  -0.01355537  1
  Ti  Ti7  1  0.00797460  0.65914216  0.27350581  1
  Ti  Ti8  1  0.07172863  0.68260383  0.59877906  1
  Ti  Ti9  1  0.32553670  0.02596606  -0.05052260  1
  Ti  Ti10  1  0.36242257  0.04501309  0.34792525  1
  Ti  Ti11  1  0.33411388  0.00028346  0.61886973  1
  Ti  Ti12  1  0.38194634  0.34469015  -0.09193660  1
  Ti  Ti13  1  0.36246550  0.35679302  0.26711361  1
  Ti  Ti14  1  0.37483217  0.35268906  0.62698754  1
  Ti  Ti15  1  0.25619963  0.64767824  -0.05014589  1
  Ti  Ti16  1  0.32745209  0.67650584  0.38764163  1
  Ti  Ti17  1  0.41620956  0.68217096  0.69030456  1
  Ti  Ti18  1  0.68479166  0.00583723  0.05523212  1
  Ti  Ti19  1  0.76116318  -0.03688203  0.36082199  1
  Ti  Ti20  1  0.66254862  -0.00810740  0.73940401  1
  Ti  Ti21  1  0.68247160  0.34600049  0.02721335  1
  Ti  Ti22  1  0.59592447  0.39918558  0.34414242  1
  Ti  Ti23  1  0.58480886  0.32663884  0.67980115  1
  Ti  Ti24  1  0.65241419  0.66965400  -0.06425093  1
  Ti  Ti25  1  0.59417204  0.72881580  0.36113700  1
  Ti  Ti26  1  0.61822863  0.68656066  0.70278809  1
  Ti  Ti27  1  -0.05010729  0.16372252  0.16871081  1
  Ti  Ti28  1  0.03935249  0.16983645  0.52761134  1
  Ti  Ti29  1  -0.03795205  0.11364063  0.82385816  1
  Ti  Ti30  1  -0.07346153  0.46320221  0.10156067  1
  Ti  Ti31  1  -0.07454422  0.45829652  0.47566625  1
  Ti  Ti32  1  -0.01173844  0.47315510  0.78790427  1
  Ti  Ti33  1  0.02778337  0.84282613  0.17140023  1
  Ti  Ti34  1  0.02572467  0.81638446  0.43255627  1
  Ti  Ti35  1  0.01328850  0.86185791  0.88211626  1
  Ti  Ti36  1  0.27214589  0.15859280  0.18182380  1
  Ti  Ti37  1  0.32816399  0.20168887  0.50178000  1
  Ti  Ti38  1  0.28446787  0.18877039  0.84963712  1
  Ti  Ti39  1  0.35912779  0.39647579  0.08591957  1
  Ti  Ti40  1  0.28851829  0.48511356  0.51476456  1
  Ti  Ti41  1  0.28733911  0.48499727  0.77889508  1
  Ti  Ti42  1  0.38240816  0.90269935  0.16172564  1
  Ti  Ti43  1  0.35890842  0.80306292  0.53472675  1
  Ti  Ti44  1  0.32369875  0.80808986  0.86931960  1
  Ti  Ti45  1  0.66243789  0.23065371  0.25451723  1
  Ti  Ti46  1  0.62661164  0.16262277  0.57634383  1
  Ti  Ti47  1  0.60854847  0.10830156  0.90905184  1
  Ti  Ti48  1  0.61985242  0.54128323  0.19852540  1
  Ti  Ti49  1  0.68193600  0.56734547  0.48090823  1
  Ti  Ti50  1  0.71141029  0.51821421  0.81083075  1
  Ti  Ti51  1  0.66921641  0.77440421  0.11880097  1
  Ti  Ti52  1  0.70648765  0.85039884  0.48919543  1
  Ti  Ti53  1  0.78023213  0.79308994  0.86976914  1
  Ti  Ti54  1  0.09851385  0.04235798  0.18034364  1
  Ti  Ti55  1  0.18487453  -0.05761196  0.47802460  1
  Ti  Ti56  1  0.15423010  0.03837189  0.81100294  1
  Ti  Ti57  1  0.07051892  0.35275549  0.15676874  1
  Ti  Ti58  1  0.19570148  0.32650334  0.36745031  1
  Ti  Ti59  1  0.19315615  0.34893036  0.92482549  1
  Ti  Ti60  1  0.17334300  0.67577774  0.14889368  1
  Ti  Ti61  1  0.14633621  0.61816426  0.42614154  1
  Ti  Ti62  1  0.10158265  0.63498417  0.79654772  1
  Ti  Ti63  1  0.54898364  0.09217585  0.15278715  1
  Ti  Ti64  1  0.56038069  -0.00481142  0.45112399  1
  Ti  Ti65  1  0.48236181  -0.03289745  0.82496071  1
  Ti  Ti66  1  0.53169288  0.33668907  0.17017994  1
  Ti  Ti67  1  0.54359525  0.42641203  0.51761187  1
  Ti  Ti68  1  0.56693651  0.30050182  0.87122752  1
  Ti  Ti69  1  0.44473713  0.66592993  0.22033650  1
  Ti  Ti70  1  0.48105017  0.62471618  0.51165598  1
  Ti  Ti71  1  0.50405755  0.76990598  0.84870186  1
  Ti  Ti72  1  0.80442397  -0.05840144  0.19001544  1
  Ti  Ti73  1  0.82676732  0.06876320  0.51116583  1
  Ti  Ti74  1  0.84577245  -0.03826191  0.81643255  1
  Ti  Ti75  1  0.82659244  0.31095782  0.16997527  1
  Ti  Ti76  1  0.82992882  0.27799780  0.53572962  1
  Ti  Ti77  1  0.81670169  0.35676837  0.80290085  1
  Ti  Ti78  1  0.82766185  0.62654379  0.18639066  1
  Ti  Ti79  1  0.90671742  0.66055059  0.50839830  1
  Ti  Ti80  1  0.92731481  0.70345110  0.77997953  1
  Ti  Ti81  1  0.14093424  0.18457426  0.01051463  1
  Ti  Ti82  1  0.17179373  0.12262268  0.36290846  1
  Ti  Ti83  1  0.21238876  0.19837182  0.66893386  1
  Ti  Ti84  1  0.20083722  0.49513836  0.06599631  1
  Ti  Ti85  1  0.08693401  0.47353156  0.32501544  1
  Ti  Ti86  1  0.15300238  0.52225017  0.65632738  1
  Ti  Ti87  1  0.22182077  0.86207229  0.07861892  1
  Ti  Ti88  1  0.16259765  0.78634241  0.30825447  1
  Ti  Ti89  1  0.22096132  0.80028324  0.67405642  1
  Ti  Ti90  1  0.46164031  0.20500777  0.02709193  1
  Ti  Ti91  1  0.50943763  0.19604989  0.37150367  1
  Ti  Ti92  1  0.45019143  0.15603628  0.69210476  1
  Ti  Ti93  1  0.47924731  0.53247348  -0.02710462  1
  Ti  Ti94  1  0.41912428  0.50670655  0.36446521  1
  Ti  Ti95  1  0.48427499  0.46313665  0.77579567  1
  Ti  Ti96  1  0.46502243  0.75065559  0.03190691  1
  Ti  Ti97  1  0.43122204  0.84890152  0.33949779  1
  Ti  Ti98  1  0.54545816  0.86296475  0.63832489  1
  Ti  Ti99  1  0.81732760  0.18940261  0.00380659  1
  Ti  Ti100  1  0.81672730  0.14094753  0.31607243  1
  Ti  Ti101  1  0.78096371  0.14027759  0.71260397  1
  Ti  Ti102  1  0.74965692  0.52516970  0.03103145  1
  Ti  Ti103  1  0.78762316  0.46543504  0.31770767  1
  Ti  Ti104  1  0.84159127  0.55526492  0.67246988  1
  Ti  Ti105  1  0.82401087  0.87621828  0.02006450  1
  Ti  Ti106  1  0.86378482  0.78491063  0.33102069  1
  Ti  Ti107  1  0.77582306  0.83350136  0.66807203  1
  Co  Co108  1  0.49042499  0.99359886  0.26461697  1
  Co  Co109  1  0.11266227  0.20949403  0.81766269  1
  Co  Co110  1  0.94449853  0.30363446  0.05127769  1
  Co  Co111  1  0.76169144  0.67675193  0.76054938  1
  Co  Co112  1  0.27958972  0.88438160  0.36524271  1
  Co  Co113  1  0.21833449  0.43375253  0.21507739  1
  Co  Co114  1  0.17083274  0.26744098  0.51550278  1
  Co  Co115  1  0.36608521  0.57983825  0.08234999  1
  Co  Co116  1  0.94030395  0.49130648  0.26143286  1
  Co  Co117  1  0.31426795  0.49220807  0.94346330  1
  Co  Co118  1  0.11885742  0.37634843  0.77088018  1
  Co  Co119  1  0.25496071  0.50010639  0.35798453  1
  Co  Co120  1  0.03441885  0.32793439  0.44619466  1
  Co  Co121  1  0.75473970  0.71067032  0.43511933  1
  Co  Co122  1  0.22251321  1.03237251  0.07111877  1
  Co  Co123  1  0.92767445  0.26159396  0.72535284  1
  Co  Co124  1  0.90740782  0.60288940  0.03287699  1
  Co  Co125  1  0.74070658  0.28303531  0.67506568  1
  Co  Co126  1  0.49299648  0.03463688  0.99005732  1
  Co  Co127  1  0.18692138  0.91857296  0.92954777  1
  Co  Co128  1  0.06302925  0.79076587  0.72601463  1
  Co  Co129  1  0.60737597  0.89510179  0.33629993  1
  Co  Co130  1  0.63859758  0.83485516  0.79367081  1
  Co  Co131  1  0.99121683  0.52998715  0.61192458  1
  Co  Co132  1  0.32098890  0.73154271  0.09240820  1
  Co  Co133  1  0.30520260  0.76962251  0.24394920  1
  Co  Co134  1  0.53374531  0.02644739  0.64660119  1
  Co  Co135  1  0.38411759  0.05759660  0.11926407  1
  Co  Co136  1  0.61767713  0.46307679  0.92135910  1
  Co  Co137  1  0.45686425  0.49428903  0.20447301  1
  Co  Co138  1  0.42972490  0.29403871  0.76751943  1
  Co  Co139  1  0.82638827  0.61511340  0.89398191  1
  Co  Co140  1  0.25103159  -0.01097415  0.23253251  1
  Co  Co141  1  0.44905639  0.14866940  0.86729555  1
  Co  Co142  1  0.87699754  0.39508836  0.64524454  1
  Co  Co143  1  0.08997182  0.84628765  0.57928115  1
  Co  Co144  1  0.29462644  0.59343860  0.22924787  1
  Co  Co145  1  0.30540220  0.20988933  1.01037821  1
  Co  Co146  1  0.26932265  0.32204908  0.76260647  1
  Co  Co147  1  0.56098424  0.56761578  0.35095627  1
  Co  Co148  1  0.61381770  0.16425978  0.75138781  1
  Co  Co149  1  0.93094349  0.87035913  0.73025852  1
  Co  Co150  1  0.51547751  0.37250805  0.01219084  1
  Co  Co151  1  0.78063195  0.30564428  0.35573114  1
  Co  Co152  1  0.15014846  0.50517685  0.88168460  1
  Co  Co153  1  0.25617754  0.91843855  0.77767760  1
  Co  Co154  1  0.20998753  0.37549679  0.62403774  1
  Co  Co155  1  0.78390180  0.70319874  0.03232788  1
  Co  Co156  1  0.41547122  0.89110549  0.97925394  1
  Co  Co157  1  0.64074106  0.27249557  0.44157476  1
  Co  Co158  1  0.92668125  0.79896401  0.58444600  1
  Co  Co159  1  0.39651475  0.94965751  0.47998351  1
  Co  Co160  1  0.61367486  0.83501661  0.96955015  1
  Co  Co161  1  0.71966249  0.79793099  0.27250308  1
  Ni  Ni162  1  0.19497603  0.09775994  0.53263306  1
  Ni  Ni163  1  0.92340972  0.20431808  0.42002705  1
  Ni  Ni164  1  0.07064063  0.11117859  0.68470004  1
  Ni  Ni165  1  0.10717999  0.20967102  0.23143024  1
  Ni  Ni166  1  0.94215744  0.00920733  0.24941607  1
  Ni  Ni167  1  0.53517203  0.81177389  0.21176301  1
  Ni  Ni168  1  0.25722564  0.65792860  0.75253198  1
  Ni  Ni169  1  0.69086386  0.99902945  0.57396935  1
  Ni  Ni170  1  0.57468614  0.53037178  0.64916921  1
  Ni  Ni171  1  0.16314444  0.77526679  0.85703006  1
  Ni  Ni172  1  0.76545038  0.12231083  0.16046978  1
  Ni  Ni173  1  0.07081411  0.53671960  0.16251786  1
  Ni  Ni174  1  0.55157818  0.59854220  0.82457344  1
  Ni  Ni175  1  0.88784431  0.91040672  0.46094464  1
  Ni  Ni176  1  0.68534674  0.11401982  0.42996361  1
  Ni  Ni177  1  0.87551579  0.78121336  0.15520174  1
  Ni  Ni178  1  0.11053411  0.94665687  0.31824531  1
  Ni  Ni179  1  0.32685525  0.21267120  0.34063962  1
  Ni  Ni180  1  0.45513761  0.09959095  0.52154595  1
  Ni  Ni181  1  0.71877144  0.24774338  0.87389311  1
  Ni  Ni182  1  0.51646910  0.82639417  0.47783757  1
  Ni  Ni183  1  0.05055389  0.42051353  -0.01256694  1
  Ni  Ni184  1  0.38920947  0.61897167  0.84413578  1
  Ni  Ni185  1  0.87379188  0.60466497  0.36073509  1
  Ni  Ni186  1  0.69381588  0.95197802  0.90094818  1
  Ni  Ni187  1  0.65036715  0.18788579  0.05645407  1
  Ni  Ni188  1  0.93204909  0.75174947  0.97952373  1
  Ni  Ni189  1  -0.01833948  0.15028676  0.00663733  1
  Ni  Ni190  1  0.95156683  0.96360300  0.09403184  1
  Ni  Ni191  1  0.91902478  0.12058461  0.63741706  1
  Ni  Ni192  1  0.20368270  0.76396914  0.48384157  1
  Ni  Ni193  1  0.39686304  0.85477353  0.71137212  1
  Ni  Ni194  1  0.21786445  0.30588820  0.10896362  1
  Ni  Ni195  1  0.49426555  0.26452752  0.53723546  1
  Ni  Ni196  1  0.43600291  0.19466228  0.21455771  1
  Ni  Ni197  1  0.54226909  0.92145182  0.09537311  1
  Ni  Ni198  1  0.88815449  0.45920254  0.92698093  1
  Ni  Ni199  1  0.40791302  0.52317667  0.63186385  1
  Ni  Ni200  1  0.87336839  0.03128828  0.96926561  1
  Ni  Ni201  1  0.11277688  0.46065327  0.50077010  1
  Ni  Ni202  1  0.34122754  0.05348255  0.77390434  1
  Ni  Ni203  1  0.73311343  0.40798059  0.47888403  1
  Ni  Ni204  1  0.64525053  0.06078985  0.28323438  1
  Ni  Ni205  1  0.61448594  0.72068711  0.54325323  1
  Ni  Ni206  1  0.38700496  0.35283054  0.43770207  1
  Ni  Ni207  1  0.29050316  0.64277723  0.57809697  1
  Ni  Ni208  1  0.55861726  0.62990630  0.08207890  1
  Ni  Ni209  1  0.69194753  0.39575513  0.19279849  1
  Ni  Ni210  1  0.71510345  0.44185724  0.64478607  1
  Ni  Ni211  1  0.16392775  -0.02178625  0.64679650  1
  Ni  Ni212  1  0.76844489  0.09712760  0.87024186  1
  Ni  Ni213  1  0.76537055  0.68327043  0.59591860  1
  Ni  Ni214  1  0.09384795  0.77834731  0.01263121  1
  Ni  Ni215  1  0.71616981  0.62603849  0.30606665  1
