# generated using pymatgen
data_Ti2CoNi
_symmetry_space_group_name_H-M   'P 1'
_cell_length_a   14.68633294
_cell_length_b   14.58240420
_cell_length_c   14.68249091
_cell_angle_alpha   90.25702373
_cell_angle_beta   90.10337465
_cell_angle_gamma   89.77313120
_symmetry_Int_Tables_number   1
_chemical_formula_structural   Ti2CoNi
_chemical_formula_sum   'Ti108 Co54 Ni54'
_cell_volume   3144.37094616
_cell_formula_units_Z   54
loop_
 _symmetry_equiv_pos_site_id
 _symmetry_equiv_pos_as_xyz
  1  'x, y, z'
loop_
 _atom_site_type_symbol
 _atom_site_label
 _atom_site_symmetry_multiplicity
 _atom_site_fract_x
 _atom_site_fract_y
 _atom_site_fract_z
 _atom_site_occupancy
  Ti  Ti0  1  -0.08148695  0.03307306  0.00155404  1
  Ti  Ti1  1  0.08503647  -0.02109253  0.36571555  1
  Ti  Ti2  1  0.07260141  -0.00200064  0.60325363  1
  Ti  Ti3  1  -0.00834439  0.38310218  -0.03016232  1
  Ti  Ti4  1  0.01510802  0.32557132  0.28729618  1
  Ti  Ti5  1  -0.02959623  0.34202834  0.65585241  1
  Ti  Ti6  1  0.03309962  0.67499705  0.06021239  1
  Ti  Ti7  1  0.01804764  0.68188655  0.32802788  1
  Ti  Ti8  1  0.01424704  0.62681201  0.63907338  1
  Ti  Ti9  1  0.35110903  0.06211371  -0.00982231  1
  Ti  Ti10  1  0.41412754  -0.02123487  0.29985651  1
  Ti  Ti11  1  0.33361582  0.04307246  0.62946944  1
  Ti  Ti12  1  0.28895881  0.41860529  -0.03977354  1
  Ti  Ti13  1  0.28813231  0.39150258  0.32806589  1
  Ti  Ti14  1  0.35350410  0.34896515  0.75270558  1
  Ti  Ti15  1  0.23706394  0.64456451  -0.00157087  1
  Ti  Ti16  1  0.33722214  0.76458675  0.28048998  1
  Ti  Ti17  1  0.29724143  0.69501731  0.71253798  1
  Ti  Ti18  1  0.68739051  0.06317840  0.04817860  1
  Ti  Ti19  1  0.65082282  0.01780225  0.32703946  1
  Ti  Ti20  1  0.65701197  -0.00387521  0.62131767  1
  Ti  Ti21  1  0.64213891  0.39760034  0.02730602  1
  Ti  Ti22  1  0.73845500  0.34969014  0.29116780  1
  Ti  Ti23  1  0.68295910  0.34932237  0.69663542  1
  Ti  Ti24  1  0.67337220  0.74195143  0.00577712  1
  Ti  Ti25  1  0.64538518  0.63183499  0.33432745  1
  Ti  Ti26  1  0.62770145  0.60193611  0.69064395  1
  Ti  Ti27  1  0.04259671  0.13755471  0.20111246  1
  Ti  Ti28  1  -0.04684093  0.22396746  0.46833670  1
  Ti  Ti29  1  0.02588774  0.17045599  0.89308927  1
  Ti  Ti30  1  -0.01327841  0.50639908  0.14682868  1
  Ti  Ti31  1  -0.02115579  0.45539000  0.43913190  1
  Ti  Ti32  1  -0.03226394  0.51093602  0.80176979  1
  Ti  Ti33  1  -0.06442743  0.86679878  0.12183394  1
  Ti  Ti34  1  0.04247605  0.80549995  0.54977585  1
  Ti  Ti35  1  0.00213162  0.81813644  0.75322170  1
  Ti  Ti36  1  0.32131937  0.16136236  0.18607728  1
  Ti  Ti37  1  0.34578175  0.19390846  0.49725223  1
  Ti  Ti38  1  0.42889592  0.15280685  0.81899551  1
  Ti  Ti39  1  0.42976323  0.47544661  0.21511974  1
  Ti  Ti40  1  0.35628954  0.53601115  0.45754380  1
  Ti  Ti41  1  0.27006799  0.53704232  0.82007248  1
  Ti  Ti42  1  0.35846074  0.87933580  0.09429375  1
  Ti  Ti43  1  0.34566718  0.84904049  0.46767537  1
  Ti  Ti44  1  0.32028304  0.95615070  0.81405075  1
  Ti  Ti45  1  0.72367826  0.17424309  0.19696461  1
  Ti  Ti46  1  0.69840180  0.18751190  0.55895181  1
  Ti  Ti47  1  0.70799316  0.15889735  0.77219561  1
  Ti  Ti48  1  0.61610096  0.57635635  0.13212228  1
  Ti  Ti49  1  0.64526115  0.46506698  0.42566545  1
  Ti  Ti50  1  0.72619672  0.46950444  0.83953026  1
  Ti  Ti51  1  0.62739180  0.76868397  0.19004393  1
  Ti  Ti52  1  0.65330469  0.78102514  0.58466982  1
  Ti  Ti53  1  0.68618428  0.89447167  0.87645189  1
  Ti  Ti54  1  0.21038983  -0.01697772  0.17617947  1
  Ti  Ti55  1  0.23743682  0.02445656  0.46987828  1
  Ti  Ti56  1  0.11030321  -0.02249567  0.87001605  1
  Ti  Ti57  1  0.25394254  0.33805946  0.13448227  1
  Ti  Ti58  1  0.22824936  0.38280451  0.52952255  1
  Ti  Ti59  1  0.22370106  0.25875075  0.86602178  1
  Ti  Ti60  1  0.18269205  0.61662899  0.21015420  1
  Ti  Ti61  1  0.19732378  0.59656683  0.57219734  1
  Ti  Ti62  1  0.11875160  0.70409100  0.85225107  1
  Ti  Ti63  1  0.55991713  -0.04639706  0.14623299  1
  Ti  Ti64  1  0.49353713  -0.06198377  0.55033830  1
  Ti  Ti65  1  0.53181157  -0.00787545  0.93108603  1
  Ti  Ti66  1  0.56345016  0.30525374  0.18679792  1
  Ti  Ti67  1  0.55369448  0.30501024  0.53356826  1
  Ti  Ti68  1  0.54783227  0.32597163  0.87256846  1
  Ti  Ti69  1  0.40935435  0.66630364  0.12246510  1
  Ti  Ti70  1  0.53401573  0.63496909  0.51140827  1
  Ti  Ti71  1  0.46446118  0.60747954  0.78239828  1
  Ti  Ti72  1  0.85361070  0.02272179  0.22956069  1
  Ti  Ti73  1  0.90953168  -0.01109559  0.47516390  1
  Ti  Ti74  1  0.89213773  -0.04125665  0.82791715  1
  Ti  Ti75  1  0.90518893  0.30456963  0.13155135  1
  Ti  Ti76  1  0.79008742  0.37984925  0.53400156  1
  Ti  Ti77  1  0.86234312  0.31745374  0.82080052  1
  Ti  Ti78  1  0.83931930  0.65693549  0.07068390  1
  Ti  Ti79  1  0.83123385  0.71290083  0.46104013  1
  Ti  Ti80  1  0.79112014  0.64989747  0.85453329  1
  Ti  Ti81  1  0.16850666  0.13809133  0.03621452  1
  Ti  Ti82  1  0.15887791  0.21257327  0.41651618  1
  Ti  Ti83  1  0.10972542  0.18882812  0.71832573  1
  Ti  Ti84  1  0.14062964  0.47673159  0.05471878  1
  Ti  Ti85  1  0.16648155  0.54587827  0.39029973  1
  Ti  Ti86  1  0.15743070  0.38940691  0.72112889  1
  Ti  Ti87  1  0.13170942  0.84609567  0.04416221  1
  Ti  Ti88  1  0.15882270  0.80309604  0.31650503  1
  Ti  Ti89  1  0.21604703  0.87559203  0.65283113  1
  Ti  Ti90  1  0.48978613  0.18431697  0.03723694  1
  Ti  Ti91  1  0.50120233  0.16346907  0.33482657  1
  Ti  Ti92  1  0.51711042  0.13451575  0.63383313  1
  Ti  Ti93  1  0.45491672  0.48885828  0.02313798  1
  Ti  Ti94  1  0.48389389  0.36017702  0.36608207  1
  Ti  Ti95  1  0.46048291  0.45936532  0.62361275  1
  Ti  Ti96  1  0.51682987  0.76912624  -0.10659135  1
  Ti  Ti97  1  0.52866476  0.82028757  0.37174609  1
  Ti  Ti98  1  0.52701054  0.87888572  0.73985403  1
  Ti  Ti99  1  0.81124494  0.20257040  -0.02132981  1
  Ti  Ti100  1  0.77760537  0.17109796  0.38742048  1
  Ti  Ti101  1  0.85600986  0.07894004  0.64677167  1
  Ti  Ti102  1  0.80194640  0.47923065  0.11864175  1
  Ti  Ti103  1  0.85965840  0.59064034  0.30536908  1
  Ti  Ti104  1  0.80829115  0.59976857  0.63369740  1
  Ti  Ti105  1  0.85357225  0.81190202  -0.05377238  1
  Ti  Ti106  1  0.78767481  0.82737138  0.29311140  1
  Ti  Ti107  1  0.79038079  0.81186221  0.72866684  1
  Co  Co108  1  0.40307234  0.89862341  0.94017601  1
  Co  Co109  1  0.06619563  0.09636921  0.47433662  1
  Co  Co110  1  0.17531023  0.87042310  0.47618680  1
  Co  Co111  1  0.22770226  0.96794720  -0.01325993  1
  Co  Co112  1  0.75843544  -0.02001083  0.73992690  1
  Co  Co113  1  0.59784495  0.15208019  0.90421372  1
  Co  Co114  1  0.74604117  0.31926643  0.12233813  1
  Co  Co115  1  0.11300286  0.70197038  0.46066809  1
  Co  Co116  1  0.87409805  0.13877688  0.11866011  1
  Co  Co117  1  0.78035745  0.80327030  0.12064769  1
  Co  Co118  1  0.38077531  0.60026098  0.93088879  1
  Co  Co119  1  0.71809241  0.94044261  0.18972703  1
  Co  Co120  1  0.83049201  0.43297309  0.70894493  1
  Co  Co121  1  0.14017883  0.30643991  0.99146449  1
  Co  Co122  1  0.37692333  0.86144167  0.65162424  1
  Co  Co123  1  0.07268018  0.33436246  0.13406678  1
  Co  Co124  1  0.14459248  0.43604906  0.87707428  1
  Co  Co125  1  0.04062556  0.32216670  0.82191508  1
  Co  Co126  1  0.56164305  0.45581259  0.75133892  1
  Co  Co127  1  0.73283053  1.04523663  0.89644852  1
  Co  Co128  1  0.81781025  0.52529319  0.44820746  1
  Co  Co129  1  0.64125748  0.22904366  0.03975972  1
  Co  Co130  1  0.90853876  0.68289193  0.75096135  1
  Co  Co131  1  0.45539968  0.01469219  0.72631654  1
  Co  Co132  1  0.16268630  0.44556048  0.22775080  1
  Co  Co133  1  0.86663088  0.11604637  0.84563978  1
  Co  Co134  1  0.99610963  0.14997028  0.60497626  1
  Co  Co135  1  0.41382383  0.69571465  0.41778187  1
  Co  Co136  1  0.94437716  0.20046724  0.74437560  1
  Co  Co137  1  0.52040538  0.81743596  0.04989511  1
  Co  Co138  1  0.13750636  0.73111192  0.68465639  1
  Co  Co139  1  0.62810195  0.25280134  0.39704566  1
  Co  Co140  1  0.25983898  0.74506496  0.55372208  1
  Co  Co141  1  0.13840429  0.56381608  0.73453169  1
  Co  Co142  1  1.00929471  0.20174577  0.04647897  1
  Co  Co143  1  0.40768242  0.29766160  0.23179866  1
  Co  Co144  1  0.25598175  0.68197891  0.39804584  1
  Co  Co145  1  0.73132705  0.51463365  0.25912779  1
  Co  Co146  1  0.23443011  0.09951802  0.87114393  1
  Co  Co147  1  0.96260195  0.62343172  0.48205607  1
  Co  Co148  1  0.88374438  0.43306460  0.26856924  1
  Co  Co149  1  0.37733305  0.74762234  -0.01322217  1
  Co  Co150  1  0.03474106  0.51685566  0.29765785  1
  Co  Co151  1  0.07087090  0.77114854  0.18443521  1
  Co  Co152  1  0.33043950  0.58164402  0.28752189  1
  Co  Co153  1  0.88471004  0.21644255  0.27119939  1
  Co  Co154  1  0.49313893  0.53929196  0.37219700  1
  Co  Co155  1  0.60188952  1.03503213  0.78722999  1
  Co  Co156  1  0.01016921  0.04161238  0.74985342  1
  Co  Co157  1  0.69526537  0.61888759  0.51454518  1
  Co  Co158  1  0.86294612  0.33861027  0.39671886  1
  Co  Co159  1  0.52731702  0.64833219  0.00961810  1
  Co  Co160  1  0.38899773  0.61472243  0.60139212  1
  Co  Co161  1  0.79235691  0.93821358  0.02671738  1
  Ni  Ni162  1  0.49120230  0.66711169  0.26896056  1
  Ni  Ni163  1  0.13020257  0.38020854  0.38598167  1
  Ni  Ni164  1  0.70503224  0.29603258  0.88596105  1
  Ni  Ni165  1  0.49716771  0.72927625  0.66160497  1
  Ni  Ni166  1  0.62990121  0.46891073  0.58918637  1
  Ni  Ni167  1  0.29350827  0.48625460  0.65381873  1
  Ni  Ni168  1  0.24262749  0.81303816  0.91826446  1
  Ni  Ni169  1  0.17034901  0.25118703  0.25114902  1
  Ni  Ni170  1  0.58471056  0.09277379  0.47278071  1
  Ni  Ni171  1  0.40454641  0.26222260  0.62791295  1
  Ni  Ni172  1  0.90866699  0.72581902  0.20621810  1
  Ni  Ni173  1  0.56509825  0.12445325  0.18189732  1
  Ni  Ni174  1  0.39601566  0.29756663  0.91161254  1
  Ni  Ni175  1  0.23844056  0.75740330  0.13459388  1
  Ni  Ni176  1  0.58686852  0.45737331  0.25892371  1
  Ni  Ni177  1  0.93127170  0.90666797  0.32558475  1
  Ni  Ni178  1  0.01294070  0.84729194  0.92893178  1
  Ni  Ni179  1  0.92172053  0.92351330  0.65020963  1
  Ni  Ni180  1  0.42415347  0.33523367  0.07659972  1
  Ni  Ni181  1  0.92064402  0.49186164  0.58693875  1
  Ni  Ni182  1  0.64133508  0.91798549  0.46573070  1
  Ni  Ni183  1  0.88787394  0.76145532  0.60481013  1
  Ni  Ni184  1  0.28502529  0.18280917  0.71958654  1
  Ni  Ni185  1  0.47156066  0.82705124  0.21106891  1
  Ni  Ni186  1  0.57150681  0.50136440  0.91260989  1
  Ni  Ni187  1  0.19251214  0.14862695  0.57859268  1
  Ni  Ni188  1  0.42505697  0.45762411  0.85434162  1
  Ni  Ni189  1  0.82579090  0.25567743  0.64623017  1
  Ni  Ni190  1  0.38726467  0.36392442  0.49687123  1
  Ni  Ni191  1  0.95743703  0.09302871  0.34888176  1
  Ni  Ni192  1  0.26059446  0.93281133  0.33259542  1
  Ni  Ni193  1  0.37462643  0.79228821  0.81372210  1
  Ni  Ni194  1  0.18804496  1.03659605  0.72437696  1
  Ni  Ni195  1  0.53427700  0.28337292  0.71593094  1
  Ni  Ni196  1  0.21586755  0.09428006  0.30532522  1
  Ni  Ni197  1  0.75128572  0.03811789  0.48539700  1
  Ni  Ni198  1  0.06441637  0.56234773  0.93385839  1
  Ni  Ni199  1  0.63890558  0.75589699  0.76209435  1
  Ni  Ni200  1  0.95419099  0.68291921  0.90822306  1
  Ni  Ni201  1  0.04737180  0.94780991  0.20832247  1
  Ni  Ni202  1  0.62814635  0.63762082  0.86723537  1
  Ni  Ni203  1  0.71941762  0.55716937  0.98763934  1
  Ni  Ni204  1  0.08518573  0.46529553  0.58939384  1
  Ni  Ni205  1  0.67746637  0.76590428  0.41865022  1
  Ni  Ni206  1  0.07215124  0.00826424  0.05662636  1
  Ni  Ni207  1  0.42280994  0.04284126  0.13902453  1
  Ni  Ni208  1  0.89812072  0.53252389  -0.03236722  1
  Ni  Ni209  1  0.30509451  0.22722587  0.01806317  1
  Ni  Ni210  1  0.29406921  0.51632435  0.12323439  1
  Ni  Ni211  1  0.41700763  0.04671007  0.45536766  1
  Ni  Ni212  1  0.78359742  0.88943927  0.56304261  1
  Ni  Ni213  1  0.09482912  0.28875020  0.56187005  1
  Ni  Ni214  1  0.81473104  0.38729221  0.97382633  1
  Ni  Ni215  1  0.31929622  0.22590295  0.34281277  1
