# generated using pymatgen
data_Ti2CoNi
_symmetry_space_group_name_H-M   'P 1'
_cell_length_a   14.50522917
_cell_length_b   14.54910051
_cell_length_c   14.50682672
_cell_angle_alpha   89.80548938
_cell_angle_beta   89.74303526
_cell_angle_gamma   90.28686594
_symmetry_Int_Tables_number   1
_chemical_formula_structural   Ti2CoNi
_chemical_formula_sum   'Ti108 Co54 Ni54'
_cell_volume   3061.40519636
_cell_formula_units_Z   54
loop_
 _symmetry_equiv_pos_site_id
 _symmetry_equiv_pos_as_xyz
  1  'x, y, z'
loop_
 _atom_site_type_symbol
 _atom_site_label
 _atom_site_symmetry_multiplicity
 _atom_site_fract_x
 _atom_site_fract_y
 _atom_site_fract_z
 _atom_site_occupancy
  Ti  Ti0  1  -0.03750654  0.02015329  0.03038331  1
  Ti  Ti1  1  0.01228470  -0.02995135  0.29802473  1
  Ti  Ti2  1  0.03952931  0.01300172  0.62649064  1
  Ti  Ti3  1  0.00035947  0.33995602  -0.05878918  1
  Ti  Ti4  1  -0.02697751  0.29663950  0.30493627  1
  Ti  Ti5  1  -0.06846129  0.36640416  0.73279338  1
  Ti  Ti6  1  0.00976609  0.64239238  0.10626772  1
  Ti  Ti7  1  0.00498185  0.75037628  0.28794108  1
  Ti  Ti8  1  -0.02666825  0.66040809  0.73046758  1
  Ti  Ti9  1  0.35408764  -0.03365516  0.05678511  1
  Ti  Ti10  1  0.31541767  -0.00372358  0.29725715  1
  Ti  Ti11  1  0.33059160  -0.01244625  0.60632332  1
  Ti  Ti12  1  0.27946077  0.33146285  -0.00658208  1
  Ti  Ti13  1  0.30965892  0.38297830  0.40868074  1
  Ti  Ti14  1  0.35854650  0.38132953  0.69636056  1
  Ti  Ti15  1  0.37642746  0.64714107  -0.01706212  1
  Ti  Ti16  1  0.28184397  0.61650742  0.25553228  1
  Ti  Ti17  1  0.31810489  0.60080882  0.63553644  1
  Ti  Ti18  1  0.69333126  0.05312706  -0.04148015  1
  Ti  Ti19  1  0.76838699  0.09885953  0.34870185  1
  Ti  Ti20  1  0.73946849  -0.01662283  0.73973255  1
  Ti  Ti21  1  0.58042269  0.26957535  0.05409205  1
  Ti  Ti22  1  0.62779227  0.34811093  0.25212249  1
  Ti  Ti23  1  0.62739847  0.30430702  0.65993909  1
  Ti  Ti24  1  0.59045201  0.62569165  -0.05769625  1
  Ti  Ti25  1  0.61902588  0.68111549  0.35192792  1
  Ti  Ti26  1  0.68163651  0.72508752  0.62212645  1
  Ti  Ti27  1  0.04348121  0.19782378  0.06275113  1
  Ti  Ti28  1  0.04011333  0.18648243  0.53062919  1
  Ti  Ti29  1  0.00080550  0.12892865  0.85812358  1
  Ti  Ti30  1  0.01290394  0.45503740  0.18080455  1
  Ti  Ti31  1  0.01096662  0.52812302  0.42193195  1
  Ti  Ti32  1  -0.02337056  0.50803587  0.85994888  1
  Ti  Ti33  1  -0.01130724  0.84651607  0.11784174  1
  Ti  Ti34  1  -0.00708715  0.88509809  0.49449001  1
  Ti  Ti35  1  0.00155783  0.82825789  0.87156557  1
  Ti  Ti36  1  0.38947336  0.20291559  0.09744567  1
  Ti  Ti37  1  0.30685653  0.17463687  0.46722517  1
  Ti  Ti38  1  0.31978722  0.22230247  0.82257948  1
  Ti  Ti39  1  0.30107052  0.49284904  0.09049064  1
  Ti  Ti40  1  0.35672338  0.58398671  0.44843595  1
  Ti  Ti41  1  0.33243807  0.55511161  0.81226854  1
  Ti  Ti42  1  0.31844630  0.80397859  0.29760544  1
  Ti  Ti43  1  0.31152419  0.77904458  0.55674574  1
  Ti  Ti44  1  0.29845151  0.75927848  0.77991848  1
  Ti  Ti45  1  0.67426088  0.13228283  0.16890974  1
  Ti  Ti46  1  0.66519077  0.18399467  0.51309517  1
  Ti  Ti47  1  0.68162596  0.14966372  0.78875178  1
  Ti  Ti48  1  0.68734219  0.49572757  0.10753091  1
  Ti  Ti49  1  0.57538256  0.50718691  0.49453856  1
  Ti  Ti50  1  0.67430831  0.46395957  0.82394814  1
  Ti  Ti51  1  0.68775682  0.78131168  0.20216585  1
  Ti  Ti52  1  0.80752441  0.83573063  0.49192040  1
  Ti  Ti53  1  0.71508582  0.80315040  0.79153761  1
  Ti  Ti54  1  0.13016739  0.01766218  0.13593300  1
  Ti  Ti55  1  0.18258200  0.02108272  0.45595576  1
  Ti  Ti56  1  0.25354051  -0.03521673  0.87138216  1
  Ti  Ti57  1  0.26544497  0.30564492  0.21098127  1
  Ti  Ti58  1  0.20468272  0.30429076  0.57536113  1
  Ti  Ti59  1  0.14059037  0.34267421  0.77418504  1
  Ti  Ti60  1  0.16694425  0.75101870  0.15354018  1
  Ti  Ti61  1  0.15951679  0.66529290  0.48359215  1
  Ti  Ti62  1  0.14864085  0.60647329  0.75079141  1
  Ti  Ti63  1  0.56295013  -0.04501542  0.19425898  1
  Ti  Ti64  1  0.57181966  -0.00518829  0.51257758  1
  Ti  Ti65  1  0.46724097  0.02669420  0.76965124  1
  Ti  Ti66  1  0.44345029  0.36181770  0.17770383  1
  Ti  Ti67  1  0.50261349  0.29585331  0.47506094  1
  Ti  Ti68  1  0.52136295  0.33324940  0.84574994  1
  Ti  Ti69  1  0.47050876  0.67739447  0.19177392  1
  Ti  Ti70  1  0.51844930  0.69228333  0.53226846  1
  Ti  Ti71  1  0.50233752  0.66557281  0.78325678  1
  Ti  Ti72  1  0.89428766  0.14970783  0.18736885  1
  Ti  Ti73  1  0.75186903  0.01757411  0.53516982  1
  Ti  Ti74  1  0.85565015  -0.04893113  0.89727995  1
  Ti  Ti75  1  0.82004968  0.39983517  0.20737825  1
  Ti  Ti76  1  0.91340842  0.34830511  0.53655738  1
  Ti  Ti77  1  0.83329979  0.26231165  0.85364288  1
  Ti  Ti78  1  0.79895955  0.66321795  0.06641108  1
  Ti  Ti79  1  0.86423845  0.63001455  0.50430072  1
  Ti  Ti80  1  0.83883233  0.67717058  0.86506510  1
  Ti  Ti81  1  0.26538855  0.12654691  -0.02350225  1
  Ti  Ti82  1  0.18522234  0.14892272  0.28948246  1
  Ti  Ti83  1  0.14710406  0.13993422  0.74573966  1
  Ti  Ti84  1  0.16975378  0.49476229  -0.06975299  1
  Ti  Ti85  1  0.13197351  0.40606813  0.31317022  1
  Ti  Ti86  1  0.11521075  0.47438059  0.56428608  1
  Ti  Ti87  1  0.26240638  0.80328238  -0.02091375  1
  Ti  Ti88  1  0.14901083  0.83965736  0.40732037  1
  Ti  Ti89  1  0.18202655  0.91457487  0.70884656  1
  Ti  Ti90  1  0.51494022  0.06648895  0.03545829  1
  Ti  Ti91  1  0.48390253  0.13018864  0.36507602  1
  Ti  Ti92  1  0.46764517  0.14591818  0.59026346  1
  Ti  Ti93  1  0.50177905  0.51540441  0.08540140  1
  Ti  Ti94  1  0.48672613  0.43398549  0.34933576  1
  Ti  Ti95  1  0.61883106  0.54770677  0.67251793  1
  Ti  Ti96  1  0.49283990  0.80600710  0.02876456  1
  Ti  Ti97  1  0.48312478  0.91858172  0.37334028  1
  Ti  Ti98  1  0.54847915  0.86232547  0.69582269  1
  Ti  Ti99  1  0.80852554  0.25461751  0.04938819  1
  Ti  Ti100  1  0.79623199  0.30899636  0.39192047  1
  Ti  Ti101  1  0.81176623  0.20471676  0.65785402  1
  Ti  Ti102  1  0.88231091  0.47647487  0.03274056  1
  Ti  Ti103  1  0.73316382  0.50623107  0.36946736  1
  Ti  Ti104  1  0.75747631  0.48819165  0.57960608  1
  Ti  Ti105  1  0.79385877  0.87709395  0.07992225  1
  Ti  Ti106  1  0.84731497  0.87077083  0.29905086  1
  Ti  Ti107  1  0.86962189  0.85122592  0.69342889  1
  Co  Co108  1  0.06069187  0.58515200  0.27853309  1
  Co  Co109  1  0.89122579  0.44934090  0.35769044  1
  Co  Co110  1  0.56764128  0.79488458  0.86408043  1
  Co  Co111  1  0.75126823  0.33282488  0.55212763  1
  Co  Co112  1  0.27305075  0.08437168  0.15715949  1
  Co  Co113  1  0.42542794  0.21586363  0.93486041  1
  Co  Co114  1  0.37666030  0.88704506  0.71605785  1
  Co  Co115  1  0.42147570  0.51826272  0.22546152  1
  Co  Co116  1  0.61494590  0.92004683  0.04339691  1
  Co  Co117  1  0.78361618  0.73168471  0.36477047  1
  Co  Co118  1  0.29642730  0.05649166  0.74836467  1
  Co  Co119  1  0.25960344  0.88893601  0.15214887  1
  Co  Co120  1  0.21464575  0.46551274  0.70796223  1
  Co  Co121  1  0.37263283  0.29369318  0.56255147  1
  Co  Co122  1  0.41964993  0.87851957  0.18615999  1
  Co  Co123  1  0.74436993  0.55297962  0.94151960  1
  Co  Co124  1  0.19979327  0.21464214  0.09034124  1
  Co  Co125  1  0.91967065  0.16720697  0.36908954  1
  Co  Co126  1  0.84092882  0.17674740  0.50422348  1
  Co  Co127  1  0.05117607  0.31711968  0.63298488  1
  Co  Co128  1  0.69286492  0.88463339  0.61308325  1
  Co  Co129  1  0.65625016  0.75628935  0.01667984  1
  Co  Co130  1  0.28468964  0.45880547  0.26592208  1
  Co  Co131  1  0.89384627  0.61686204  0.33030282  1
  Co  Co132  1  0.19544823  0.09472491  0.59640306  1
  Co  Co133  1  0.60392813  0.96710912  0.83989008  1
  Co  Co134  1  0.27140130  0.47455149  0.54957370  1
  Co  Co135  1  0.86118964  0.72503776  0.20431218  1
  Co  Co136  1  0.74193914  0.61409341  0.24531688  1
  Co  Co137  1  0.44756659  0.35226440  0.00856353  1
  Co  Co138  1  0.42357706  0.44217621  0.52039375  1
  Co  Co139  1  0.94913886  0.32138088  0.10920528  1
  Co  Co140  1  0.62001245  0.64815995  0.12929634  1
  Co  Co141  1  0.97737419  0.19004683  0.69823815  1
  Co  Co142  1  0.09697327  0.27849653  0.20071857  1
  Co  Co143  1  0.16747911  0.88473738  0.55952557  1
  Co  Co144  1  0.95176912  0.96604693  0.75976109  1
  Co  Co145  1  0.84921225  0.12618865  0.94489769  1
  Co  Co146  1  1.03575671  0.12095056  0.23900611  1
  Co  Co147  1  0.71548521  0.87649929  0.92738832  1
  Co  Co148  1  0.58611619  0.44713751  0.96345233  1
  Co  Co149  1  0.84306852  0.42048775  0.88115396  1
  Co  Co150  1  0.87547441  0.55464395  0.18295556  1
  Co  Co151  1  -0.00853479  0.70904509  0.43664757  1
  Co  Co152  1  0.51199138  0.39654877  0.64768217  1
  Co  Co153  1  0.39895723  0.05453608  0.91027623  1
  Co  Co154  1  0.46666996  0.56212454  0.62127758  1
  Co  Co155  1  0.39406182  0.87586919  0.89271884  1
  Co  Co156  1  0.30760315  0.39839699  0.85374075  1
  Co  Co157  1  0.16248693  0.70175776  0.32203426  1
  Co  Co158  1  0.03426369  0.62082595  0.58375903  1
  Co  Co159  1  0.90124270  0.97699778  0.18106830  1
  Co  Co160  1  0.68181895  0.64372116  0.79265298  1
  Co  Co161  1  0.61233968  0.05009861  0.32757345  1
  Ni  Ni162  1  0.49078450  0.49272127  0.78036963  1
  Ni  Ni163  1  0.46409539  0.85903831  0.53664740  1
  Ni  Ni164  1  0.22174728  0.65951063  0.89604727  1
  Ni  Ni165  1  0.69644379  0.64071081  0.48616436  1
  Ni  Ni166  1  0.76709341  0.36663491  0.72112305  1
  Ni  Ni167  1  0.09653051  0.75362834  -0.00046665  1
  Ni  Ni168  1  0.33372400  0.73707657  0.12266805  1
  Ni  Ni169  1  0.62542363  0.81689913  0.46514615  1
  Ni  Ni170  1  0.53035529  0.20485588  0.21157728  1
  Ni  Ni171  1  0.40056847  0.26113114  0.30880599  1
  Ni  Ni172  1  0.54887890  0.13230750  0.88634430  1
  Ni  Ni173  1  0.14161689  0.88075082  0.25337695  1
  Ni  Ni174  1  0.93783083  0.75432785  0.58565298  1
  Ni  Ni175  1  0.81622153  0.67333281  0.68348814  1
  Ni  Ni176  1  0.87880269  0.04564165  0.63060370  1
  Ni  Ni177  1  0.43309386  0.06775742  0.19438289  1
  Ni  Ni178  1  0.91639633  0.50328101  0.60868355  1
  Ni  Ni179  1  0.08539212  -0.03100428  0.84298575  1
  Ni  Ni180  1  0.13964396  0.24206902  0.91318023  1
  Ni  Ni181  1  0.42512615  0.74864193  0.40793739  1
  Ni  Ni182  1  0.70841583  0.93289269  0.38178125  1
  Ni  Ni183  1  0.53152310  0.80118132  0.27899861  1
  Ni  Ni184  1  0.64360270  0.36382295  0.43261555  1
  Ni  Ni185  1  0.40392491  0.03063046  0.46663574  1
  Ni  Ni186  1  0.11683315  0.07360903  -0.03598905  1
  Ni  Ni187  1  0.05413633  0.34614376  0.45722271  1
  Ni  Ni188  1  0.10667293  0.91433892  1.00366692  1
  Ni  Ni189  1  0.47620006  0.60596642  0.34706800  1
  Ni  Ni190  1  0.04176449  0.49039719  0.70870528  1
  Ni  Ni191  1  0.03159067  0.06536352  0.42419884  1
  Ni  Ni192  1  0.72919294  0.96669702  0.21667643  1
  Ni  Ni193  1  0.85749659  0.10097111  0.78195897  1
  Ni  Ni194  1  0.51284008  0.20138951  0.73690491  1
  Ni  Ni195  1  0.59402246  0.53009387  0.25329119  1
  Ni  Ni196  1  0.88015855  0.99748624  0.42250750  1
  Ni  Ni197  1  0.30017301  0.19916217  0.66326024  1
  Ni  Ni198  1  0.18350621  0.26880929  0.40081799  1
  Ni  Ni199  1  0.63778048  0.21272467  0.34992307  1
  Ni  Ni200  1  0.42445533  0.49295130  0.93540059  1
  Ni  Ni201  1  0.77542936  0.24517480  0.24272413  1
  Ni  Ni202  1  0.19633701  0.52896838  0.40116779  1
  Ni  Ni203  1  0.04711613  0.63882014  0.91005370  1
  Ni  Ni204  1  0.42840132  0.74068604  0.66257600  1
  Ni  Ni205  1  0.17506964  0.72679008  0.63861472  1
  Ni  Ni206  1  0.67890961  0.23719531  0.92908261  1
  Ni  Ni207  1  0.81872264  0.52933662  0.75603478  1
  Ni  Ni208  1  0.30901528  0.89929202  0.45069915  1
  Ni  Ni209  1  0.19132080  0.61828493  0.05299836  1
  Ni  Ni210  1  0.79866432  0.05586740  0.08218866  1
  Ni  Ni211  1  0.90063159  0.77627731  0.99215289  1
  Ni  Ni212  1  0.72659233  0.38253432  -0.00993508  1
  Ni  Ni213  1  0.61654949  0.07752034  0.65461580  1
  Ni  Ni214  1  0.11158385  0.77039634  0.77775145  1
  Ni  Ni215  1  0.13248589  0.38204492  0.06871036  1
