# generated using pymatgen
data_Ti2CoNi
_symmetry_space_group_name_H-M   'P 1'
_cell_length_a   14.57343179
_cell_length_b   14.58506752
_cell_length_c   14.55934855
_cell_angle_alpha   89.47271304
_cell_angle_beta   89.81165030
_cell_angle_gamma   90.00548750
_symmetry_Int_Tables_number   1
_chemical_formula_structural   Ti2CoNi
_chemical_formula_sum   'Ti108 Co54 Ni54'
_cell_volume   3094.50706515
_cell_formula_units_Z   54
loop_
 _symmetry_equiv_pos_site_id
 _symmetry_equiv_pos_as_xyz
  1  'x, y, z'
loop_
 _atom_site_type_symbol
 _atom_site_label
 _atom_site_symmetry_multiplicity
 _atom_site_fract_x
 _atom_site_fract_y
 _atom_site_fract_z
 _atom_site_occupancy
  Ti  Ti0  1  0.04393801  0.02365839  -0.05950256  1
  Ti  Ti1  1  0.08823368  0.08229363  0.31553176  1
  Ti  Ti2  1  0.02736553  0.01889758  0.53653286  1
  Ti  Ti3  1  -0.00605608  0.42271917  0.08582580  1
  Ti  Ti4  1  -0.04137357  0.23862860  0.34176113  1
  Ti  Ti5  1  -0.12987890  0.36097403  0.65025870  1
  Ti  Ti6  1  -0.01187464  0.73485528  -0.02486239  1
  Ti  Ti7  1  0.09452797  0.68783838  0.26699016  1
  Ti  Ti8  1  -0.01084708  0.68747547  0.68441544  1
  Ti  Ti9  1  0.40253137  -0.02237043  -0.01706521  1
  Ti  Ti10  1  0.28531714  0.02911597  0.28038793  1
  Ti  Ti11  1  0.33503000  -0.02528335  0.73902407  1
  Ti  Ti12  1  0.41178036  0.20628838  0.02183453  1
  Ti  Ti13  1  0.41343584  0.32519176  0.33872594  1
  Ti  Ti14  1  0.37352143  0.31592427  0.72146840  1
  Ti  Ti15  1  0.23988616  0.63102052  -0.01669503  1
  Ti  Ti16  1  0.36123903  0.59934481  0.30743876  1
  Ti  Ti17  1  0.35571547  0.67338110  0.60863662  1
  Ti  Ti18  1  0.68444478  -0.02422618  0.01455445  1
  Ti  Ti19  1  0.77165909  -0.01588736  0.33538689  1
  Ti  Ti20  1  0.66740216  0.08397554  0.67006585  1
  Ti  Ti21  1  0.73647514  0.42460438  0.07457590  1
  Ti  Ti22  1  0.60262962  0.33533737  0.38426911  1
  Ti  Ti23  1  0.68494551  0.34665839  0.72279751  1
  Ti  Ti24  1  0.62408080  0.59418353  0.02907404  1
  Ti  Ti25  1  0.62702877  0.69815557  0.33812950  1
  Ti  Ti26  1  0.66974471  0.66444967  0.60863716  1
  Ti  Ti27  1  -0.01710224  0.15233936  0.15419178  1
  Ti  Ti28  1  -0.02424868  0.23047668  0.54060357  1
  Ti  Ti29  1  0.06297771  0.20841562  0.78120033  1
  Ti  Ti30  1  0.03598005  0.49566073  0.24447978  1
  Ti  Ti31  1  -0.01397426  0.44527038  0.50327136  1
  Ti  Ti32  1  -0.07841471  0.51392308  0.79238472  1
  Ti  Ti33  1  -0.02821394  0.79577395  0.15917532  1
  Ti  Ti34  1  -0.01016379  0.81951300  0.55504703  1
  Ti  Ti35  1  -0.04438158  0.87415002  0.82311243  1
  Ti  Ti36  1  0.32863629  0.20218798  0.20950184  1
  Ti  Ti37  1  0.29039567  0.16873050  0.43410906  1
  Ti  Ti38  1  0.36559447  0.12700997  0.86435272  1
  Ti  Ti39  1  0.30927536  0.49023252  0.11297758  1
  Ti  Ti40  1  0.28537576  0.48790773  0.56590530  1
  Ti  Ti41  1  0.31653300  0.48527659  0.86101544  1
  Ti  Ti42  1  0.36887430  0.87349746  0.15426624  1
  Ti  Ti43  1  0.32616884  0.86618303  0.56438457  1
  Ti  Ti44  1  0.28389694  0.84548755  0.88955509  1
  Ti  Ti45  1  0.65311890  0.22988157  0.23481034  1
  Ti  Ti46  1  0.60999170  0.16064087  0.46769225  1
  Ti  Ti47  1  0.68888317  0.13803601  0.90219511  1
  Ti  Ti48  1  0.64206047  0.52804101  0.21179858  1
  Ti  Ti49  1  0.64529075  0.45870339  0.54277118  1
  Ti  Ti50  1  0.71958023  0.55782884  0.86302342  1
  Ti  Ti51  1  0.66510166  0.86937993  0.19206826  1
  Ti  Ti52  1  0.73697253  0.80401918  0.46890882  1
  Ti  Ti53  1  0.61366596  0.84226861  0.87159352  1
  Ti  Ti54  1  0.11664835  0.02788638  0.11929199  1
  Ti  Ti55  1  0.19474300  -0.00044970  0.46548226  1
  Ti  Ti56  1  0.15451920  0.03611789  0.77633647  1
  Ti  Ti57  1  0.23199250  0.29577263  0.07857472  1
  Ti  Ti58  1  0.14660151  0.33171649  0.49894683  1
  Ti  Ti59  1  0.17478755  0.36980225  0.79312985  1
  Ti  Ti60  1  0.27267025  0.71188822  0.15996480  1
  Ti  Ti61  1  0.13247646  0.62456093  0.55387749  1
  Ti  Ti62  1  0.11531278  0.59358765  0.83087546  1
  Ti  Ti63  1  0.49940509  -0.03931390  0.27981055  1
  Ti  Ti64  1  0.59462588  -0.04209380  0.51305226  1
  Ti  Ti65  1  0.52400551  0.01586403  0.78417458  1
  Ti  Ti66  1  0.58389712  0.30681433  0.05303507  1
  Ti  Ti67  1  0.46248443  0.39589194  0.54199450  1
  Ti  Ti68  1  0.49961966  0.33369865  0.86916336  1
  Ti  Ti69  1  0.47120231  0.62211469  0.14503548  1
  Ti  Ti70  1  0.51480498  0.76441400  0.49363557  1
  Ti  Ti71  1  0.47698964  0.69269430  0.78986615  1
  Ti  Ti72  1  0.84885498  -0.04291438  0.15968911  1
  Ti  Ti73  1  0.86095405  -0.06188889  0.49172819  1
  Ti  Ti74  1  0.87426816  0.06169843  0.81281379  1
  Ti  Ti75  1  0.83331375  0.27483814  0.16547624  1
  Ti  Ti76  1  0.80941037  0.35264025  0.42788713  1
  Ti  Ti77  1  0.87069512  0.26945516  0.86411708  1
  Ti  Ti78  1  0.81734805  0.68756311  0.14317646  1
  Ti  Ti79  1  0.97082025  0.64539306  0.46964453  1
  Ti  Ti80  1  0.79688456  0.74654296  0.85461601  1
  Ti  Ti81  1  0.19191334  0.18899872  -0.08239811  1
  Ti  Ti82  1  0.17001825  0.28544646  0.30532240  1
  Ti  Ti83  1  0.16423866  0.16147449  0.60700539  1
  Ti  Ti84  1  0.16313963  0.43791307  -0.02828222  1
  Ti  Ti85  1  0.19681632  0.46108764  0.37122553  1
  Ti  Ti86  1  0.07676942  0.48434071  0.66987075  1
  Ti  Ti87  1  0.14855602  0.85917953  0.04604238  1
  Ti  Ti88  1  0.16710369  0.87584784  0.25998352  1
  Ti  Ti89  1  0.20950927  0.72369802  0.71027637  1
  Ti  Ti90  1  0.55577694  0.11351825  0.12985142  1
  Ti  Ti91  1  0.46428675  0.13315454  0.33898912  1
  Ti  Ti92  1  0.54220471  0.23493309  0.67926198  1
  Ti  Ti93  1  0.50892132  0.51714374  -0.11522107  1
  Ti  Ti94  1  0.51952111  0.50681805  0.36383760  1
  Ti  Ti95  1  0.49947086  0.56729370  0.62672303  1
  Ti  Ti96  1  0.52097607  0.79721760  0.07436368  1
  Ti  Ti97  1  0.46327189  0.76494568  0.27833833  1
  Ti  Ti98  1  0.50942841  0.84388104  0.68216989  1
  Ti  Ti99  1  0.84958479  0.10602723  0.02093382  1
  Ti  Ti100  1  0.77071950  0.18274191  0.36746290  1
  Ti  Ti101  1  0.85106217  0.09497487  0.61450904  1
  Ti  Ti102  1  0.87668640  0.55127060  -0.00916244  1
  Ti  Ti103  1  0.86816740  0.52068714  0.34978896  1
  Ti  Ti104  1  0.75933124  0.51112584  0.68043494  1
  Ti  Ti105  1  0.82981221  0.85908737  -0.00257647  1
  Ti  Ti106  1  0.96402558  0.82618114  0.34900209  1
  Ti  Ti107  1  0.80375957  0.81862041  0.67901722  1
  Co  Co108  1  0.93555238  0.64759059  0.26950402  1
  Co  Co109  1  0.79791685  0.22397779  0.53209283  1
  Co  Co110  1  -0.00422131  0.36254540  0.77822875  1
  Co  Co111  1  0.06100817  0.32606974  0.64030141  1
  Co  Co112  1  0.03104509  0.38181518  0.36979087  1
  Co  Co113  1  0.65723513  0.72361641  0.75700134  1
  Co  Co114  1  0.41606705  0.12882272  0.71059512  1
  Co  Co115  1  0.45098243  0.87181072  0.85126869  1
  Co  Co116  1  0.64045979  0.42473486  0.94225984  1
  Co  Co117  1  0.29046152  0.39173949  0.24872026  1
  Co  Co118  1  0.34173311  0.20603878  0.59487489  1
  Co  Co119  1  0.10292505  0.75993478  0.41584118  1
  Co  Co120  1  0.94557645  0.66552840  0.84330590  1
  Co  Co121  1  0.52839312  0.17851978  0.84642886  1
  Co  Co122  1  0.23649563  0.73486567  0.51702418  1
  Co  Co123  1  0.44167790  0.97077314  0.60713538  1
  Co  Co124  1  0.15520693  0.74433181  0.92391477  1
  Co  Co125  1  0.03914907  0.56166892  0.96341356  1
  Co  Co126  1  0.66537526  0.28699688  0.86599146  1
  Co  Co127  1  0.79333254  0.41229595  0.83691466  1
  Co  Co128  1  0.36708994  0.00504216  0.43045998  1
  Co  Co129  1  0.12517048  0.89720879  0.87358610  1
  Co  Co130  1  0.25593501  0.60171349  0.43550363  1
  Co  Co131  1  0.35279084  0.80813392  0.73125961  1
  Co  Co132  1  0.64939720  0.82460964  0.60766931  1
  Co  Co133  1  0.07364411  0.76863696  0.79195916  1
  Co  Co134  1  0.07403456  0.30843966  0.92861018  1
  Co  Co135  1  0.71045008  0.16987238  0.08336566  1
  Co  Co136  1  0.89801734  0.11204831  0.44712792  1
  Co  Co137  1  0.14152951  0.85167689  0.56218943  1
  Co  Co138  1  0.78773318  0.92334272  0.84113532  1
  Co  Co139  1  0.98642757  0.16279265  0.92809094  1
  Co  Co140  1  0.29684017  0.05102418  0.58537718  1
  Co  Co141  1  0.76487646  0.28599798  0.99253299  1
  Co  Co142  1  0.90707027  0.37924746  0.26619291  1
  Co  Co143  1  0.37445748  0.73530756  0.43112284  1
  Co  Co144  1  0.09487283  0.18748862  0.04494682  1
  Co  Co145  1  0.65871421  0.92360398  0.73631918  1
  Co  Co146  1  0.35540545  0.87885557  0.32136290  1
  Co  Co147  1  0.15830910  0.41398522  0.16063781  1
  Co  Co148  1  0.73510703  0.05931631  0.48169691  1
  Co  Co149  1  0.03948456  0.30046173  0.20185126  1
  Co  Co150  1  0.92519663  0.21900989  0.70185044  1
  Co  Co151  1  0.41666179  0.58214708  0.48262252  1
  Co  Co152  1  0.52723323  0.46586632  0.07128437  1
  Co  Co153  1  0.13773638  0.55149044  0.09177984  1
  Co  Co154  1  0.23730837  0.86071721  0.41989654  1
  Co  Co155  1  0.25365593  0.73355243  0.32024521  1
  Co  Co156  1  0.97766206  0.61243897  0.11245267  1
  Co  Co157  1  1.07497927  0.56682035  0.38686846  1
  Co  Co158  1  0.57761060  0.38360893  0.22243309  1
  Co  Co159  1  0.74650313  0.95383627  0.60593307  1
  Co  Co160  1  0.27268015  0.12848504  0.05899158  1
  Co  Co161  1  0.35734079  0.46057613  0.40104054  1
  Ni  Ni162  1  -0.07854113  0.54678397  0.62260838  1
  Ni  Ni163  1  0.01419512  0.07501205  0.69197096  1
  Ni  Ni164  1  0.36954597  0.74400264  0.02582625  1
  Ni  Ni165  1  0.61579166  0.87014854  0.36374466  1
  Ni  Ni166  1  0.48497194  0.25353491  0.19513059  1
  Ni  Ni167  1  0.22653995  0.01458682  0.93733153  1
  Ni  Ni168  1  0.00683356  0.95083919  0.21787866  1
  Ni  Ni169  1  0.69348471  0.48435441  0.38080619  1
  Ni  Ni170  1  0.67207412  0.79183711  0.02118109  1
  Ni  Ni171  1  0.25765043  0.18394609  0.74267761  1
  Ni  Ni172  1  0.82258785  0.64990061  0.72647546  1
  Ni  Ni173  1  0.31745621  0.30424990  0.88322318  1
  Ni  Ni174  1  0.65268093  0.29407857  0.55059680  1
  Ni  Ni175  1  0.76107532  0.62522317  0.28096461  1
  Ni  Ni176  1  0.38926255  0.39707714  -0.00427501  1
  Ni  Ni177  1  0.52916744  0.95581342  0.10248538  1
  Ni  Ni178  1  0.60275346  0.56145149  0.74886514  1
  Ni  Ni179  1  0.51431298  0.10363695  0.58527077  1
  Ni  Ni180  1  0.40449924  0.57571936  0.99782407  1
  Ni  Ni181  1  0.91684377  0.94254562  0.66694164  1
  Ni  Ni182  1  0.38486556  0.48977187  0.71138788  1
  Ni  Ni183  1  0.84592621  0.11240888  0.23483135  1
  Ni  Ni184  1  0.10767410  0.17357622  0.44651693  1
  Ni  Ni185  1  0.63867647  0.69971734  0.16658487  1
  Ni  Ni186  1  0.20997312  0.56520444  0.24133135  1
  Ni  Ni187  1  0.70160890  0.04066000  0.18083538  1
  Ni  Ni188  1  0.74358501  0.39234325  0.25405563  1
  Ni  Ni189  1  0.39900401  0.05497140  0.15169177  1
  Ni  Ni190  1  0.51575433  0.69172860  0.94938439  1
  Ni  Ni191  1  0.26288563  0.97072260  0.09615338  1
  Ni  Ni192  1  0.84872537  0.71235252  0.39241263  1
  Ni  Ni193  1  0.96375699  0.99031496  0.36798044  1
  Ni  Ni194  1  0.97680278  0.92232078  0.04899778  1
  Ni  Ni195  1  0.57493618  0.60967494  0.47590083  1
  Ni  Ni196  1  0.19092978  0.88605371  0.71637090  1
  Ni  Ni197  1  0.31525382  0.32953085  0.49406515  1
  Ni  Ni198  1  0.46443879  0.24070478  0.48526957  1
  Ni  Ni199  1  0.81066455  0.49290348  0.51621117  1
  Ni  Ni200  1  0.76804979  0.19586475  0.74544422  1
  Ni  Ni201  1  0.52972432  0.41247610  0.70474509  1
  Ni  Ni202  1  0.95117481  0.41528039  0.92288537  1
  Ni  Ni203  1  0.11236808  0.70800930  0.09206354  1
  Ni  Ni204  1  0.54217913  0.06369713  0.96400545  1
  Ni  Ni205  1  0.16621494  0.16748870  0.19140686  1
  Ni  Ni206  1  0.43769899  0.46570236  0.22059516  1
  Ni  Ni207  1  0.93679712  0.27615801  0.03077970  1
  Ni  Ni208  1  0.76847205  0.67150964  0.99142535  1
  Ni  Ni209  1  0.23284939  0.54887839  0.71588643  1
  Ni  Ni210  1  0.85509786  0.51281709  0.17247707  1
  Ni  Ni211  1  0.84009312  0.68690413  0.56493446  1
  Ni  Ni212  1  0.22662921  0.32599397  0.64315876  1
  Ni  Ni213  1  0.73294308  0.62199844  0.45320887  1
  Ni  Ni214  1  0.62293649  0.06594563  0.32876738  1
  Ni  Ni215  1  0.78264231  0.82059753  0.29294370  1
