# generated using pymatgen
data_Ti2CoNi
_symmetry_space_group_name_H-M   'P 1'
_cell_length_a   14.50769192
_cell_length_b   14.53312710
_cell_length_c   14.55006986
_cell_angle_alpha   90.21324474
_cell_angle_beta   90.05878452
_cell_angle_gamma   90.39600083
_symmetry_Int_Tables_number   1
_chemical_formula_structural   Ti2CoNi
_chemical_formula_sum   'Ti108 Co54 Ni54'
_cell_volume   3067.67151304
_cell_formula_units_Z   54
loop_
 _symmetry_equiv_pos_site_id
 _symmetry_equiv_pos_as_xyz
  1  'x, y, z'
loop_
 _atom_site_type_symbol
 _atom_site_label
 _atom_site_symmetry_multiplicity
 _atom_site_fract_x
 _atom_site_fract_y
 _atom_site_fract_z
 _atom_site_occupancy
  Ti  Ti0  1  -0.01622972  -0.03762509  0.08710754  1
  Ti  Ti1  1  0.09662702  -0.03317705  0.25657418  1
  Ti  Ti2  1  0.03664328  -0.01151282  0.68061693  1
  Ti  Ti3  1  -0.04902293  0.35959379  -0.02241370  1
  Ti  Ti4  1  -0.07075577  0.34246147  0.34096939  1
  Ti  Ti5  1  0.06148745  0.33346738  0.73694840  1
  Ti  Ti6  1  -0.03385416  0.65605814  0.04809417  1
  Ti  Ti7  1  0.01109372  0.65533252  0.37146784  1
  Ti  Ti8  1  -0.04708852  0.67453659  0.69431006  1
  Ti  Ti9  1  0.29861879  0.01987447  -0.05858419  1
  Ti  Ti10  1  0.27711699  -0.05966855  0.27984010  1
  Ti  Ti11  1  0.29723210  0.06817043  0.77587157  1
  Ti  Ti12  1  0.26221156  0.35577070  0.03548917  1
  Ti  Ti13  1  0.32662843  0.43590878  0.27348695  1
  Ti  Ti14  1  0.41774676  0.41883495  0.59567508  1
  Ti  Ti15  1  0.28979630  0.66084255  -0.04932947  1
  Ti  Ti16  1  0.33050376  0.72557015  0.34653225  1
  Ti  Ti17  1  0.32972675  0.61031945  0.60972011  1
  Ti  Ti18  1  0.60318387  -0.01651009  -0.03264202  1
  Ti  Ti19  1  0.64319567  -0.02816634  0.40676889  1
  Ti  Ti20  1  0.68128096  0.07192669  0.67647971  1
  Ti  Ti21  1  0.68510317  0.31721698  -0.04327358  1
  Ti  Ti22  1  0.75325894  0.28768215  0.42885036  1
  Ti  Ti23  1  0.67321254  0.32707530  0.73294842  1
  Ti  Ti24  1  0.60144405  0.71486975  0.01205358  1
  Ti  Ti25  1  0.76568311  0.65423153  0.34795257  1
  Ti  Ti26  1  0.66350222  0.61398709  0.63405229  1
  Ti  Ti27  1  -0.00160979  0.27135895  0.15329781  1
  Ti  Ti28  1  0.04193497  0.18538527  0.59471261  1
  Ti  Ti29  1  0.01117516  0.19337671  0.89333379  1
  Ti  Ti30  1  -0.00489830  0.48030738  0.15004803  1
  Ti  Ti31  1  0.02200637  0.49035551  0.47555096  1
  Ti  Ti32  1  -0.07759105  0.51843543  0.83758242  1
  Ti  Ti33  1  -0.00772068  0.78931309  0.18380705  1
  Ti  Ti34  1  -0.05153501  0.82972651  0.56950794  1
  Ti  Ti35  1  -0.00321882  0.81236013  0.90743798  1
  Ti  Ti36  1  0.35095758  0.25334242  0.19325684  1
  Ti  Ti37  1  0.35179068  0.10494516  0.55146625  1
  Ti  Ti38  1  0.26899200  0.21868309  0.88683188  1
  Ti  Ti39  1  0.35311342  0.51734742  0.08533801  1
  Ti  Ti40  1  0.36161026  0.54534446  0.43556854  1
  Ti  Ti41  1  0.40742883  0.46686321  0.86666596  1
  Ti  Ti42  1  0.44397787  0.83196164  0.19764007  1
  Ti  Ti43  1  0.30932384  0.90266587  0.49580643  1
  Ti  Ti44  1  0.32835249  0.85436257  0.84256593  1
  Ti  Ti45  1  0.62070793  0.09227433  0.17211164  1
  Ti  Ti46  1  0.59153989  0.16089601  0.47018894  1
  Ti  Ti47  1  0.70043933  0.13685563  0.87189676  1
  Ti  Ti48  1  0.66920019  0.43631833  0.15817129  1
  Ti  Ti49  1  0.67831272  0.50030236  0.46197910  1
  Ti  Ti50  1  0.68534852  0.52038510  0.78805063  1
  Ti  Ti51  1  0.65520792  0.86631864  0.13264826  1
  Ti  Ti52  1  0.71310229  0.79283906  0.45772914  1
  Ti  Ti53  1  0.59627206  0.84239773  0.84418477  1
  Ti  Ti54  1  0.18271113  0.02535743  0.08461616  1
  Ti  Ti55  1  0.14885851  0.08232120  0.49545085  1
  Ti  Ti56  1  0.16062117  -0.07894035  0.79381671  1
  Ti  Ti57  1  0.13740527  0.35923319  0.24907286  1
  Ti  Ti58  1  0.27427648  0.28261809  0.50614391  1
  Ti  Ti59  1  0.25003597  0.37312947  0.76012646  1
  Ti  Ti60  1  0.11259764  0.64437615  0.19487726  1
  Ti  Ti61  1  0.19599665  0.65590517  0.46935442  1
  Ti  Ti62  1  0.13540934  0.61974741  0.82340798  1
  Ti  Ti63  1  0.42158781  0.04169725  0.23661799  1
  Ti  Ti64  1  0.45865570  0.00072377  0.43386348  1
  Ti  Ti65  1  0.49319501  0.02129499  0.77448042  1
  Ti  Ti66  1  0.55942871  0.27592926  0.12031279  1
  Ti  Ti67  1  0.56103172  0.36239653  0.46787489  1
  Ti  Ti68  1  0.48962587  0.29371853  0.89870024  1
  Ti  Ti69  1  0.49931755  0.64571501  0.16248107  1
  Ti  Ti70  1  0.45618267  0.69778592  0.48805082  1
  Ti  Ti71  1  0.36694582  0.65401833  0.79202722  1
  Ti  Ti72  1  0.88208836  0.10128686  0.22209494  1
  Ti  Ti73  1  0.83282138  -0.06086978  0.45525770  1
  Ti  Ti74  1  0.87366023  0.06265792  0.80619400  1
  Ti  Ti75  1  0.74519688  0.25961042  0.22695957  1
  Ti  Ti76  1  0.84891962  0.29097167  0.59377910  1
  Ti  Ti77  1  0.88652850  0.29795409  0.79074335  1
  Ti  Ti78  1  0.81899928  0.57656953  0.16721984  1
  Ti  Ti79  1  0.83883566  0.61941192  0.51629808  1
  Ti  Ti80  1  0.83929604  0.69779152  0.87021451  1
  Ti  Ti81  1  0.13929601  0.20908481  0.03086744  1
  Ti  Ti82  1  0.16408020  0.16924402  0.33950060  1
  Ti  Ti83  1  0.21635513  0.20249252  0.65952935  1
  Ti  Ti84  1  0.15169031  0.55743928  0.03135951  1
  Ti  Ti85  1  0.21002332  0.44462887  0.43625672  1
  Ti  Ti86  1  0.11790653  0.52666289  0.64791224  1
  Ti  Ti87  1  0.25131564  0.83734137  0.03524893  1
  Ti  Ti88  1  0.15706240  0.78403677  0.31247800  1
  Ti  Ti89  1  0.14688875  0.76396250  0.61939675  1
  Ti  Ti90  1  0.44917130  0.10948220  0.04263882  1
  Ti  Ti91  1  0.41503013  0.19842804  0.37090417  1
  Ti  Ti92  1  0.51157846  0.17526048  0.64341333  1
  Ti  Ti93  1  0.54381876  0.49438615  0.02179891  1
  Ti  Ti94  1  0.51356110  0.50268161  0.31929137  1
  Ti  Ti95  1  0.49854251  0.54161761  0.71358665  1
  Ti  Ti96  1  0.45023697  0.83118003  0.02457319  1
  Ti  Ti97  1  0.56339980  0.73987411  0.32810465  1
  Ti  Ti98  1  0.46534897  0.82468973  0.67755378  1
  Ti  Ti99  1  0.84070127  0.11446066  0.01236859  1
  Ti  Ti100  1  0.87996049  0.12570198  0.42980502  1
  Ti  Ti101  1  0.86793089  0.05194460  0.60910030  1
  Ti  Ti102  1  0.72350697  0.55102849  -0.01526713  1
  Ti  Ti103  1  0.77744718  0.45291872  0.31624369  1
  Ti  Ti104  1  0.92598256  0.49414965  0.63913417  1
  Ti  Ti105  1  0.76170958  0.86084827  -0.03836971  1
  Ti  Ti106  1  0.81187591  0.84712462  0.28073091  1
  Ti  Ti107  1  0.77665084  0.88419168  0.71237895  1
  Co  Co108  1  0.60570959  0.91966300  0.70261619  1
  Co  Co109  1  0.88375982  0.52198707  0.00313721  1
  Co  Co110  1  0.72683610  0.08209852  0.51307247  1
  Co  Co111  1  0.08501165  0.34389030  0.41960447  1
  Co  Co112  1  0.01595021  0.21347374  0.30264890  1
  Co  Co113  1  0.26145590  0.46750282  0.58106159  1
  Co  Co114  1  0.26602164  0.30385966  0.34956123  1
  Co  Co115  1  0.29933101  0.07510840  0.38428546  1
  Co  Co116  1  0.01124123  0.05937075  0.35505898  1
  Co  Co117  1  0.63578137  0.38227548  0.32246586  1
  Co  Co118  1  0.85994255  0.42482697  0.47599205  1
  Co  Co119  1  0.66330049  0.60377631  0.12866546  1
  Co  Co120  1  0.14690554  0.35047350  0.58923648  1
  Co  Co121  1  0.99201153  0.35623790  0.57805373  1
  Co  Co122  1  1.07175903  0.10586483  0.18921630  1
  Co  Co123  1  0.29395802  0.15889157  0.05613795  1
  Co  Co124  1  0.86522273  0.40175922  0.18949811  1
  Co  Co125  1  0.44325485  0.63942567  0.01077811  1
  Co  Co126  1  0.33885270  0.95735700  0.10926976  1
  Co  Co127  1  0.59059168  0.19354180  0.77253532  1
  Co  Co128  1  0.25979508  0.50256615  0.91011123  1
  Co  Co129  1  0.10978936  0.46578216  0.81711233  1
  Co  Co130  1  0.39958160  0.38649274  0.43112247  1
  Co  Co131  1  0.88722046  0.76422172  0.42305135  1
  Co  Co132  1  0.03604868  0.50074257  0.95521162  1
  Co  Co133  1  1.00447643  0.21632933  0.45764811  1
  Co  Co134  1  0.13533018  0.72132012  0.03652033  1
  Co  Co135  1  0.55340564  0.69568354  0.73895201  1
  Co  Co136  1  0.78898600  0.38834488  0.05855562  1
  Co  Co137  1  0.83093613  0.25462859  0.93700642  1
  Co  Co138  1  0.89491979  0.69590641  0.26569261  1
  Co  Co139  1  0.70949122  0.93358618  0.57331550  1
  Co  Co140  1  0.55213146  0.08930114  0.32074619  1
  Co  Co141  1  0.80727941  0.74947706  0.61071673  1
  Co  Co142  1  0.46585985  0.33074341  0.29481584  1
  Co  Co143  1  0.85525184  0.24268388  0.11258246  1
  Co  Co144  1  0.58709839  0.23509213  0.29638271  1
  Co  Co145  1  0.13578525  0.85902893  0.14292061  1
  Co  Co146  1  0.28486114  0.79587879  0.19496568  1
  Co  Co147  1  0.13597101  0.31761398  0.89963880  1
  Co  Co148  1  0.66381385  0.73515665  0.21557473  1
  Co  Co149  1  0.43488344  0.85377065  0.35975514  1
  Co  Co150  1  0.64565200  0.56786464  0.28179942  1
  Co  Co151  1  0.26596594  0.52430126  0.74092109  1
  Co  Co152  1  0.71389139  0.74605540  0.74402651  1
  Co  Co153  1  0.41486903  0.98186165  0.62806109  1
  Co  Co154  1  0.26482347  0.09402868  0.21462332  1
  Co  Co155  1  0.40783951  0.28263495  1.03544061  1
  Co  Co156  1  0.81005339  0.60492126  0.72479089  1
  Co  Co157  1  0.98654315  -0.00897232  0.50804282  1
  Co  Co158  1  0.24701249  0.74966966  0.74519823  1
  Co  Co159  1  0.29841764  0.89783512  0.69093928  1
  Co  Co160  1  0.29680771  0.65969986  0.12237297  1
  Co  Co161  1  0.79836535  0.42251349  0.90151277  1
  Ni  Ni162  1  0.45329876  0.94955683  0.91731985  1
  Ni  Ni163  1  0.67240511  0.66648343  0.86696821  1
  Ni  Ni164  1  0.00547527  0.11286697  0.03246334  1
  Ni  Ni165  1  0.11086072  0.91190591  0.96780797  1
  Ni  Ni166  1  0.61156937  0.43064584  0.61540124  1
  Ni  Ni167  1  0.38671942  0.59509032  0.26491464  1
  Ni  Ni168  1  0.62520239  0.64695794  0.47107023  1
  Ni  Ni169  1  0.72885321  0.01343414  0.05131783  1
  Ni  Ni170  1  0.18714735  0.22408834  0.17829146  1
  Ni  Ni171  1  0.81905418  0.90758970  0.12840287  1
  Ni  Ni172  1  0.51053435  0.53307826  0.52705636  1
  Ni  Ni173  1  0.10995971  0.13197050  0.76027304  1
  Ni  Ni174  1  0.78259883  0.18727408  0.71497099  1
  Ni  Ni175  1  0.45827246  0.75860240  0.87549460  1
  Ni  Ni176  1  0.92274978  0.52916923  0.31466664  1
  Ni  Ni177  1  0.81599888  0.42358570  0.73659347  1
  Ni  Ni178  1  0.44696646  0.25493539  0.52281805  1
  Ni  Ni179  1  0.79734850  0.73390646  0.13403597  1
  Ni  Ni180  1  0.95513182  0.17165424  0.72033867  1
  Ni  Ni181  1  0.13277717  0.91410708  0.56389978  1
  Ni  Ni182  1  0.36699879  0.27989098  0.66541027  1
  Ni  Ni183  1  0.56242037  0.01539485  0.57537827  1
  Ni  Ni184  1  0.06708837  0.77940796  0.75716732  1
  Ni  Ni185  1  0.63208678  0.16291346  0.01996294  1
  Ni  Ni186  1  0.55964672  0.92933605  0.27598301  1
  Ni  Ni187  1  0.72703454  0.98087270  0.83132059  1
  Ni  Ni188  1  0.67353582  0.26854351  0.57469944  1
  Ni  Ni189  1  0.07790613  0.79064340  0.45348202  1
  Ni  Ni190  1  0.08585106  0.50293447  0.31192611  1
  Ni  Ni191  1  0.76585864  0.47757071  0.59747849  1
  Ni  Ni192  1  0.63144388  0.77050125  0.60492255  1
  Ni  Ni193  1  0.89667593  0.80538316  1.03147742  1
  Ni  Ni194  1  0.98415206  0.87968143  0.34888862  1
  Ni  Ni195  1  0.13112208  0.06210278  0.90689333  1
  Ni  Ni196  1  0.45611131  0.39752858  0.14675738  1
  Ni  Ni197  1  0.93718195  0.88442874  0.76488145  1
  Ni  Ni198  1  0.16792304  0.77531019  0.88569118  1
  Ni  Ni199  1  0.41583748  0.19099551  0.78942583  1
  Ni  Ni200  1  0.98139125  -0.00224200  0.90253041  1
  Ni  Ni201  1  0.16848861  0.93561726  0.41012095  1
  Ni  Ni202  1  0.53432434  0.86380965  0.51081198  1
  Ni  Ni203  1  0.19913227  0.48563533  0.16776090  1
  Ni  Ni204  1  0.22861489  0.58486222  0.30731755  1
  Ni  Ni205  1  0.50407483  0.36596310  0.74051449  1
  Ni  Ni206  1  0.31364874  0.76424110  0.59317804  1
  Ni  Ni207  1  0.09616518  0.37732762  0.05833667  1
  Ni  Ni208  1  0.50719331  0.97009330  0.11058288  1
  Ni  Ni209  1  0.73748549  1.00834264  0.23443614  1
  Ni  Ni210  1  0.22696303  0.02806949  0.63720502  1
  Ni  Ni211  1  0.59610366  0.42918440  0.87764910  1
  Ni  Ni212  1  0.71362564  0.12313981  0.35212893  1
  Ni  Ni213  1  0.52528020  0.59252158  0.88030886  1
  Ni  Ni214  1  0.03166302  0.65782968  0.54530749  1
  Ni  Ni215  1  0.52012392  0.11804705  0.89941474  1
