# generated using pymatgen
data_Ti2CoNi
_symmetry_space_group_name_H-M   'P 1'
_cell_length_a   14.64198856
_cell_length_b   14.62807168
_cell_length_c   14.69618390
_cell_angle_alpha   90.16927481
_cell_angle_beta   89.86661193
_cell_angle_gamma   90.24386572
_symmetry_Int_Tables_number   1
_chemical_formula_structural   Ti2CoNi
_chemical_formula_sum   'Ti108 Co54 Ni54'
_cell_volume   3147.63761976
_cell_formula_units_Z   54
loop_
 _symmetry_equiv_pos_site_id
 _symmetry_equiv_pos_as_xyz
  1  'x, y, z'
loop_
 _atom_site_type_symbol
 _atom_site_label
 _atom_site_symmetry_multiplicity
 _atom_site_fract_x
 _atom_site_fract_y
 _atom_site_fract_z
 _atom_site_occupancy
  Ti  Ti0  1  0.04070165  0.12246702  0.03125112  1
  Ti  Ti1  1  0.03026954  0.02277306  0.32148317  1
  Ti  Ti2  1  0.02036481  -0.06301722  0.60721348  1
  Ti  Ti3  1  0.05019313  0.32920598  0.03865735  1
  Ti  Ti4  1  -0.03241054  0.30250771  0.32615209  1
  Ti  Ti5  1  -0.04179536  0.34420543  0.63634536  1
  Ti  Ti6  1  0.01040102  0.64325187  -0.05891969  1
  Ti  Ti7  1  0.03005872  0.70275207  0.31917844  1
  Ti  Ti8  1  0.00070368  0.59732817  0.70317984  1
  Ti  Ti9  1  0.36125327  -0.05323613  -0.07005742  1
  Ti  Ti10  1  0.32836071  0.11347433  0.37049912  1
  Ti  Ti11  1  0.35557487  0.01378177  0.64475044  1
  Ti  Ti12  1  0.31702262  0.34872872  0.07911933  1
  Ti  Ti13  1  0.33670118  0.31521489  0.35487311  1
  Ti  Ti14  1  0.28566477  0.33716970  0.73020843  1
  Ti  Ti15  1  0.32990485  0.68895317  0.02475337  1
  Ti  Ti16  1  0.37151700  0.61585536  0.30401616  1
  Ti  Ti17  1  0.36032496  0.68395959  0.71746027  1
  Ti  Ti18  1  0.68800238  0.08551792  -0.04537641  1
  Ti  Ti19  1  0.57850615  0.02100146  0.32990019  1
  Ti  Ti20  1  0.72753789  -0.03374450  0.66281076  1
  Ti  Ti21  1  0.72049373  0.28453047  0.02676031  1
  Ti  Ti22  1  0.71291166  0.42828422  0.29169740  1
  Ti  Ti23  1  0.73321555  0.36183172  0.71070744  1
  Ti  Ti24  1  0.70510355  0.66031780  -0.09794758  1
  Ti  Ti25  1  0.64516508  0.75333226  0.33793306  1
  Ti  Ti26  1  0.67540485  0.61684456  0.61153315  1
  Ti  Ti27  1  -0.14128073  0.16841360  0.13235295  1
  Ti  Ti28  1  -0.01095439  0.15112679  0.56944079  1
  Ti  Ti29  1  0.01123000  0.20777098  0.79717278  1
  Ti  Ti30  1  -0.06841561  0.55536734  0.10327609  1
  Ti  Ti31  1  0.03163562  0.52759176  0.48149854  1
  Ti  Ti32  1  0.00075362  0.38974920  0.83511224  1
  Ti  Ti33  1  0.04655455  0.88465088  0.15315276  1
  Ti  Ti34  1  -0.08390343  0.91232301  0.42048375  1
  Ti  Ti35  1  -0.02923025  0.82740986  0.94106502  1
  Ti  Ti36  1  0.30833486  0.06375238  0.17943632  1
  Ti  Ti37  1  0.28312110  0.29756762  0.54477568  1
  Ti  Ti38  1  0.32439531  0.14038367  0.80772191  1
  Ti  Ti39  1  0.27486222  0.52705374  0.15172878  1
  Ti  Ti40  1  0.26383875  0.49755949  0.49000588  1
  Ti  Ti41  1  0.38954851  0.50266323  0.80407386  1
  Ti  Ti42  1  0.26131821  0.87177965  0.20664707  1
  Ti  Ti43  1  0.30954347  0.80871511  0.54201893  1
  Ti  Ti44  1  0.31207804  0.86864673  0.75221679  1
  Ti  Ti45  1  0.68064895  0.11189356  0.16635824  1
  Ti  Ti46  1  0.70446385  0.13160454  0.45814799  1
  Ti  Ti47  1  0.64216848  0.24195727  0.85148218  1
  Ti  Ti48  1  0.66588086  0.48066447  0.10659260  1
  Ti  Ti49  1  0.60893240  0.46336301  0.45687792  1
  Ti  Ti50  1  0.68179243  0.45852457  0.91692829  1
  Ti  Ti51  1  0.66857891  0.89433467  0.18799633  1
  Ti  Ti52  1  0.57173295  0.78581555  0.55225547  1
  Ti  Ti53  1  0.63676989  0.77655017  0.76021693  1
  Ti  Ti54  1  0.19919603  -0.01753208  0.04039246  1
  Ti  Ti55  1  0.14616172  0.03425919  0.47996501  1
  Ti  Ti56  1  0.17303903  0.00091666  0.81593697  1
  Ti  Ti57  1  0.16708220  0.36601701  0.21467386  1
  Ti  Ti58  1  0.09383873  0.31597383  0.48173931  1
  Ti  Ti59  1  0.18920797  0.29577118  0.90589761  1
  Ti  Ti60  1  0.15811832  0.68509982  0.17008610  1
  Ti  Ti61  1  0.14608328  0.69656045  0.48527419  1
  Ti  Ti62  1  0.16811834  0.69013736  0.83750701  1
  Ti  Ti63  1  0.49065552  0.03518445  0.15460735  1
  Ti  Ti64  1  0.45402251  -0.01850451  0.49012570  1
  Ti  Ti65  1  0.56564306  -0.06857700  0.89903045  1
  Ti  Ti66  1  0.50794064  0.29099505  0.18674337  1
  Ti  Ti67  1  0.46698791  0.34484811  0.54897377  1
  Ti  Ti68  1  0.45925365  0.29916502  0.84297123  1
  Ti  Ti69  1  0.47845368  0.58880610  0.12963991  1
  Ti  Ti70  1  0.43324118  0.60426015  0.51473806  1
  Ti  Ti71  1  0.48209832  0.67056545  0.87412981  1
  Ti  Ti72  1  0.85536943  -0.02028296  0.22143112  1
  Ti  Ti73  1  0.71945122  -0.06913303  0.46596835  1
  Ti  Ti74  1  0.90065261  0.04750350  0.72490092  1
  Ti  Ti75  1  0.85374073  0.35805632  0.15878408  1
  Ti  Ti76  1  0.78119812  0.29152231  0.54045573  1
  Ti  Ti77  1  0.83143339  0.35965109  0.87387019  1
  Ti  Ti78  1  0.75395791  0.68011959  0.16518165  1
  Ti  Ti79  1  0.86773162  0.70351699  0.56143739  1
  Ti  Ti80  1  0.81297568  0.65040076  0.73253771  1
  Ti  Ti81  1  0.20453848  0.19241883  0.08375128  1
  Ti  Ti82  1  0.14082858  0.16874585  0.27137862  1
  Ti  Ti83  1  0.19730707  0.13559511  0.63419263  1
  Ti  Ti84  1  0.18813352  0.48572305  -0.05945314  1
  Ti  Ti85  1  0.17602174  0.57540685  0.33457324  1
  Ti  Ti86  1  0.21378002  0.53036543  0.72637827  1
  Ti  Ti87  1  0.16496044  0.80579595  -0.00199469  1
  Ti  Ti88  1  0.13460945  0.86354168  0.36432655  1
  Ti  Ti89  1  0.16007178  0.76207656  0.67179268  1
  Ti  Ti90  1  0.48363358  0.12040681  -0.05926746  1
  Ti  Ti91  1  0.51051659  0.22464053  0.40730275  1
  Ti  Ti92  1  0.51309280  0.14356846  0.69584933  1
  Ti  Ti93  1  0.50852655  0.49180681  -0.05151640  1
  Ti  Ti94  1  0.55687597  0.58345865  0.30664945  1
  Ti  Ti95  1  0.52048052  0.51634725  0.65569788  1
  Ti  Ti96  1  0.51011768  0.82921302  0.07931605  1
  Ti  Ti97  1  0.47307901  0.83049165  0.27334568  1
  Ti  Ti98  1  0.54647632  0.94200451  0.69032939  1
  Ti  Ti99  1  0.87996269  0.08435439  -0.04310063  1
  Ti  Ti100  1  0.77774387  0.23640448  0.31681236  1
  Ti  Ti101  1  0.70751093  0.15879137  0.67814150  1
  Ti  Ti102  1  0.86881654  0.54287468  -0.11309906  1
  Ti  Ti103  1  0.90829790  0.51580367  0.30787981  1
  Ti  Ti104  1  0.83590178  0.49656562  0.56899473  1
  Ti  Ti105  1  0.76973173  0.86135336  -0.03621811  1
  Ti  Ti106  1  0.84278817  0.74020863  0.34306594  1
  Ti  Ti107  1  0.86999957  0.83677763  0.74449834  1
  Co  Co108  1  0.40836557  0.46204808  0.24200060  1
  Co  Co109  1  0.60757777  0.61688770  0.02886234  1
  Co  Co110  1  0.46735786  0.82531337  0.79482615  1
  Co  Co111  1  0.43351391  0.80419523  0.94887123  1
  Co  Co112  1  0.90769256  0.61728627  0.43466479  1
  Co  Co113  1  0.17138413  0.19741421  0.77703730  1
  Co  Co114  1  0.91912646  0.14863414  0.28815765  1
  Co  Co115  1  0.77140329  0.58478890  1.02838523  1
  Co  Co116  1  0.46764326  0.14606598  0.53862259  1
  Co  Co117  1  0.76288802  0.88615460  0.32109279  1
  Co  Co118  1  0.92581077  0.68413412  0.20118224  1
  Co  Co119  1  0.14214804  1.01970110  0.18301089  1
  Co  Co120  1  0.34430249  0.47923675  0.63172082  1
  Co  Co121  1  0.51716489  0.69428231  0.68183665  1
  Co  Co122  1  0.03526999  0.16072067  0.41328082  1
  Co  Co123  1  0.44752313  0.37486580  0.70246612  1
  Co  Co124  1  0.60630931  0.23062886  0.55537452  1
  Co  Co125  1  0.71097865  0.92642408  0.82029450  1
  Co  Co126  1  0.74089357  0.05639186  0.31345504  1
  Co  Co127  1  0.60600946  0.06398304  0.80760378  1
  Co  Co128  1  0.12522825  0.58426765  0.60266939  1
  Co  Co129  1  0.94574818  0.38918753  0.47338393  1
  Co  Co130  1  0.89189087  0.22251457  0.45523690  1
  Co  Co131  1  0.86853117  1.06338724  0.41414870  1
  Co  Co132  1  0.57520037  0.71908234  0.18837333  1
  Co  Co133  1  0.76703412  0.07656898  0.80798368  1
  Co  Co134  1  0.30535283  0.61821908  0.87484788  1
  Co  Co135  1  1.02936319  0.91328348  0.77369340  1
  Co  Co136  1  0.99659308  0.46788966  0.97663757  1
  Co  Co137  1  0.61727418  0.17988246  0.29709183  1
  Co  Co138  1  0.27479911  0.64002887  0.59260449  1
  Co  Co139  1  0.13301963  0.85609780  0.52434026  1
  Co  Co140  1  0.05135692  0.55811800  0.23377276  1
  Co  Co141  1  0.86594010  0.71773903  0.03485978  1
  Co  Co142  1  0.62820374  0.39594907  0.59289296  1
  Co  Co143  1  0.86233986  0.71582561  0.87322405  1
  Co  Co144  1  0.10542630  0.26716653  0.64256236  1
  Co  Co145  1  0.28755554  0.79085795  0.88926073  1
  Co  Co146  1  0.07008197  0.06485289  0.69982695  1
  Co  Co147  1  0.32194283  0.85073666  0.06081186  1
  Co  Co148  1  0.21922852  -0.00108899  0.31980805  1
  Co  Co149  1  0.59312175  0.77854292  0.92572965  1
  Co  Co150  1  1.01466011  0.06228040  0.85433279  1
  Co  Co151  1  0.82682545  0.43082553  0.02198632  1
  Co  Co152  1  0.43633494  0.84051227  0.63189772  1
  Co  Co153  1  0.56453821  0.44179012  0.22770939  1
  Co  Co154  1  0.27103733  0.45222305  0.31722054  1
  Co  Co155  1  0.13132267  0.37033710  0.76272721  1
  Co  Co156  1  0.30502342  0.67390768  0.43763063  1
  Co  Co157  1  0.57973507  0.29011900  0.70698088  1
  Co  Co158  1  -0.01340958  0.05819290  0.16626099  1
  Co  Co159  1  0.36864518  0.20995729  0.66106647  1
  Co  Co160  1  0.90634058  0.26945992  0.00761849  1
  Co  Co161  1  0.65923167  0.30510811  0.41862888  1
  Ni  Ni162  1  0.85936162  0.89635976  0.57875772  1
  Ni  Ni163  1  0.31598924  0.11955932  0.52703746  1
  Ni  Ni164  1  0.59465817  0.63795375  0.46495131  1
  Ni  Ni165  1  0.88285576  0.95066424  0.86463455  1
  Ni  Ni166  1  0.19744527  0.19495842  0.43854839  1
  Ni  Ni167  1  0.80435924  0.20754591  0.88548943  1
  Ni  Ni168  1  0.28682189  0.95188370  0.46435763  1
  Ni  Ni169  1  0.79711377  0.40640921  0.42525526  1
  Ni  Ni170  1  0.34350246  0.23482684  0.95057908  1
  Ni  Ni171  1  0.74647991  0.57246602  0.45398732  1
  Ni  Ni172  1  0.92351745  0.95220398  0.05493533  1
  Ni  Ni173  1  0.31969380  0.08676949  0.99791956  1
  Ni  Ni174  1  0.16828569  0.62984363  0.01601985  1
  Ni  Ni175  1  0.60450439  0.98375870  0.05446103  1
  Ni  Ni176  1  0.73065239  0.51410451  0.76787274  1
  Ni  Ni177  1  0.40699197  0.18389808  0.09647424  1
  Ni  Ni178  1  0.58834421  0.58084359  0.79119195  1
  Ni  Ni179  1  0.39470448  0.97489081  0.30413936  1
  Ni  Ni180  1  0.06502293  0.95779429  0.95655961  1
  Ni  Ni181  1  0.88324159  0.46911675  0.72788189  1
  Ni  Ni182  1  0.16761719  0.41460821  0.60455964  1
  Ni  Ni183  1  0.07516159  0.53148553  0.83323378  1
  Ni  Ni184  1  0.67475338  0.76951494  0.06030615  1
  Ni  Ni185  1  0.11439265  0.48846369  0.09388140  1
  Ni  Ni186  1  0.73509560  0.79831078  0.62969822  1
  Ni  Ni187  1  0.46347719  0.42471160  0.09191923  1
  Ni  Ni188  1  0.33394215  0.39014335  0.91031086  1
  Ni  Ni189  1  0.59897545  0.04755609  0.55854001  1
  Ni  Ni190  1  0.44668562  0.15280247  0.26352751  1
  Ni  Ni191  1  0.72869203  0.73791683  0.48117721  1
  Ni  Ni192  1  0.00724999  0.74335006  0.79142399  1
  Ni  Ni193  1  0.42970189  0.46231268  0.40954368  1
  Ni  Ni194  1  1.00547732  0.40732041  0.19396931  1
  Ni  Ni195  1  0.76968070  -0.00294851  0.07631228  1
  Ni  Ni196  1  1.00353716  0.77097269  0.62832847  1
  Ni  Ni197  1  0.30181150  0.23436216  0.21655313  1
  Ni  Ni198  1  0.35146828  0.52237109  1.00381838  1
  Ni  Ni199  1  0.16799548  0.12815782  0.92477888  1
  Ni  Ni200  1  0.85677087  0.22892802  0.71805709  1
  Ni  Ni201  1  0.57675136  0.18520988  0.06059049  1
  Ni  Ni202  1  0.08037874  0.43016243  0.35060557  1
  Ni  Ni203  1  0.56019403  0.87925153  0.41203999  1
  Ni  Ni204  1  -0.01097493  0.77322316  0.46540274  1
  Ni  Ni205  1  0.73551343  0.59055296  0.29635366  1
  Ni  Ni206  1  0.01854847  0.23427570  0.17335729  1
  Ni  Ni207  1  0.22980811  0.73764617  0.30897283  1
  Ni  Ni208  1  0.02653815  0.72988005  0.08105725  1
  Ni  Ni209  1  0.43930120  0.01086804  0.79842470  1
  Ni  Ni210  1  0.19278130  0.94564443  0.64953059  1
  Ni  Ni211  1  0.37801813  0.72894247  0.17936390  1
  Ni  Ni212  1  0.56374118  0.33376400  0.98248314  1
  Ni  Ni213  1  0.83026814  0.09838987  0.57207467  1
  Ni  Ni214  1  0.67848278  0.29796021  0.18401238  1
  Ni  Ni215  1  0.47073056  0.73449240  0.41032637  1
