# generated using pymatgen
data_Ti2CoNi
_symmetry_space_group_name_H-M   'P 1'
_cell_length_a   14.53046788
_cell_length_b   14.51104977
_cell_length_c   14.50383272
_cell_angle_alpha   89.80165379
_cell_angle_beta   89.77229468
_cell_angle_gamma   89.91183240
_symmetry_Int_Tables_number   1
_chemical_formula_structural   Ti2CoNi
_chemical_formula_sum   'Ti108 Co54 Ni54'
_cell_volume   3058.12107411
_cell_formula_units_Z   54
loop_
 _symmetry_equiv_pos_site_id
 _symmetry_equiv_pos_as_xyz
  1  'x, y, z'
loop_
 _atom_site_type_symbol
 _atom_site_label
 _atom_site_symmetry_multiplicity
 _atom_site_fract_x
 _atom_site_fract_y
 _atom_site_fract_z
 _atom_site_occupancy
  Ti  Ti0  1  -0.02446522  -0.04615606  -0.06115159  1
  Ti  Ti1  1  0.03139496  0.00596145  0.37224816  1
  Ti  Ti2  1  0.03341644  -0.06272483  0.68844841  1
  Ti  Ti3  1  0.01071285  0.40116419  0.01811927  1
  Ti  Ti4  1  0.05192405  0.36032620  0.35495416  1
  Ti  Ti5  1  0.02068627  0.27614267  0.64202158  1
  Ti  Ti6  1  -0.00126983  0.74183609  -0.00658760  1
  Ti  Ti7  1  -0.01292987  0.54731651  0.36484699  1
  Ti  Ti8  1  0.05999499  0.63430472  0.70165489  1
  Ti  Ti9  1  0.33404257  -0.05211405  -0.01832872  1
  Ti  Ti10  1  0.37384350  0.05275689  0.31564429  1
  Ti  Ti11  1  0.31578351  0.09022669  0.60389962  1
  Ti  Ti12  1  0.28530165  0.25904622  -0.08205765  1
  Ti  Ti13  1  0.29760625  0.39168690  0.36739686  1
  Ti  Ti14  1  0.31152455  0.43036676  0.70393104  1
  Ti  Ti15  1  0.36217034  0.74570241  -0.01933376  1
  Ti  Ti16  1  0.34533450  0.63966341  0.29853999  1
  Ti  Ti17  1  0.28562317  0.61293057  0.68411667  1
  Ti  Ti18  1  0.74332292  0.01995935  0.00848131  1
  Ti  Ti19  1  0.69590848  -0.05180983  0.31689845  1
  Ti  Ti20  1  0.63835431  0.03549298  0.72541960  1
  Ti  Ti21  1  0.71613695  0.28917640  0.00633933  1
  Ti  Ti22  1  0.69546761  0.28941373  0.36348693  1
  Ti  Ti23  1  0.66194460  0.25525658  0.72093212  1
  Ti  Ti24  1  0.67286753  0.75102407  -0.04270541  1
  Ti  Ti25  1  0.60671894  0.61170558  0.36403884  1
  Ti  Ti26  1  0.65937775  0.66253894  0.68201199  1
  Ti  Ti27  1  -0.02915304  0.17798160  0.08644205  1
  Ti  Ti28  1  0.05335737  0.17496086  0.43678654  1
  Ti  Ti29  1  0.01430371  0.16315827  0.88337622  1
  Ti  Ti30  1  -0.05574032  0.45787317  0.19489306  1
  Ti  Ti31  1  -0.01418311  0.44460093  0.51524854  1
  Ti  Ti32  1  0.10698763  0.54736594  0.93908249  1
  Ti  Ti33  1  -0.05274593  0.89903310  0.15733775  1
  Ti  Ti34  1  -0.02772183  0.86166361  0.47530968  1
  Ti  Ti35  1  -0.03526338  0.78207789  0.77915252  1
  Ti  Ti36  1  0.35188039  0.16023319  0.12316813  1
  Ti  Ti37  1  0.26403118  0.19080899  0.44180420  1
  Ti  Ti38  1  0.36863254  0.15552301  0.76825795  1
  Ti  Ti39  1  0.36728663  0.50868142  0.15427760  1
  Ti  Ti40  1  0.28846076  0.61066343  0.47339320  1
  Ti  Ti41  1  0.31677398  0.54962996  0.88295746  1
  Ti  Ti42  1  0.32060805  0.85971320  0.27211388  1
  Ti  Ti43  1  0.31427397  0.80315792  0.51926071  1
  Ti  Ti44  1  0.25571617  0.84208538  0.83266142  1
  Ti  Ti45  1  0.59066548  0.16941411  0.09232372  1
  Ti  Ti46  1  0.72994394  0.17266818  0.52209768  1
  Ti  Ti47  1  0.64510232  0.13814090  0.89281421  1
  Ti  Ti48  1  0.69459241  0.44900237  0.12263126  1
  Ti  Ti49  1  0.68982576  0.47235146  0.59990334  1
  Ti  Ti50  1  0.65025098  0.47329990  0.79782700  1
  Ti  Ti51  1  0.65545139  0.79307429  0.20967222  1
  Ti  Ti52  1  0.73696014  0.83191628  0.46558301  1
  Ti  Ti53  1  0.67034830  0.84919589  0.72147853  1
  Ti  Ti54  1  0.14702776  -0.04958235  0.22320444  1
  Ti  Ti55  1  0.16412286  0.01978759  0.51000068  1
  Ti  Ti56  1  0.14990864  -0.00046991  0.83595119  1
  Ti  Ti57  1  0.09813785  0.33299223  0.16428195  1
  Ti  Ti58  1  0.15838714  0.33330498  0.50980311  1
  Ti  Ti59  1  0.11406540  0.35746955  0.82803811  1
  Ti  Ti60  1  0.25518679  0.69033259  0.14091705  1
  Ti  Ti61  1  0.10813902  0.69116476  0.49754500  1
  Ti  Ti62  1  0.16171226  0.68667317  0.83721343  1
  Ti  Ti63  1  0.53910453  -0.01478799  0.16356855  1
  Ti  Ti64  1  0.48460805  0.02044567  0.51119549  1
  Ti  Ti65  1  0.48735113  0.00043278  0.85460913  1
  Ti  Ti66  1  0.44015132  0.31560594  0.17179347  1
  Ti  Ti67  1  0.50731772  0.29661548  0.44954806  1
  Ti  Ti68  1  0.56470930  0.33004556  0.88028970  1
  Ti  Ti69  1  0.49793490  0.69337613  0.13282901  1
  Ti  Ti70  1  0.49578265  0.67915469  0.49983817  1
  Ti  Ti71  1  0.49432715  0.62181274  0.84919318  1
  Ti  Ti72  1  0.80192930  0.07179525  0.19975074  1
  Ti  Ti73  1  0.83901051  0.02994723  0.47359220  1
  Ti  Ti74  1  0.81151073  -0.13243540  0.83839956  1
  Ti  Ti75  1  0.82808279  0.30910881  0.17399480  1
  Ti  Ti76  1  0.80013750  0.34797614  0.51520919  1
  Ti  Ti77  1  0.89032538  0.39986889  0.84972804  1
  Ti  Ti78  1  0.83497026  0.59889646  0.24237577  1
  Ti  Ti79  1  0.87094705  0.68705019  0.47494774  1
  Ti  Ti80  1  0.80234024  0.56690338  0.85947829  1
  Ti  Ti81  1  0.17822264  0.11367766  0.00454175  1
  Ti  Ti82  1  0.14095026  0.15375799  0.21610691  1
  Ti  Ti83  1  0.16956811  0.17732973  0.78525741  1
  Ti  Ti84  1  0.24120196  0.40772747  0.04021302  1
  Ti  Ti85  1  0.18838885  0.49779294  0.25660750  1
  Ti  Ti86  1  0.13592582  0.50936352  0.60085447  1
  Ti  Ti87  1  0.14811269  0.92313807  0.01186481  1
  Ti  Ti88  1  0.17404183  0.84807282  0.39826691  1
  Ti  Ti89  1  0.25402077  0.90139570  0.65785432  1
  Ti  Ti90  1  0.46475185  0.19909957  -0.04791619  1
  Ti  Ti91  1  0.55021030  0.17093092  0.27763653  1
  Ti  Ti92  1  0.48777189  0.20776664  0.61968223  1
  Ti  Ti93  1  0.54058295  0.51117183  0.02892707  1
  Ti  Ti94  1  0.49946811  0.42604792  0.32069154  1
  Ti  Ti95  1  0.48784768  0.40507293  0.63735646  1
  Ti  Ti96  1  0.51353300  0.86219849  -0.00574056  1
  Ti  Ti97  1  0.54674554  0.85376881  0.42618429  1
  Ti  Ti98  1  0.45984091  0.74238078  0.68394083  1
  Ti  Ti99  1  0.83299953  0.15799250  -0.11914426  1
  Ti  Ti100  1  0.87143332  0.19074089  0.34739661  1
  Ti  Ti101  1  0.86944412  0.12209974  0.66221276  1
  Ti  Ti102  1  0.80442355  0.60907166  0.04724452  1
  Ti  Ti103  1  0.76175773  0.50305206  0.38402945  1
  Ti  Ti104  1  0.86741599  0.56864579  0.68059368  1
  Ti  Ti105  1  0.81701009  0.83652079  0.03162191  1
  Ti  Ti106  1  0.85873899  0.81255623  0.31015108  1
  Ti  Ti107  1  0.83401902  0.83133415  0.61542238  1
  Co  Co108  1  0.71238744  0.19938560  0.20122710  1
  Co  Co109  1  0.41817132  0.16085559  0.47315484  1
  Co  Co110  1  0.62888725  0.30055099  0.56818597  1
  Co  Co111  1  0.65693234  0.90978410  0.89050017  1
  Co  Co112  1  0.97680846  0.73846398  0.19827530  1
  Co  Co113  1  0.08531423  0.84364936  0.87408331  1
  Co  Co114  1  0.84777133  0.44346286  0.04188003  1
  Co  Co115  1  0.10021689  0.50249566  0.12065793  1
  Co  Co116  1  0.97684312  0.09797928  0.24509947  1
  Co  Co117  1  0.02290558  0.85464422  0.30414693  1
  Co  Co118  1  0.42282793  0.30780658  0.77536736  1
  Co  Co119  1  0.80806529  0.26843099  0.66379413  1
  Co  Co120  1  0.19570187  0.76149753  0.97610320  1
  Co  Co121  1  0.03639918  0.11545188  0.71391934  1
  Co  Co122  1  0.77528642  0.41714729  0.72369466  1
  Co  Co123  1  0.11903402  0.86451514  0.55287061  1
  Co  Co124  1  0.12117969  0.80612821  0.72130731  1
  Co  Co125  1  -0.01567918  0.60403629  0.55598161  1
  Co  Co126  1  0.80618541  0.73579058  0.16378902  1
  Co  Co127  1  0.75412336  0.30098601  0.84554965  1
  Co  Co128  1  0.41863430  0.84529227  0.84465695  1
  Co  Co129  1  0.98072511  0.76188479  0.60852659  1
  Co  Co130  1  0.09336233  0.81782692  0.11831989  1
  Co  Co131  1  -0.00627406  0.70655447  0.36670648  1
  Co  Co132  1  0.17451606  0.04660001  0.67252989  1
  Co  Co133  1  0.77312215  0.91349190  0.17251701  1
  Co  Co134  1  0.60645280  0.10667802  0.59078706  1
  Co  Co135  1  0.46827837  0.04423498  0.68025876  1
  Co  Co136  1  0.73424213  0.98971594  0.59867409  1
  Co  Co137  1  0.53122147  0.17508218  0.78136928  1
  Co  Co138  1  0.08477819  0.62278249  0.23156897  1
  Co  Co139  1  0.96677832  0.60256215  0.12423622  1
  Co  Co140  1  0.93505019  0.26952016  0.50369085  1
  Co  Co141  1  0.19363354  0.26604113  0.31829206  1
  Co  Co142  1  0.90251046  0.39758087  0.63697942  1
  Co  Co143  1  0.65556246  0.88608585  0.06597420  1
  Co  Co144  1  0.40540536  0.59520841  1.01361166  1
  Co  Co145  1  0.93079385  0.26627659  0.77761924  1
  Co  Co146  1  0.56169845  0.53825730  0.52914645  1
  Co  Co147  1  0.26331651  0.28678649  0.73219239  1
  Co  Co148  1  0.16656606  0.77152815  0.25321512  1
  Co  Co149  1  0.51845026  0.89649881  0.72374035  1
  Co  Co150  1  0.85299760  0.95608453  0.69397341  1
  Co  Co151  1  0.58390566  0.14951788  0.43665602  1
  Co  Co152  1  0.71222710  0.11296173  0.34631967  1
  Co  Co153  1  0.28219241  0.40243067  0.86804287  1
  Co  Co154  1  0.24825713  0.56325614  0.04152574  1
  Co  Co155  1  -0.02539992  0.26705243  0.24606486  1
  Co  Co156  1  0.17790196  0.64660288  0.35351629  1
  Co  Co157  1  0.80171311  0.16840779  0.05150785  1
  Co  Co158  1  0.11532671  0.65560744  1.06751909  1
  Co  Co159  1  0.42168398  0.83692890  0.12389730  1
  Co  Co160  1  0.64892275  0.99231756  0.46740688  1
  Co  Co161  1  0.16229842  0.18768484  0.58854559  1
  Ni  Ni162  1  0.62888103  0.41939894  0.44689324  1
  Ni  Ni163  1  0.60110230  0.79411626  0.57620181  1
  Ni  Ni164  1  0.66160486  0.62963719  0.14821649  1
  Ni  Ni165  1  0.83743867  0.53056322  0.52016941  1
  Ni  Ni166  1  0.64470709  0.48592657  0.26520329  1
  Ni  Ni167  1  0.96616499  0.61842985  0.83577445  1
  Ni  Ni168  1  0.56321093  0.77238358  0.83733736  1
  Ni  Ni169  1  0.58350580  0.02139887  0.99698308  1
  Ni  Ni170  1  0.19843445  0.06669836  0.34357226  1
  Ni  Ni171  1  0.31429577  0.97308212  0.45502015  1
  Ni  Ni172  1  0.84591886  0.71831169  0.90480343  1
  Ni  Ni173  1  0.17303380  0.51307688  0.77880425  1
  Ni  Ni174  1  0.44075405  0.05687307  0.04335862  1
  Ni  Ni175  1  0.14819076  0.49947412  0.43005344  1
  Ni  Ni176  1  0.43028915  0.88608016  0.59114585  1
  Ni  Ni177  1  0.71256433  0.44292562  0.94908827  1
  Ni  Ni178  1  0.47780475  0.45381912  0.81218920  1
  Ni  Ni179  1  0.48823004  0.87400375  0.26895430  1
  Ni  Ni180  1  0.53842270  0.01361166  0.33847526  1
  Ni  Ni181  1  0.56495167  0.34275426  0.05444176  1
  Ni  Ni182  1  0.76386611  0.01943108  0.82600208  1
  Ni  Ni183  1  0.93247309  0.02855462  0.80759530  1
  Ni  Ni184  1  0.98881512  0.04398111  0.56429546  1
  Ni  Ni185  1  0.89313404  1.02697232  0.05688952  1
  Ni  Ni186  1  0.10975067  0.26920591  0.97251417  1
  Ni  Ni187  1  0.28840555  0.01324220  0.16209752  1
  Ni  Ni188  1  0.81598519  0.71666555  0.73399469  1
  Ni  Ni189  1  0.69542484  0.64550029  0.50687869  1
  Ni  Ni190  1  0.32907337  0.99098871  0.77181474  1
  Ni  Ni191  1  0.27884897  0.45702462  0.53921481  1
  Ni  Ni192  1  0.74294185  0.69760687  0.33982023  1
  Ni  Ni193  1  0.60500687  0.31888049  0.21250248  1
  Ni  Ni194  1  0.34612481  0.69934838  0.81125167  1
  Ni  Ni195  1  0.42351829  0.46454000  0.46262476  1
  Ni  Ni196  1  0.49637715  0.56693463  0.23955187  1
  Ni  Ni197  1  0.87978992  0.97835906  0.31774328  1
  Ni  Ni198  1  0.00898227  0.46236160  0.74931429  1
  Ni  Ni199  1  0.40906885  0.56246450  0.59124731  1
  Ni  Ni200  1  0.41721829  0.36641121  -0.00939043  1
  Ni  Ni201  1  0.87599923  0.38314086  0.35402819  1
  Ni  Ni202  1  0.52830173  0.56485306  0.69543968  1
  Ni  Ni203  1  0.35505254  0.31285649  0.52457870  1
  Ni  Ni204  1  0.26219038  0.85524797  0.11053462  1
  Ni  Ni205  1  0.94640678  0.55373778  0.97761838  1
  Ni  Ni206  1  0.38840271  0.76517773  0.39420186  1
  Ni  Ni207  1  0.21050001  0.73143435  0.62029983  1
  Ni  Ni208  1  0.28485648  0.35116370  0.20139316  1
  Ni  Ni209  1  0.22345614  0.25049760  0.08756763  1
  Ni  Ni210  1  0.64815253  0.59442219  0.93132347  1
  Ni  Ni211  1  0.04945142  0.02834953  0.10414846  1
  Ni  Ni212  1  0.32618425  0.09577548  0.91573402  1
  Ni  Ni213  1  0.37730589  0.22940056  0.31432163  1
  Ni  Ni214  1  0.50736462  0.72064424  0.30213285  1
  Ni  Ni215  1  0.89475583  0.28819334  -0.01742087  1
