# generated using pymatgen
data_Ti2CoNi
_symmetry_space_group_name_H-M   'P 1'
_cell_length_a   14.61986765
_cell_length_b   14.67636763
_cell_length_c   14.69333966
_cell_angle_alpha   90.14134909
_cell_angle_beta   89.59612197
_cell_angle_gamma   89.85480784
_symmetry_Int_Tables_number   1
_chemical_formula_structural   Ti2CoNi
_chemical_formula_sum   'Ti108 Co54 Ni54'
_cell_volume   3152.60105150
_cell_formula_units_Z   54
loop_
 _symmetry_equiv_pos_site_id
 _symmetry_equiv_pos_as_xyz
  1  'x, y, z'
loop_
 _atom_site_type_symbol
 _atom_site_label
 _atom_site_symmetry_multiplicity
 _atom_site_fract_x
 _atom_site_fract_y
 _atom_site_fract_z
 _atom_site_occupancy
  Ti  Ti0  1  0.03925055  -0.03947567  -0.04458802  1
  Ti  Ti1  1  -0.03045746  0.05287163  0.25424361  1
  Ti  Ti2  1  0.01393600  0.04097616  0.61630493  1
  Ti  Ti3  1  -0.06447209  0.32866436  -0.04917073  1
  Ti  Ti4  1  -0.02688221  0.34012778  0.40037628  1
  Ti  Ti5  1  -0.03560278  0.31528293  0.71870589  1
  Ti  Ti6  1  -0.05718750  0.64859474  0.00176118  1
  Ti  Ti7  1  -0.10667463  0.62782136  0.39291497  1
  Ti  Ti8  1  0.00280260  0.74580798  0.70196134  1
  Ti  Ti9  1  0.33440098  -0.05399967  -0.06336008  1
  Ti  Ti10  1  0.38744502  -0.00040731  0.31061996  1
  Ti  Ti11  1  0.31746244  -0.09337149  0.61956878  1
  Ti  Ti12  1  0.37624553  0.37375222  0.01005939  1
  Ti  Ti13  1  0.37796742  0.31270415  0.37038958  1
  Ti  Ti14  1  0.26712384  0.35408568  0.70710784  1
  Ti  Ti15  1  0.33384409  0.65928007  -0.03166114  1
  Ti  Ti16  1  0.38852622  0.66115615  0.32682702  1
  Ti  Ti17  1  0.29925689  0.61841485  0.70690084  1
  Ti  Ti18  1  0.69112846  -0.01649122  -0.01703512  1
  Ti  Ti19  1  0.72764150  0.01479900  0.35862610  1
  Ti  Ti20  1  0.68890073  -0.00778229  0.65805050  1
  Ti  Ti21  1  0.58379996  0.36121842  0.00072997  1
  Ti  Ti22  1  0.66564733  0.26527160  0.39615916  1
  Ti  Ti23  1  0.60986776  0.34737712  0.68230469  1
  Ti  Ti24  1  0.68671585  0.60741020  -0.04976793  1
  Ti  Ti25  1  0.70038493  0.64187163  0.29722733  1
  Ti  Ti26  1  0.68209924  0.63325974  0.61096300  1
  Ti  Ti27  1  0.03479393  0.22091373  0.13105624  1
  Ti  Ti28  1  0.06210984  0.16664168  0.46305938  1
  Ti  Ti29  1  0.05754210  0.18910397  0.89855948  1
  Ti  Ti30  1  0.12010469  0.49948077  0.18575889  1
  Ti  Ti31  1  0.01665236  0.49696637  0.51136554  1
  Ti  Ti32  1  -0.06819869  0.46635171  0.82585279  1
  Ti  Ti33  1  -0.04564122  0.87598094  0.18954380  1
  Ti  Ti34  1  -0.02066790  0.84174974  0.45062774  1
  Ti  Ti35  1  0.05137430  0.78172630  0.87754872  1
  Ti  Ti36  1  0.30663290  0.13192994  0.16969109  1
  Ti  Ti37  1  0.36569157  0.17895740  0.56917933  1
  Ti  Ti38  1  0.34005835  0.17157363  0.75446810  1
  Ti  Ti39  1  0.33374011  0.49240545  0.18401482  1
  Ti  Ti40  1  0.33074773  0.56073751  0.50283545  1
  Ti  Ti41  1  0.32193516  0.48543047  0.85700093  1
  Ti  Ti42  1  0.30382231  0.83757104  0.21890499  1
  Ti  Ti43  1  0.30392577  0.85391402  0.43861052  1
  Ti  Ti44  1  0.33580370  0.81112443  0.80476586  1
  Ti  Ti45  1  0.70415216  0.17473302  0.22421991  1
  Ti  Ti46  1  0.72604853  0.12596105  0.51520943  1
  Ti  Ti47  1  0.61916512  0.15953685  0.96865851  1
  Ti  Ti48  1  0.64500905  0.50671444  0.14437665  1
  Ti  Ti49  1  0.70934115  0.43725411  0.54449006  1
  Ti  Ti50  1  0.73415748  0.49154887  0.77085428  1
  Ti  Ti51  1  0.63894664  0.76511364  0.15778210  1
  Ti  Ti52  1  0.60920725  0.78720073  0.46079643  1
  Ti  Ti53  1  0.66123433  0.79588092  0.90010270  1
  Ti  Ti54  1  0.15282405  -0.00061245  0.20218347  1
  Ti  Ti55  1  0.24082740  0.04743769  0.47914104  1
  Ti  Ti56  1  0.15116774  0.04439241  0.80724220  1
  Ti  Ti57  1  0.21106321  0.32616908  0.13134321  1
  Ti  Ti58  1  0.19051722  0.37512935  0.47768894  1
  Ti  Ti59  1  0.10575281  0.37752769  0.84566833  1
  Ti  Ti60  1  0.09418365  0.68593285  0.11471425  1
  Ti  Ti61  1  0.13634374  0.77316621  0.53373602  1
  Ti  Ti62  1  0.10049251  0.58908944  0.87206375  1
  Ti  Ti63  1  0.44320814  -0.01678905  0.13211562  1
  Ti  Ti64  1  0.45615081  0.00725358  0.48903129  1
  Ti  Ti65  1  0.47648314  0.05381357  0.84641999  1
  Ti  Ti66  1  0.49276014  0.37110614  0.18669085  1
  Ti  Ti67  1  0.53026380  0.25436548  0.51367154  1
  Ti  Ti68  1  0.44241182  0.33993697  0.81265334  1
  Ti  Ti69  1  0.42127143  0.67459655  0.13800552  1
  Ti  Ti70  1  0.53917426  0.59818803  0.46897010  1
  Ti  Ti71  1  0.51828458  0.73913119  0.77100834  1
  Ti  Ti72  1  0.77634677  0.00008443  0.17316036  1
  Ti  Ti73  1  0.82176997  -0.05948669  0.52019391  1
  Ti  Ti74  1  0.80946351  0.04263562  0.82728054  1
  Ti  Ti75  1  0.91933299  0.38842612  0.21413322  1
  Ti  Ti76  1  0.89625713  0.21886319  0.56667674  1
  Ti  Ti77  1  0.74707744  0.30666384  0.85812830  1
  Ti  Ti78  1  0.88816848  0.68906547  0.19128170  1
  Ti  Ti79  1  0.84923119  0.74349577  0.57667067  1
  Ti  Ti80  1  0.79751169  0.69762621  0.76654973  1
  Ti  Ti81  1  0.18263131  0.10447134  0.02375485  1
  Ti  Ti82  1  0.18608484  0.23347667  0.30888101  1
  Ti  Ti83  1  0.16353410  0.21824694  0.61776513  1
  Ti  Ti84  1  0.18156174  0.46345723  -0.00507201  1
  Ti  Ti85  1  0.21778819  0.57266880  0.33206816  1
  Ti  Ti86  1  0.11418431  0.60522733  0.65401276  1
  Ti  Ti87  1  0.19987397  0.81337429  0.00626485  1
  Ti  Ti88  1  0.13772915  0.77741346  0.30635033  1
  Ti  Ti89  1  0.13903477  0.90126884  0.68553442  1
  Ti  Ti90  1  0.46246653  0.19654443  0.07458341  1
  Ti  Ti91  1  0.50841809  0.18483590  0.27027812  1
  Ti  Ti92  1  0.53698510  0.17392399  0.70060152  1
  Ti  Ti93  1  0.51040574  0.52967590  -0.07776785  1
  Ti  Ti94  1  0.54940255  0.43586553  0.36936126  1
  Ti  Ti95  1  0.53445380  0.52623947  0.70538131  1
  Ti  Ti96  1  0.50688885  0.83427331  0.01437178  1
  Ti  Ti97  1  0.47274887  0.83887029  0.35372204  1
  Ti  Ti98  1  0.52484676  0.90338474  0.67575895  1
  Ti  Ti99  1  0.88697456  0.14024456  -0.00792292  1
  Ti  Ti100  1  0.86046767  0.16723629  0.36174120  1
  Ti  Ti101  1  0.74909717  0.19084936  0.70613802  1
  Ti  Ti102  1  0.84161327  0.47136038  0.04772300  1
  Ti  Ti103  1  0.74812058  0.44112331  0.31784554  1
  Ti  Ti104  1  0.90384557  0.54632113  0.66885661  1
  Ti  Ti105  1  0.80364584  0.82899469  0.05425326  1
  Ti  Ti106  1  0.79704681  0.80960255  0.37536748  1
  Ti  Ti107  1  0.84485604  0.88714015  0.71580935  1
  Co  Co108  1  0.83271444  0.55731818  0.90377495  1
  Co  Co109  1  0.05267550  0.63072027  0.26135684  1
  Co  Co110  1  0.27880075  0.11630505  0.88890813  1
  Co  Co111  1  0.71173979  0.82817727  0.57760199  1
  Co  Co112  1  0.87623307  0.28878794  0.09587023  1
  Co  Co113  1  0.96006672  0.50844495  0.30786126  1
  Co  Co114  1  0.26979458  0.32912578  0.88404190  1
  Co  Co115  1  1.01532259  0.20600704  0.30109757  1
  Co  Co116  1  0.67311430  0.79452407  0.72234105  1
  Co  Co117  1  0.74019640  0.68999520  0.46556646  1
  Co  Co118  1  0.87331771  0.15258686  0.17496506  1
  Co  Co119  1  0.13495030  0.28997426  0.99215733  1
  Co  Co120  1  0.71407651  0.44620220  0.95299145  1
  Co  Co121  1  0.80522635  0.36079439  0.70424431  1
  Co  Co122  1  0.26010028  0.09401538  0.32095171  1
  Co  Co123  1  0.25099673  0.22185375  0.45861946  1
  Co  Co124  1  0.97364488  0.54902832  0.13655761  1
  Co  Co125  1  0.52246016  0.00649821  0.99356124  1
  Co  Co126  1  0.25078194  0.70377022  0.41653216  1
  Co  Co127  1  0.87645608  0.94723676  0.34045886  1
  Co  Co128  1  0.04866539  0.91604749  0.32462692  1
  Co  Co129  1  0.24013552  0.68204518  0.21341669  1
  Co  Co130  1  0.21264240  0.93593845  0.34397032  1
  Co  Co131  1  0.61318307  0.25268001  0.11631547  1
  Co  Co132  1  0.59003318  0.08800441  0.12860836  1
  Co  Co133  1  0.43518474  0.30581281  0.65070298  1
  Co  Co134  1  0.96963194  0.76542477  0.30935420  1
  Co  Co135  1  0.55440100  0.73142747  0.60730537  1
  Co  Co136  1  0.18870887  0.75410035  0.70730624  1
  Co  Co137  1  0.44099898  0.61603334  0.61511720  1
  Co  Co138  1  0.88689997  0.39077827  0.56958922  1
  Co  Co139  1  0.40283508  0.76958149  0.65944980  1
  Co  Co140  1  0.29787492  0.23249211  0.01773458  1
  Co  Co141  1  0.42350486  0.71363146  0.47832986  1
  Co  Co142  1  0.80523023  0.29208471  0.27282023  1
  Co  Co143  1  0.12298209  0.93879311  0.50368482  1
  Co  Co144  1  0.86009850  0.46140220  0.42586948  1
  Co  Co145  1  0.36411568  0.08091336  0.01587964  1
  Co  Co146  1  0.90553299  0.07139421  0.47900040  1
  Co  Co147  1  0.69067736  0.54755880  0.43149056  1
  Co  Co148  1  0.83047617  0.56746042  0.53741518  1
  Co  Co149  1  0.10666813  0.06238101  0.35807424  1
  Co  Co150  1  0.81257522  0.30693445  0.44465861  1
  Co  Co151  1  0.35452089  0.81508797  0.06196853  1
  Co  Co152  1  0.62993632  0.33393294  0.25659933  1
  Co  Co153  1  0.46407561  0.85559404  0.53031555  1
  Co  Co154  1  0.49570889  0.88782488  0.86340712  1
  Co  Co155  1  0.71306687  0.27850538  0.57478981  1
  Co  Co156  1  0.18282900  0.88096064  0.85086778  1
  Co  Co157  1  0.74754784  0.12569693  0.06606983  1
  Co  Co158  1  0.74718490  0.28173826  1.01018523  1
  Co  Co159  1  0.73668455  0.37739690  0.13813899  1
  Co  Co160  1  0.43208479  0.20657776  0.91022313  1
  Co  Co161  1  0.00636496  0.49393551  0.97007036  1
  Ni  Ni162  1  0.04089989  0.32201750  0.55673282  1
  Ni  Ni163  1  0.64956611  0.10072125  0.81275870  1
  Ni  Ni164  1  -0.01068072  0.66208419  0.54966908  1
  Ni  Ni165  1  0.38368021  0.46525405  0.66216913  1
  Ni  Ni166  1  0.42336711  0.04399628  0.66247791  1
  Ni  Ni167  1  0.38163907  0.48338036  0.35515115  1
  Ni  Ni168  1  0.41136390  0.62631477  0.82070556  1
  Ni  Ni169  1  0.81612850  0.53951884  0.20478928  1
  Ni  Ni170  1  0.54603417  0.70027079  0.28630318  1
  Ni  Ni171  1  0.65609183  0.93642448  0.81156727  1
  Ni  Ni172  1  0.03356606  0.38643069  0.08834243  1
  Ni  Ni173  1  0.08337275  0.35059707  0.25276192  1
  Ni  Ni174  1  0.88658663  0.97758635  0.04796947  1
  Ni  Ni175  1  0.31120355  0.98748312  0.77160946  1
  Ni  Ni176  1  0.24141205  0.58958307  0.08416395  1
  Ni  Ni177  1  0.97280142  0.06254330  0.83748722  1
  Ni  Ni178  1  0.64159321  0.63818958  0.79210734  1
  Ni  Ni179  1  0.47318462  0.50130557  0.08082369  1
  Ni  Ni180  1  0.58439016  0.25235932  0.83803021  1
  Ni  Ni181  1  0.75003391  0.65061600  0.09703457  1
  Ni  Ni182  1  0.06638546  0.44093856  0.67054641  1
  Ni  Ni183  1  0.57233262  0.63823465  0.07532600  1
  Ni  Ni184  1  0.35162615  0.28877238  0.20342995  1
  Ni  Ni185  1  0.22102796  0.48254070  0.60389117  1
  Ni  Ni186  1  0.98404972  0.87971517  0.60864419  1
  Ni  Ni187  1  0.24418474  0.39871490  0.29635800  1
  Ni  Ni188  1  0.49641551  0.54436331  0.24245134  1
  Ni  Ni189  1  0.26886509  0.95821950  0.09163070  1
  Ni  Ni190  1  0.56986498  0.08280094  0.57304755  1
  Ni  Ni191  1  0.28333696  0.71585812  0.57323632  1
  Ni  Ni192  1  0.02497415  0.06215580  0.08761973  1
  Ni  Ni193  1  0.61792794  0.92595296  0.12076433  1
  Ni  Ni194  1  0.47665633  0.82924108  0.19024382  1
  Ni  Ni195  1  1.00152277  0.91536993  0.78260381  1
  Ni  Ni196  1  0.18763417  0.49692113  0.76515113  1
  Ni  Ni197  1  0.03891861  0.16690731  0.72286628  1
  Ni  Ni198  1  0.59811037  0.41799654  0.83614973  1
  Ni  Ni199  1  0.77185924  0.84475899  0.22324812  1
  Ni  Ni200  1  0.08177240  0.65327470  0.41730736  1
  Ni  Ni201  1  0.21222945  0.05896400  0.64810716  1
  Ni  Ni202  1  0.80612285  0.88282683  0.88352201  1
  Ni  Ni203  1  0.18186563  0.22477467  0.78992758  1
  Ni  Ni204  1  0.57994228  0.10598028  0.40387895  1
  Ni  Ni205  1  0.51276419  0.69378097  0.93296951  1
  Ni  Ni206  1  0.81945147  0.72172853  0.92751214  1
  Ni  Ni207  1  0.21553893  0.70512084  0.86056887  1
  Ni  Ni208  1  0.10141035  0.46899468  0.36784170  1
  Ni  Ni209  1  -0.01478741  0.81661176  0.03600652  1
  Ni  Ni210  1  0.94861691  0.64728289  0.82547865  1
  Ni  Ni211  1  0.88901252  0.20633653  0.82253814  1
  Ni  Ni212  1  0.84518131  0.06277179  0.64165971  1
  Ni  Ni213  1  0.64071460  0.95531102  0.48856490  1
  Ni  Ni214  1  0.51614021  0.43349889  0.55012188  1
  Ni  Ni215  1  0.40246196  0.14604344  0.40367876  1
