# generated using pymatgen
data_Ti2CoNi
_symmetry_space_group_name_H-M   'P 1'
_cell_length_a   14.59228532
_cell_length_b   14.66312591
_cell_length_c   14.60119752
_cell_angle_alpha   89.69131295
_cell_angle_beta   89.81625834
_cell_angle_gamma   90.12365456
_symmetry_Int_Tables_number   1
_chemical_formula_structural   Ti2CoNi
_chemical_formula_sum   'Ti108 Co54 Ni54'
_cell_volume   3124.12778015
_cell_formula_units_Z   54
loop_
 _symmetry_equiv_pos_site_id
 _symmetry_equiv_pos_as_xyz
  1  'x, y, z'
loop_
 _atom_site_type_symbol
 _atom_site_label
 _atom_site_symmetry_multiplicity
 _atom_site_fract_x
 _atom_site_fract_y
 _atom_site_fract_z
 _atom_site_occupancy
  Ti  Ti0  1  -0.07168266  0.06072357  0.03288596  1
  Ti  Ti1  1  -0.06562980  0.00390814  0.37694290  1
  Ti  Ti2  1  0.02873035  0.04270440  0.67443725  1
  Ti  Ti3  1  -0.01644519  0.36047250  0.03110908  1
  Ti  Ti4  1  0.04136916  0.31490187  0.28665030  1
  Ti  Ti5  1  -0.02106007  0.22194264  0.64563840  1
  Ti  Ti6  1  -0.02893919  0.57587757  -0.03426365  1
  Ti  Ti7  1  0.04022178  0.70134063  0.28438020  1
  Ti  Ti8  1  0.10601597  0.67404158  0.66645019  1
  Ti  Ti9  1  0.31483530  -0.02266787  0.08602553  1
  Ti  Ti10  1  0.23591436  -0.02192745  0.26684834  1
  Ti  Ti11  1  0.34363017  -0.02662818  0.57897932  1
  Ti  Ti12  1  0.31583172  0.34071851  -0.01530637  1
  Ti  Ti13  1  0.31764159  0.34909323  0.27906865  1
  Ti  Ti14  1  0.31010671  0.39412705  0.66561041  1
  Ti  Ti15  1  0.33846840  0.69730964  0.00778729  1
  Ti  Ti16  1  0.34455141  0.64177333  0.30521359  1
  Ti  Ti17  1  0.29728037  0.63644001  0.60986366  1
  Ti  Ti18  1  0.62249820  -0.00168226  -0.04009347  1
  Ti  Ti19  1  0.62014325  0.10929333  0.32306827  1
  Ti  Ti20  1  0.67145679  -0.02129546  0.69345274  1
  Ti  Ti21  1  0.77400117  0.34209204  -0.03341952  1
  Ti  Ti22  1  0.69693862  0.29658155  0.36385921  1
  Ti  Ti23  1  0.71108698  0.40292210  0.63896433  1
  Ti  Ti24  1  0.71300852  0.69169359  -0.02984853  1
  Ti  Ti25  1  0.57114620  0.65202607  0.32208665  1
  Ti  Ti26  1  0.63248922  0.58340452  0.69523104  1
  Ti  Ti27  1  -0.05702090  0.15718438  0.21630483  1
  Ti  Ti28  1  0.03425930  0.25140506  0.47115805  1
  Ti  Ti29  1  -0.00178541  0.22182543  0.88110614  1
  Ti  Ti30  1  -0.01081326  0.55638196  0.16775902  1
  Ti  Ti31  1  -0.05993473  0.54126301  0.47263191  1
  Ti  Ti32  1  0.04585950  0.44052630  0.85660265  1
  Ti  Ti33  1  0.05959222  0.87483862  0.22661638  1
  Ti  Ti34  1  0.02199932  0.88603195  0.53437744  1
  Ti  Ti35  1  -0.00234676  0.83700729  0.73300363  1
  Ti  Ti36  1  0.41469895  0.13535851  0.20922547  1
  Ti  Ti37  1  0.31525960  0.16515742  0.52086403  1
  Ti  Ti38  1  0.27360082  0.11544146  0.82850357  1
  Ti  Ti39  1  0.26450133  0.50007944  0.17591669  1
  Ti  Ti40  1  0.33628619  0.50026025  0.42880465  1
  Ti  Ti41  1  0.26092071  0.49495653  0.87360638  1
  Ti  Ti42  1  0.35442005  0.81296978  0.20402633  1
  Ti  Ti43  1  0.34086126  0.78521194  0.49982232  1
  Ti  Ti44  1  0.36301363  0.82952534  0.83937562  1
  Ti  Ti45  1  0.73609597  0.11547003  0.11765414  1
  Ti  Ti46  1  0.67374792  0.06737857  0.51986866  1
  Ti  Ti47  1  0.63366898  0.13619717  0.79771804  1
  Ti  Ti48  1  0.64808684  0.59998221  0.13798768  1
  Ti  Ti49  1  0.66817031  0.59786403  0.48833055  1
  Ti  Ti50  1  0.65262963  0.42602604  0.84230654  1
  Ti  Ti51  1  0.64755481  0.80352237  0.21834667  1
  Ti  Ti52  1  0.64850535  0.79866251  0.44440621  1
  Ti  Ti53  1  0.70963113  0.86646441  0.84032332  1
  Ti  Ti54  1  0.10334972  0.02926168  0.11603937  1
  Ti  Ti55  1  0.16059443  0.04669416  0.49152741  1
  Ti  Ti56  1  0.14935789  -0.03160043  0.81161023  1
  Ti  Ti57  1  0.17814031  0.29832126  0.13835206  1
  Ti  Ti58  1  0.19249755  0.35972910  0.44615038  1
  Ti  Ti59  1  0.19423344  0.31466863  0.83300600  1
  Ti  Ti60  1  0.18733502  0.78216729  0.12371819  1
  Ti  Ti61  1  0.04306349  0.70028728  0.48575716  1
  Ti  Ti62  1  0.25895413  0.66772217  0.81541616  1
  Ti  Ti63  1  0.58180350  0.00819940  0.16371600  1
  Ti  Ti64  1  0.47126554  0.03264797  0.44736596  1
  Ti  Ti65  1  0.46174351  0.01526697  0.75724144  1
  Ti  Ti66  1  0.55679303  0.37702331  0.14345113  1
  Ti  Ti67  1  0.54048915  0.34408437  0.52311260  1
  Ti  Ti68  1  0.49537729  0.26595700  0.83070698  1
  Ti  Ti69  1  0.45181207  0.58391564  0.12866681  1
  Ti  Ti70  1  0.50170873  0.67605005  0.55301738  1
  Ti  Ti71  1  0.53649008  0.72264781  0.86015149  1
  Ti  Ti72  1  0.77265162  -0.07845849  0.11997427  1
  Ti  Ti73  1  0.85309148  -0.00440400  0.56475532  1
  Ti  Ti74  1  0.89887932  -0.07999104  0.88664644  1
  Ti  Ti75  1  0.79593369  0.29160429  0.19104614  1
  Ti  Ti76  1  0.85680822  0.34880733  0.49793397  1
  Ti  Ti77  1  0.86977838  0.34676190  0.75560557  1
  Ti  Ti78  1  0.83526040  0.64468670  0.23370232  1
  Ti  Ti79  1  0.81944996  0.70917981  0.51810287  1
  Ti  Ti80  1  0.85197550  0.65840867  0.82671786  1
  Ti  Ti81  1  0.21970346  0.15316175  0.01583433  1
  Ti  Ti82  1  0.21030083  0.19142321  0.33591413  1
  Ti  Ti83  1  0.19987110  0.22458331  0.65791285  1
  Ti  Ti84  1  0.15997241  0.59071417  0.03837291  1
  Ti  Ti85  1  0.14200198  0.55112014  0.37614605  1
  Ti  Ti86  1  0.14828727  0.49723944  0.70982551  1
  Ti  Ti87  1  0.07283092  0.87892570  -0.02332962  1
  Ti  Ti88  1  0.18135568  0.84233697  0.40336700  1
  Ti  Ti89  1  0.26451535  0.81698515  0.69032428  1
  Ti  Ti90  1  0.54629850  0.18259779  0.02592429  1
  Ti  Ti91  1  0.43759160  0.21784758  0.39311949  1
  Ti  Ti92  1  0.52015247  0.14352734  0.61232572  1
  Ti  Ti93  1  0.48112220  0.46524271  -0.03333358  1
  Ti  Ti94  1  0.59169655  0.45845538  0.34905343  1
  Ti  Ti95  1  0.50002351  0.43232497  0.70253631  1
  Ti  Ti96  1  0.46481059  0.89128469  -0.02459134  1
  Ti  Ti97  1  0.50399189  0.87236724  0.31942083  1
  Ti  Ti98  1  0.48054367  0.83607166  0.66950280  1
  Ti  Ti99  1  0.78950038  0.16365135  -0.08387506  1
  Ti  Ti100  1  0.83241506  0.16145105  0.44689471  1
  Ti  Ti101  1  0.77330089  0.17032018  0.65767057  1
  Ti  Ti102  1  0.81057816  0.47648590  0.10430354  1
  Ti  Ti103  1  0.84274463  0.44380733  0.31773722  1
  Ti  Ti104  1  0.93039111  0.52595361  0.67575219  1
  Ti  Ti105  1  0.90414260  0.77403966  0.02984839  1
  Ti  Ti106  1  0.84517510  0.84232011  0.30084093  1
  Ti  Ti107  1  0.80592966  0.81664008  0.67371484  1
  Co  Co108  1  0.02089507  0.41382353  0.41461038  1
  Co  Co109  1  0.90750005  0.69673356  0.37995244  1
  Co  Co110  1  -0.00040812  0.83633226  0.37841799  1
  Co  Co111  1  0.57361515  0.49500012  0.55602629  1
  Co  Co112  1  0.96756425  0.05565592  0.83144059  1
  Co  Co113  1  0.10570119  0.14910358  0.77977171  1
  Co  Co114  1  0.85052853  0.62427432  0.06403122  1
  Co  Co115  1  0.88391054  0.27446150  0.33982471  1
  Co  Co116  1  0.71294415  0.42635259  0.47031964  1
  Co  Co117  1  0.16750904  0.41673694  0.29096250  1
  Co  Co118  1  0.40111834  0.41569452  0.83523008  1
  Co  Co119  1  0.73007704  0.27484998  0.79921897  1
  Co  Co120  1  0.22575207  0.66048588  0.45347989  1
  Co  Co121  1  0.48981025  0.72445381  0.20725373  1
  Co  Co122  1  0.48419686  0.56464701  0.43223116  1
  Co  Co123  1  0.34738169  0.53709809  0.73458850  1
  Co  Co124  1  0.04514662  0.13923336  0.36125882  1
  Co  Co125  1  0.07139094  1.07778965  0.94591503  1
  Co  Co126  1  0.76914274  0.84551512  0.97996143  1
  Co  Co127  1  0.65937666  0.45217561  0.03927929  1
  Co  Co128  1  0.24170504  0.49500456  0.55541082  1
  Co  Co129  1  0.76097182  0.75066706  0.12253399  1
  Co  Co130  1  0.87717579  0.17086249  0.77139602  1
  Co  Co131  1  0.03701181  0.18878545  0.06569627  1
  Co  Co132  1  0.15083081  0.44043056  0.98590113  1
  Co  Co133  1  0.70458738  0.55754119  0.28653716  1
  Co  Co134  1  0.48656190  0.73264516  0.04602242  1
  Co  Co135  1  0.69358625  0.41937350  0.21064096  1
  Co  Co136  1  0.53896964  -0.02200298  0.59718753  1
  Co  Co137  1  0.12605622  0.28842537  0.97352039  1
  Co  Co138  1  1.00373065  0.61832424  0.77978179  1
  Co  Co139  1  0.76778111  0.03948870  0.81262526  1
  Co  Co140  1  0.30707183  0.96828712  0.73878903  1
  Co  Co141  1  0.80163908  0.56835429  0.41049667  1
  Co  Co142  1  0.14896074  0.60884536  0.20452639  1
  Co  Co143  1  0.46157171  0.04012103  0.05975488  1
  Co  Co144  1  0.10663377  0.16325737  0.21208061  1
  Co  Co145  1  0.77584997  -0.02582675  0.41973849  1
  Co  Co146  1  0.19624121  -0.00940075  0.96935381  1
  Co  Co147  1  0.32508860  0.52376994  0.02003826  1
  Co  Co148  1  0.20618486  0.06965614  0.64983288  1
  Co  Co149  1  0.71480246  0.89163903  0.55506028  1
  Co  Co150  1  0.25483514  0.12128299  0.17636088  1
  Co  Co151  1  0.12164677  0.59629941  0.87331550  1
  Co  Co152  1  0.58128422  0.18638485  0.18691662  1
  Co  Co153  1  0.68135694  0.27294654  0.08056706  1
  Co  Co154  1  0.44807962  0.73720735  0.38682034  1
  Co  Co155  1  0.33841017  0.25493132  0.12680297  1
  Co  Co156  1  0.53229233  0.54970715  0.81873831  1
  Co  Co157  1  0.74009965  0.71288257  0.34535618  1
  Co  Co158  1  0.40335646  0.61029251  0.88760897  1
  Co  Co159  1  0.41431152  0.52165916  0.58241396  1
  Co  Co160  1  0.86762696  0.85058477  0.47395105  1
  Co  Co161  1  0.34550542  0.99265882  0.91018595  1
  Ni  Ni162  1  0.93927672  0.38774024  0.18675479  1
  Ni  Ni163  1  0.34653697  0.32871020  0.50396408  1
  Ni  Ni164  1  0.15782108  0.73480425  0.95997124  1
  Ni  Ni165  1  0.13979562  0.36500413  0.59669420  1
  Ni  Ni166  1  0.45008622  0.38344089  0.38604461  1
  Ni  Ni167  1  0.78468561  0.50187723  0.77102726  1
  Ni  Ni168  1  0.48895648  0.08534655  0.89822680  1
  Ni  Ni169  1  0.42932445  0.49448164  0.26863193  1
  Ni  Ni170  1  0.98723342  0.09330300  0.51699077  1
  Ni  Ni171  1  0.87580506  0.00710816  0.21997976  1
  Ni  Ni172  1  0.79233873  0.62770469  0.66213393  1
  Ni  Ni173  1  0.14766389  0.92168990  0.63844671  1
  Ni  Ni174  1  0.61500734  0.95590201  0.40971297  1
  Ni  Ni175  1  0.37904793  0.18342902  0.96574545  1
  Ni  Ni176  1  0.70011795  0.71281373  0.77792494  1
  Ni  Ni177  1  0.39314832  0.40751425  0.12195402  1
  Ni  Ni178  1  0.49121002  0.86212256  0.49463930  1
  Ni  Ni179  1  0.40822261  0.97702734  0.24209918  1
  Ni  Ni180  1  0.60331910  0.27777061  0.69157168  1
  Ni  Ni181  1  0.99934833  0.74138884  0.89142408  1
  Ni  Ni182  1  0.71405336  0.97474703  0.26920847  1
  Ni  Ni183  1  0.36030871  0.13096849  0.68110975  1
  Ni  Ni184  1  0.27578183  0.85131100  -0.01741667  1
  Ni  Ni185  1  0.06148193  0.33106568  0.73489512  1
  Ni  Ni186  1  0.43426176  0.27906108  0.64488447  1
  Ni  Ni187  1  0.34127691  0.26523042  0.78397487  1
  Ni  Ni188  1  0.58288187  0.33082728  0.96111967  1
  Ni  Ni189  1  0.17516867  0.78265679  0.55665761  1
  Ni  Ni190  1  0.66463704  0.73268529  0.60926533  1
  Ni  Ni191  1  0.13615028  0.78738509  0.80545398  1
  Ni  Ni192  1  0.09907029  0.44447158  0.14269222  1
  Ni  Ni193  1  0.70659707  0.26360698  0.53819760  1
  Ni  Ni194  1  0.03981774  0.70822541  0.09577459  1
  Ni  Ni195  1  0.54659717  0.89101323  0.81998378  1
  Ni  Ni196  1  0.87676391  0.96678838  0.72146588  1
  Ni  Ni197  1  0.42318558  0.68560598  0.73017794  1
  Ni  Ni198  1  0.49539054  0.87531846  0.13717902  1
  Ni  Ni199  1  0.87462245  0.22482068  0.05375542  1
  Ni  Ni200  1  0.78040277  0.00778668  -0.02808339  1
  Ni  Ni201  1  0.56617967  0.60370181  -0.01789470  1
  Ni  Ni202  1  0.88611800  0.44241877  0.89527326  1
  Ni  Ni203  1  0.95655067  0.91292681  0.10772156  1
  Ni  Ni204  1  0.58624022  0.19396384  0.45821168  1
  Ni  Ni205  1  0.34910453  0.91327215  0.39151654  1
  Ni  Ni206  1  0.08438241  0.52550100  0.55312458  1
  Ni  Ni207  1  0.78043400  0.14275201  0.28401727  1
  Ni  Ni208  1  0.76118900  0.53360703  0.94092221  1
  Ni  Ni209  1  0.46833425  0.29182029  0.24613283  1
  Ni  Ni210  1  0.98068864  0.39243107  0.59368826  1
  Ni  Ni211  1  0.94154406  0.70876258  0.63846375  1
  Ni  Ni212  1  0.32856605  0.07767842  0.36823781  1
  Ni  Ni213  1  0.21186981  0.73753677  0.28571881  1
  Ni  Ni214  1  0.61899165  0.82990268  1.03168374  1
  Ni  Ni215  1  0.09428346  0.97877115  0.35623889  1
