# generated using pymatgen
data_Ti2CoNi
_symmetry_space_group_name_H-M   'P 1'
_cell_length_a   14.55330790
_cell_length_b   14.62995516
_cell_length_c   14.61511907
_cell_angle_alpha   90.03119536
_cell_angle_beta   89.80255854
_cell_angle_gamma   90.00262851
_symmetry_Int_Tables_number   1
_chemical_formula_structural   Ti2CoNi
_chemical_formula_sum   'Ti108 Co54 Ni54'
_cell_volume   3111.74805917
_cell_formula_units_Z   54
loop_
 _symmetry_equiv_pos_site_id
 _symmetry_equiv_pos_as_xyz
  1  'x, y, z'
loop_
 _atom_site_type_symbol
 _atom_site_label
 _atom_site_symmetry_multiplicity
 _atom_site_fract_x
 _atom_site_fract_y
 _atom_site_fract_z
 _atom_site_occupancy
  Ti  Ti0  1  -0.02423344  -0.01005219  -0.02323919  1
  Ti  Ti1  1  -0.05389525  0.00456592  0.30302189  1
  Ti  Ti2  1  0.04806638  0.02999881  0.65586057  1
  Ti  Ti3  1  -0.03610051  0.33539763  -0.05105462  1
  Ti  Ti4  1  0.02481471  0.31517595  0.36530675  1
  Ti  Ti5  1  0.09410716  0.35233345  0.68936560  1
  Ti  Ti6  1  -0.04712835  0.64680989  -0.06262940  1
  Ti  Ti7  1  -0.06732906  0.68048834  0.33202827  1
  Ti  Ti8  1  0.02654120  0.64651206  0.65555187  1
  Ti  Ti9  1  0.33928798  -0.00733433  0.05190069  1
  Ti  Ti10  1  0.37884756  -0.01031030  0.36861777  1
  Ti  Ti11  1  0.31224658  -0.01732410  0.68958130  1
  Ti  Ti12  1  0.29511654  0.38275504  -0.02274059  1
  Ti  Ti13  1  0.39091347  0.33074514  0.38221279  1
  Ti  Ti14  1  0.35177145  0.37146823  0.68824612  1
  Ti  Ti15  1  0.28726365  0.67971937  -0.01034146  1
  Ti  Ti16  1  0.37629050  0.61689745  0.31175415  1
  Ti  Ti17  1  0.26345474  0.75820420  0.66850021  1
  Ti  Ti18  1  0.65278301  -0.02196060  0.01711115  1
  Ti  Ti19  1  0.68270508  -0.00960501  0.36216992  1
  Ti  Ti20  1  0.72727746  0.03164355  0.64098859  1
  Ti  Ti21  1  0.66797670  0.32313265  0.03441060  1
  Ti  Ti22  1  0.73081185  0.33579292  0.32431369  1
  Ti  Ti23  1  0.64046224  0.19181650  0.69901560  1
  Ti  Ti24  1  0.62141760  0.60065637  0.00561947  1
  Ti  Ti25  1  0.67065715  0.72111307  0.30190741  1
  Ti  Ti26  1  0.61592020  0.63402457  0.77100438  1
  Ti  Ti27  1  0.03028029  0.11012822  0.14712515  1
  Ti  Ti28  1  -0.05923873  0.16869150  0.47243077  1
  Ti  Ti29  1  -0.05109540  0.14013077  0.83552391  1
  Ti  Ti30  1  -0.03529899  0.51844345  0.23120995  1
  Ti  Ti31  1  0.04833457  0.48759869  0.54127036  1
  Ti  Ti32  1  0.04678114  0.48735002  0.81980536  1
  Ti  Ti33  1  0.03883700  0.74477192  0.17905920  1
  Ti  Ti34  1  0.03843194  0.86079935  0.53799566  1
  Ti  Ti35  1  -0.01208472  0.86991149  0.75746385  1
  Ti  Ti36  1  0.40774738  0.16103931  0.12143649  1
  Ti  Ti37  1  0.32434892  0.15313324  0.45807054  1
  Ti  Ti38  1  0.33082389  0.15556016  0.79666993  1
  Ti  Ti39  1  0.34910506  0.44380136  0.16487165  1
  Ti  Ti40  1  0.34552582  0.47561833  0.52070509  1
  Ti  Ti41  1  0.25959964  0.53077850  0.87780233  1
  Ti  Ti42  1  0.35503816  0.80533746  0.11318490  1
  Ti  Ti43  1  0.34194410  0.86726931  0.51609387  1
  Ti  Ti44  1  0.38049627  0.79234046  0.82561055  1
  Ti  Ti45  1  0.74491870  0.21869933  0.17414549  1
  Ti  Ti46  1  0.65872679  0.20566762  0.47993751  1
  Ti  Ti47  1  0.71234967  0.15780958  0.89354688  1
  Ti  Ti48  1  0.64562355  0.45416413  0.16249117  1
  Ti  Ti49  1  0.64045223  0.57152210  0.47437004  1
  Ti  Ti50  1  0.66456882  0.45015440  0.86103214  1
  Ti  Ti51  1  0.66114656  0.79631657  0.09277595  1
  Ti  Ti52  1  0.70196004  0.75657212  0.51886723  1
  Ti  Ti53  1  0.59485876  0.83305269  0.78174535  1
  Ti  Ti54  1  0.20328352  -0.00673874  0.21882991  1
  Ti  Ti55  1  0.20230714  -0.00235684  0.46372550  1
  Ti  Ti56  1  0.12670303  0.05283705  0.87600463  1
  Ti  Ti57  1  0.12239146  0.31660534  0.08450339  1
  Ti  Ti58  1  0.19621699  0.37291524  0.43226608  1
  Ti  Ti59  1  0.13231428  0.26320600  0.86996737  1
  Ti  Ti60  1  0.21360568  0.66753292  0.18246923  1
  Ti  Ti61  1  0.19840133  0.57906342  0.43095685  1
  Ti  Ti62  1  0.09317276  0.70682103  0.82481154  1
  Ti  Ti63  1  0.54848561  0.01097976  0.21078617  1
  Ti  Ti64  1  0.56454815  -0.07281133  0.53902144  1
  Ti  Ti65  1  0.44814871  -0.01713172  0.83769779  1
  Ti  Ti66  1  0.55582543  0.27905118  0.20411357  1
  Ti  Ti67  1  0.53574574  0.37447158  0.52409873  1
  Ti  Ti68  1  0.47136170  0.31523852  0.81236632  1
  Ti  Ti69  1  0.50943285  0.70515048  0.17832204  1
  Ti  Ti70  1  0.46310440  0.69684843  0.50743058  1
  Ti  Ti71  1  0.45382665  0.60319730  0.86575401  1
  Ti  Ti72  1  0.83047857  -0.04641246  0.12296695  1
  Ti  Ti73  1  0.88791361  -0.03284293  0.47680257  1
  Ti  Ti74  1  0.74936765  -0.06083476  0.82276450  1
  Ti  Ti75  1  0.84410188  0.37980374  0.14995434  1
  Ti  Ti76  1  0.77293713  0.35988653  0.58207761  1
  Ti  Ti77  1  0.78841288  0.30235392  0.77445612  1
  Ti  Ti78  1  0.81636396  0.72390303  0.17656954  1
  Ti  Ti79  1  0.85740334  0.59253649  0.55968603  1
  Ti  Ti80  1  0.84058655  0.70955609  0.76517005  1
  Ti  Ti81  1  0.23929401  0.16156239  -0.00467343  1
  Ti  Ti82  1  0.11015525  0.12858229  0.34873746  1
  Ti  Ti83  1  0.14595449  0.19666117  0.55031641  1
  Ti  Ti84  1  0.08502532  0.55921821  0.08589145  1
  Ti  Ti85  1  0.17864270  0.48134387  0.25093586  1
  Ti  Ti86  1  0.20482135  0.53469574  0.67319072  1
  Ti  Ti87  1  0.17033804  0.87774025  0.02977217  1
  Ti  Ti88  1  0.13260415  0.76208701  0.37237718  1
  Ti  Ti89  1  0.17831569  0.89712325  0.79177248  1
  Ti  Ti90  1  0.52949378  0.19591129  -0.02528602  1
  Ti  Ti91  1  0.45711730  0.15667308  0.31485507  1
  Ti  Ti92  1  0.46794095  0.20671699  0.62048203  1
  Ti  Ti93  1  0.50525381  0.42426243  -0.02983024  1
  Ti  Ti94  1  0.49446484  0.45515833  0.27962271  1
  Ti  Ti95  1  0.49807502  0.54832008  0.63189410  1
  Ti  Ti96  1  0.51481112  0.84393294  -0.03883610  1
  Ti  Ti97  1  0.45764919  0.81603179  0.35573821  1
  Ti  Ti98  1  0.45436251  0.85859136  0.66242515  1
  Ti  Ti99  1  0.87202031  0.18660955  0.01290389  1
  Ti  Ti100  1  0.80414813  0.14727753  0.34492020  1
  Ti  Ti101  1  0.94691930  0.22638289  0.64715955  1
  Ti  Ti102  1  0.82872339  0.49899126  -0.02961506  1
  Ti  Ti103  1  0.77168501  0.54011271  0.29073838  1
  Ti  Ti104  1  0.76939307  0.50594789  0.71795749  1
  Ti  Ti105  1  0.93804453  0.81081686  0.04384602  1
  Ti  Ti106  1  0.80380946  0.83767633  0.36300015  1
  Ti  Ti107  1  0.83616331  0.88237277  0.64430847  1
  Co  Co108  1  0.50148950  0.88925719  0.10908997  1
  Co  Co109  1  0.52516154  0.47379185  0.77988815  1
  Co  Co110  1  0.21523564  0.77893000  0.88942968  1
  Co  Co111  1  0.21573018  0.33372634  0.23617077  1
  Co  Co112  1  0.96509822  0.26774829  0.11311174  1
  Co  Co113  1  0.62556414  0.29195293  0.86908055  1
  Co  Co114  1  0.45704623  0.05804857  0.68498608  1
  Co  Co115  1  0.03631787  0.37549166  0.21375922  1
  Co  Co116  1  0.14636711  0.03853848  0.05459491  1
  Co  Co117  1  0.65754268  0.63161561  0.16417783  1
  Co  Co118  1  0.28254104  0.99773758  0.87243312  1
  Co  Co119  1  0.61714350  0.84177754  0.40216026  1
  Co  Co120  1  0.12615345  0.59132233  0.93257426  1
  Co  Co121  1  0.72978057  0.91364690  0.50729681  1
  Co  Co122  1  0.79325528  0.20161278  0.59167727  1
  Co  Co123  1  0.79449823  0.33204300  0.94059923  1
  Co  Co124  1  0.22739157  0.23574282  0.35733603  1
  Co  Co125  1  0.10227372  0.72335256  0.02426604  1
  Co  Co126  1  0.24944573  0.87642682  0.36298176  1
  Co  Co127  1  0.29003658  0.10405776  0.29238221  1
  Co  Co128  1  0.04705593  0.16648785  0.98918373  1
  Co  Co129  1  0.39233071  0.10358243  0.93807686  1
  Co  Co130  1  0.56983195  0.85391397  0.24695933  1
  Co  Co131  1  0.58049831  0.08926328  0.56512155  1
  Co  Co132  1  0.36763124  0.63304818  0.13795797  1
  Co  Co133  1  0.02033909  0.66848878  0.47735184  1
  Co  Co134  1  0.39647115  0.53674841  1.00420566  1
  Co  Co135  1  0.92333963  0.54409977  0.41483727  1
  Co  Co136  1  0.10313065  0.78782494  0.66625035  1
  Co  Co137  1  0.32168959  0.47120877  0.34665072  1
  Co  Co138  1  0.88385730  0.40979831  0.32449765  1
  Co  Co139  1  0.50112498  0.03055055  0.02949164  1
  Co  Co140  1  0.76960944  0.07746196  0.48764690  1
  Co  Co141  1  0.38391305  0.26134051  0.95595730  1
  Co  Co142  1  0.16234490  0.65475109  0.56435407  1
  Co  Co143  1  0.37546588  0.27973692  0.23540988  1
  Co  Co144  1  0.34128911  0.86102432  0.96056057  1
  Co  Co145  1  0.28453437  0.66025488  0.79545416  1
  Co  Co146  1  0.19237329  0.80519270  0.51598315  1
  Co  Co147  1  0.61588188  0.34481096  0.70979568  1
  Co  Co148  1  0.72690051  0.88798712  0.22562254  1
  Co  Co149  1  0.46569216  0.34926767  0.09911435  1
  Co  Co150  1  0.05989532  0.47655664  0.37511104  1
  Co  Co151  1  0.29359447  0.28041941  0.09982533  1
  Co  Co152  1  0.51689864  0.15975975  0.79965233  1
  Co  Co153  1  0.59121953  0.98468896  0.71471733  1
  Co  Co154  1  0.84207012  0.29537349  0.44132959  1
  Co  Co155  1  0.80637382  0.13793143  0.75068772  1
  Co  Co156  1  0.05712117  0.85640166  0.91431053  1
  Co  Co157  1  0.03591077  0.32040416  0.53232033  1
  Co  Co158  1  0.89257870  1.00000057  0.77085560  1
  Co  Co159  1  0.20926947  0.38465473  0.58927661  1
  Co  Co160  1  0.50810850  0.53715559  0.12845765  1
  Co  Co161  1  0.47049976  0.69768412  0.00841993  1
  Ni  Ni162  1  0.41293682  1.02773861  0.53504705  1
  Ni  Ni163  1  0.30554000  0.71960893  0.43226964  1
  Ni  Ni164  1  0.89846294  0.81091088  0.88313564  1
  Ni  Ni165  1  0.96710309  0.82590318  0.39745794  1
  Ni  Ni166  1  0.36535726  0.52456629  0.73773483  1
  Ni  Ni167  1  0.90495505  0.25484950  0.26482008  1
  Ni  Ni168  1  0.74991369  0.09349871  0.06682395  1
  Ni  Ni169  1  0.91562094  0.75126262  0.59253105  1
  Ni  Ni170  1  0.92175739  0.41769337  0.65949610  1
  Ni  Ni171  1  0.32571323  0.62412274  0.58137082  1
  Ni  Ni172  1  0.34723861  0.29636056  0.54005964  1
  Ni  Ni173  1  0.59839543  0.03642932  0.87403822  1
  Ni  Ni174  1  0.89363060  0.06749268  0.61431084  1
  Ni  Ni175  1  0.18230686  0.83112010  0.19965241  1
  Ni  Ni176  1  0.30695968  0.13572033  0.62282493  1
  Ni  Ni177  1  1.03812802  0.93279989  0.14519723  1
  Ni  Ni178  1  0.92074729  0.56831007  0.75240860  1
  Ni  Ni179  1  0.56790088  0.73299064  0.62973453  1
  Ni  Ni180  1  0.08983723  0.61868851  0.29658061  1
  Ni  Ni181  1  0.92035281  0.84918820  0.23463193  1
  Ni  Ni182  1  0.38327647  0.92783600  0.22214989  1
  Ni  Ni183  1  0.86858547  0.10743896  0.18785960  1
  Ni  Ni184  1  0.69179672  0.62185611  0.62436892  1
  Ni  Ni185  1  0.55970438  0.29339295  0.37409425  1
  Ni  Ni186  1  0.77810306  0.86396257  0.98028899  1
  Ni  Ni187  1  0.32135855  0.76744619  0.26864689  1
  Ni  Ni188  1  0.62738930  0.44922091  0.37212432  1
  Ni  Ni189  1  0.24154518  0.52761686  0.06586164  1
  Ni  Ni190  1  0.53459837  0.04858675  0.41050159  1
  Ni  Ni191  1  0.78053043  0.46867152  0.45048977  1
  Ni  Ni192  1  0.79294635  0.69350050  0.00904200  1
  Ni  Ni193  1  0.59949157  0.14088037  0.11982095  1
  Ni  Ni194  1  0.09853008  0.16478745  0.73528457  1
  Ni  Ni195  1  -0.02695598  0.44596523  0.06527283  1
  Ni  Ni196  1  0.17902012  0.92864952  0.61687809  1
  Ni  Ni197  1  0.82598313  0.03369390  0.93030842  1
  Ni  Ni198  1  0.75389985  0.60780760  0.87037765  1
  Ni  Ni199  1  0.97348938  0.30458590  0.78921449  1
  Ni  Ni200  1  0.08352353  0.91302585  0.31363729  1
  Ni  Ni201  1  0.12352511  0.42762693  0.95858030  1
  Ni  Ni202  1  0.47966433  0.51986264  0.43786725  1
  Ni  Ni203  1  0.78241793  0.54613659  0.11649162  1
  Ni  Ni204  1  0.87733231  0.43322971  0.82753834  1
  Ni  Ni205  1  0.63996958  0.46669527  0.61860750  1
  Ni  Ni206  1  0.23086927  0.25454748  0.70179742  1
  Ni  Ni207  1  0.78932271  0.65112733  0.41384803  1
  Ni  Ni208  1  0.71497019  0.77505038  0.68749818  1
  Ni  Ni209  1  0.04332090  0.03529915  0.47402581  1
  Ni  Ni210  1  0.42750574  0.68478968  0.70186284  1
  Ni  Ni211  1  0.65401708  0.74388553  0.91893751  1
  Ni  Ni212  1  0.92433673  0.62416344  0.09749945  1
  Ni  Ni213  1  0.53606742  0.65467990  0.35841541  1
  Ni  Ni214  1  0.22028631  0.39027404  0.80281447  1
  Ni  Ni215  1  0.63390747  0.15680069  0.30252262  1
