# generated using pymatgen
data_Ti2CoNi
_symmetry_space_group_name_H-M   'P 1'
_cell_length_a   14.63381310
_cell_length_b   14.62104362
_cell_length_c   14.58406765
_cell_angle_alpha   89.69576346
_cell_angle_beta   90.14507238
_cell_angle_gamma   90.20590054
_symmetry_Int_Tables_number   1
_chemical_formula_structural   Ti2CoNi
_chemical_formula_sum   'Ti108 Co54 Ni54'
_cell_volume   3120.35674382
_cell_formula_units_Z   54
loop_
 _symmetry_equiv_pos_site_id
 _symmetry_equiv_pos_as_xyz
  1  'x, y, z'
loop_
 _atom_site_type_symbol
 _atom_site_label
 _atom_site_symmetry_multiplicity
 _atom_site_fract_x
 _atom_site_fract_y
 _atom_site_fract_z
 _atom_site_occupancy
  Ti  Ti0  1  0.10982958  -0.05721448  -0.01240997  1
  Ti  Ti1  1  -0.02805802  0.04541492  0.41315132  1
  Ti  Ti2  1  -0.00851243  -0.05396456  0.67679411  1
  Ti  Ti3  1  0.00688361  0.35550389  -0.04263258  1
  Ti  Ti4  1  -0.01783237  0.24230710  0.25250932  1
  Ti  Ti5  1  0.05432425  0.34169820  0.62919734  1
  Ti  Ti6  1  -0.01614964  0.61940988  -0.00438922  1
  Ti  Ti7  1  -0.05582008  0.61831158  0.29188721  1
  Ti  Ti8  1  0.06238638  0.74982701  0.67230028  1
  Ti  Ti9  1  0.30834589  0.01278389  0.03307145  1
  Ti  Ti10  1  0.29785711  -0.01156015  0.34485546  1
  Ti  Ti11  1  0.33682231  -0.06342263  0.72753245  1
  Ti  Ti12  1  0.35306717  0.31042066  -0.04904899  1
  Ti  Ti13  1  0.31475698  0.29072636  0.27315396  1
  Ti  Ti14  1  0.30737509  0.35336533  0.63655496  1
  Ti  Ti15  1  0.20711089  0.63910700  -0.01410640  1
  Ti  Ti16  1  0.35702702  0.68423618  0.40440212  1
  Ti  Ti17  1  0.34704210  0.71625404  0.66001009  1
  Ti  Ti18  1  0.61370684  -0.01314982  -0.04249024  1
  Ti  Ti19  1  0.67875835  -0.00205319  0.26371518  1
  Ti  Ti20  1  0.79293991  -0.03488574  0.64522161  1
  Ti  Ti21  1  0.68154748  0.35879583  0.00692470  1
  Ti  Ti22  1  0.65176711  0.30417203  0.33670984  1
  Ti  Ti23  1  0.60230635  0.30418848  0.68077909  1
  Ti  Ti24  1  0.58405603  0.69721883  -0.06887888  1
  Ti  Ti25  1  0.69610319  0.69589323  0.34858159  1
  Ti  Ti26  1  0.72328664  0.59519514  0.65244693  1
  Ti  Ti27  1  -0.01209692  0.04519958  0.20866756  1
  Ti  Ti28  1  0.05628115  0.20571753  0.45829561  1
  Ti  Ti29  1  -0.02124638  0.14724462  0.75956795  1
  Ti  Ti30  1  -0.04320978  0.42870904  0.12305540  1
  Ti  Ti31  1  0.05628646  0.54052014  0.46367713  1
  Ti  Ti32  1  -0.08438815  0.50686946  0.86147949  1
  Ti  Ti33  1  0.02009362  0.84918924  0.14848851  1
  Ti  Ti34  1  -0.00640099  0.82065485  0.46864470  1
  Ti  Ti35  1  -0.00073372  0.85282086  0.86653700  1
  Ti  Ti36  1  0.37036717  0.17849389  0.10319141  1
  Ti  Ti37  1  0.34997110  0.15878683  0.57992609  1
  Ti  Ti38  1  0.29345185  0.15522946  0.83085383  1
  Ti  Ti39  1  0.38296797  0.47179180  0.19913911  1
  Ti  Ti40  1  0.34496926  0.52417741  0.52333393  1
  Ti  Ti41  1  0.27856764  0.51836698  0.78128730  1
  Ti  Ti42  1  0.27697252  0.78313511  0.23508708  1
  Ti  Ti43  1  0.42797457  0.87246926  0.45200973  1
  Ti  Ti44  1  0.35526490  0.78441870  0.92013135  1
  Ti  Ti45  1  0.75941704  0.16064664  0.18937410  1
  Ti  Ti46  1  0.71334784  0.21181181  0.52049704  1
  Ti  Ti47  1  0.69590367  0.17559600  0.87792797  1
  Ti  Ti48  1  0.60685661  0.50093851  0.15618706  1
  Ti  Ti49  1  0.67832983  0.41536959  0.53537350  1
  Ti  Ti50  1  0.66539066  0.52545907  0.85401390  1
  Ti  Ti51  1  0.65834115  0.82994288  0.07590981  1
  Ti  Ti52  1  0.61865450  0.85366903  0.51514020  1
  Ti  Ti53  1  0.68098966  0.86807484  0.81713692  1
  Ti  Ti54  1  0.16886035  -0.02968509  0.19568047  1
  Ti  Ti55  1  0.19154532  0.06632018  0.49468043  1
  Ti  Ti56  1  0.13517625  0.02923527  0.79418227  1
  Ti  Ti57  1  0.14212412  0.37134044  0.15122897  1
  Ti  Ti58  1  0.23635693  0.37839747  0.43053695  1
  Ti  Ti59  1  0.14477716  0.30274461  0.84119718  1
  Ti  Ti60  1  0.10907738  0.66649438  0.16788251  1
  Ti  Ti61  1  0.18269100  0.68691551  0.51310246  1
  Ti  Ti62  1  0.15741776  0.66911267  0.80347952  1
  Ti  Ti63  1  0.46152646  0.01864281  0.22870529  1
  Ti  Ti64  1  0.49023332  0.01225200  0.57071743  1
  Ti  Ti65  1  0.51523277  -0.05120468  0.77712559  1
  Ti  Ti66  1  0.49714033  0.29896555  0.17818854  1
  Ti  Ti67  1  0.44124613  0.35451651  0.43206940  1
  Ti  Ti68  1  0.52998340  0.36900457  0.90810312  1
  Ti  Ti69  1  0.46184338  0.68461481  0.21893510  1
  Ti  Ti70  1  0.50704416  0.65132482  0.54281167  1
  Ti  Ti71  1  0.45348522  0.61986774  0.82108647  1
  Ti  Ti72  1  0.82520980  -0.05479702  0.14373916  1
  Ti  Ti73  1  0.75387971  0.01995980  0.45551902  1
  Ti  Ti74  1  0.83580662  0.01654251  0.85081328  1
  Ti  Ti75  1  0.84896552  0.28206600  0.09165041  1
  Ti  Ti76  1  0.89312631  0.27902594  0.56133095  1
  Ti  Ti77  1  0.77585925  0.35502744  0.82585717  1
  Ti  Ti78  1  0.83643897  0.72887280  0.13838729  1
  Ti  Ti79  1  0.85801495  0.67971299  0.48109624  1
  Ti  Ti80  1  0.91168599  0.69051550  0.78790412  1
  Ti  Ti81  1  0.17389588  0.23628952  0.01856386  1
  Ti  Ti82  1  0.16181282  0.17280169  0.19843615  1
  Ti  Ti83  1  0.16884154  0.20791475  0.67873412  1
  Ti  Ti84  1  0.23009285  0.44981488  -0.02877586  1
  Ti  Ti85  1  0.04863188  0.42955068  0.31016127  1
  Ti  Ti86  1  0.05056691  0.54371129  0.68144802  1
  Ti  Ti87  1  0.23227838  0.83092490  0.06529304  1
  Ti  Ti88  1  0.18794695  0.85381534  0.40769687  1
  Ti  Ti89  1  0.17962847  0.89705549  0.61442995  1
  Ti  Ti90  1  0.57233332  0.18555332  0.02911821  1
  Ti  Ti91  1  0.55064670  0.13729664  0.40704983  1
  Ti  Ti92  1  0.55712490  0.13404978  0.69704938  1
  Ti  Ti93  1  0.41168980  0.57727737  0.02946208  1
  Ti  Ti94  1  0.50972571  0.56006305  0.35887070  1
  Ti  Ti95  1  0.46578321  0.42180832  0.73935323  1
  Ti  Ti96  1  0.45550604  0.86168759  0.07429041  1
  Ti  Ti97  1  0.57801947  0.84438611  0.25478915  1
  Ti  Ti98  1  0.56358922  0.75248307  0.69052273  1
  Ti  Ti99  1  0.89750713  0.10495763  0.02413209  1
  Ti  Ti100  1  0.85185724  0.20087472  0.38863078  1
  Ti  Ti101  1  0.78320093  0.15934826  0.69970445  1
  Ti  Ti102  1  0.78669733  0.53631931  0.03141286  1
  Ti  Ti103  1  0.72179716  0.49145041  0.33480871  1
  Ti  Ti104  1  0.86420995  0.45587772  0.67225649  1
  Ti  Ti105  1  0.78856483  0.77472696  -0.07374639  1
  Ti  Ti106  1  0.85404969  0.89648746  0.34810168  1
  Ti  Ti107  1  0.76515579  0.77440205  0.66382954  1
  Co  Co108  1  0.53624990  0.84345742  0.91956063  1
  Co  Co109  1  0.01157540  0.67301061  0.54222479  1
  Co  Co110  1  0.32050068  0.97421102  0.54294062  1
  Co  Co111  1  0.79174468  0.83489835  0.50120491  1
  Co  Co112  1  0.14150520  0.28416274  0.32712501  1
  Co  Co113  1  0.75561617  0.82737584  0.23580491  1
  Co  Co114  1  0.70428465  0.66786489  0.04068686  1
  Co  Co115  1  0.76443255  0.31501301  0.65739641  1
  Co  Co116  1  0.80568624  0.31079125  0.26615147  1
  Co  Co117  1  0.36616887  0.47985221  0.36059697  1
  Co  Co118  1  0.54851049  0.64917812  0.08654975  1
  Co  Co119  1  0.17183819  0.41299614  0.72036700  1
  Co  Co120  1  0.87625657  0.45231855  0.25962941  1
  Co  Co121  1  0.99492468  0.03246211  0.89241006  1
  Co  Co122  1  0.20045513  0.69613478  0.34186405  1
  Co  Co123  1  0.26932727  0.79560259  0.77205464  1
  Co  Co124  1  0.29779105  0.35522191  0.80675324  1
  Co  Co125  1  0.33071389  0.93049079  0.17732047  1
  Co  Co126  1  0.46904564  0.05346860  0.03139178  1
  Co  Co127  1  0.10982272  0.09480057  0.32929365  1
  Co  Co128  1  0.94082860  0.43890488  0.53558577  1
  Co  Co129  1  0.84442703  0.39533968  0.97534399  1
  Co  Co130  1  0.41562876  0.95177984  0.91337274  1
  Co  Co131  1  0.22629798  0.44249186  0.27191413  1
  Co  Co132  1  0.55747217  0.24561153  0.83107098  1
  Co  Co133  1  0.41139318  0.25081337  0.76058885  1
  Co  Co134  1  0.31232813  0.60853530  0.25882459  1
  Co  Co135  1  0.79575581  0.62033349  0.88893315  1
  Co  Co136  1  0.91576553  0.79838888  0.62038195  1
  Co  Co137  1  0.07451858  0.95389049  0.50066807  1
  Co  Co138  1  0.65140381  0.70398945  0.19180095  1
  Co  Co139  1  0.91397256  0.57947395  0.14287859  1
  Co  Co140  1  0.76336941  0.42679107  0.15051542  1
  Co  Co141  1  0.43066349  0.17965230  0.93095220  1
  Co  Co142  1  0.78658018  0.53908064  0.51412450  1
  Co  Co143  1  0.93860117  0.33956582  0.38881329  1
  Co  Co144  1  0.53717359  0.08838231  0.86545101  1
  Co  Co145  1  0.05156313  0.70110926  0.37932964  1
  Co  Co146  1  1.01675093  0.24449416  0.09396250  1
  Co  Co147  1  0.07531396  0.36450574  0.47132526  1
  Co  Co148  1  0.25392678  0.94096799  0.88993958  1
  Co  Co149  1  0.19968843  0.25133290  0.52719908  1
  Co  Co150  1  0.68822850  0.86978855  0.37646740  1
  Co  Co151  1  0.90335708  0.94744114  0.52899637  1
  Co  Co152  1  0.45461758  0.85753186  0.61996903  1
  Co  Co153  1  0.22706855  0.55052206  0.41012376  1
  Co  Co154  1  0.12271264  0.56837855  0.28492243  1
  Co  Co155  1  0.44055844  0.79834370  0.78577551  1
  Co  Co156  1  0.89802293  0.61958793  0.64542397  1
  Co  Co157  1  0.40810692  0.08383706  0.73670010  1
  Co  Co158  1  0.79130799  0.37316352  0.42759590  1
  Co  Co159  1  0.13088256  0.87065362  0.77119180  1
  Co  Co160  1  0.29569705  0.09101031  0.21828637  1
  Co  Co161  1  0.75919096  0.58484626  0.20397350  1
  Ni  Ni162  1  0.52538371  0.73750905  0.38678917  1
  Ni  Ni163  1  0.30137240  0.81126134  0.53595109  1
  Ni  Ni164  1  0.86466903  0.86471568  0.77076946  1
  Ni  Ni165  1  0.01894056  0.40695782  0.78246211  1
  Ni  Ni166  1  0.40877941  0.56130366  0.66501183  1
  Ni  Ni167  1  0.03073071  0.18721453  0.92678616  1
  Ni  Ni168  1  0.56619801  0.56975221  0.70539196  1
  Ni  Ni169  1  0.18058552  0.79703207  0.90746173  1
  Ni  Ni170  1  0.26150649  0.16763328  0.37703762  1
  Ni  Ni171  1  0.89363577  0.51014583  0.40322495  1
  Ni  Ni172  1  0.66277312  0.06317753  0.58440544  1
  Ni  Ni173  1  0.30196231  0.33945267  0.11157181  1
  Ni  Ni174  1  0.67848809  0.03565776  0.77528861  1
  Ni  Ni175  1  0.10302215  0.51934648  0.87574396  1
  Ni  Ni176  1  0.92735748  0.77607921  0.99887345  1
  Ni  Ni177  1  0.94285508  0.94103445  0.02288341  1
  Ni  Ni178  1  0.71804933  0.06410083  0.06570463  1
  Ni  Ni179  1  0.41691627  0.84385435  0.29326802  1
  Ni  Ni180  1  0.52667293  0.41288719  0.29434037  1
  Ni  Ni181  1  0.84460211  0.05911848  0.29170357  1
  Ni  Ni182  1  0.39898772  0.07781051  0.43660072  1
  Ni  Ni183  1  0.77872560  0.93297893  0.98183757  1
  Ni  Ni184  1  0.57298821  0.51571006  0.99035679  1
  Ni  Ni185  1  0.45504236  0.28345584  0.60422747  1
  Ni  Ni186  1  0.85866492  0.23138707  0.91386971  1
  Ni  Ni187  1  0.18066137  0.08984122  0.94588569  1
  Ni  Ni188  1  0.62804369  0.56153564  0.46962470  1
  Ni  Ni189  1  0.87549077  0.10931108  0.55711358  1
  Ni  Ni190  1  0.24004407  0.06072446  0.66601114  1
  Ni  Ni191  1  0.68182308  0.70351780  0.52665596  1
  Ni  Ni192  1  0.09386962  0.50740082  0.04990536  1
  Ni  Ni193  1  0.55133672  0.97096106  0.39302168  1
  Ni  Ni194  1  0.08214234  0.75663985  0.02282035  1
  Ni  Ni195  1  0.57190839  0.28535923  0.49825565  1
  Ni  Ni196  1  0.66323995  0.29633355  0.15971418  1
  Ni  Ni197  1  0.21218190  0.60384854  0.65035267  1
  Ni  Ni198  1  0.70281980  0.14253688  0.34607725  1
  Ni  Ni199  1  0.39506234  0.47557109  0.89823685  1
  Ni  Ni200  1  0.67773635  0.44467056  0.71201469  1
  Ni  Ni201  1  0.58308368  0.14748825  0.21279332  1
  Ni  Ni202  1  0.94467299  0.78511108  0.27998027  1
  Ni  Ni203  1  0.06503997  0.08584721  0.06539714  1
  Ni  Ni204  1  0.45323003  0.41100925  0.05484049  1
  Ni  Ni205  1  0.06654825  0.08275495  0.61423518  1
  Ni  Ni206  1  0.58392740  0.98066639  0.12717988  1
  Ni  Ni207  1  0.32845094  0.69842191  0.09776115  1
  Ni  Ni208  1  0.23879242  0.54264658  0.12653910  1
  Ni  Ni209  1  0.50576818  0.45312080  0.56922496  1
  Ni  Ni210  1  0.91019635  0.29271863  0.73923224  1
  Ni  Ni211  1  0.05328358  0.92163555  0.32108248  1
  Ni  Ni212  1  0.62634819  0.92081470  0.66129106  1
  Ni  Ni213  1  0.42809693  0.17046531  0.29218053  1
  Ni  Ni214  1  0.67785553  0.68582948  0.79200558  1
  Ni  Ni215  1  0.18065782  0.46919451  0.56286541  1
