# generated using pymatgen
data_Ti2CoNi
_symmetry_space_group_name_H-M   'P 1'
_cell_length_a   14.57165844
_cell_length_b   14.62311911
_cell_length_c   14.58601802
_cell_angle_alpha   89.81266213
_cell_angle_beta   90.04108525
_cell_angle_gamma   90.08254475
_symmetry_Int_Tables_number   1
_chemical_formula_structural   Ti2CoNi
_chemical_formula_sum   'Ti108 Co54 Ni54'
_cell_volume   3108.01326753
_cell_formula_units_Z   54
loop_
 _symmetry_equiv_pos_site_id
 _symmetry_equiv_pos_as_xyz
  1  'x, y, z'
loop_
 _atom_site_type_symbol
 _atom_site_label
 _atom_site_symmetry_multiplicity
 _atom_site_fract_x
 _atom_site_fract_y
 _atom_site_fract_z
 _atom_site_occupancy
  Ti  Ti0  1  -0.00474192  0.05488558  0.02252352  1
  Ti  Ti1  1  -0.01765498  -0.02025547  0.33061649  1
  Ti  Ti2  1  0.07144498  0.00409784  0.74565200  1
  Ti  Ti3  1  -0.02152088  0.34397355  0.03480783  1
  Ti  Ti4  1  -0.02292746  0.28005463  0.30432073  1
  Ti  Ti5  1  0.08253179  0.27365044  0.66984370  1
  Ti  Ti6  1  -0.02219886  0.63667144  0.04989961  1
  Ti  Ti7  1  -0.04833789  0.67794119  0.25233097  1
  Ti  Ti8  1  -0.04926768  0.68974970  0.64168435  1
  Ti  Ti9  1  0.36397032  -0.03169465  -0.01661411  1
  Ti  Ti10  1  0.39649373  0.02618553  0.34134828  1
  Ti  Ti11  1  0.30866555  -0.01895827  0.75089249  1
  Ti  Ti12  1  0.31598965  0.38663265  0.02012064  1
  Ti  Ti13  1  0.30353842  0.23555112  0.32839362  1
  Ti  Ti14  1  0.30170444  0.29522170  0.61487979  1
  Ti  Ti15  1  0.40371879  0.69589250  0.02045066  1
  Ti  Ti16  1  0.35729049  0.68246184  0.31349076  1
  Ti  Ti17  1  0.31166537  0.68884039  0.58788771  1
  Ti  Ti18  1  0.68503568  -0.06181306  -0.04914953  1
  Ti  Ti19  1  0.63697782  0.07373210  0.34962047  1
  Ti  Ti20  1  0.68501468  0.00058671  0.61943240  1
  Ti  Ti21  1  0.63834380  0.35248713  0.06973265  1
  Ti  Ti22  1  0.67371526  0.39186750  0.25257107  1
  Ti  Ti23  1  0.73519785  0.21653080  0.58730681  1
  Ti  Ti24  1  0.63111744  0.69801801  -0.03523020  1
  Ti  Ti25  1  0.69372221  0.66693704  0.38417471  1
  Ti  Ti26  1  0.63476585  0.65522225  0.64676117  1
  Ti  Ti27  1  0.05470321  0.20251265  0.13569265  1
  Ti  Ti28  1  -0.02437376  0.27106204  0.51631064  1
  Ti  Ti29  1  -0.01744513  0.24246721  0.83346056  1
  Ti  Ti30  1  -0.03551735  0.45018628  0.21810426  1
  Ti  Ti31  1  0.02440412  0.48513827  0.54766341  1
  Ti  Ti32  1  0.04797066  0.52486293  0.88814746  1
  Ti  Ti33  1  0.01740936  0.82353794  0.08998747  1
  Ti  Ti34  1  -0.00998350  0.82213876  0.46548788  1
  Ti  Ti35  1  0.01789179  0.81518323  0.79707089  1
  Ti  Ti36  1  0.31263401  0.10832897  0.14723708  1
  Ti  Ti37  1  0.27122808  0.12116342  0.48059985  1
  Ti  Ti38  1  0.32846393  0.17939508  0.80705219  1
  Ti  Ti39  1  0.23886057  0.55712759  0.22308407  1
  Ti  Ti40  1  0.29450113  0.49457528  0.54477903  1
  Ti  Ti41  1  0.41826438  0.48136785  0.84454662  1
  Ti  Ti42  1  0.35591483  0.82584943  0.16873042  1
  Ti  Ti43  1  0.38448433  0.86872795  0.51594401  1
  Ti  Ti44  1  0.33245755  0.81689371  0.86062554  1
  Ti  Ti45  1  0.67943812  0.14897649  0.07684868  1
  Ti  Ti46  1  0.66673851  0.27032627  0.41109685  1
  Ti  Ti47  1  0.66579419  0.12492982  0.85268972  1
  Ti  Ti48  1  0.68253626  0.53033323  0.06657296  1
  Ti  Ti49  1  0.64785234  0.47500170  0.47625231  1
  Ti  Ti50  1  0.70473673  0.43459633  0.81460534  1
  Ti  Ti51  1  0.67908060  0.84453101  0.11056720  1
  Ti  Ti52  1  0.63749513  0.79328827  0.50644986  1
  Ti  Ti53  1  0.62858688  0.80863191  0.81701311  1
  Ti  Ti54  1  0.10776090  -0.00156726  0.18108653  1
  Ti  Ti55  1  0.12252250  -0.00426349  0.53705549  1
  Ti  Ti56  1  0.19050568  0.02821580  0.89531710  1
  Ti  Ti57  1  0.16232706  0.37456546  0.15962176  1
  Ti  Ti58  1  0.16640298  0.32378748  0.47021554  1
  Ti  Ti59  1  0.14732832  0.35146403  0.91135110  1
  Ti  Ti60  1  0.16757837  0.75681981  0.22660888  1
  Ti  Ti61  1  0.16528701  0.64101268  0.45893106  1
  Ti  Ti62  1  0.23840647  0.64689908  0.82957490  1
  Ti  Ti63  1  0.48347400  -0.02527278  0.18788849  1
  Ti  Ti64  1  0.55560009  -0.02726179  0.48746667  1
  Ti  Ti65  1  0.49701274  0.07933746  0.75452103  1
  Ti  Ti66  1  0.47148702  0.33076087  0.20629500  1
  Ti  Ti67  1  0.47058469  0.40427146  0.52669810  1
  Ti  Ti68  1  0.52202855  0.31321601  0.83079856  1
  Ti  Ti69  1  0.54512646  0.66135000  0.25310097  1
  Ti  Ti70  1  0.51701386  0.61015300  0.47594476  1
  Ti  Ti71  1  0.44949771  0.66533854  0.75674561  1
  Ti  Ti72  1  0.79506343  0.02129270  0.25514115  1
  Ti  Ti73  1  0.89747727  -0.00444306  0.57649153  1
  Ti  Ti74  1  0.82060124  -0.08034388  0.83363248  1
  Ti  Ti75  1  0.84769963  0.22079970  0.15344175  1
  Ti  Ti76  1  0.83091273  0.40322859  0.54413069  1
  Ti  Ti77  1  0.80270164  0.27852401  0.85362000  1
  Ti  Ti78  1  0.77646200  0.69062599  0.14920737  1
  Ti  Ti79  1  0.84158493  0.59574936  0.50510245  1
  Ti  Ti80  1  0.90287581  0.65244964  0.84031828  1
  Ti  Ti81  1  0.22312450  0.22009044  0.01840079  1
  Ti  Ti82  1  0.10859724  0.13726888  0.35178216  1
  Ti  Ti83  1  0.19820459  0.12453772  0.67131202  1
  Ti  Ti84  1  0.19313499  0.55384435  0.02997843  1
  Ti  Ti85  1  0.11305690  0.47487347  0.35323172  1
  Ti  Ti86  1  0.15492983  0.56644730  0.66313391  1
  Ti  Ti87  1  0.19129857  0.85805847  0.02296726  1
  Ti  Ti88  1  0.15854845  0.90005036  0.34573093  1
  Ti  Ti89  1  0.19731485  0.81968731  0.68724739  1
  Ti  Ti90  1  0.50458110  0.14978519  -0.05399839  1
  Ti  Ti91  1  0.49487465  0.18695733  0.37772953  1
  Ti  Ti92  1  0.51141736  0.24275325  0.62868714  1
  Ti  Ti93  1  0.47320542  0.48772579  0.04229717  1
  Ti  Ti94  1  0.42338019  0.49571771  0.32167479  1
  Ti  Ti95  1  0.56057765  0.46580878  0.69195695  1
  Ti  Ti96  1  0.51250116  0.86531082  0.00991713  1
  Ti  Ti97  1  0.55100660  0.85641707  0.33179622  1
  Ti  Ti98  1  0.54606820  0.86133227  0.66548802  1
  Ti  Ti99  1  0.81518780  0.08392959  -0.04948731  1
  Ti  Ti100  1  0.85580171  0.14041684  0.37731519  1
  Ti  Ti101  1  0.82556620  0.09827693  0.73814419  1
  Ti  Ti102  1  0.85564389  0.47597405  -0.03394524  1
  Ti  Ti103  1  0.82321613  0.54160307  0.31622250  1
  Ti  Ti104  1  0.84377175  0.53226601  0.70765978  1
  Ti  Ti105  1  0.86549131  0.89178403  0.01652571  1
  Ti  Ti106  1  0.82706393  0.81866097  0.34487677  1
  Ti  Ti107  1  0.76580715  0.80346558  0.68033643  1
  Co  Co108  1  0.54153895  -0.00563545  0.90782605  1
  Co  Co109  1  0.12796628  0.69608187  0.08599670  1
  Co  Co110  1  0.91039971  0.41881878  0.82290668  1
  Co  Co111  1  0.12158828  0.18002767  0.52658808  1
  Co  Co112  1  0.59367412  0.58647789  0.80092956  1
  Co  Co113  1  0.72268808  0.20362559  0.26244876  1
  Co  Co114  1  0.18534119  0.18731136  0.20607919  1
  Co  Co115  1  0.48919000  0.76580247  0.88113236  1
  Co  Co116  1  0.69163705  0.57861482  0.22045940  1
  Co  Co117  1  0.40235079  0.23722800  0.49875800  1
  Co  Co118  1  0.59801846  1.00980635  0.06764564  1
  Co  Co119  1  0.06870040  0.20136420  0.97076735  1
  Co  Co120  1  0.63671524  0.13227348  0.69141019  1
  Co  Co121  1  0.83271837  0.34447887  0.27256222  1
  Co  Co122  1  0.28096650  0.68649633  0.13120768  1
  Co  Co123  1  0.70304948  0.91918701  0.37684004  1
  Co  Co124  1  0.43784658  0.16942250  0.22317511  1
  Co  Co125  1  0.79068470  0.36646147  0.69394818  1
  Co  Co126  1  0.31251994  0.28714468  0.16658058  1
  Co  Co127  1  0.34974404  0.44882641  0.16478101  1
  Co  Co128  1  0.86826482  0.15045763  0.54650213  1
  Co  Co129  1  0.64624437  0.95523283  0.22118514  1
  Co  Co130  1  0.86105645  0.96621850  0.42237689  1
  Co  Co131  1  0.33403194  0.12050500  0.96179932  1
  Co  Co132  1  0.95915513  0.38774453  0.66358922  1
  Co  Co133  1  0.93652351  0.77736947  0.93631612  1
  Co  Co134  1  0.89378274  0.83294853  0.59390657  1
  Co  Co135  1  0.54785853  0.48950685  0.18126799  1
  Co  Co136  1  0.76472012  0.42228563  0.39423486  1
  Co  Co137  1  0.45147079  0.98525464  0.63298925  1
  Co  Co138  1  0.68303529  0.78446798  0.26558138  1
  Co  Co139  1  0.59265543  0.13502010  0.51771995  1
  Co  Co140  1  0.73954097  0.05998838  0.47726059  1
  Co  Co141  1  0.45885290  0.08665117  0.07921676  1
  Co  Co142  1  0.17587448  0.85213771  0.85082579  1
  Co  Co143  1  0.53190556  0.23065933  0.08786948  1
  Co  Co144  1  0.99908911  0.53990904  0.72451767  1
  Co  Co145  1  0.58556296  0.44864908  0.92408086  1
  Co  Co146  1  0.27978042  -0.02757186  0.59601061  1
  Co  Co147  1  0.26208326  0.40036738  0.29335180  1
  Co  Co148  1  0.58484082  0.12204662  0.20364637  1
  Co  Co149  1  0.27684486  0.54151256  0.38995200  1
  Co  Co150  1  0.17167384  0.40484590  0.62558315  1
  Co  Co151  1  0.17096355  0.06469423  0.04825996  1
  Co  Co152  1  0.24427367  0.71562887  0.97195387  1
  Co  Co153  1  0.83722199  0.28284725  0.42893043  1
  Co  Co154  1  0.76029354  0.89760461  0.52478368  1
  Co  Co155  1  0.27396928  0.95748200  0.43558088  1
  Co  Co156  1  0.42632207  0.07045238  0.49639833  1
  Co  Co157  1  0.49726309  0.60193787  0.92448324  1
  Co  Co158  1  0.55387046  0.63940073  0.09279355  1
  Co  Co159  1  0.41083959  0.59873739  0.16951411  1
  Co  Co160  1  0.12825799  0.30837716  0.30908041  1
  Co  Co161  1  0.80652664  0.74521141  0.49545329  1
  Ni  Ni162  1  0.31590657  0.54701016  0.71727670  1
  Ni  Ni163  1  0.36900566  0.82689998  0.68232866  1
  Ni  Ni164  1  0.98316391  0.58589242  0.39702239  1
  Ni  Ni165  1  0.10429862  0.71474053  0.59465428  1
  Ni  Ni166  1  0.77211171  0.77502965  0.90682646  1
  Ni  Ni167  1  0.08370283  0.67241201  0.76431574  1
  Ni  Ni168  1  0.25266036  0.48472742  0.88638563  1
  Ni  Ni169  1  0.70989930  0.50932564  0.62290487  1
  Ni  Ni170  1  0.36476014  0.13055732  0.63995205  1
  Ni  Ni171  1  0.90306429  0.21128848  -0.01615348  1
  Ni  Ni172  1  0.40429148  0.40340623  0.68687931  1
  Ni  Ni173  1  0.50188839  0.35263119  0.37522664  1
  Ni  Ni174  1  0.00790113  0.83702151  0.25725115  1
  Ni  Ni175  1  0.65840184  0.28253752  0.74335069  1
  Ni  Ni176  1  0.64992242  0.27248594  0.93062976  1
  Ni  Ni177  1  0.85360623  0.54192373  0.13548325  1
  Ni  Ni178  1  0.59473316  0.52214498  0.33689153  1
  Ni  Ni179  1  -0.00231980  0.08142889  0.46730428  1
  Ni  Ni180  1  0.38632322  0.28014960  0.92182392  1
  Ni  Ni181  1  0.44280563  0.56221700  0.61582241  1
  Ni  Ni182  1  0.46462725  0.75073393  0.42666592  1
  Ni  Ni183  1  0.89096814  0.24087530  0.68230848  1
  Ni  Ni184  1  0.25401096  0.77282557  0.39609258  1
  Ni  Ni185  1  0.08982005  0.41299410  0.76904837  1
  Ni  Ni186  1  0.04642593  0.91987464  0.93362643  1
  Ni  Ni187  1  0.76827504  -0.00153655  0.09795784  1
  Ni  Ni188  1  0.07202749  0.72644764  0.36094381  1
  Ni  Ni189  1  1.00777404  0.12163566  0.64112713  1
  Ni  Ni190  1  0.73927957  0.66598539  0.78138721  1
  Ni  Ni191  1  0.26445174  0.95377416  0.14175349  1
  Ni  Ni192  1  0.95627814  0.11345187  0.23155617  1
  Ni  Ni193  1  0.13444310  0.16999241  0.82196208  1
  Ni  Ni194  1  0.52116538  0.79952377  0.16948808  1
  Ni  Ni195  1  -0.06099060  0.42085996  0.40314546  1
  Ni  Ni196  1  0.64232364  0.35462873  0.58903547  1
  Ni  Ni197  1  0.04790176  0.87212918  0.62597508  1
  Ni  Ni198  1  0.47860244  0.72861983  0.59381486  1
  Ni  Ni199  1  0.08411803  0.70462827  0.92541558  1
  Ni  Ni200  1  0.37877040  0.86142988  0.33149184  1
  Ni  Ni201  1  0.71838534  0.56494041  0.90791915  1
  Ni  Ni202  1  0.07488878  0.58035754  0.20027939  1
  Ni  Ni203  1  0.92313960  0.93006421  0.72094688  1
  Ni  Ni204  1  0.17496046  0.83947029  0.51589164  1
  Ni  Ni205  1  0.22213307  0.30120513  0.76427512  1
  Ni  Ni206  1  0.82273775  0.64589320  -0.00316422  1
  Ni  Ni207  1  0.95000941  0.04453691  0.85390000  1
  Ni  Ni208  1  0.33195200  0.37203138  0.43492705  1
  Ni  Ni209  1  0.23478602  0.04987025  0.29317152  1
  Ni  Ni210  1  0.66253280  0.97515937  0.77806837  1
  Ni  Ni211  1  0.80674973  0.38340685  0.11000790  1
  Ni  Ni212  1  0.93635007  0.96627541  0.16011300  1
  Ni  Ni213  1  0.45710099  0.91296577  0.80086231  1
  Ni  Ni214  1  0.85803477  0.82751474  0.17679919  1
  Ni  Ni215  1  0.04077463  0.48585262  0.06631501  1
