# generated using pymatgen
data_Ti2CoNi
_symmetry_space_group_name_H-M   'P 1'
_cell_length_a   14.62977436
_cell_length_b   14.70735078
_cell_length_c   14.61896568
_cell_angle_alpha   90.28890053
_cell_angle_beta   89.57523340
_cell_angle_gamma   90.19512813
_symmetry_Int_Tables_number   1
_chemical_formula_structural   Ti2CoNi
_chemical_formula_sum   'Ti108 Co54 Ni54'
_cell_volume   3145.34874812
_cell_formula_units_Z   54
loop_
 _symmetry_equiv_pos_site_id
 _symmetry_equiv_pos_as_xyz
  1  'x, y, z'
loop_
 _atom_site_type_symbol
 _atom_site_label
 _atom_site_symmetry_multiplicity
 _atom_site_fract_x
 _atom_site_fract_y
 _atom_site_fract_z
 _atom_site_occupancy
  Ti  Ti0  1  0.00726856  -0.04992344  -0.02228074  1
  Ti  Ti1  1  -0.03431252  0.03436929  0.35665740  1
  Ti  Ti2  1  -0.03275996  0.01651206  0.70810253  1
  Ti  Ti3  1  0.05226465  0.25856085  -0.03567889  1
  Ti  Ti4  1  -0.01918146  0.36533783  0.32200477  1
  Ti  Ti5  1  -0.06759152  0.37095848  0.75328650  1
  Ti  Ti6  1  -0.01836212  0.66731070  -0.05205065  1
  Ti  Ti7  1  -0.00410208  0.55596433  0.32994940  1
  Ti  Ti8  1  0.02378751  0.63568017  0.65500729  1
  Ti  Ti9  1  0.33982105  -0.03295518  -0.07040604  1
  Ti  Ti10  1  0.37570460  0.04514697  0.37670734  1
  Ti  Ti11  1  0.36177616  0.00243795  0.72423060  1
  Ti  Ti12  1  0.28499066  0.26559035  -0.03298694  1
  Ti  Ti13  1  0.37899862  0.34715845  0.27328419  1
  Ti  Ti14  1  0.30490176  0.40755956  0.74695022  1
  Ti  Ti15  1  0.31506589  0.66028639  0.06592085  1
  Ti  Ti16  1  0.22489914  0.63419867  0.32818350  1
  Ti  Ti17  1  0.36203438  0.60292224  0.67073914  1
  Ti  Ti18  1  0.69176510  -0.06199613  0.04116166  1
  Ti  Ti19  1  0.78187456  0.03814664  0.29552504  1
  Ti  Ti20  1  0.55578452  0.03494121  0.61716709  1
  Ti  Ti21  1  0.60282250  0.37789074  -0.01949824  1
  Ti  Ti22  1  0.67069231  0.26893687  0.25829623  1
  Ti  Ti23  1  0.67208693  0.31132077  0.62785541  1
  Ti  Ti24  1  0.65438453  0.63820236  0.05771544  1
  Ti  Ti25  1  0.66364958  0.74149033  0.38533858  1
  Ti  Ti26  1  0.75704463  0.69421816  0.60018223  1
  Ti  Ti27  1  -0.01822206  0.18117418  0.21090866  1
  Ti  Ti28  1  0.03557526  0.11248253  0.53137340  1
  Ti  Ti29  1  -0.01820934  0.19805292  0.80014063  1
  Ti  Ti30  1  0.05857647  0.48862818  0.12859919  1
  Ti  Ti31  1  0.02159142  0.42732757  0.57989527  1
  Ti  Ti32  1  0.00967478  0.47055003  0.90984019  1
  Ti  Ti33  1  0.02680463  0.87375368  0.20055226  1
  Ti  Ti34  1  -0.01770597  0.85277983  0.41965185  1
  Ti  Ti35  1  -0.02751445  0.78133088  0.76760759  1
  Ti  Ti36  1  0.30154717  0.18790330  0.21857916  1
  Ti  Ti37  1  0.30371470  0.21292626  0.53925693  1
  Ti  Ti38  1  0.32340741  0.19086994  0.78252653  1
  Ti  Ti39  1  0.41158109  0.55440983  0.21392341  1
  Ti  Ti40  1  0.38060197  0.43138134  0.57574599  1
  Ti  Ti41  1  0.35432570  0.56811495  0.87113455  1
  Ti  Ti42  1  0.34644056  0.88177300  0.21762390  1
  Ti  Ti43  1  0.34183533  0.83803945  0.44746818  1
  Ti  Ti44  1  0.36548428  0.76222994  0.90222808  1
  Ti  Ti45  1  0.61871148  0.13971287  0.10166127  1
  Ti  Ti46  1  0.68183820  0.08407132  0.47095529  1
  Ti  Ti47  1  0.62057462  0.18583388  0.88693034  1
  Ti  Ti48  1  0.69749870  0.47820530  0.16960221  1
  Ti  Ti49  1  0.63656244  0.54510129  0.43550136  1
  Ti  Ti50  1  0.65062445  0.50253013  0.80645595  1
  Ti  Ti51  1  0.61047739  0.85290204  0.20831786  1
  Ti  Ti52  1  0.68117714  0.87497309  0.52876605  1
  Ti  Ti53  1  0.72873461  0.84052757  0.86514434  1
  Ti  Ti54  1  0.13545837  0.05609281  0.15068370  1
  Ti  Ti55  1  0.23821525  0.02811896  0.53284162  1
  Ti  Ti56  1  0.12456615  -0.08576450  0.78700869  1
  Ti  Ti57  1  0.16098893  0.32941191  0.24088540  1
  Ti  Ti58  1  0.12840183  0.27830038  0.48488859  1
  Ti  Ti59  1  0.13725622  0.35690009  0.81026789  1
  Ti  Ti60  1  0.07407672  0.68230063  0.20233198  1
  Ti  Ti61  1  0.17430417  0.71106341  0.52149594  1
  Ti  Ti62  1  0.20980561  0.70825051  0.75356755  1
  Ti  Ti63  1  0.43681328  0.05609524  0.18284001  1
  Ti  Ti64  1  0.52153688  -0.06764417  0.45036645  1
  Ti  Ti65  1  0.61402896  -0.00954755  0.79329165  1
  Ti  Ti66  1  0.53180402  0.37720727  0.17155763  1
  Ti  Ti67  1  0.51358892  0.26096417  0.50080370  1
  Ti  Ti68  1  0.47679116  0.37901105  0.82629069  1
  Ti  Ti69  1  0.48694166  0.74567176  0.09960090  1
  Ti  Ti70  1  0.50881744  0.71818472  0.50732487  1
  Ti  Ti71  1  0.51215749  0.66478271  0.79443795  1
  Ti  Ti72  1  0.84171806  0.05332644  0.09020272  1
  Ti  Ti73  1  0.77811745  0.02910111  0.62385206  1
  Ti  Ti74  1  0.79702413  0.08239005  0.81352697  1
  Ti  Ti75  1  0.84941349  0.32969035  0.19123985  1
  Ti  Ti76  1  0.76314927  0.36462231  0.45889199  1
  Ti  Ti77  1  0.79157924  0.37439831  0.89253809  1
  Ti  Ti78  1  0.83487763  0.62920147  0.22776871  1
  Ti  Ti79  1  0.92431350  0.63050039  0.48994743  1
  Ti  Ti80  1  0.78846611  0.64788536  0.87620693  1
  Ti  Ti81  1  0.17722064  0.09259535  -0.03785371  1
  Ti  Ti82  1  0.16563636  0.11465585  0.35842354  1
  Ti  Ti83  1  0.15567165  0.12069318  0.68822078  1
  Ti  Ti84  1  0.17295750  0.54670737  -0.01727831  1
  Ti  Ti85  1  0.25218671  0.45512116  0.39146012  1
  Ti  Ti86  1  0.18428075  0.53087024  0.63682866  1
  Ti  Ti87  1  0.18122532  0.81571248  0.03796908  1
  Ti  Ti88  1  0.16775340  0.82580976  0.34044553  1
  Ti  Ti89  1  0.26442352  0.85809237  0.63420610  1
  Ti  Ti90  1  0.44928220  0.11605004  0.00084318  1
  Ti  Ti91  1  0.56357707  0.11280481  0.32726228  1
  Ti  Ti92  1  0.52129724  0.19455874  0.71736170  1
  Ti  Ti93  1  0.40763758  0.45060896  0.02460018  1
  Ti  Ti94  1  0.47267491  0.45783141  0.39186722  1
  Ti  Ti95  1  0.60373253  0.56760514  0.62386151  1
  Ti  Ti96  1  0.52966008  0.86918340  -0.05773420  1
  Ti  Ti97  1  0.47893739  0.78292377  0.32245939  1
  Ti  Ti98  1  0.47940373  0.84804675  0.64751721  1
  Ti  Ti99  1  0.86092680  0.22903187  0.01816046  1
  Ti  Ti100  1  0.83921801  0.21611601  0.36791491  1
  Ti  Ti101  1  0.88398573  0.20140952  0.63791186  1
  Ti  Ti102  1  0.84780881  0.53292596  0.02286230  1
  Ti  Ti103  1  0.80261629  0.48110135  0.33100532  1
  Ti  Ti104  1  0.85002663  0.53132455  0.66604753  1
  Ti  Ti105  1  0.81409401  0.76313996  0.04199454  1
  Ti  Ti106  1  0.81403119  0.83814575  0.31667135  1
  Ti  Ti107  1  0.86444867  0.85989147  0.61413051  1
  Co  Co108  1  0.62983303  0.39474454  0.34820843  1
  Co  Co109  1  0.58604187  0.81275093  0.78284855  1
  Co  Co110  1  0.16524585  0.20092867  0.83146006  1
  Co  Co111  1  0.82896022  0.95703134  0.94121472  1
  Co  Co112  1  0.09683470  -0.02710299  0.45029284  1
  Co  Co113  1  0.24511521  0.95610886  0.38044657  1
  Co  Co114  1  0.84482785  0.92537718  0.77160235  1
  Co  Co115  1  0.34141758  0.72325689  0.56905840  1
  Co  Co116  1  0.10779427  0.97565208  0.29180525  1
  Co  Co117  1  0.26986194  0.02647131  0.23447438  1
  Co  Co118  1  0.50019786  0.95049036  0.28701302  1
  Co  Co119  1  0.48490588  0.10382415  0.48761991  1
  Co  Co120  1  0.65427873  0.24056286  0.42196669  1
  Co  Co121  1  0.45971106  0.56639726  0.51809188  1
  Co  Co122  1  0.13113652  0.49506965  0.27528818  1
  Co  Co123  1  0.89298781  0.89850684  0.08118511  1
  Co  Co124  1  0.21998929  0.28460051  0.66800024  1
  Co  Co125  1  0.28003715  0.56845670  0.50568050  1
  Co  Co126  1  0.58307698  0.02933307  0.95906605  1
  Co  Co127  1  0.77201043  0.91359304  0.18339343  1
  Co  Co128  1  0.08072963  0.80209662  0.90022471  1
  Co  Co129  1  0.46511801  0.64222419  0.97892069  1
  Co  Co130  1  0.10652249  0.79328390  0.66346326  1
  Co  Co131  1  0.98819296  0.77121019  0.56085563  1
  Co  Co132  1  0.36669444  0.70252842  0.24177715  1
  Co  Co133  1  0.27517084  0.86921501  0.81155807  1
  Co  Co134  1  0.23020982  0.04070281  0.81602145  1
  Co  Co135  1  0.90548975  0.81894282  0.91412588  1
  Co  Co136  1  0.56345515  0.67504000  0.21576985  1
  Co  Co137  1  0.96658925  0.01902504  0.18779584  1
  Co  Co138  1  0.53923137  0.52931043  0.09244408  1
  Co  Co139  1  0.69958575  0.24599715  1.01718087  1
  Co  Co140  1  0.09823048  0.56671946  0.48865015  1
  Co  Co141  1  0.09020182  0.42192838  0.42240717  1
  Co  Co142  1  0.81169100  0.94317540  0.44626738  1
  Co  Co143  1  0.76854561  0.21474422  0.53421806  1
  Co  Co144  1  0.84935355  0.36912244  0.59610975  1
  Co  Co145  1  0.81272000  0.76109265  0.74967881  1
  Co  Co146  1  0.68803374  0.61428324  0.29283765  1
  Co  Co147  1  0.73878223  0.09205777  -0.03450211  1
  Co  Co148  1  0.69962289  0.88570212  0.68761115  1
  Co  Co149  1  0.21709612  0.40110934  0.54775669  1
  Co  Co150  1  0.50798049  0.62687093  0.36094882  1
  Co  Co151  1  0.53149340  0.51924972  0.91484820  1
  Co  Co152  1  0.56702126  0.51410605  0.26106254  1
  Co  Co153  1  0.40026804  0.12545545  0.62721222  1
  Co  Co154  1  0.60688481  0.74532788  0.63154581  1
  Co  Co155  1  0.20466393  0.59451788  0.15777790  1
  Co  Co156  1  0.44542179  0.88915001  0.80701294  1
  Co  Co157  1  0.35878546  0.67116591  0.41075356  1
  Co  Co158  1  0.69624648  0.51042872  0.97020315  1
  Co  Co159  1  0.92156775  0.45824278  0.45855607  1
  Co  Co160  1  0.37289561  0.75709332  0.73278026  1
  Co  Co161  1  0.95377428  -0.02723431  0.53979649  1
  Ni  Ni162  1  0.72388246  0.74334018  0.18742074  1
  Ni  Ni163  1  1.02834142  0.31786617  0.13417815  1
  Ni  Ni164  1  0.48023126  0.49862342  0.71600238  1
  Ni  Ni165  1  0.55880153  0.42388809  0.54071645  1
  Ni  Ni166  1  0.76306260  0.40765094  0.72761342  1
  Ni  Ni167  1  0.90040467  0.48149449  0.18086896  1
  Ni  Ni168  1  0.36223850  0.33628728  0.44546016  1
  Ni  Ni169  1  0.16393281  0.22325229  0.09889314  1
  Ni  Ni170  1  0.51471795  0.93950766  0.09786609  1
  Ni  Ni171  1  0.79580088  0.25010951  0.77471558  1
  Ni  Ni172  1  0.44530118  0.23212086  0.88500258  1
  Ni  Ni173  1  0.67694356  0.66592033  0.75729685  1
  Ni  Ni174  1  0.37030153  0.84984270  0.04867012  1
  Ni  Ni175  1  0.76615259  0.38302548  0.05797297  1
  Ni  Ni176  1  0.92054106  0.57121191  0.81073890  1
  Ni  Ni177  1  0.25193945  0.25640666  0.36454001  1
  Ni  Ni178  1  0.63706019  0.01767523  0.20554393  1
  Ni  Ni179  1  0.82816254  0.77246041  0.47068917  1
  Ni  Ni180  1  0.49249202  0.21693802  0.20433491  1
  Ni  Ni181  1  0.10309895  0.95434260  0.61513908  1
  Ni  Ni182  1  0.04733339  0.26082821  0.64384848  1
  Ni  Ni183  1  0.90057125  0.77182080  0.18504491  1
  Ni  Ni184  1  0.48292958  0.27656549  0.04230958  1
  Ni  Ni185  1  0.01113819  0.78808132  0.05449815  1
  Ni  Ni186  1  0.39313259  0.97035594  0.55572240  1
  Ni  Ni187  1  0.41706582  0.20417626  0.35966632  1
  Ni  Ni188  1  0.27328517  0.45634583  0.20065071  1
  Ni  Ni189  1  0.01837480  0.12205704  0.05359019  1
  Ni  Ni190  1  0.22337113  0.76000756  0.19211691  1
  Ni  Ni191  1  0.61442526  0.71847012  0.92239669  1
  Ni  Ni192  1  0.86450477  0.09528707  0.48158845  1
  Ni  Ni193  1  0.94630228  0.28282006  0.49550033  1
  Ni  Ni194  1  0.95317651  0.63006871  0.10699403  1
  Ni  Ni195  1  0.33141692  0.32181230  0.11484271  1
  Ni  Ni196  1  0.63805063  0.32224948  0.79606852  1
  Ni  Ni197  1  0.25566179  0.96197817  0.07818097  1
  Ni  Ni198  1  0.20083338  0.52991872  0.81020816  1
  Ni  Ni199  1  0.06099009  0.70120529  0.39336269  1
  Ni  Ni200  1  0.78077672  0.52986815  0.51632975  1
  Ni  Ni201  1  0.04904620  0.49085800  0.74117679  1
  Ni  Ni202  1  0.47165914  0.07111287  0.83448660  1
  Ni  Ni203  1  0.93132102  0.38408626  1.02522697  1
  Ni  Ni204  1  0.07788732  0.63453867  0.82409602  1
  Ni  Ni205  1  0.06215142  0.06235197  0.84806555  1
  Ni  Ni206  1  0.79550879  0.17388636  0.19488976  1
  Ni  Ni207  1  0.27247485  0.42259424  0.91499487  1
  Ni  Ni208  1  0.39905597  0.29106172  0.66268995  1
  Ni  Ni209  1  0.14368061  0.38100071  0.01967142  1
  Ni  Ni210  1  0.91883797  0.09805385  0.92651914  1
  Ni  Ni211  1  0.65967922  0.93041686  0.35509288  1
  Ni  Ni212  1  0.29919156  0.11826868  0.07189488  1
  Ni  Ni213  1  0.01956572  0.20213004  0.37172809  1
  Ni  Ni214  1  0.20708677  0.69380345  0.92102864  1
  Ni  Ni215  1  0.68362882  0.14869210  0.69589489  1
