# generated using pymatgen
data_Ti2CoNi
_symmetry_space_group_name_H-M   'P 1'
_cell_length_a   14.44655766
_cell_length_b   14.53075369
_cell_length_c   14.50596990
_cell_angle_alpha   90.13000577
_cell_angle_beta   89.87100096
_cell_angle_gamma   89.76180495
_symmetry_Int_Tables_number   1
_chemical_formula_structural   Ti2CoNi
_chemical_formula_sum   'Ti108 Co54 Ni54'
_cell_volume   3045.04214146
_cell_formula_units_Z   54
loop_
 _symmetry_equiv_pos_site_id
 _symmetry_equiv_pos_as_xyz
  1  'x, y, z'
loop_
 _atom_site_type_symbol
 _atom_site_label
 _atom_site_symmetry_multiplicity
 _atom_site_fract_x
 _atom_site_fract_y
 _atom_site_fract_z
 _atom_site_occupancy
  Ti  Ti0  1  -0.00559133  0.01690252  -0.08597975  1
  Ti  Ti1  1  -0.06459084  -0.04116378  0.28282048  1
  Ti  Ti2  1  0.02382497  -0.00256182  0.65582001  1
  Ti  Ti3  1  0.03811518  0.27506633  0.07369476  1
  Ti  Ti4  1  0.02896649  0.36946746  0.25305544  1
  Ti  Ti5  1  -0.11138422  0.31644234  0.64195643  1
  Ti  Ti6  1  -0.04414182  0.64714224  -0.03566706  1
  Ti  Ti7  1  0.01445387  0.63227181  0.33572201  1
  Ti  Ti8  1  -0.00057974  0.67191301  0.64975931  1
  Ti  Ti9  1  0.37392333  0.02656432  -0.05859496  1
  Ti  Ti10  1  0.31843650  0.00451278  0.35197257  1
  Ti  Ti11  1  0.41930408  0.02051898  0.73680255  1
  Ti  Ti12  1  0.34012652  0.29696442  -0.00842476  1
  Ti  Ti13  1  0.28229453  0.33594941  0.33253579  1
  Ti  Ti14  1  0.38362701  0.33767700  0.66508986  1
  Ti  Ti15  1  0.35561249  0.71580057  0.05486449  1
  Ti  Ti16  1  0.38726962  0.64920887  0.35284566  1
  Ti  Ti17  1  0.32385473  0.67719119  0.70923491  1
  Ti  Ti18  1  0.74736181  0.04750312  -0.02731979  1
  Ti  Ti19  1  0.65476352  -0.02062291  0.33518827  1
  Ti  Ti20  1  0.70785209  -0.05637227  0.61481263  1
  Ti  Ti21  1  0.67260208  0.32935696  0.00685090  1
  Ti  Ti22  1  0.71571557  0.29271908  0.35274058  1
  Ti  Ti23  1  0.71009889  0.39538348  0.66262494  1
  Ti  Ti24  1  0.66346295  0.75149065  0.02217568  1
  Ti  Ti25  1  0.63877263  0.75442490  0.35077971  1
  Ti  Ti26  1  0.66125887  0.58769307  0.76564875  1
  Ti  Ti27  1  0.05772268  0.09795149  0.15736573  1
  Ti  Ti28  1  -0.02765970  0.19155088  0.48856403  1
  Ti  Ti29  1  0.00847481  0.17661173  0.74269478  1
  Ti  Ti30  1  -0.06917158  0.53456458  0.20087100  1
  Ti  Ti31  1  0.02045289  0.44086362  0.55814320  1
  Ti  Ti32  1  0.00313695  0.50391583  0.86551249  1
  Ti  Ti33  1  -0.03652785  0.82103763  0.10022293  1
  Ti  Ti34  1  0.02849673  0.82700791  0.53587101  1
  Ti  Ti35  1  -0.02059458  0.81159179  0.87240471  1
  Ti  Ti36  1  0.27035495  0.16715477  0.10744551  1
  Ti  Ti37  1  0.33702089  0.08412872  0.53926814  1
  Ti  Ti38  1  0.33931950  0.17993337  0.81016586  1
  Ti  Ti39  1  0.38591486  0.50631475  0.06605357  1
  Ti  Ti40  1  0.38619034  0.50464332  0.47165451  1
  Ti  Ti41  1  0.34381773  0.49203208  0.78155693  1
  Ti  Ti42  1  0.27429752  0.83910390  0.24268174  1
  Ti  Ti43  1  0.33192013  0.79934116  0.49698578  1
  Ti  Ti44  1  0.30251887  0.79692928  0.85455357  1
  Ti  Ti45  1  0.62290931  0.27444125  0.17490235  1
  Ti  Ti46  1  0.64204905  0.12501059  0.52476901  1
  Ti  Ti47  1  0.68525612  0.17843259  0.85622755  1
  Ti  Ti48  1  0.71426148  0.49137073  0.23411730  1
  Ti  Ti49  1  0.59952344  0.41876188  0.47978140  1
  Ti  Ti50  1  0.62125271  0.42864617  0.85357617  1
  Ti  Ti51  1  0.60087042  0.83704526  0.18122341  1
  Ti  Ti52  1  0.69995577  0.76308401  0.52279565  1
  Ti  Ti53  1  0.63038447  0.80071729  0.76570929  1
  Ti  Ti54  1  0.23996617  -0.02740693  0.11381195  1
  Ti  Ti55  1  0.13253573  0.03660781  0.46491980  1
  Ti  Ti56  1  0.15559408  0.05243923  0.80410892  1
  Ti  Ti57  1  0.21096368  0.43689229  0.13331410  1
  Ti  Ti58  1  0.16042953  0.28709042  0.48365512  1
  Ti  Ti59  1  0.15473110  0.29323079  0.83066690  1
  Ti  Ti60  1  0.21260732  0.64047539  0.24780426  1
  Ti  Ti61  1  0.18254673  0.70140233  0.58345328  1
  Ti  Ti62  1  0.15109162  0.68147346  0.94544013  1
  Ti  Ti63  1  0.63780050  0.07382827  0.13314738  1
  Ti  Ti64  1  0.50288356  0.02382747  0.42901700  1
  Ti  Ti65  1  0.56282907  0.03450736  0.90526022  1
  Ti  Ti66  1  0.39740384  0.33337175  0.19404922  1
  Ti  Ti67  1  0.43666963  0.32506942  0.45080861  1
  Ti  Ti68  1  0.52806050  0.27662924  0.88800452  1
  Ti  Ti69  1  0.52079262  0.66501589  0.10856117  1
  Ti  Ti70  1  0.56043609  0.62028468  0.50778647  1
  Ti  Ti71  1  0.48036543  0.68947142  0.78392763  1
  Ti  Ti72  1  0.82860076  0.06734689  0.17754991  1
  Ti  Ti73  1  0.90971733  -0.02507183  0.48784497  1
  Ti  Ti74  1  0.73753418  -0.01570407  0.79821998  1
  Ti  Ti75  1  0.82810116  0.35685042  0.12740780  1
  Ti  Ti76  1  0.83944422  0.32816585  0.46623044  1
  Ti  Ti77  1  0.86776120  0.35443425  0.92666024  1
  Ti  Ti78  1  0.82811827  0.65587167  0.12039762  1
  Ti  Ti79  1  0.78467508  0.60381035  0.56543034  1
  Ti  Ti80  1  0.85029950  0.66059131  0.79586805  1
  Ti  Ti81  1  0.19067517  0.13967441  -0.03774144  1
  Ti  Ti82  1  0.10098517  0.20220149  0.31836457  1
  Ti  Ti83  1  0.22502531  0.21679040  0.66108174  1
  Ti  Ti84  1  0.22222010  0.46492604  -0.06990008  1
  Ti  Ti85  1  0.15370333  0.46777999  0.38482690  1
  Ti  Ti86  1  0.24981830  0.52823589  0.61998377  1
  Ti  Ti87  1  0.11929752  0.85051003  0.02438057  1
  Ti  Ti88  1  0.08916642  0.81221840  0.27952724  1
  Ti  Ti89  1  0.10306543  0.81629762  0.71303107  1
  Ti  Ti90  1  0.45859528  0.13751015  0.12133368  1
  Ti  Ti91  1  0.51788706  0.11470895  0.27895836  1
  Ti  Ti92  1  0.49007734  0.19803677  0.59306267  1
  Ti  Ti93  1  0.57462577  0.56373370  -0.01861752  1
  Ti  Ti94  1  0.56227740  0.54757730  0.33876710  1
  Ti  Ti95  1  0.46908446  0.52622373  0.64593615  1
  Ti  Ti96  1  0.49461907  0.86283286  -0.00157615  1
  Ti  Ti97  1  0.44146004  0.83873392  0.32336873  1
  Ti  Ti98  1  0.50134300  0.82713085  0.58924476  1
  Ti  Ti99  1  0.87337123  0.16766287  -0.04088013  1
  Ti  Ti100  1  0.82651522  0.13235939  0.39406780  1
  Ti  Ti101  1  0.74898866  0.18169996  0.67951114  1
  Ti  Ti102  1  0.77535199  0.54936273  -0.03783800  1
  Ti  Ti103  1  0.87315958  0.51303312  0.40000248  1
  Ti  Ti104  1  0.90672329  0.51186886  0.68289955  1
  Ti  Ti105  1  0.81570674  0.90038578  0.01398132  1
  Ti  Ti106  1  0.79759898  0.82258979  0.29539831  1
  Ti  Ti107  1  0.88517787  0.84616861  0.67531385  1
  Co  Co108  1  0.91487160  0.27860935  0.32512034  1
  Co  Co109  1  0.28983979  0.94712583  0.78808717  1
  Co  Co110  1  0.05336671  0.42689058  0.10387524  1
  Co  Co111  1  0.44236611  0.16192552  0.96518176  1
  Co  Co112  1  0.35589053  0.03202863  0.19609377  1
  Co  Co113  1  0.74941593  0.19085317  0.08428634  1
  Co  Co114  1  0.80640871  0.23457718  0.22909365  1
  Co  Co115  1  0.93119008  0.73003587  0.24346011  1
  Co  Co116  1  0.70714038  0.61930371  0.40135506  1
  Co  Co117  1  0.02265674  0.06244756  0.36153355  1
  Co  Co118  1  0.80029820  0.63312031  0.28155777  1
  Co  Co119  1  0.42538552  0.43906570  0.33357153  1
  Co  Co120  1  0.49405148  0.54977325  0.83629668  1
  Co  Co121  1  0.33853247  0.33358177  0.84396863  1
  Co  Co122  1  0.94709475  0.14801048  0.25792427  1
  Co  Co123  1  1.04126786  0.37412289  0.94253299  1
  Co  Co124  1  0.90544463  0.19638251  0.10630643  1
  Co  Co125  1  0.88811709  0.24839002  0.80887358  1
  Co  Co126  1  0.29053337  0.49577015  0.27982533  1
  Co  Co127  1  0.31565387  0.86252132  0.02539902  1
  Co  Co128  1  0.09926063  0.12877671  0.60359951  1
  Co  Co129  1  0.63579509  0.93449823  0.04420283  1
  Co  Co130  1  0.84020257  0.75303435  0.96521736  1
  Co  Co131  1  0.78695879  0.87217116  0.45350262  1
  Co  Co132  1  0.09136042  0.54185505  1.00762980  1
  Co  Co133  1  0.32175571  0.24842728  0.52591130  1
  Co  Co134  1  0.59441805  0.16876627  1.01194225  1
  Co  Co135  1  0.42913179  0.82143413  0.15982206  1
  Co  Co136  1  0.74457034  0.02046029  0.47156762  1
  Co  Co137  1  0.80041614  0.44719239  0.55622342  1
  Co  Co138  1  0.41311485  0.82955910  0.71570551  1
  Co  Co139  1  0.49524724  0.96658417  0.24117857  1
  Co  Co140  1  0.45145500  0.41525688  0.92472014  1
  Co  Co141  1  0.54598034  0.42339893  0.11922843  1
  Co  Co142  1  0.06534552  0.68128127  0.12289959  1
  Co  Co143  1  0.85153793  0.40402156  0.27951902  1
  Co  Co144  1  0.92258485  0.48893766  0.02666737  1
  Co  Co145  1  0.49871506  0.15094103  0.79738864  1
  Co  Co146  1  0.24415567  0.05160467  0.66434444  1
  Co  Co147  1  0.10801005  0.02524467  0.02745206  1
  Co  Co148  1  0.61104419  0.08414636  0.69390558  1
  Co  Co149  1  0.94391297  0.83328007  0.38337716  1
  Co  Co150  1  0.54772308  0.35124450  0.61313513  1
  Co  Co151  1  0.84935223  0.70713119  0.40204764  1
  Co  Co152  1  0.63242220  0.51838191  0.61098996  1
  Co  Co153  1  0.48131747  0.39589168  0.76784338  1
  Co  Co154  1  0.23146098  0.59111871  0.07266254  1
  Co  Co155  1  0.20122422  0.75562809  1.10917103  1
  Co  Co156  1  0.26292935  0.82386974  0.67099138  1
  Co  Co157  1  0.17139944  0.93753286  0.59279360  1
  Co  Co158  1  0.48753299  0.28678247  0.07134331  1
  Co  Co159  1  0.60363794  0.25808500  0.72372187  1
  Co  Co160  1  0.77525908  0.81165670  0.13482711  1
  Co  Co161  1  0.87971984  0.76432901  0.55321297  1
  Ni  Ni162  1  0.68476091  0.86328279  0.90621041  1
  Ni  Ni163  1  0.41045836  0.16348673  0.41307198  1
  Ni  Ni164  1  0.95748527  0.60774308  0.50556715  1
  Ni  Ni165  1  0.51695520  0.69305962  0.25593117  1
  Ni  Ni166  1  0.50752378  0.75752490  0.44304962  1
  Ni  Ni167  1  0.01912842  0.35660552  0.41118224  1
  Ni  Ni168  1  0.09272888  0.52497954  0.21538816  1
  Ni  Ni169  1  0.57887828  0.23035992  0.41760985  1
  Ni  Ni170  1  0.00633147  0.37006902  0.76320448  1
  Ni  Ni171  1  0.40331827  0.66206001  0.55179142  1
  Ni  Ni172  1  0.35610176  0.93634984  0.60017731  1
  Ni  Ni173  1  0.67074163  0.66103136  0.18365138  1
  Ni  Ni174  1  0.86300762  0.09597009  0.80603150  1
  Ni  Ni175  1  0.72285383  0.45423730  0.38805472  1
  Ni  Ni176  1  0.90854013  0.95109276  0.78663159  1
  Ni  Ni177  1  0.53874546  0.71605808  0.91885551  1
  Ni  Ni178  1  0.75831050  0.31960082  0.79785746  1
  Ni  Ni179  1  0.68182308  0.13808418  0.29014460  1
  Ni  Ni180  1  1.09420665  0.53576515  0.70615619  1
  Ni  Ni181  1  0.23001395  0.39637698  0.71536339  1
  Ni  Ni182  1  0.08243453  0.93735666  0.17397700  1
  Ni  Ni183  1  0.81831153  0.47853165  0.81573207  1
  Ni  Ni184  1  0.59775042  0.68329967  0.65538930  1
  Ni  Ni185  1  0.24784973  0.15648635  0.40516483  1
  Ni  Ni186  1  0.18772351  0.88730842  0.43998217  1
  Ni  Ni187  1  0.12864321  0.88319892  0.86736191  1
  Ni  Ni188  1  0.89032952  0.11169596  0.61368846  1
  Ni  Ni189  1  0.70782764  0.69797969  0.87535860  1
  Ni  Ni190  1  0.32675943  0.16645958  0.26652556  1
  Ni  Ni191  1  0.18866305  0.62445474  0.79058170  1
  Ni  Ni192  1  0.94301509  1.00116732  0.06187320  1
  Ni  Ni193  1  0.23671646  -0.03131025  0.93974165  1
  Ni  Ni194  1  0.72958865  0.95132728  0.18928890  1
  Ni  Ni195  1  0.51877617  0.00221226  0.58241373  1
  Ni  Ni196  1  0.56707999  0.93659933  0.74082171  1
  Ni  Ni197  1  0.10867083  0.56887334  0.52719124  1
  Ni  Ni198  1  0.19716980  0.05978932  0.25606576  1
  Ni  Ni199  1  0.02985775  0.66232131  0.81100469  1
  Ni  Ni200  1  0.57437638  0.36922213  0.29857230  1
  Ni  Ni201  1  0.05619727  0.29845639  0.62581555  1
  Ni  Ni202  1  0.03447487  0.20242045  0.91847493  1
  Ni  Ni203  1  0.69435202  0.47693179  0.06744432  1
  Ni  Ni204  1  0.46325698  0.88204290  0.85334867  1
  Ni  Ni205  1  0.69567303  0.28217386  0.54419045  1
  Ni  Ni206  1  0.17666363  0.31129505  0.01592037  1
  Ni  Ni207  1  0.25544493  0.59840313  0.44701666  1
  Ni  Ni208  1  0.45774206  0.53597426  0.20657561  1
  Ni  Ni209  1  0.18873304  0.28216903  0.19528339  1
  Ni  Ni210  1  0.38075295  0.60570800  0.93517976  1
  Ni  Ni211  1  0.60899218  0.89860729  0.48058562  1
  Ni  Ni212  1  0.25020158  0.75044771  0.36660836  1
  Ni  Ni213  1  0.27063300  0.40528791  0.53930388  1
  Ni  Ni214  1  0.11848033  0.70794268  0.43159829  1
  Ni  Ni215  1  0.77043101  0.72997929  0.67693926  1
