# generated using pymatgen
data_Ti2CoNi
_symmetry_space_group_name_H-M   'P 1'
_cell_length_a   14.61030015
_cell_length_b   14.58088318
_cell_length_c   14.62069327
_cell_angle_alpha   90.32685859
_cell_angle_beta   90.08823015
_cell_angle_gamma   89.88694684
_symmetry_Int_Tables_number   1
_chemical_formula_structural   Ti2CoNi
_chemical_formula_sum   'Ti108 Co54 Ni54'
_cell_volume   3114.60169020
_cell_formula_units_Z   54
loop_
 _symmetry_equiv_pos_site_id
 _symmetry_equiv_pos_as_xyz
  1  'x, y, z'
loop_
 _atom_site_type_symbol
 _atom_site_label
 _atom_site_symmetry_multiplicity
 _atom_site_fract_x
 _atom_site_fract_y
 _atom_site_fract_z
 _atom_site_occupancy
  Ti  Ti0  1  0.05451733  0.05961309  -0.00448689  1
  Ti  Ti1  1  -0.04031155  -0.00014036  0.33327436  1
  Ti  Ti2  1  -0.03267440  -0.07044943  0.66090186  1
  Ti  Ti3  1  -0.06426144  0.33672348  -0.00079728  1
  Ti  Ti4  1  -0.07527695  0.37251496  0.30253705  1
  Ti  Ti5  1  0.02043664  0.33350827  0.63552059  1
  Ti  Ti6  1  -0.01293651  0.60725718  0.01128305  1
  Ti  Ti7  1  -0.03959632  0.69009731  0.37389103  1
  Ti  Ti8  1  -0.01689631  0.65303714  0.62623587  1
  Ti  Ti9  1  0.30492885  -0.02649726  -0.00386113  1
  Ti  Ti10  1  0.24227675  -0.01580865  0.36085761  1
  Ti  Ti11  1  0.30330068  -0.03079401  0.68636089  1
  Ti  Ti12  1  0.39231258  0.31961371  -0.08655509  1
  Ti  Ti13  1  0.26307702  0.38572758  0.35575936  1
  Ti  Ti14  1  0.38753312  0.34841052  0.65840598  1
  Ti  Ti15  1  0.32788502  0.59629558  0.04509344  1
  Ti  Ti16  1  0.32956936  0.65141307  0.37874434  1
  Ti  Ti17  1  0.30848623  0.64945493  0.72097576  1
  Ti  Ti18  1  0.64423178  -0.01419992  -0.03719872  1
  Ti  Ti19  1  0.71136547  0.01742661  0.36538215  1
  Ti  Ti20  1  0.72275863  -0.06898727  0.66749210  1
  Ti  Ti21  1  0.71117905  0.30938050  0.04406092  1
  Ti  Ti22  1  0.73254129  0.36500416  0.31719646  1
  Ti  Ti23  1  0.57333202  0.26101001  0.68108141  1
  Ti  Ti24  1  0.58327895  0.67445278  -0.01198251  1
  Ti  Ti25  1  0.62302666  0.56796373  0.29192588  1
  Ti  Ti26  1  0.66813340  0.61596602  0.63811051  1
  Ti  Ti27  1  0.01497002  0.12894664  0.20577411  1
  Ti  Ti28  1  0.01110417  0.14940963  0.52963756  1
  Ti  Ti29  1  -0.01792911  0.19057070  0.87534008  1
  Ti  Ti30  1  0.03914843  0.49275512  0.18239164  1
  Ti  Ti31  1  0.08070958  0.44059266  0.47217103  1
  Ti  Ti32  1  0.00705383  0.54600353  0.78698607  1
  Ti  Ti33  1  0.01113736  0.91361190  0.12445480  1
  Ti  Ti34  1  0.03598192  0.79717526  0.51802187  1
  Ti  Ti35  1  0.02715500  0.79447222  0.78163914  1
  Ti  Ti36  1  0.31301527  0.15033719  0.16777712  1
  Ti  Ti37  1  0.39305804  0.11455645  0.44075664  1
  Ti  Ti38  1  0.33849855  0.19315630  0.77079141  1
  Ti  Ti39  1  0.30683609  0.51446998  0.21396070  1
  Ti  Ti40  1  0.34105452  0.54223473  0.57035554  1
  Ti  Ti41  1  0.36140440  0.49046299  0.80922856  1
  Ti  Ti42  1  0.35297374  0.85113105  0.15736730  1
  Ti  Ti43  1  0.25623242  0.83917322  0.49465751  1
  Ti  Ti44  1  0.37893839  0.79722266  0.92600121  1
  Ti  Ti45  1  0.62164330  0.23712026  0.18680224  1
  Ti  Ti46  1  0.65699764  0.14646059  0.51556928  1
  Ti  Ti47  1  0.70136143  0.16796717  0.83991120  1
  Ti  Ti48  1  0.59590137  0.44100074  0.15058766  1
  Ti  Ti49  1  0.66267900  0.46987692  0.46712984  1
  Ti  Ti50  1  0.68787224  0.49554727  0.80226324  1
  Ti  Ti51  1  0.70290599  0.79257613  0.08856969  1
  Ti  Ti52  1  0.63903731  0.87564884  0.46080074  1
  Ti  Ti53  1  0.71467753  0.80083876  0.87016882  1
  Ti  Ti54  1  0.18214394  0.01324076  0.13339246  1
  Ti  Ti55  1  0.13761254  0.00867507  0.55574245  1
  Ti  Ti56  1  0.11453437  0.01138627  0.78440631  1
  Ti  Ti57  1  0.22715179  0.33215925  0.06863991  1
  Ti  Ti58  1  0.30140912  0.26478298  0.50244027  1
  Ti  Ti59  1  0.18777721  0.32175588  0.87206673  1
  Ti  Ti60  1  0.15591515  0.65759350  0.11321356  1
  Ti  Ti61  1  0.19000807  0.68586766  0.57428740  1
  Ti  Ti62  1  0.22943689  0.66394478  0.89447728  1
  Ti  Ti63  1  0.51773503  -0.02089160  0.20836107  1
  Ti  Ti64  1  0.44397771  -0.06217730  0.48696726  1
  Ti  Ti65  1  0.55600856  -0.07008167  0.77488635  1
  Ti  Ti66  1  0.42299925  0.31087723  0.21741607  1
  Ti  Ti67  1  0.51796884  0.36871152  0.52002341  1
  Ti  Ti68  1  0.60432941  0.34374259  0.89431003  1
  Ti  Ti69  1  0.55244621  0.74917420  0.19352038  1
  Ti  Ti70  1  0.56196388  0.67849023  0.48061216  1
  Ti  Ti71  1  0.48276510  0.70918529  0.75597426  1
  Ti  Ti72  1  0.80194116  -0.06785649  0.20559589  1
  Ti  Ti73  1  0.83933486  0.02334744  0.49110987  1
  Ti  Ti74  1  0.87917398  0.04080585  0.79386952  1
  Ti  Ti75  1  0.84668349  0.25479739  0.17555900  1
  Ti  Ti76  1  0.85021199  0.35935157  0.50096067  1
  Ti  Ti77  1  0.80640314  0.34449777  0.86513773  1
  Ti  Ti78  1  0.87114550  0.73957544  0.16992882  1
  Ti  Ti79  1  0.75623526  0.63866986  0.43416175  1
  Ti  Ti80  1  0.88376162  0.68694641  0.85089466  1
  Ti  Ti81  1  0.23504152  0.15673727  -0.02052558  1
  Ti  Ti82  1  0.12414964  0.23760719  0.33133449  1
  Ti  Ti83  1  0.16545001  0.19233791  0.68474602  1
  Ti  Ti84  1  0.13495390  0.50732110  -0.06304497  1
  Ti  Ti85  1  0.14927462  0.57398455  0.31616177  1
  Ti  Ti86  1  0.13587942  0.51357300  0.63823366  1
  Ti  Ti87  1  0.13630786  0.84689266  -0.03353291  1
  Ti  Ti88  1  0.12947445  0.78737395  0.27399793  1
  Ti  Ti89  1  0.22049245  0.80559745  0.75811277  1
  Ti  Ti90  1  0.53659294  0.17687357  -0.02235112  1
  Ti  Ti91  1  0.53801631  0.16580558  0.33595392  1
  Ti  Ti92  1  0.48541461  0.08293151  0.66154387  1
  Ti  Ti93  1  0.47541827  0.49868880  -0.02207486  1
  Ti  Ti94  1  0.45075151  0.47907749  0.33910011  1
  Ti  Ti95  1  0.51176681  0.51294024  0.67952055  1
  Ti  Ti96  1  0.51697077  0.87150827  0.04620195  1
  Ti  Ti97  1  0.48203822  0.80776314  0.34996966  1
  Ti  Ti98  1  0.51474390  0.83287290  0.61698750  1
  Ti  Ti99  1  0.75226844  0.10502307  0.08638739  1
  Ti  Ti100  1  0.88585223  0.18736548  0.37384155  1
  Ti  Ti101  1  0.84703511  0.22587437  0.69012121  1
  Ti  Ti102  1  0.79716774  0.48784009  0.00786746  1
  Ti  Ti103  1  0.82823353  0.55809706  0.25925658  1
  Ti  Ti104  1  0.84156712  0.42695466  0.68895204  1
  Ti  Ti105  1  0.84612533  0.90260376  -0.01159016  1
  Ti  Ti106  1  0.78993912  0.81178789  0.34998873  1
  Ti  Ti107  1  0.83078114  0.77208333  0.67723794  1
  Co  Co108  1  0.18107551  0.85232373  0.13585585  1
  Co  Co109  1  0.08734785  0.24574975  0.99434625  1
  Co  Co110  1  0.64747410  0.88415567  0.27474281  1
  Co  Co111  1  0.73475977  0.62373358  0.92880635  1
  Co  Co112  1  0.19716500  0.50174435  0.09059968  1
  Co  Co113  1  0.12742823  0.66173117  0.73365696  1
  Co  Co114  1  0.08971927  0.07130307  0.39858262  1
  Co  Co115  1  0.66029973  0.07289512  0.23049736  1
  Co  Co116  1  0.85760134  0.58828721  0.69938196  1
  Co  Co117  1  0.39031193  0.12403221  0.92820350  1
  Co  Co118  1  0.19415987  0.10545980  0.27436812  1
  Co  Co119  1  0.34537873  0.78996381  0.63793399  1
  Co  Co120  1  0.14528197  0.18413387  0.13070627  1
  Co  Co121  1  0.02682039  0.29698274  0.17185383  1
  Co  Co122  1  0.58997519  0.61886035  0.83387048  1
  Co  Co123  1  0.66616238  0.94680214  0.11965924  1
  Co  Co124  1  0.08124840  0.39472559  0.31967687  1
  Co  Co125  1  0.73885889  0.65797929  0.77556274  1
  Co  Co126  1  0.90545312  0.41353522  0.13477585  1
  Co  Co127  1  0.75600720  0.43167949  0.17506861  1
  Co  Co128  1  0.36871627  0.42383725  0.47315583  1
  Co  Co129  1  0.05755488  0.60886230  0.48652398  1
  Co  Co130  1  0.49391625  0.21608205  0.81176014  1
  Co  Co131  1  0.43659532  0.70783595  0.07593162  1
  Co  Co132  1  0.58521872  0.08408343  0.09070003  1
  Co  Co133  1  0.53711932  0.99635898  0.36891406  1
  Co  Co134  1  0.18635448  0.39177386  0.20970535  1
  Co  Co135  1  0.07273144  0.67874484  0.89196045  1
  Co  Co136  1  0.38973628  0.07657556  0.28477541  1
  Co  Co137  1  0.72455280  0.69568716  0.23090968  1
  Co  Co138  1  0.44092817  0.29341508  0.38931336  1
  Co  Co139  1  0.28790939  0.45533057  0.94756809  1
  Co  Co140  1  0.30885301  0.21933121  0.32645847  1
  Co  Co141  1  0.63615921  0.77385417  0.72993994  1
  Co  Co142  1  0.55400750  0.59412588  0.12573884  1
  Co  Co143  1  0.95798223  0.49055922  0.58813305  1
  Co  Co144  1  0.79077784  0.52193450  0.56390397  1
  Co  Co145  1  0.21862189  0.54695734  0.46177653  1
  Co  Co146  1  0.87892248  0.57704873  0.11607528  1
  Co  Co147  1  0.00579741  0.64732206  0.22268663  1
  Co  Co148  1  0.95088253  0.17828182  0.05545851  1
  Co  Co149  1  0.46829566  0.96123517  0.92668539  1
  Co  Co150  1  0.82783104  0.18653202  0.52933829  1
  Co  Co151  1  0.56422716  0.07841653  0.83877419  1
  Co  Co152  1  0.27446304  0.92133343  0.85187553  1
  Co  Co153  1  0.10164302  0.89557175  0.41340901  1
  Co  Co154  1  0.82503104  0.48913292  0.40751472  1
  Co  Co155  1  0.40737374  0.86126560  0.77429829  1
  Co  Co156  1  0.86083560  0.87241979  0.80195636  1
  Co  Co157  1  0.15856595  0.71429446  0.41348534  1
  Co  Co158  1  0.40660592  0.03041241  0.79754007  1
  Co  Co159  1  0.10093790  0.96075551  0.26368565  1
  Co  Co160  1  0.71367014  0.60501588  0.09857704  1
  Co  Co161  1  0.24716520  0.07862170  0.83865393  1
  Ni  Ni162  1  0.13488685  0.27288199  0.52240295  1
  Ni  Ni163  1  0.07057459  0.40643577  0.04672641  1
  Ni  Ni164  1  0.00938707  0.15207430  0.71463020  1
  Ni  Ni165  1  0.90510226  1.03190138  0.11020745  1
  Ni  Ni166  1  0.92426837  0.87426463  0.42761809  1
  Ni  Ni167  1  0.72100688  0.10465332  0.67445497  1
  Ni  Ni168  1  0.02986366  0.75620092  0.10576255  1
  Ni  Ni169  1  0.72246551  0.19218918  0.32758758  1
  Ni  Ni170  1  0.97224108  0.79635494  0.95592422  1
  Ni  Ni171  1  0.65693898  0.43887893  0.63662806  1
  Ni  Ni172  1  0.99418125  0.29376643  0.44457174  1
  Ni  Ni173  1  0.86575884  0.73067358  0.51204529  1
  Ni  Ni174  1  0.63444367  0.49980269  0.97448127  1
  Ni  Ni175  1  0.29947869  1.00453177  0.52425554  1
  Ni  Ni176  1  0.59888746  -0.00329875  0.57444780  1
  Ni  Ni177  1  0.72573887  0.99224588  0.82402390  1
  Ni  Ni178  1  0.31125141  0.13836639  0.61278934  1
  Ni  Ni179  1  0.89067041  0.07368228  0.63274300  1
  Ni  Ni180  1  0.20575829  0.51864752  0.78763067  1
  Ni  Ni181  1  0.23517517  0.34749497  0.71364456  1
  Ni  Ni182  1  0.42281000  0.63572722  0.89576421  1
  Ni  Ni183  1  0.95483881  0.32876298  0.79193631  1
  Ni  Ni184  1  0.52513820  0.33431437  0.04899180  1
  Ni  Ni185  1  0.63314934  0.73549041  0.34997656  1
  Ni  Ni186  1  0.70766286  0.32090946  0.74130161  1
  Ni  Ni187  1  0.98369063  0.52701695  0.35062701  1
  Ni  Ni188  1  0.38738518  0.24390819  0.05748812  1
  Ni  Ni189  1  0.12741598  0.86483741  0.63880428  1
  Ni  Ni190  1  0.71337107  0.29885705  0.57566010  1
  Ni  Ni191  1  0.40479832  0.75866758  0.48854434  1
  Ni  Ni192  1  0.44054198  0.62875999  0.24150720  1
  Ni  Ni193  1  -0.00669430  0.94314633  0.87774630  1
  Ni  Ni194  1  0.85508934  0.51362494  0.84910097  1
  Ni  Ni195  1  0.22978379  0.40464402  0.55545992  1
  Ni  Ni196  1  0.54558127  0.80407780  0.88287817  1
  Ni  Ni197  1  0.86749631  0.06271752  0.95286143  1
  Ni  Ni198  1  0.38238650  0.91906457  0.30636915  1
  Ni  Ni199  1  0.63002642  0.28771020  0.43026437  1
  Ni  Ni200  1  0.49371711  0.53429221  0.48891884  1
  Ni  Ni201  1  0.83394045  0.71764252  0.01135497  1
  Ni  Ni202  1  0.56620120  0.36993866  0.30604649  1
  Ni  Ni203  1  0.81747938  0.21232946  0.96362633  1
  Ni  Ni204  1  0.49565634  0.38841775  0.78603256  1
  Ni  Ni205  1  0.69040927  0.76259481  0.57006338  1
  Ni  Ni206  1  0.28905669  0.70147229  0.20820886  1
  Ni  Ni207  1  0.09115548  0.40340312  0.76932222  1
  Ni  Ni208  1  0.45784316  0.65633561  0.60479927  1
  Ni  Ni209  1  0.43116371  0.04817292  0.07636985  1
  Ni  Ni210  1  0.27072999  0.76228393  1.04047040  1
  Ni  Ni211  1  0.37725937  0.41746354  0.08768672  1
  Ni  Ni212  1  0.47098521  0.21349971  0.55113257  1
  Ni  Ni213  1  0.83210847  0.09356359  0.24878510  1
  Ni  Ni214  1  0.80190064  0.87448912  0.53363321  1
  Ni  Ni215  1  0.96591410  0.83562756  0.27068270  1
