# generated using pymatgen
data_Ti2CoNi
_symmetry_space_group_name_H-M   'P 1'
_cell_length_a   14.67452590
_cell_length_b   14.60193968
_cell_length_c   14.69236694
_cell_angle_alpha   89.90112967
_cell_angle_beta   90.41041355
_cell_angle_gamma   90.09700419
_symmetry_Int_Tables_number   1
_chemical_formula_structural   Ti2CoNi
_chemical_formula_sum   'Ti108 Co54 Ni54'
_cell_volume   3148.13968159
_cell_formula_units_Z   54
loop_
 _symmetry_equiv_pos_site_id
 _symmetry_equiv_pos_as_xyz
  1  'x, y, z'
loop_
 _atom_site_type_symbol
 _atom_site_label
 _atom_site_symmetry_multiplicity
 _atom_site_fract_x
 _atom_site_fract_y
 _atom_site_fract_z
 _atom_site_occupancy
  Ti  Ti0  1  -0.02688573  -0.01513733  -0.02641333  1
  Ti  Ti1  1  -0.00837051  -0.02370911  0.35005856  1
  Ti  Ti2  1  -0.00810216  -0.02776457  0.68204319  1
  Ti  Ti3  1  0.06838163  0.38986512  -0.01814924  1
  Ti  Ti4  1  -0.00637820  0.40780209  0.29066196  1
  Ti  Ti5  1  0.00171319  0.24081484  0.66294496  1
  Ti  Ti6  1  -0.01840606  0.63538422  -0.00681133  1
  Ti  Ti7  1  0.06003992  0.69558682  0.31397280  1
  Ti  Ti8  1  -0.03094019  0.68753664  0.68743521  1
  Ti  Ti9  1  0.23868535  -0.03475472  -0.05932117  1
  Ti  Ti10  1  0.31607853  0.00991557  0.29561110  1
  Ti  Ti11  1  0.34542816  -0.01733743  0.73012975  1
  Ti  Ti12  1  0.37691796  0.37167612  0.05752064  1
  Ti  Ti13  1  0.34459457  0.36821551  0.30015939  1
  Ti  Ti14  1  0.40045805  0.34955465  0.67597644  1
  Ti  Ti15  1  0.31823119  0.63772658  -0.00906627  1
  Ti  Ti16  1  0.34582852  0.63394420  0.40556450  1
  Ti  Ti17  1  0.31579731  0.61909224  0.67636869  1
  Ti  Ti18  1  0.68782998  0.05029083  0.00166872  1
  Ti  Ti19  1  0.63789889  0.03002988  0.36716783  1
  Ti  Ti20  1  0.64471311  0.02746734  0.71048276  1
  Ti  Ti21  1  0.77237528  0.34596248  -0.06062864  1
  Ti  Ti22  1  0.69695105  0.32581044  0.29700052  1
  Ti  Ti23  1  0.73425539  0.25506340  0.71728650  1
  Ti  Ti24  1  0.55021020  0.70993676  0.03054278  1
  Ti  Ti25  1  0.69370307  0.69315125  0.23372774  1
  Ti  Ti26  1  0.61766787  0.68162644  0.65871677  1
  Ti  Ti27  1  0.00919312  0.07434517  0.18135145  1
  Ti  Ti28  1  -0.00093272  0.28472251  0.45756556  1
  Ti  Ti29  1  0.00840283  0.12608192  0.82141735  1
  Ti  Ti30  1  -0.06630784  0.45635642  0.10844923  1
  Ti  Ti31  1  0.03585178  0.49076737  0.49629946  1
  Ti  Ti32  1  0.03370460  0.51252429  0.81993145  1
  Ti  Ti33  1  0.03156394  0.86206451  0.20932307  1
  Ti  Ti34  1  -0.00552273  0.72505612  0.49232536  1
  Ti  Ti35  1  -0.06399399  0.82609064  0.82775936  1
  Ti  Ti36  1  0.33803377  0.18319677  0.10054484  1
  Ti  Ti37  1  0.31768438  0.11975592  0.45188167  1
  Ti  Ti38  1  0.38745808  0.13281127  0.86065041  1
  Ti  Ti39  1  0.41190377  0.52308482  0.18098304  1
  Ti  Ti40  1  0.36800448  0.49474329  0.56962051  1
  Ti  Ti41  1  0.31680259  0.43485070  0.85352467  1
  Ti  Ti42  1  0.33821873  0.81147899  0.21159909  1
  Ti  Ti43  1  0.30794506  0.90968724  0.48559380  1
  Ti  Ti44  1  0.36131588  0.78696436  0.81195202  1
  Ti  Ti45  1  0.64968601  0.16904089  0.17426951  1
  Ti  Ti46  1  0.67627714  0.22068618  0.48395653  1
  Ti  Ti47  1  0.59575623  0.17777190  0.82852607  1
  Ti  Ti48  1  0.64070540  0.47701272  0.17084409  1
  Ti  Ti49  1  0.66415268  0.56327710  0.50598687  1
  Ti  Ti50  1  0.60026808  0.44767562  0.84458038  1
  Ti  Ti51  1  0.72194116  0.87159730  0.14376970  1
  Ti  Ti52  1  0.72706110  0.77696551  0.55548811  1
  Ti  Ti53  1  0.69183213  0.72167067  0.87074755  1
  Ti  Ti54  1  0.27001458  -0.01964187  0.12277077  1
  Ti  Ti55  1  0.10002666  0.02201175  0.52028261  1
  Ti  Ti56  1  0.19972740  0.09466104  0.79972115  1
  Ti  Ti57  1  0.16556837  0.29930270  0.21157249  1
  Ti  Ti58  1  0.27052018  0.35103823  0.50136688  1
  Ti  Ti59  1  0.17121604  0.31929252  0.83204977  1
  Ti  Ti60  1  0.12878094  0.67759908  0.13310614  1
  Ti  Ti61  1  0.17709802  0.67019702  0.47093396  1
  Ti  Ti62  1  0.19134024  0.69103501  0.80074339  1
  Ti  Ti63  1  0.49771637  0.02230706  0.09535314  1
  Ti  Ti64  1  0.50881850  -0.00872480  0.55431448  1
  Ti  Ti65  1  0.59556703  -0.07362631  0.88084558  1
  Ti  Ti66  1  0.50728360  0.30943560  0.19031995  1
  Ti  Ti67  1  0.50340900  0.34334781  0.49046582  1
  Ti  Ti68  1  0.46815715  0.31994400  0.85845743  1
  Ti  Ti69  1  0.52495672  0.79980283  0.19593631  1
  Ti  Ti70  1  0.55587775  0.72000707  0.42488231  1
  Ti  Ti71  1  0.51472646  0.64450810  0.81640642  1
  Ti  Ti72  1  0.81533299  0.06347688  0.14689602  1
  Ti  Ti73  1  0.87502593  -0.05258650  0.51417154  1
  Ti  Ti74  1  0.78048881  -0.07843444  0.88091730  1
  Ti  Ti75  1  0.87063902  0.25565861  0.16989323  1
  Ti  Ti76  1  0.81669738  0.36268320  0.46545818  1
  Ti  Ti77  1  0.90075506  0.36753137  0.77699813  1
  Ti  Ti78  1  0.90513730  0.69638596  0.17223951  1
  Ti  Ti79  1  0.84683706  0.62439122  0.48628442  1
  Ti  Ti80  1  0.84886311  0.56851855  0.78656547  1
  Ti  Ti81  1  0.13229586  0.12747592  0.06158413  1
  Ti  Ti82  1  0.13600392  0.12978255  0.33602102  1
  Ti  Ti83  1  0.23056668  0.22294316  0.64244196  1
  Ti  Ti84  1  0.14990889  0.57304870  -0.03306351  1
  Ti  Ti85  1  0.17451173  0.51988566  0.28706968  1
  Ti  Ti86  1  0.15982632  0.51680269  0.63210883  1
  Ti  Ti87  1  0.10383983  0.81498141  -0.06365913  1
  Ti  Ti88  1  0.19433202  0.83080742  0.31916335  1
  Ti  Ti89  1  0.18975234  0.90262070  0.65436068  1
  Ti  Ti90  1  0.51620101  0.21218930  0.02467823  1
  Ti  Ti91  1  0.48379856  0.11944925  0.26884642  1
  Ti  Ti92  1  0.45271058  0.16684977  0.67304182  1
  Ti  Ti93  1  0.45623297  0.52012474  -0.03557668  1
  Ti  Ti94  1  0.52060581  0.55220080  0.34760880  1
  Ti  Ti95  1  0.57149737  0.47630657  0.64870085  1
  Ti  Ti96  1  0.38936922  0.84059479  0.02374203  1
  Ti  Ti97  1  0.46179671  0.86557998  0.38305249  1
  Ti  Ti98  1  0.51807505  0.86219687  0.71906381  1
  Ti  Ti99  1  0.92341015  0.22899990  -0.02829821  1
  Ti  Ti100  1  0.83553702  0.13280746  0.44174850  1
  Ti  Ti101  1  0.81028604  0.09933788  0.64062922  1
  Ti  Ti102  1  0.75121804  0.54049912  -0.06216415  1
  Ti  Ti103  1  0.82848818  0.50614128  0.33738607  1
  Ti  Ti104  1  0.80778445  0.47141331  0.61939284  1
  Ti  Ti105  1  0.84810691  0.79537621  0.01336036  1
  Ti  Ti106  1  0.78894863  0.83684919  0.37705609  1
  Ti  Ti107  1  0.80661397  0.90851972  0.69429910  1
  Co  Co108  1  0.38294349  0.23390557  0.54408178  1
  Co  Co109  1  0.67233257  0.31936665  0.11074868  1
  Co  Co110  1  0.50856495  0.79245616  0.89683772  1
  Co  Co111  1  0.26634368  0.41784807  0.16612299  1
  Co  Co112  1  0.55120813  0.88960753  0.04173478  1
  Co  Co113  1  0.79004247  0.56797442  0.19188831  1
  Co  Co114  1  0.67013359  0.83429312  0.74895795  1
  Co  Co115  1  0.33803418  0.27115354  0.94568115  1
  Co  Co116  1  0.68602417  0.83522033  0.99145056  1
  Co  Co117  1  0.85872778  0.68953365  0.89136455  1
  Co  Co118  1  0.88249384  0.79670919  0.59955684  1
  Co  Co119  1  0.24175311  0.38972710  0.69049296  1
  Co  Co120  1  0.23991863  0.44672235  0.99847920  1
  Co  Co121  1  0.84837611  0.59280792  0.04741880  1
  Co  Co122  1  0.94739783  0.38199937  0.58874560  1
  Co  Co123  1  0.25213731  0.77667427  0.95820649  1
  Co  Co124  1  0.14417460  0.97958999  0.23298546  1
  Co  Co125  1  0.60509168  0.58037108  0.95984932  1
  Co  Co126  1  0.38079501  0.87378735  0.62448699  1
  Co  Co127  1  0.52890467  0.82475469  0.55714267  1
  Co  Co128  1  0.23847865  0.14835185  0.94636796  1
  Co  Co129  1  0.31264666  0.25493118  0.78292686  1
  Co  Co130  1  0.73715553  0.19445216  0.89934736  1
  Co  Co131  1  0.96568570  0.52586962  0.65917621  1
  Co  Co132  1  0.44860988  0.02586472  0.40400195  1
  Co  Co133  1  0.11377788  0.45727911  0.12719720  1
  Co  Co134  1  0.81765062  0.39991831  0.22006029  1
  Co  Co135  1  0.87027739  0.20337555  0.79703110  1
  Co  Co136  1  0.84078303  0.25568152  0.58804172  1
  Co  Co137  1  0.24075511  0.67579294  0.26976943  1
  Co  Co138  1  0.61841210  0.30109481  0.94347583  1
  Co  Co139  1  0.20084181  0.29121306  0.04141744  1
  Co  Co140  1  0.19077893  0.82694972  0.13048921  1
  Co  Co141  1  0.86675069  0.28247646  0.33653468  1
  Co  Co142  1  0.70916568  0.69188051  0.40066025  1
  Co  Co143  1  0.40211180  0.68058700  0.12117004  1
  Co  Co144  1  0.66061042  0.91402246  0.60406660  1
  Co  Co145  1  0.85124914  0.08707455  0.94974799  1
  Co  Co146  1  0.68358388  0.57560194  0.75796646  1
  Co  Co147  1  0.90543440  1.00215463  0.81375396  1
  Co  Co148  1  0.76008593  0.07236262  0.80555601  1
  Co  Co149  1  0.63215763  0.88318019  0.45246462  1
  Co  Co150  1  0.80059782  0.63579487  0.63329254  1
  Co  Co151  1  0.22484658  0.87708155  0.81203505  1
  Co  Co152  1  0.89735409  0.12128553  0.28668950  1
  Co  Co153  1  0.70294103  0.04149589  0.52029490  1
  Co  Co154  1  0.74062397  0.15992917  0.30653909  1
  Co  Co155  1  0.77423814  0.44339105  0.07424223  1
  Co  Co156  1  0.43134519  0.68369010  0.28131112  1
  Co  Co157  1  0.80285192  0.74604743  0.74556832  1
  Co  Co158  1  0.25181189  0.57128797  0.12542728  1
  Co  Co159  1  0.19572849  0.51952020  0.80227591  1
  Co  Co160  1  0.76644697  0.19763273  0.05206001  1
  Co  Co161  1  0.72223697  0.68767213  0.06510932  1
  Ni  Ni162  1  0.63986783  0.86032943  0.29731884  1
  Ni  Ni163  1  0.56820542  0.30707148  0.70291701  1
  Ni  Ni164  1  0.24108563  0.25250957  0.37181653  1
  Ni  Ni165  1  0.42027097  0.93784905  0.88504022  1
  Ni  Ni166  1  0.07746702  0.96376715  0.83443312  1
  Ni  Ni167  1  0.03224460  0.68163980  0.84635819  1
  Ni  Ni168  1  0.85500595  0.68442295  0.32220801  1
  Ni  Ni169  1  0.00054628  0.12543943  0.41956087  1
  Ni  Ni170  1  0.22323550  0.50508347  0.45510586  1
  Ni  Ni171  1  0.09502097  0.85279576  0.44515571  1
  Ni  Ni172  1  0.44483718  0.72078997  0.66091686  1
  Ni  Ni173  1  0.49665309  0.03332361  0.77064509  1
  Ni  Ni174  1  0.96046347  0.10855888  0.57326473  1
  Ni  Ni175  1  0.49187597  0.60720469  0.53956703  1
  Ni  Ni176  1  0.52595249  0.06621972  0.93500833  1
  Ni  Ni177  1  0.54858412  0.62274497  0.17627972  1
  Ni  Ni178  1  0.64987394  0.41432229  0.43461784  1
  Ni  Ni179  1  0.35165519  0.60440444  0.83406531  1
  Ni  Ni180  1  0.13067932  0.37615107  0.38765430  1
  Ni  Ni181  1  1.03191407  0.27990927  0.10685412  1
  Ni  Ni182  1  0.18719976  0.98191361  0.39417358  1
  Ni  Ni183  1  0.00818328  0.79926974  0.06315951  1
  Ni  Ni184  1  0.45990019  0.95020042  0.23847015  1
  Ni  Ni185  1  0.08738847  0.22057591  0.93343540  1
  Ni  Ni186  1  0.67774586  0.36038114  0.58653397  1
  Ni  Ni187  1  0.57580386  0.22792310  0.35158963  1
  Ni  Ni188  1  0.10035744  -0.04851391  0.07195903  1
  Ni  Ni189  1  0.54522503  0.40792865  0.04716527  1
  Ni  Ni190  1  0.26839911  0.06186054  0.60491677  1
  Ni  Ni191  1  0.77700263  0.98138508  0.28570433  1
  Ni  Ni192  1  0.12522366  0.68852823  0.63054156  1
  Ni  Ni193  1  0.26366132  0.76151437  0.60060426  1
  Ni  Ni194  1  0.01944514  0.23969286  0.27966195  1
  Ni  Ni195  1  0.91067646  0.45463923  0.93449743  1
  Ni  Ni196  1  0.73361118  0.41768591  0.75694585  1
  Ni  Ni197  1  0.35015082  0.20704544  0.26510354  1
  Ni  Ni198  1  0.22198407  0.12637792  0.20307033  1
  Ni  Ni199  1  0.08242896  0.81291518  0.75128486  1
  Ni  Ni200  1  0.95238276  0.81717738  0.35877176  1
  Ni  Ni201  1  0.39288075  0.75455519  0.50443271  1
  Ni  Ni202  1  0.01456677  0.56358822  0.21214085  1
  Ni  Ni203  1  0.62724428  -0.00153691  0.19472277  1
  Ni  Ni204  1  0.61020808  0.15834490  0.61920187  1
  Ni  Ni205  1  0.90625321  0.92676394  0.11753763  1
  Ni  Ni206  1  0.10617996  0.09894991  0.66564776  1
  Ni  Ni207  1  0.04073386  0.84579146  0.59544687  1
  Ni  Ni208  1  0.67656724  0.54620764  0.32644662  1
  Ni  Ni209  1  0.97622713  0.57313673  0.37404235  1
  Ni  Ni210  1  0.36942086  0.05125482  0.00066423  1
  Ni  Ni211  1  0.06814863  0.39302295  0.71251783  1
  Ni  Ni212  1  0.45106832  0.48895635  0.76729358  1
  Ni  Ni213  1  0.52400162  0.39227792  0.32637875  1
  Ni  Ni214  1  0.39543007  0.46844196  0.41500640  1
  Ni  Ni215  1  0.11745461  0.34582470  0.56470266  1
