# generated using pymatgen
data_Ti2CoNi
_symmetry_space_group_name_H-M   'P 1'
_cell_length_a   14.63958452
_cell_length_b   14.65484954
_cell_length_c   14.62613746
_cell_angle_alpha   89.80878039
_cell_angle_beta   90.15550297
_cell_angle_gamma   89.94234598
_symmetry_Int_Tables_number   1
_chemical_formula_structural   Ti2CoNi
_chemical_formula_sum   'Ti108 Co54 Ni54'
_cell_volume   3137.87416744
_cell_formula_units_Z   54
loop_
 _symmetry_equiv_pos_site_id
 _symmetry_equiv_pos_as_xyz
  1  'x, y, z'
loop_
 _atom_site_type_symbol
 _atom_site_label
 _atom_site_symmetry_multiplicity
 _atom_site_fract_x
 _atom_site_fract_y
 _atom_site_fract_z
 _atom_site_occupancy
  Ti  Ti0  1  -0.00690805  -0.02125482  -0.05638644  1
  Ti  Ti1  1  -0.06540426  0.00129751  0.25686490  1
  Ti  Ti2  1  -0.06825715  -0.07969071  0.60852776  1
  Ti  Ti3  1  0.01632944  0.31525385  -0.04269664  1
  Ti  Ti4  1  -0.06779588  0.38911677  0.42565958  1
  Ti  Ti5  1  -0.01050706  0.31662352  0.71420459  1
  Ti  Ti6  1  -0.03391278  0.69949341  -0.01142684  1
  Ti  Ti7  1  0.02482872  0.65276522  0.30938548  1
  Ti  Ti8  1  0.03013072  0.63804857  0.67136525  1
  Ti  Ti9  1  0.27300451  -0.03795290  -0.04683064  1
  Ti  Ti10  1  0.37522883  0.07193157  0.37205630  1
  Ti  Ti11  1  0.30730635  -0.05138705  0.72080103  1
  Ti  Ti12  1  0.34255616  0.27967007  0.03591115  1
  Ti  Ti13  1  0.33104125  0.37019180  0.29558926  1
  Ti  Ti14  1  0.35374634  0.38735704  0.63828633  1
  Ti  Ti15  1  0.35920558  0.73886889  0.00660117  1
  Ti  Ti16  1  0.31072781  0.71845568  0.34877417  1
  Ti  Ti17  1  0.32036650  0.65448776  0.64905021  1
  Ti  Ti18  1  0.66277663  0.02058975  -0.13369364  1
  Ti  Ti19  1  0.75719811  0.03662573  0.32884057  1
  Ti  Ti20  1  0.64685590  -0.04649807  0.59324079  1
  Ti  Ti21  1  0.66756146  0.42919657  0.02597580  1
  Ti  Ti22  1  0.63906797  0.34690384  0.29785395  1
  Ti  Ti23  1  0.64964232  0.23773550  0.69562028  1
  Ti  Ti24  1  0.66578181  0.61223154  -0.05197616  1
  Ti  Ti25  1  0.63508189  0.65186348  0.32263281  1
  Ti  Ti26  1  0.61511768  0.61837248  0.66851556  1
  Ti  Ti27  1  0.02859141  0.11245971  0.12435441  1
  Ti  Ti28  1  0.05313225  0.17737108  0.48066922  1
  Ti  Ti29  1  0.01487673  0.14894133  0.85184387  1
  Ti  Ti30  1  -0.07789257  0.41368041  0.22765771  1
  Ti  Ti31  1  0.03659555  0.57383051  0.50243850  1
  Ti  Ti32  1  -0.00326320  0.50725450  0.92856236  1
  Ti  Ti33  1  0.05118254  0.90092647  0.12087493  1
  Ti  Ti34  1  -0.04696191  0.75971133  0.49780829  1
  Ti  Ti35  1  0.02218614  0.82208811  0.80617606  1
  Ti  Ti36  1  0.31707813  0.12003830  0.17097324  1
  Ti  Ti37  1  0.35605400  0.20510611  0.51317804  1
  Ti  Ti38  1  0.28608501  0.15361147  0.84097172  1
  Ti  Ti39  1  0.36279502  0.54726532  0.09897463  1
  Ti  Ti40  1  0.34069579  0.52438113  0.45519843  1
  Ti  Ti41  1  0.33440527  0.50395174  0.79331117  1
  Ti  Ti42  1  0.40048159  0.84962207  0.20152993  1
  Ti  Ti43  1  0.33476566  0.86799694  0.46816766  1
  Ti  Ti44  1  0.23245538  0.80251632  0.83180499  1
  Ti  Ti45  1  0.63968487  0.19685320  0.14124677  1
  Ti  Ti46  1  0.68445917  0.12586217  0.51630148  1
  Ti  Ti47  1  0.71865040  0.20028203  0.86296696  1
  Ti  Ti48  1  0.58915961  0.55873958  0.14284913  1
  Ti  Ti49  1  0.61996344  0.51864557  0.49186038  1
  Ti  Ti50  1  0.67314150  0.45299523  0.79554159  1
  Ti  Ti51  1  0.67641039  0.77815986  0.12120317  1
  Ti  Ti52  1  0.67063803  0.82130832  0.43196122  1
  Ti  Ti53  1  0.63917217  0.74994330  0.79752632  1
  Ti  Ti54  1  0.19771621  -0.00666792  0.23034894  1
  Ti  Ti55  1  0.22017676  0.04847933  0.49917258  1
  Ti  Ti56  1  0.15004219  0.07739129  0.71125438  1
  Ti  Ti57  1  0.10518861  0.32999553  0.16433835  1
  Ti  Ti58  1  0.20073692  0.28049442  0.42411692  1
  Ti  Ti59  1  0.16515435  0.39521574  0.84406898  1
  Ti  Ti60  1  0.18690173  0.61092311  0.18359064  1
  Ti  Ti61  1  0.17073649  0.72698966  0.52120057  1
  Ti  Ti62  1  0.12468021  0.63247828  0.86639890  1
  Ti  Ti63  1  0.60045034  -0.05184090  0.20646449  1
  Ti  Ti64  1  0.43199489  0.01953679  0.56661720  1
  Ti  Ti65  1  0.45499229  0.04006917  0.90162450  1
  Ti  Ti66  1  0.45923619  0.25122218  0.20409834  1
  Ti  Ti67  1  0.52915219  0.28661155  0.53799323  1
  Ti  Ti68  1  0.46273906  0.25031712  0.88344698  1
  Ti  Ti69  1  0.45287882  0.65675395  0.23604325  1
  Ti  Ti70  1  0.52365403  0.72013565  0.51660338  1
  Ti  Ti71  1  0.46741288  0.70501020  0.85347736  1
  Ti  Ti72  1  0.83182193  -0.01226741  0.07218787  1
  Ti  Ti73  1  0.89538023  0.06473219  0.45505649  1
  Ti  Ti74  1  0.83777017  -0.07342309  0.78112131  1
  Ti  Ti75  1  0.79062710  0.30533149  0.14959326  1
  Ti  Ti76  1  0.77177491  0.34386810  0.53676107  1
  Ti  Ti77  1  0.80605552  0.36770905  0.93359808  1
  Ti  Ti78  1  0.85841012  0.72149284  0.19459507  1
  Ti  Ti79  1  0.80942601  0.62858188  0.53901415  1
  Ti  Ti80  1  0.81833042  0.71534902  0.84264433  1
  Ti  Ti81  1  0.16400510  0.20003937  0.01452249  1
  Ti  Ti82  1  0.13998520  0.17220332  0.27948697  1
  Ti  Ti83  1  0.21005131  0.25462247  0.65974489  1
  Ti  Ti84  1  0.18052340  0.46053792  0.02814271  1
  Ti  Ti85  1  0.17147822  0.47121214  0.34170579  1
  Ti  Ti86  1  0.13551847  0.44467014  0.64881715  1
  Ti  Ti87  1  0.15774446  0.74770255  0.02956132  1
  Ti  Ti88  1  0.17341715  0.79916721  0.25259544  1
  Ti  Ti89  1  0.13234031  0.89768226  0.61900277  1
  Ti  Ti90  1  0.49810104  0.09128216  0.08063609  1
  Ti  Ti91  1  0.57568749  0.12185762  0.31388691  1
  Ti  Ti92  1  0.43337533  0.22177320  0.69708409  1
  Ti  Ti93  1  0.49454346  0.44557141  -0.02686607  1
  Ti  Ti94  1  0.48174715  0.46791782  0.27180286  1
  Ti  Ti95  1  0.51146353  0.46510059  0.67664491  1
  Ti  Ti96  1  0.50089435  0.89118665  0.02579754  1
  Ti  Ti97  1  0.49898758  0.92268002  0.37607599  1
  Ti  Ti98  1  0.50811935  0.93114900  0.73458831  1
  Ti  Ti99  1  0.87115263  0.18318326  0.00415409  1
  Ti  Ti100  1  0.91857518  0.21361604  0.30899560  1
  Ti  Ti101  1  0.85215033  0.12433359  0.73721071  1
  Ti  Ti102  1  0.84385014  0.52658901  0.04951047  1
  Ti  Ti103  1  0.80501821  0.55075121  0.28706874  1
  Ti  Ti104  1  0.87723747  0.50223433  0.69317752  1
  Ti  Ti105  1  0.72414588  0.85360664  -0.05438108  1
  Ti  Ti106  1  0.83980674  0.85263607  0.34783301  1
  Ti  Ti107  1  0.76717074  0.79897331  0.62927528  1
  Co  Co108  1  0.92993463  0.08954738  0.60439851  1
  Co  Co109  1  0.50974068  0.61749343  0.01872708  1
  Co  Co110  1  0.55122243  0.10887910  0.63063805  1
  Co  Co111  1  0.45404374  1.03028481  0.23345012  1
  Co  Co112  1  0.03870301  0.17465094  0.66869411  1
  Co  Co113  1  0.51609973  0.12137482  0.46747433  1
  Co  Co114  1  0.51869643  0.28203505  0.04002388  1
  Co  Co115  1  0.58330983  0.75304680  0.96984537  1
  Co  Co116  1  0.58020563  0.15723681  0.95479794  1
  Co  Co117  1  0.64947743  0.95929350  0.04813916  1
  Co  Co118  1  0.80441309  0.21374233  0.42986973  1
  Co  Co119  1  0.14771966  0.07706391  0.90981784  1
  Co  Co120  1  0.08373197  0.30406992  0.57324688  1
  Co  Co121  1  0.56134528  0.13259083  0.79304004  1
  Co  Co122  1  0.71393109  0.05864243  0.17757801  1
  Co  Co123  1  0.06945055  0.92355917  0.29386881  1
  Co  Co124  1  0.04513953  0.49697346  0.76932932  1
  Co  Co125  1  0.24255167  0.44573681  0.17668164  1
  Co  Co126  1  0.57744290  0.38115639  0.15006769  1
  Co  Co127  1  0.31024217  0.20862345  0.32489398  1
  Co  Co128  1  0.23825825  0.61240230  -0.00727774  1
  Co  Co129  1  0.69832111  0.07482925  0.70441314  1
  Co  Co130  1  0.38592958  0.57269732  0.93254290  1
  Co  Co131  1  0.68295902  0.90008195  0.75343751  1
  Co  Co132  1  0.69515834  0.26910556  1.01032077  1
  Co  Co133  1  0.16542051  0.03260658  0.06950369  1
  Co  Co134  1  0.32365261  -0.07441497  0.30969034  1
  Co  Co135  1  0.06180726  1.02302471  0.54750739  1
  Co  Co136  1  0.41659812  0.06986786  0.74926233  1
  Co  Co137  1  0.46515672  0.40031368  0.81559595  1
  Co  Co138  1  0.54642237  0.56210681  0.82876433  1
  Co  Co139  1  0.79794776  0.35849738  0.32816689  1
  Co  Co140  1  0.94109948  0.58033711  0.16229570  1
  Co  Co141  1  0.19151385  0.91544510  0.40674835  1
  Co  Co142  1  0.08837726  0.78780029  0.39868225  1
  Co  Co143  1  0.97528668  0.91401764  0.43264846  1
  Co  Co144  1  0.33053304  0.11700074  0.99836618  1
  Co  Co145  1  0.56433137  0.88341031  0.87778974  1
  Co  Co146  1  0.77513672  0.89831755  0.19633036  1
  Co  Co147  1  0.07492217  0.59025785  1.05246379  1
  Co  Co148  1  0.29810319  0.66271640  0.83195974  1
  Co  Co149  1  0.30428672  0.71568393  0.15698938  1
  Co  Co150  1  0.97547755  0.80740865  0.27382128  1
  Co  Co151  1  0.41290339  0.39508327  0.12385267  1
  Co  Co152  1  0.61189300  0.33104436  0.88529413  1
  Co  Co153  1  0.12651225  0.89332221  0.96390167  1
  Co  Co154  1  0.14293091  0.23700424  0.82038637  1
  Co  Co155  1  0.92807674  0.25747655  0.53670479  1
  Co  Co156  1  0.96435196  0.42197089  0.58521154  1
  Co  Co157  1  0.63843126  0.25097750  0.42240009  1
  Co  Co158  1  0.73821758  0.20124340  0.28196317  1
  Co  Co159  1  0.73139885  0.50118917  0.61851861  1
  Co  Co160  1  0.63585341  0.38127162  0.62776948  1
  Co  Co161  1  0.79940968  0.19154989  0.60165768  1
  Ni  Ni162  1  0.31594170  0.32150353  0.79745481  1
  Ni  Ni163  1  0.44574238  0.84970250  0.59644767  1
  Ni  Ni164  1  0.46725185  0.75998967  0.37196053  1
  Ni  Ni165  1  0.88332045  0.25255687  0.84345447  1
  Ni  Ni166  1  0.14512218  0.94374978  0.80654477  1
  Ni  Ni167  1  0.90949242  0.58406091  0.40931318  1
  Ni  Ni168  1  0.78018588  0.48733067  0.44549489  1
  Ni  Ni169  1  0.47259228  0.25611594  0.36933940  1
  Ni  Ni170  1  0.17928068  0.62863230  0.38341346  1
  Ni  Ni171  1  0.52514074  0.41111170  0.41840130  1
  Ni  Ni172  1  0.03281462  0.72344962  0.14602465  1
  Ni  Ni173  1  0.89288218  0.84379875  0.92373215  1
  Ni  Ni174  1  0.20273440  0.55950821  0.54568569  1
  Ni  Ni175  1  -0.00578804  0.43291283  0.07709002  1
  Ni  Ni176  1  0.99699087  1.00578300  0.74575734  1
  Ni  Ni177  1  0.27959464  0.81761043  0.61603122  1
  Ni  Ni178  1  0.23830167  0.87255717  0.10308214  1
  Ni  Ni179  1  0.19105611  0.58112844  0.72573545  1
  Ni  Ni180  1  0.91500043  0.41026965  0.82534905  1
  Ni  Ni181  1  0.85690805  0.13776067  0.17149377  1
  Ni  Ni182  1  0.14901604  0.74832659  0.70263230  1
  Ni  Ni183  1  0.37888748  0.35774109  0.45938671  1
  Ni  Ni184  1  0.73961294  0.61415396  0.13663361  1
  Ni  Ni185  1  0.91336841  0.75439156  0.69050356  1
  Ni  Ni186  1  0.32578771  0.41681098  0.94176563  1
  Ni  Ni187  1  0.50922761  0.74894470  0.11567270  1
  Ni  Ni188  1  0.39391734  0.87491620  0.87641899  1
  Ni  Ni189  1  0.84498646  0.05921230  0.89623507  1
  Ni  Ni190  1  0.07403445  0.49261822  0.20816509  1
  Ni  Ni191  1  0.72839494  0.45160582  0.18759588  1
  Ni  Ni192  1  0.95433658  0.27400099  0.12034996  1
  Ni  Ni193  1  0.80286117  0.71446271  0.01813291  1
  Ni  Ni194  1  0.57637503  0.79714007  0.26409301  1
  Ni  Ni195  1  0.90131981  0.83840313  0.08668267  1
  Ni  Ni196  1  0.05826768  0.32168683  0.32995084  1
  Ni  Ni197  1  0.63546637  0.99010650  0.42780372  1
  Ni  Ni198  1  0.79274847  0.33434763  0.71956557  1
  Ni  Ni199  1  0.08997589  0.42429317  0.47134854  1
  Ni  Ni200  1  0.23949143  0.39694794  0.52526988  1
  Ni  Ni201  1  0.07697844  0.05148430  0.37997322  1
  Ni  Ni202  1  0.36270829  -0.02123334  0.09772670  1
  Ni  Ni203  1  0.38090812  0.78837810  0.73810303  1
  Ni  Ni204  1  0.59890164  0.80011382  0.64063735  1
  Ni  Ni205  1  0.94875906  0.62672998  0.81679206  1
  Ni  Ni206  1  0.45520586  0.57693163  0.56673435  1
  Ni  Ni207  1  0.31994125  0.55606561  0.28627204  1
  Ni  Ni208  1  0.79783115  0.92295771  0.49767452  1
  Ni  Ni209  1  0.72326019  0.10384766  0.01405047  1
  Ni  Ni210  1  0.77598781  0.63544198  0.70966671  1
  Ni  Ni211  1  0.78957090  0.69720827  0.38391933  1
  Ni  Ni212  1  0.80804163  0.53696839  0.87504931  1
  Ni  Ni213  1  0.48257908  0.59052365  0.39921421  1
  Ni  Ni214  1  0.30002434  0.10907594  0.64223324  1
  Ni  Ni215  1  0.25673691  0.27360734  0.17947161  1
