# generated using pymatgen
data_Ti2CoNi
_symmetry_space_group_name_H-M   'P 1'
_cell_length_a   14.62650066
_cell_length_b   14.67095030
_cell_length_c   14.66443216
_cell_angle_alpha   89.95877321
_cell_angle_beta   89.80944416
_cell_angle_gamma   90.06187196
_symmetry_Int_Tables_number   1
_chemical_formula_structural   Ti2CoNi
_chemical_formula_sum   'Ti108 Co54 Ni54'
_cell_volume   3146.74219027
_cell_formula_units_Z   54
loop_
 _symmetry_equiv_pos_site_id
 _symmetry_equiv_pos_as_xyz
  1  'x, y, z'
loop_
 _atom_site_type_symbol
 _atom_site_label
 _atom_site_symmetry_multiplicity
 _atom_site_fract_x
 _atom_site_fract_y
 _atom_site_fract_z
 _atom_site_occupancy
  Ti  Ti0  1  -0.02470128  0.01853490  0.06813423  1
  Ti  Ti1  1  0.02156667  0.01719095  0.37112599  1
  Ti  Ti2  1  -0.00455128  -0.06177316  0.66931839  1
  Ti  Ti3  1  -0.01558166  0.30667889  -0.01024082  1
  Ti  Ti4  1  0.00365352  0.34117808  0.37646099  1
  Ti  Ti5  1  0.07458407  0.33230030  0.72564980  1
  Ti  Ti6  1  -0.07397775  0.71326284  0.05254017  1
  Ti  Ti7  1  -0.00124341  0.71423305  0.38963190  1
  Ti  Ti8  1  -0.08665974  0.66470833  0.60882761  1
  Ti  Ti9  1  0.40544930  0.01146729  -0.00109315  1
  Ti  Ti10  1  0.32211439  -0.01138405  0.32016409  1
  Ti  Ti11  1  0.38795765  0.05300843  0.64287398  1
  Ti  Ti12  1  0.31015109  0.33009754  0.04350689  1
  Ti  Ti13  1  0.36339587  0.32532179  0.25364294  1
  Ti  Ti14  1  0.27252640  0.32777007  0.73012155  1
  Ti  Ti15  1  0.36771309  0.59869113  0.01645240  1
  Ti  Ti16  1  0.28340059  0.62717969  0.32068533  1
  Ti  Ti17  1  0.36569837  0.71501185  0.66937034  1
  Ti  Ti18  1  0.70171667  0.00354017  0.00609031  1
  Ti  Ti19  1  0.64353827  -0.04100668  0.35497622  1
  Ti  Ti20  1  0.69498839  0.00254692  0.67680201  1
  Ti  Ti21  1  0.57046553  0.35523697  -0.04377579  1
  Ti  Ti22  1  0.61487661  0.38109415  0.28352330  1
  Ti  Ti23  1  0.63674678  0.36545825  0.63089920  1
  Ti  Ti24  1  0.74073137  0.76742694  -0.02910206  1
  Ti  Ti25  1  0.64056190  0.71299150  0.39398172  1
  Ti  Ti26  1  0.60510887  0.67222654  0.64720938  1
  Ti  Ti27  1  0.05532426  0.22700977  0.14981247  1
  Ti  Ti28  1  -0.04040779  0.17260885  0.46663876  1
  Ti  Ti29  1  0.02331698  0.18082654  0.85468104  1
  Ti  Ti30  1  0.04901739  0.49856465  0.08234449  1
  Ti  Ti31  1  0.04523319  0.42751770  0.53714754  1
  Ti  Ti32  1  0.00932739  0.48661241  0.83801125  1
  Ti  Ti33  1  0.06904496  0.80303694  0.14604209  1
  Ti  Ti34  1  -0.05576798  0.84113210  0.51295977  1
  Ti  Ti35  1  0.05521382  0.88244771  0.86124582  1
  Ti  Ti36  1  0.36431562  0.13658988  0.15635225  1
  Ti  Ti37  1  0.32352731  0.12775753  0.48214767  1
  Ti  Ti38  1  0.33640496  0.12167544  0.81003389  1
  Ti  Ti39  1  0.29608314  0.49185172  0.17175103  1
  Ti  Ti40  1  0.35254501  0.42539474  0.52682639  1
  Ti  Ti41  1  0.31541369  0.52443281  0.74433848  1
  Ti  Ti42  1  0.36114396  0.87929265  0.15897582  1
  Ti  Ti43  1  0.27596588  0.86612061  0.55900726  1
  Ti  Ti44  1  0.29546288  0.81495921  0.83397643  1
  Ti  Ti45  1  0.68715856  0.17862610  0.16905979  1
  Ti  Ti46  1  0.69057868  0.14218446  0.48142244  1
  Ti  Ti47  1  0.65933103  0.17261897  0.87360100  1
  Ti  Ti48  1  0.74153412  0.49703325  0.17783961  1
  Ti  Ti49  1  0.69586802  0.50872437  0.50127234  1
  Ti  Ti50  1  0.74068924  0.49418420  0.77883684  1
  Ti  Ti51  1  0.63154909  0.81159380  0.20836566  1
  Ti  Ti52  1  0.66140533  0.85098723  0.53801463  1
  Ti  Ti53  1  0.61342799  0.75496331  0.83073948  1
  Ti  Ti54  1  0.16589941  0.07573346  0.23998278  1
  Ti  Ti55  1  0.15873638  0.01401535  0.54550046  1
  Ti  Ti56  1  0.17205292  0.01550146  0.75288783  1
  Ti  Ti57  1  0.14419127  0.39170276  0.23225461  1
  Ti  Ti58  1  0.16936224  0.25441700  0.53084850  1
  Ti  Ti59  1  0.16674386  0.37529226  0.90138831  1
  Ti  Ti60  1  0.18817530  0.65363846  0.10827782  1
  Ti  Ti61  1  0.18038769  0.71325663  0.44890753  1
  Ti  Ti62  1  0.05691801  0.68175498  0.80976589  1
  Ti  Ti63  1  0.54728871  -0.02839299  0.12882954  1
  Ti  Ti64  1  0.53866011  0.01950125  0.51883853  1
  Ti  Ti65  1  0.46523045  -0.04222489  0.81431355  1
  Ti  Ti66  1  0.50416145  0.31161051  0.11964910  1
  Ti  Ti67  1  0.54355400  0.35249636  0.46551564  1
  Ti  Ti68  1  0.47774947  0.26641232  0.78295016  1
  Ti  Ti69  1  0.48938487  0.73545012  0.12808421  1
  Ti  Ti70  1  0.44392588  0.58963347  0.43457890  1
  Ti  Ti71  1  0.44251140  0.65137419  0.84373404  1
  Ti  Ti72  1  0.86348064  -0.00786777  0.24080534  1
  Ti  Ti73  1  0.82791907  -0.00836621  0.44729416  1
  Ti  Ti74  1  0.80503096  0.02245942  0.82458832  1
  Ti  Ti75  1  0.88698428  0.37495684  0.14254323  1
  Ti  Ti76  1  0.84449363  0.32851756  0.55477446  1
  Ti  Ti77  1  0.85133779  0.32688696  0.85565936  1
  Ti  Ti78  1  0.78549178  0.68956759  0.18478552  1
  Ti  Ti79  1  0.82822095  0.64317907  0.43100885  1
  Ti  Ti80  1  0.84154746  0.60162395  0.90639753  1
  Ti  Ti81  1  0.24998969  0.11019727  -0.00996523  1
  Ti  Ti82  1  0.20730878  0.25226029  0.33536234  1
  Ti  Ti83  1  0.06129787  0.14465711  0.65505520  1
  Ti  Ti84  1  0.18273000  0.57576466  -0.08728730  1
  Ti  Ti85  1  0.11781237  0.53159550  0.37028345  1
  Ti  Ti86  1  0.15426024  0.56794214  0.61996836  1
  Ti  Ti87  1  0.16648770  0.91174978  0.01210341  1
  Ti  Ti88  1  0.13384541  0.86090280  0.31989365  1
  Ti  Ti89  1  0.15186564  0.81734971  0.69400758  1
  Ti  Ti90  1  0.44968925  0.19243776  -0.03627899  1
  Ti  Ti91  1  0.49920438  0.18224005  0.40766737  1
  Ti  Ti92  1  0.49123017  0.22066698  0.59711617  1
  Ti  Ti93  1  0.58231897  0.54619749  0.00172721  1
  Ti  Ti94  1  0.46785579  0.51938318  0.23286570  1
  Ti  Ti95  1  0.51979353  0.50499763  0.72178313  1
  Ti  Ti96  1  0.45703044  0.81292179  -0.04467593  1
  Ti  Ti97  1  0.41765646  0.77798989  0.33114608  1
  Ti  Ti98  1  0.47150077  0.86262193  0.60250414  1
  Ti  Ti99  1  0.85336735  0.14616833  -0.04671365  1
  Ti  Ti100  1  0.88131450  0.20278398  0.27456145  1
  Ti  Ti101  1  0.86163342  0.10443280  0.62652578  1
  Ti  Ti102  1  0.75192106  0.44410955  -0.01196696  1
  Ti  Ti103  1  0.81663204  0.42270073  0.36850309  1
  Ti  Ti104  1  0.91176850  0.45478064  0.68575855  1
  Ti  Ti105  1  0.87338948  0.89109304  -0.02162116  1
  Ti  Ti106  1  0.79868160  0.83055908  0.30013441  1
  Ti  Ti107  1  0.79414530  0.80658584  0.73582455  1
  Co  Co108  1  0.69797930  0.98793811  0.20169799  1
  Co  Co109  1  0.97914775  0.01747344  0.53091265  1
  Co  Co110  1  0.73583800  0.21377861  0.61052291  1
  Co  Co111  1  0.51746848  0.12423038  0.10836712  1
  Co  Co112  1  0.69992446  0.33085893  0.47238343  1
  Co  Co113  1  0.15861997  0.47772036  0.76051419  1
  Co  Co114  1  0.27713681  0.57099552  0.48757984  1
  Co  Co115  1  0.06765396  0.75744482  -0.02516184  1
  Co  Co116  1  0.95074176  0.86815329  0.34047196  1
  Co  Co117  1  0.37486132  0.97066402  0.48477848  1
  Co  Co118  1  0.04064858  0.94763473  0.21274677  1
  Co  Co119  1  0.35135805  0.29251724  0.42560356  1
  Co  Co120  1  0.95751414  0.01643635  0.91227901  1
  Co  Co121  1  0.90256848  0.61239932  0.75851620  1
  Co  Co122  1  0.60869202  0.58152187  0.84013734  1
  Co  Co123  1  0.28007655  -0.02165103  0.86837203  1
  Co  Co124  1  0.40827835  0.39862443  0.79580965  1
  Co  Co125  1  0.91029489  0.85793998  0.15245966  1
  Co  Co126  1  0.49308336  0.90790142  0.26480377  1
  Co  Co127  1  0.91713555  0.74711575  0.88201479  1
  Co  Co128  1  0.22908281  0.70283553  0.60185331  1
  Co  Co129  1  0.81615184  0.24043284  0.41204268  1
  Co  Co130  1  0.98909642  0.09772069  0.21038215  1
  Co  Co131  1  0.17546072  0.38616568  0.43229909  1
  Co  Co132  1  0.42867559  0.44654087  0.05784813  1
  Co  Co133  1  0.35220775  0.72148925  0.48906625  1
  Co  Co134  1  0.75651853  0.86832903  0.11227719  1
  Co  Co135  1  0.31156731  0.45646694  0.91322984  1
  Co  Co136  1  0.77280062  0.32525930  0.24793135  1
  Co  Co137  1  0.12331385  0.06647758  0.08675526  1
  Co  Co138  1  0.31572536  0.88105168  0.99196899  1
  Co  Co139  1  0.61502403  0.20762705  0.02293948  1
  Co  Co140  1  0.58550423  0.08493487  0.26765108  1
  Co  Co141  1  0.21473029  0.48709150  0.04250877  1
  Co  Co142  1  0.20850720  0.41223881  0.60481135  1
  Co  Co143  1  0.73722862  0.66022284  0.76996955  1
  Co  Co144  1  0.75591333  0.72442538  0.58426408  1
  Co  Co145  1  -0.00086345  0.28038218  0.58209199  1
  Co  Co146  1  0.05344495  0.19348462  0.32680436  1
  Co  Co147  1  0.63237490  0.23764860  0.73111599  1
  Co  Co148  1  0.36748928  0.65190751  0.19068809  1
  Co  Co149  1  0.60021460  0.11473670  0.63577369  1
  Co  Co150  1  0.00879145  0.60228751  0.96027446  1
  Co  Co151  1  -0.03256361  0.06146517  0.76492328  1
  Co  Co152  1  0.68330997  0.34415742  0.11355431  1
  Co  Co153  1  0.46966654  0.02992964  0.36715947  1
  Co  Co154  1  0.11989648  1.04562732  0.90872996  1
  Co  Co155  1  0.31898671  0.74781949  0.07539854  1
  Co  Co156  1  0.27048430  1.00409544  0.12894569  1
  Co  Co157  1  0.90183172  0.89739046  0.81073240  1
  Co  Co158  1  0.10341303  0.87338023  0.47993795  1
  Co  Co159  1  0.78417075  0.17168581  0.76852924  1
  Co  Co160  1  -0.02830324  0.78221783  0.71502915  1
  Co  Co161  1  0.79435751  0.81038479  0.45124696  1
  Ni  Ni162  1  0.75267194  0.09591730  0.32620076  1
  Ni  Ni163  1  0.58439047  0.52112699  0.37948257  1
  Ni  Ni164  1  0.61324028  0.38959703  0.80737661  1
  Ni  Ni165  1  0.06569384  0.73975680  0.57632347  1
  Ni  Ni166  1  0.22494381  0.23500419  0.15355670  1
  Ni  Ni167  1  0.44337212  0.42213869  0.36540338  1
  Ni  Ni168  1  0.28072513  0.84569608  0.39589787  1
  Ni  Ni169  1  0.95182797  0.53000871  0.38231009  1
  Ni  Ni170  1  0.88150923  0.50081222  0.52526839  1
  Ni  Ni171  1  0.88309743  0.21229092  0.10546570  1
  Ni  Ni172  1  0.46946553  0.49890222  0.89647485  1
  Ni  Ni173  1  0.51528306  0.10763260  0.77331960  1
  Ni  Ni174  1  0.31027524  0.27163336  0.88817830  1
  Ni  Ni175  1  0.81536968  0.90439568  0.59855676  1
  Ni  Ni176  1  0.02982688  0.59262886  0.51069991  1
  Ni  Ni177  1  0.17321390  0.10347578  0.40763909  1
  Ni  Ni178  1  0.92337907  0.24029235  0.72199344  1
  Ni  Ni179  1  0.73683702  0.61433325  1.03948822  1
  Ni  Ni180  1  0.22601493  0.72864413  0.94912221  1
  Ni  Ni181  1  0.77699147  0.33613006  0.71535087  1
  Ni  Ni182  1  0.25551974  0.77355450  0.23616218  1
  Ni  Ni183  1  0.72517044  0.57740966  0.32142026  1
  Ni  Ni184  1  0.94764479  0.72297178  0.23383159  1
  Ni  Ni185  1  0.88200562  0.55225343  0.09724018  1
  Ni  Ni186  1  0.65634272  0.23252702  0.34053023  1
  Ni  Ni187  1  0.46480951  0.80187202  0.76703958  1
  Ni  Ni188  1  0.60834555  0.86377891  0.70400064  1
  Ni  Ni189  1  0.24017705  0.14498774  0.65211458  1
  Ni  Ni190  1  0.98805798  0.45009184  0.24829251  1
  Ni  Ni191  1  0.51756100  0.87015199  0.42975031  1
  Ni  Ni192  1  0.41245204  0.57977056  0.60405526  1
  Ni  Ni193  1  0.91839494  0.45531264  0.97206430  1
  Ni  Ni194  1  0.14108312  0.22331164  0.97199140  1
  Ni  Ni195  1  0.33471436  0.26578204  0.59184052  1
  Ni  Ni196  1  0.62471444  0.63348542  0.15835962  1
  Ni  Ni197  1  0.22616291  0.66730936  0.77201937  1
  Ni  Ni198  1  0.53667069  0.49483470  0.55090046  1
  Ni  Ni199  1  0.13282613  0.35179782  0.06979888  1
  Ni  Ni200  1  0.52574772  0.66294202  0.28427207  1
  Ni  Ni201  1  0.58109377  0.69977085  0.98631788  1
  Ni  Ni202  1  0.11860708  0.68541188  0.26977540  1
  Ni  Ni203  1  0.75945321  0.27670282  0.99130926  1
  Ni  Ni204  1  0.32829767  0.91373780  0.71090632  1
  Ni  Ni205  1  0.68883881  0.90478786  0.86109800  1
  Ni  Ni206  1  0.55548909  0.04775306  0.94104703  1
  Ni  Ni207  1  0.58015181  0.46137485  0.13549934  1
  Ni  Ni208  1  0.51798465  0.72344322  0.51244557  1
  Ni  Ni209  1  0.81232902  0.06720576  0.10616646  1
  Ni  Ni210  1  0.28654333  0.45760030  0.34423791  1
  Ni  Ni211  1  0.60611537  0.85930348  0.01531142  1
  Ni  Ni212  1  0.50930218  0.22629208  0.25355412  1
  Ni  Ni213  1  0.35468926  0.15915048  0.31730044  1
  Ni  Ni214  1  0.77336623  0.56789895  0.63525261  1
  Ni  Ni215  1  0.18086899  0.19843647  0.80477427  1
