# generated using pymatgen
data_Ti2CoNi
_symmetry_space_group_name_H-M   'P 1'
_cell_length_a   14.56790423
_cell_length_b   14.53893619
_cell_length_c   14.54174975
_cell_angle_alpha   90.03411059
_cell_angle_beta   89.98460789
_cell_angle_gamma   90.38952003
_symmetry_Int_Tables_number   1
_chemical_formula_structural   Ti2CoNi
_chemical_formula_sum   'Ti108 Co54 Ni54'
_cell_volume   3079.89738221
_cell_formula_units_Z   54
loop_
 _symmetry_equiv_pos_site_id
 _symmetry_equiv_pos_as_xyz
  1  'x, y, z'
loop_
 _atom_site_type_symbol
 _atom_site_label
 _atom_site_symmetry_multiplicity
 _atom_site_fract_x
 _atom_site_fract_y
 _atom_site_fract_z
 _atom_site_occupancy
  Ti  Ti0  1  -0.01595994  0.01886678  -0.08500691  1
  Ti  Ti1  1  0.09998037  0.00629863  0.33067291  1
  Ti  Ti2  1  0.04778995  0.01933475  0.62167631  1
  Ti  Ti3  1  -0.01820283  0.30188996  -0.01101847  1
  Ti  Ti4  1  -0.11266935  0.34532388  0.31991816  1
  Ti  Ti5  1  -0.10087327  0.27927326  0.67041904  1
  Ti  Ti6  1  0.01640606  0.69518788  0.04651846  1
  Ti  Ti7  1  -0.02279732  0.62469259  0.31348661  1
  Ti  Ti8  1  -0.00580823  0.59794216  0.75240434  1
  Ti  Ti9  1  0.34152496  -0.06042148  0.11612099  1
  Ti  Ti10  1  0.29867930  -0.03464551  0.35564182  1
  Ti  Ti11  1  0.39029466  -0.05399048  0.71603278  1
  Ti  Ti12  1  0.28806334  0.36403123  -0.04165874  1
  Ti  Ti13  1  0.31839788  0.28021084  0.29689623  1
  Ti  Ti14  1  0.38048466  0.38811978  0.67944489  1
  Ti  Ti15  1  0.32292848  0.67660018  -0.01554860  1
  Ti  Ti16  1  0.30995184  0.70279961  0.42201030  1
  Ti  Ti17  1  0.33094814  0.56229632  0.62831045  1
  Ti  Ti18  1  0.65750892  0.06418434  -0.00981423  1
  Ti  Ti19  1  0.70275336  0.05996157  0.27588376  1
  Ti  Ti20  1  0.61236967  -0.02047092  0.66150885  1
  Ti  Ti21  1  0.65457352  0.29780664  -0.05137618  1
  Ti  Ti22  1  0.69078192  0.30078334  0.35329323  1
  Ti  Ti23  1  0.67671291  0.24824020  0.62727457  1
  Ti  Ti24  1  0.62643692  0.70759045  -0.00135083  1
  Ti  Ti25  1  0.67601784  0.65656873  0.28841374  1
  Ti  Ti26  1  0.66923643  0.66307853  0.62761682  1
  Ti  Ti27  1  0.01832620  0.14848248  0.16573398  1
  Ti  Ti28  1  -0.03723085  0.15629150  0.53834711  1
  Ti  Ti29  1  -0.02860208  0.18620781  0.82117395  1
  Ti  Ti30  1  0.00464788  0.42164506  0.13455979  1
  Ti  Ti31  1  -0.00329295  0.52002207  0.57688601  1
  Ti  Ti32  1  -0.02022101  0.44760833  0.87078729  1
  Ti  Ti33  1  -0.01300080  0.84118657  0.18327839  1
  Ti  Ti34  1  -0.04614229  0.84047491  0.53294362  1
  Ti  Ti35  1  0.08455612  0.89504411  0.81823800  1
  Ti  Ti36  1  0.34581853  0.21000617  0.12560408  1
  Ti  Ti37  1  0.31769713  0.16235860  0.44007826  1
  Ti  Ti38  1  0.36220737  0.18478159  0.89070300  1
  Ti  Ti39  1  0.32481907  0.45182101  0.23341614  1
  Ti  Ti40  1  0.31813394  0.42594272  0.47266179  1
  Ti  Ti41  1  0.33746993  0.61706215  0.80030244  1
  Ti  Ti42  1  0.36311208  0.79914086  0.25373246  1
  Ti  Ti43  1  0.33336443  0.84626610  0.56262143  1
  Ti  Ti44  1  0.26081550  0.79830651  0.77143657  1
  Ti  Ti45  1  0.63216186  0.23204172  0.19283608  1
  Ti  Ti46  1  0.62705502  0.05211012  0.48693903  1
  Ti  Ti47  1  0.65650253  0.13871750  0.79855476  1
  Ti  Ti48  1  0.69522115  0.48616023  0.02095411  1
  Ti  Ti49  1  0.69399355  0.53932150  0.49733483  1
  Ti  Ti50  1  0.68010423  0.57232556  0.78698293  1
  Ti  Ti51  1  0.72186826  0.85523712  0.21910392  1
  Ti  Ti52  1  0.68764855  0.88664151  0.41069523  1
  Ti  Ti53  1  0.72592482  0.84134907  0.90686968  1
  Ti  Ti54  1  0.18642051  0.08855963  0.14151596  1
  Ti  Ti55  1  0.23144745  0.00938130  0.53738766  1
  Ti  Ti56  1  0.18242550  -0.04640965  0.98164106  1
  Ti  Ti57  1  0.16187582  0.29605049  0.14079602  1
  Ti  Ti58  1  0.08698874  0.40436901  0.42872923  1
  Ti  Ti59  1  0.21206149  0.30963621  0.78444507  1
  Ti  Ti60  1  0.18176735  0.55960653  0.13605799  1
  Ti  Ti61  1  0.13792326  0.72714596  0.52299370  1
  Ti  Ti62  1  0.09379821  0.69759050  0.87186471  1
  Ti  Ti63  1  0.53513435  -0.11775776  0.13257605  1
  Ti  Ti64  1  0.45480326  0.03144217  0.43738643  1
  Ti  Ti65  1  0.49548417  0.03476170  0.83964073  1
  Ti  Ti66  1  0.48355519  0.35002637  0.18499054  1
  Ti  Ti67  1  0.49658504  0.31299539  0.54528939  1
  Ti  Ti68  1  0.46321703  0.37005392  0.87372580  1
  Ti  Ti69  1  0.48331809  0.64398430  0.18315951  1
  Ti  Ti70  1  0.57664998  0.69394903  0.45721994  1
  Ti  Ti71  1  0.51010293  0.62800848  0.88908710  1
  Ti  Ti72  1  0.81501000  0.02336193  0.13700255  1
  Ti  Ti73  1  0.92541064  -0.00350220  0.44905312  1
  Ti  Ti74  1  0.86747325  -0.08546087  0.81174140  1
  Ti  Ti75  1  0.77283730  0.38324733  0.17282140  1
  Ti  Ti76  1  0.91595586  0.36377111  0.50818391  1
  Ti  Ti77  1  0.75695801  0.35980532  0.78504285  1
  Ti  Ti78  1  0.76563923  0.69537146  0.10905367  1
  Ti  Ti79  1  0.86533233  0.63692396  0.48512526  1
  Ti  Ti80  1  0.83503753  0.71204574  0.78582948  1
  Ti  Ti81  1  0.17070005  0.13554839  -0.12060943  1
  Ti  Ti82  1  0.13622009  0.20588613  0.32729986  1
  Ti  Ti83  1  0.17368429  0.17884578  0.64038697  1
  Ti  Ti84  1  0.18965966  0.52484342  -0.09196454  1
  Ti  Ti85  1  0.19064084  0.55117942  0.33664778  1
  Ti  Ti86  1  0.14703900  0.46946857  0.71950429  1
  Ti  Ti87  1  0.20093941  0.79297051  0.11482847  1
  Ti  Ti88  1  0.13883567  0.80793723  0.31730436  1
  Ti  Ti89  1  0.14526749  0.86986288  0.63813895  1
  Ti  Ti90  1  0.46090319  0.05134085  0.02460116  1
  Ti  Ti91  1  0.49614940  0.25743730  0.36562998  1
  Ti  Ti92  1  0.47226557  0.18996495  0.70678179  1
  Ti  Ti93  1  0.49652570  0.49193934  0.04220060  1
  Ti  Ti94  1  0.55705309  0.51359224  0.36860326  1
  Ti  Ti95  1  0.52684736  0.51153120  0.60096600  1
  Ti  Ti96  1  0.41873294  0.85200029  -0.04960240  1
  Ti  Ti97  1  0.47524832  0.84309638  0.39688477  1
  Ti  Ti98  1  0.51588352  0.80620879  0.69239927  1
  Ti  Ti99  1  0.88290672  0.14770874  0.01411060  1
  Ti  Ti100  1  0.89272316  0.13879973  0.31711092  1
  Ti  Ti101  1  0.79886986  0.10044082  0.59604723  1
  Ti  Ti102  1  0.88024313  0.53898306  0.05207018  1
  Ti  Ti103  1  0.76384204  0.49557110  0.34071291  1
  Ti  Ti104  1  0.78184860  0.45785504  0.63005268  1
  Ti  Ti105  1  0.86743965  0.83491837  0.03666259  1
  Ti  Ti106  1  0.84353640  0.77047417  0.32975949  1
  Ti  Ti107  1  0.79943184  0.81109704  0.62460768  1
  Co  Co108  1  0.83721807  0.60239463  0.65400723  1
  Co  Co109  1  0.47986112  0.18748209  0.20436433  1
  Co  Co110  1  0.37642710  0.52180269  0.93820284  1
  Co  Co111  1  0.62317158  0.42439091  0.69891103  1
  Co  Co112  1  0.10167413  0.95370528  0.12629092  1
  Co  Co113  1  0.40774110  0.10534224  0.30506458  1
  Co  Co114  1  0.96261487  0.99350308  0.06654779  1
  Co  Co115  1  0.57663453  0.12641536  0.34120983  1
  Co  Co116  1  0.83049001  0.94579250  0.30221784  1
  Co  Co117  1  0.22147110  0.93012575  0.22294707  1
  Co  Co118  1  0.96519264  0.83750812  0.70916072  1
  Co  Co119  1  0.44953026  0.72432485  0.55959281  1
  Co  Co120  1  0.24115290  0.57504395  0.49505671  1
  Co  Co121  1  0.80062409  0.17945549  0.74342844  1
  Co  Co122  1  0.89986578  -0.03182737  0.63439116  1
  Co  Co123  1  0.81510993  0.97903875  0.98269220  1
  Co  Co124  1  0.46858909  0.68109405  0.33855368  1
  Co  Co125  1  0.08337865  0.91761540  0.47821978  1
  Co  Co126  1  0.80988672  0.43069090  0.91846612  1
  Co  Co127  1  0.18761254  0.62631022  0.75976610  1
  Co  Co128  1  0.89330363  0.50509012  0.23129879  1
  Co  Co129  1  0.98020035  0.88224182  0.34453055  1
  Co  Co130  1  0.33568516  0.09117785  0.76521034  1
  Co  Co131  1  0.42810132  0.95214922  0.25830217  1
  Co  Co132  1  0.13449849  0.59528221  0.61421357  1
  Co  Co133  1  0.31776471  0.23575991  0.70945510  1
  Co  Co134  1  0.22634106  0.85877287  0.44382779  1
  Co  Co135  1  0.63119882  0.21637641  0.47654596  1
  Co  Co136  1  1.01826282  0.57884779  0.15699568  1
  Co  Co137  1  0.75100259  0.55031262  0.17733188  1
  Co  Co138  1  0.26903239  0.70762304  0.62668239  1
  Co  Co139  1  0.61490233  0.59094341  0.11567805  1
  Co  Co140  1  0.08774325  0.73744112  0.70745562  1
  Co  Co141  1  0.91852878  0.49565600  0.40776743  1
  Co  Co142  1  0.52789361  0.18866586  0.89810987  1
  Co  Co143  1  0.90417477  0.69420620  0.17947817  1
  Co  Co144  1  0.35060871  0.57814209  0.11080721  1
  Co  Co145  1  0.83849615  0.25886465  0.88416395  1
  Co  Co146  1  0.04682351  0.48022829  0.28628832  1
  Co  Co147  1  0.43974787  0.58506180  0.48413168  1
  Co  Co148  1  0.76893570  0.37301592  0.47015418  1
  Co  Co149  1  0.35704526  0.40828336  0.08758711  1
  Co  Co150  1  0.33247000  0.11068285  0.60207053  1
  Co  Co151  1  0.56502789  0.05393815  0.17527929  1
  Co  Co152  1  0.39184140  0.76390680  0.09956719  1
  Co  Co153  1  0.80785951  0.09003433  0.87454416  1
  Co  Co154  1  0.07559386  0.57975590  0.44857098  1
  Co  Co155  1  0.07038117  0.12875052  0.01420513  1
  Co  Co156  1  0.57963326  0.94952990  0.30224905  1
  Co  Co157  1  0.22682018  0.97581467  0.72966526  1
  Co  Co158  1  0.75958714  0.94785707  0.55028818  1
  Co  Co159  1  0.63043442  0.38462176  0.53506119  1
  Co  Co160  1  0.10535641  0.69650411  0.21008607  1
  Co  Co161  1  0.84030357  0.54076998  0.80821268  1
  Ni  Ni162  1  0.30830293  0.45242586  0.80716433  1
  Ni  Ni163  1  0.43884155  0.40893617  0.36894871  1
  Ni  Ni164  1  0.47919887  0.50408777  0.78346041  1
  Ni  Ni165  1  0.72722950  0.19408837  0.06088234  1
  Ni  Ni166  1  0.62005939  0.43523706  0.23133748  1
  Ni  Ni167  1  0.61123715  0.45516247  0.88088651  1
  Ni  Ni168  1  0.20273435  0.36107227  0.60450977  1
  Ni  Ni169  1  0.12089810  0.32204726  0.91582507  1
  Ni  Ni170  1  0.47359550  0.04691944  0.59999515  1
  Ni  Ni171  1  0.19967621  0.79066733  0.94602536  1
  Ni  Ni172  1  0.50141245  0.64256736  0.70469130  1
  Ni  Ni173  1  0.78046520  0.05950964  0.42282692  1
  Ni  Ni174  1  0.79255279  0.21119379  0.21361024  1
  Ni  Ni175  1  0.73831209  0.73481028  0.46393051  1
  Ni  Ni176  1  0.68891374  0.86959686  0.06261042  1
  Ni  Ni177  1  0.44270530  0.28453804  1.01395971  1
  Ni  Ni178  1  0.91876606  0.27323958  0.14771191  1
  Ni  Ni179  1  0.25543938  0.10974311  0.28060571  1
  Ni  Ni180  1  0.57095633  0.79194667  0.85781977  1
  Ni  Ni181  1  0.56743981  0.92253741  -0.04094671  1
  Ni  Ni182  1  0.27687708  0.66131165  0.23921869  1
  Ni  Ni183  1  0.15670953  0.42413745  0.04331360  1
  Ni  Ni184  1  0.06331290  0.28728697  0.55779481  1
  Ni  Ni185  1  0.21941851  0.22131984  0.01012527  1
  Ni  Ni186  1  0.55336574  0.18394944  0.05957559  1
  Ni  Ni187  1  0.58376398  0.29526991  0.78378954  1
  Ni  Ni188  1  0.63976006  0.82456524  0.57150628  1
  Ni  Ni189  1  0.33002693  0.98342536  0.89235765  1
  Ni  Ni190  1  0.04365360  0.32329681  0.76063740  1
  Ni  Ni191  1  0.04168959  0.85600592  1.00028260  1
  Ni  Ni192  1  0.81841666  0.32622119  0.03206770  1
  Ni  Ni193  1  0.93356938  0.43904361  0.70727121  1
  Ni  Ni194  1  0.29653376  0.07777802  1.01860128  1
  Ni  Ni195  1  0.64864118  0.96178695  0.82131559  1
  Ni  Ni196  1  0.04820215  0.53991316  0.99517926  1
  Ni  Ni197  1  0.18102828  0.37942315  0.28976560  1
  Ni  Ni198  1  0.78565284  0.63853949  0.94005102  1
  Ni  Ni199  1  0.68287354  0.79257510  0.74074506  1
  Ni  Ni200  1  0.81928813  0.21662060  0.46213512  1
  Ni  Ni201  1  0.08002135  0.06259296  0.77018235  1
  Ni  Ni202  1  0.76667480  0.00305714  0.72450670  1
  Ni  Ni203  1  0.33614516  0.27410549  0.55854540  1
  Ni  Ni204  1  0.57290495  0.78565124  0.27008789  1
  Ni  Ni205  1  0.36886808  0.55756710  0.34481667  1
  Ni  Ni206  1  0.94508552  0.77789077  0.88997010  1
  Ni  Ni207  1  0.99625553  0.24175732  0.40673157  1
  Ni  Ni208  1  0.03240353  0.31012139  0.25990251  1
  Ni  Ni209  1  0.12575092  0.12866532  0.47829719  1
  Ni  Ni210  1  0.96235644  0.00645313  0.22965680  1
  Ni  Ni211  1  0.41454350  0.76054879  0.81689317  1
  Ni  Ni212  1  0.01090383  0.73947818  0.42073319  1
  Ni  Ni213  1  0.49516777  0.89353329  0.54541665  1
  Ni  Ni214  1  0.96539854  0.69407398  0.60923680  1
  Ni  Ni215  1  0.20701531  0.28862449  0.45448703  1
