# generated using pymatgen
data_Ti2CoNi
_symmetry_space_group_name_H-M   'P 1'
_cell_length_a   14.54420054
_cell_length_b   14.60377432
_cell_length_c   14.56582401
_cell_angle_alpha   89.74608787
_cell_angle_beta   90.16950308
_cell_angle_gamma   89.94861093
_symmetry_Int_Tables_number   1
_chemical_formula_structural   Ti2CoNi
_chemical_formula_sum   'Ti108 Co54 Ni54'
_cell_volume   3093.73905875
_cell_formula_units_Z   54
loop_
 _symmetry_equiv_pos_site_id
 _symmetry_equiv_pos_as_xyz
  1  'x, y, z'
loop_
 _atom_site_type_symbol
 _atom_site_label
 _atom_site_symmetry_multiplicity
 _atom_site_fract_x
 _atom_site_fract_y
 _atom_site_fract_z
 _atom_site_occupancy
  Ti  Ti0  1  0.06504984  -0.02512186  -0.03834731  1
  Ti  Ti1  1  0.04339424  -0.01941372  0.29831307  1
  Ti  Ti2  1  0.02069552  -0.10362249  0.59990887  1
  Ti  Ti3  1  0.00872902  0.28691245  -0.04128603  1
  Ti  Ti4  1  0.00891487  0.21798312  0.32066017  1
  Ti  Ti5  1  -0.03412909  0.35477359  0.79069899  1
  Ti  Ti6  1  0.00076469  0.66388013  0.06162991  1
  Ti  Ti7  1  -0.00742310  0.68232212  0.40502038  1
  Ti  Ti8  1  0.01944381  0.67666124  0.67470638  1
  Ti  Ti9  1  0.29887140  0.00473729  -0.02963757  1
  Ti  Ti10  1  0.23297930  -0.01490880  0.35553426  1
  Ti  Ti11  1  0.36234520  0.01109828  0.75584447  1
  Ti  Ti12  1  0.32378481  0.34478187  -0.03590874  1
  Ti  Ti13  1  0.37954435  0.41375668  0.28396622  1
  Ti  Ti14  1  0.29617530  0.37047667  0.62794781  1
  Ti  Ti15  1  0.30026055  0.61399462  -0.02571043  1
  Ti  Ti16  1  0.33506050  0.62707586  0.31036412  1
  Ti  Ti17  1  0.22206524  0.70576101  0.61992941  1
  Ti  Ti18  1  0.72597133  0.04500657  -0.01863143  1
  Ti  Ti19  1  0.69163084  0.04092427  0.35790411  1
  Ti  Ti20  1  0.65874410  -0.05849400  0.63818368  1
  Ti  Ti21  1  0.67992250  0.35233237  0.06008096  1
  Ti  Ti22  1  0.62905893  0.32959593  0.33553993  1
  Ti  Ti23  1  0.61932209  0.32321990  0.64679127  1
  Ti  Ti24  1  0.69291619  0.66535914  0.03110094  1
  Ti  Ti25  1  0.66517788  0.70833883  0.25286297  1
  Ti  Ti26  1  0.65641050  0.63329404  0.71128339  1
  Ti  Ti27  1  -0.02138922  0.20734013  0.12657336  1
  Ti  Ti28  1  -0.02400856  0.13455881  0.49567260  1
  Ti  Ti29  1  0.04443994  0.16167198  0.82286185  1
  Ti  Ti30  1  0.02461032  0.50738820  0.17153117  1
  Ti  Ti31  1  -0.01393885  0.49853391  0.50428541  1
  Ti  Ti32  1  0.00275105  0.48980849  0.93652148  1
  Ti  Ti33  1  0.01560322  0.79337708  0.21276765  1
  Ti  Ti34  1  -0.05544588  0.86315892  0.43213468  1
  Ti  Ti35  1  -0.00803637  0.70308054  0.87480569  1
  Ti  Ti36  1  0.30827666  0.24382213  0.15366445  1
  Ti  Ti37  1  0.39175295  0.22087415  0.52628553  1
  Ti  Ti38  1  0.32981052  0.18212601  0.85705284  1
  Ti  Ti39  1  0.39470793  0.47646254  0.10333868  1
  Ti  Ti40  1  0.32784970  0.54685213  0.53337901  1
  Ti  Ti41  1  0.25646955  0.48390110  0.83100624  1
  Ti  Ti42  1  0.35301499  0.81805531  0.21379001  1
  Ti  Ti43  1  0.38492600  0.77066293  0.52509366  1
  Ti  Ti44  1  0.33955794  0.79877967  0.74298160  1
  Ti  Ti45  1  0.67197202  0.14544195  0.13251225  1
  Ti  Ti46  1  0.66537905  0.12929788  0.55561990  1
  Ti  Ti47  1  0.64716648  0.08495320  0.79092480  1
  Ti  Ti48  1  0.71254869  0.47986564  0.21415066  1
  Ti  Ti49  1  0.67900976  0.51256676  0.54350972  1
  Ti  Ti50  1  0.65800265  0.46030169  0.78663879  1
  Ti  Ti51  1  0.66111086  0.90253276  0.10955658  1
  Ti  Ti52  1  0.63891095  0.78836809  0.48369903  1
  Ti  Ti53  1  0.64695947  0.81086942  0.82604615  1
  Ti  Ti54  1  0.23953970  0.04263653  0.17512713  1
  Ti  Ti55  1  0.20541286  0.10049419  0.52403534  1
  Ti  Ti56  1  0.07072768  -0.01493105  0.76568719  1
  Ti  Ti57  1  0.16409318  0.35381961  0.22507275  1
  Ti  Ti58  1  0.14580885  0.28959979  0.51404265  1
  Ti  Ti59  1  0.16641173  0.32682423  0.76162514  1
  Ti  Ti60  1  0.18155990  0.69724297  0.11775379  1
  Ti  Ti61  1  0.19225429  0.64494269  0.42744996  1
  Ti  Ti62  1  0.18479076  0.67666431  0.81218945  1
  Ti  Ti63  1  0.53264675  -0.02051552  0.24472763  1
  Ti  Ti64  1  0.45519038  -0.02728106  0.46677446  1
  Ti  Ti65  1  0.54864057  -0.04472045  0.91571259  1
  Ti  Ti66  1  0.48975433  0.27996829  0.18608646  1
  Ti  Ti67  1  0.49015227  0.38131116  0.48325125  1
  Ti  Ti68  1  0.46766484  0.38615987  0.81035915  1
  Ti  Ti69  1  0.48130087  0.67054051  0.09847683  1
  Ti  Ti70  1  0.49424998  0.65714497  0.40984351  1
  Ti  Ti71  1  0.49877569  0.69978776  0.88884068  1
  Ti  Ti72  1  0.83546766  -0.06159353  0.19867045  1
  Ti  Ti73  1  0.82811188  0.00118800  0.53592056  1
  Ti  Ti74  1  0.86377911  0.02851709  0.83920772  1
  Ti  Ti75  1  0.80164782  0.30996630  0.21178696  1
  Ti  Ti76  1  0.85466775  0.35302006  0.53309575  1
  Ti  Ti77  1  0.76165341  0.29260353  0.79651334  1
  Ti  Ti78  1  0.84390648  0.62712349  0.16397363  1
  Ti  Ti79  1  0.83098564  0.57423594  0.45985947  1
  Ti  Ti80  1  0.81211212  0.71631361  0.81601276  1
  Ti  Ti81  1  0.15221237  0.14550763  0.02097893  1
  Ti  Ti82  1  0.22824658  0.20341901  0.34350723  1
  Ti  Ti83  1  0.20095992  0.13980202  0.70357282  1
  Ti  Ti84  1  0.18668314  0.47606773  0.05080858  1
  Ti  Ti85  1  0.09080442  0.47996589  0.35164973  1
  Ti  Ti86  1  0.11076867  0.47392156  0.65111404  1
  Ti  Ti87  1  0.21901398  0.82105581  -0.04092140  1
  Ti  Ti88  1  0.12695718  0.82431432  0.38231553  1
  Ti  Ti89  1  0.22119676  0.93356760  0.63575611  1
  Ti  Ti90  1  0.42485968  0.13362632  0.03132338  1
  Ti  Ti91  1  0.49412589  0.13611473  0.36326053  1
  Ti  Ti92  1  0.49197605  0.16952349  0.68954788  1
  Ti  Ti93  1  0.57225841  0.51123364  -0.04236808  1
  Ti  Ti94  1  0.58570469  0.51357790  0.35117181  1
  Ti  Ti95  1  0.51696328  0.51211392  0.62697837  1
  Ti  Ti96  1  0.44277500  0.87008592  0.04247387  1
  Ti  Ti97  1  0.49998448  0.82975069  0.34850679  1
  Ti  Ti98  1  0.51863520  0.77633564  0.67528329  1
  Ti  Ti99  1  0.82522792  0.22761772  0.00900521  1
  Ti  Ti100  1  0.81947490  0.14652008  0.27997633  1
  Ti  Ti101  1  0.91433501  0.16683638  0.68155699  1
  Ti  Ti102  1  0.80724555  0.54114439  -0.10317155  1
  Ti  Ti103  1  0.89675283  0.43769732  0.32557179  1
  Ti  Ti104  1  0.84296871  0.57337107  0.66043034  1
  Ti  Ti105  1  0.88758235  0.85154695  -0.02108456  1
  Ti  Ti106  1  0.77769527  0.87477509  0.36005638  1
  Ti  Ti107  1  0.85169504  0.83090350  0.67343244  1
  Co  Co108  1  0.49209815  0.37682547  0.02638170  1
  Co  Co109  1  0.92256448  -0.00156726  0.68445983  1
  Co  Co110  1  0.90516729  0.52221398  0.05061970  1
  Co  Co111  1  0.42229311  0.50863988  0.40816484  1
  Co  Co112  1  0.46816858  0.56970954  0.23685655  1
  Co  Co113  1  0.84946447  0.37868582  0.92642502  1
  Co  Co114  1  0.09675317  0.51305800  0.80049515  1
  Co  Co115  1  0.88685853  0.36560113  0.08841107  1
  Co  Co116  1  0.25641626  0.49062906  0.36491811  1
  Co  Co117  1  0.88567443  0.20571796  0.85466686  1
  Co  Co118  1  0.40986282  0.64913217  0.64164440  1
  Co  Co119  1  0.56733059  0.66217713  0.56086724  1
  Co  Co120  1  0.51475440  0.56543896  0.79170102  1
  Co  Co121  1  0.10926090  0.96105091  0.48215547  1
  Co  Co122  1  0.22172709  0.82123581  0.51070207  1
  Co  Co123  1  0.06567861  0.07214829  0.62122756  1
  Co  Co124  1  0.98875542  0.34659130  0.23044278  1
  Co  Co125  1  0.38192928  0.49079969  0.70733802  1
  Co  Co126  1  0.23939774  0.56257151  0.68649749  1
  Co  Co127  1  0.30070991  0.95233374  0.49660073  1
  Co  Co128  1  0.38480068  0.96344726  0.31294979  1
  Co  Co129  1  0.65716734  0.63240348  0.87181626  1
  Co  Co130  1  0.32769331  0.62203039  0.14810972  1
  Co  Co131  1  0.69241430  0.78632690  0.66902021  1
  Co  Co132  1  0.56737242  0.23463449  0.04530707  1
  Co  Co133  1  0.33617273  0.22562723  0.69847864  1
  Co  Co134  1  0.93579940  0.58650489  0.29638660  1
  Co  Co135  1  0.38942811  0.90100808  0.88177803  1
  Co  Co136  1  0.18574445  0.29757369  0.05735176  1
  Co  Co137  1  0.33447399  0.75160849  0.05848889  1
  Co  Co138  1  0.07582079  0.76545311  0.53342977  1
  Co  Co139  1  0.46897985  0.09562348  0.83802146  1
  Co  Co140  1  0.45685880  0.34204586  0.64807006  1
  Co  Co141  1  0.58984371  0.24873290  0.79435970  1
  Co  Co142  1  0.85187629  0.68758182  0.98997929  1
  Co  Co143  1  0.34831074  0.74884364  0.89867149  1
  Co  Co144  1  0.09209059  0.60422218  0.54067876  1
  Co  Co145  1  0.91700833  0.71634307  0.55250902  1
  Co  Co146  1  0.66606432  0.63873820  0.42321050  1
  Co  Co147  1  0.61496241  0.35298936  0.91185856  1
  Co  Co148  1  0.05205729  0.37770008  0.08241796  1
  Co  Co149  1  0.77177675  0.59529423  0.31013824  1
  Co  Co150  1  0.65115518  0.87510709  0.27719971  1
  Co  Co151  1  0.75422534  0.67826394  0.57113280  1
  Co  Co152  1  0.13327529  0.39281811  0.91690072  1
  Co  Co153  1  0.69628380  0.21028069  0.92340452  1
  Co  Co154  1  0.57639467  0.11445189  0.94584183  1
  Co  Co155  1  0.78451856  0.84643734  0.53157792  1
  Co  Co156  1  0.35977186  0.11946637  0.25489056  1
  Co  Co157  1  0.34254953  0.10110183  0.42158106  1
  Co  Co158  1  0.80291123  0.73029384  0.41925847  1
  Co  Co159  1  0.35175874  0.62909160  0.79363046  1
  Co  Co160  1  0.26927134  0.89570221  0.09551677  1
  Co  Co161  1  0.55546843  1.02241127  0.07352878  1
  Ni  Ni162  1  0.72933729  0.88330329  0.94604679  1
  Ni  Ni163  1  0.08317886  0.03759709  0.12290867  1
  Ni  Ni164  1  0.31854259  0.81658900  0.37911256  1
  Ni  Ni165  1  0.12715203  0.81289007  0.71137979  1
  Ni  Ni166  1  0.94459902  0.43976324  0.65815489  1
  Ni  Ni167  1  0.68237911  0.34958508  0.49793061  1
  Ni  Ni168  1  0.75153943  0.49876590  0.05371599  1
  Ni  Ni169  1  0.21284114  0.73628957  0.27319695  1
  Ni  Ni170  1  0.78804544  0.78491802  0.12429641  1
  Ni  Ni171  1  0.57151843  0.23244388  0.47173032  1
  Ni  Ni172  1  0.38421811  0.25835350  0.34145869  1
  Ni  Ni173  1  0.52505730  0.94633578  0.74997857  1
  Ni  Ni174  1  0.13579523  0.18301798  0.19557825  1
  Ni  Ni175  1  0.08258554  0.83809385  0.86433580  1
  Ni  Ni176  1  0.74622088  0.44042704  0.38306547  1
  Ni  Ni177  1  0.59526038  0.79048021  1.00770362  1
  Ni  Ni178  1  0.80030480  0.14596202  0.45477940  1
  Ni  Ni179  1  0.94960279  0.06986985  0.21169586  1
  Ni  Ni180  1  0.97404192  0.92410352  0.11127483  1
  Ni  Ni181  1  0.16537559  0.88871902  0.21960059  1
  Ni  Ni182  1  0.52721302  0.03540077  0.60218940  1
  Ni  Ni183  1  0.95778987  0.10973343  0.97670924  1
  Ni  Ni184  1  0.88469187  1.01757785  0.36629388  1
  Ni  Ni185  1  0.77265485  0.06635643  0.68741446  1
  Ni  Ni186  1  0.39671718  0.00108505  0.13918081  1
  Ni  Ni187  1  0.18436860  0.24238220  0.89731010  1
  Ni  Ni188  1  0.94272296  0.56757038  0.78875952  1
  Ni  Ni189  1  0.59372810  0.54834305  0.11760533  1
  Ni  Ni190  1  0.85813976  0.28030729  0.37934121  1
  Ni  Ni191  1  0.10307288  0.10247326  0.39068519  1
  Ni  Ni192  1  0.86754544  0.75629171  0.27412170  1
  Ni  Ni193  1  0.63822495  0.17866043  0.28682040  1
  Ni  Ni194  1  0.82957586  0.08598906  0.10704966  1
  Ni  Ni195  1  0.17475863  0.45551253  0.49907873  1
  Ni  Ni196  1  0.93596520  0.87534796  0.80794133  1
  Ni  Ni197  1  0.53600385  0.80026978  0.17970460  1
  Ni  Ni198  1  0.22836866  0.91473967  0.81544242  1
  Ni  Ni199  1  0.77273283  0.40933606  0.66845337  1
  Ni  Ni200  1  0.06497222  0.81167957  0.03050738  1
  Ni  Ni201  1  0.54591443  0.42424837  0.20444706  1
  Ni  Ni202  1  0.47236531  0.25383896  0.91484020  1
  Ni  Ni203  1  0.12670869  0.61183872  0.95295043  1
  Ni  Ni204  1  0.08521193  0.64056662  0.25586702  1
  Ni  Ni205  1  0.41399517  0.90866504  0.62492436  1
  Ni  Ni206  1  0.00615805  0.33741764  0.44105259  1
  Ni  Ni207  1  0.50594387  0.12679130  0.18447547  1
  Ni  Ni208  1  0.30537951  0.35784114  0.44960622  1
  Ni  Ni209  1  0.18816779  0.07271579  0.86259018  1
  Ni  Ni210  1  0.40956854  0.50833762  0.91743034  1
  Ni  Ni211  1  0.05961768  0.24948325  0.65276190  1
  Ni  Ni212  1  0.35584569  0.07176632  0.60058397  1
  Ni  Ni213  1  0.62184306  0.95138171  0.46856980  1
  Ni  Ni214  1  0.77469124  0.23591392  0.62380047  1
  Ni  Ni215  1  0.23647818  0.50264087  0.20749317  1
