# generated using pymatgen
data_Ti2CoNi
_symmetry_space_group_name_H-M   'P 1'
_cell_length_a   14.63474576
_cell_length_b   14.58327298
_cell_length_c   14.53263324
_cell_angle_alpha   90.26792235
_cell_angle_beta   90.05409743
_cell_angle_gamma   90.16422477
_symmetry_Int_Tables_number   1
_chemical_formula_structural   Ti2CoNi
_chemical_formula_sum   'Ti108 Co54 Ni54'
_cell_volume   3101.54273687
_cell_formula_units_Z   54
loop_
 _symmetry_equiv_pos_site_id
 _symmetry_equiv_pos_as_xyz
  1  'x, y, z'
loop_
 _atom_site_type_symbol
 _atom_site_label
 _atom_site_symmetry_multiplicity
 _atom_site_fract_x
 _atom_site_fract_y
 _atom_site_fract_z
 _atom_site_occupancy
  Ti  Ti0  1  0.02836262  0.07160987  0.03444474  1
  Ti  Ti1  1  0.01917566  0.01921609  0.41665867  1
  Ti  Ti2  1  -0.02237997  -0.06391948  0.59452558  1
  Ti  Ti3  1  -0.04266260  0.28698343  -0.00748247  1
  Ti  Ti4  1  -0.09859456  0.34006980  0.35759320  1
  Ti  Ti5  1  -0.02232301  0.37073395  0.67634672  1
  Ti  Ti6  1  0.02793702  0.68475352  0.03186099  1
  Ti  Ti7  1  -0.02097080  0.65246923  0.27311312  1
  Ti  Ti8  1  0.01855344  0.57764909  0.65766175  1
  Ti  Ti9  1  0.31169546  -0.02721570  0.01397622  1
  Ti  Ti10  1  0.26007969  0.03889118  0.32988600  1
  Ti  Ti11  1  0.32804657  -0.04186600  0.68254097  1
  Ti  Ti12  1  0.41125029  0.34929561  -0.02678585  1
  Ti  Ti13  1  0.32138567  0.37040157  0.33857905  1
  Ti  Ti14  1  0.29841211  0.27073464  0.67020680  1
  Ti  Ti15  1  0.37582768  0.67396168  -0.03825277  1
  Ti  Ti16  1  0.38234599  0.71023703  0.36222372  1
  Ti  Ti17  1  0.38631188  0.57191837  0.65697216  1
  Ti  Ti18  1  0.58909150  0.01719189  0.06055190  1
  Ti  Ti19  1  0.64417557  0.02675015  0.26194945  1
  Ti  Ti20  1  0.61876019  0.02519380  0.62394395  1
  Ti  Ti21  1  0.63028960  0.40288032  0.05723535  1
  Ti  Ti22  1  0.68968623  0.36421427  0.30327131  1
  Ti  Ti23  1  0.65920296  0.37157708  0.60767653  1
  Ti  Ti24  1  0.69542552  0.63651835  0.01697525  1
  Ti  Ti25  1  0.67885367  0.73501662  0.39236184  1
  Ti  Ti26  1  0.74461376  0.65038336  0.67954662  1
  Ti  Ti27  1  -0.05755677  0.18841505  0.19345719  1
  Ti  Ti28  1  0.03019299  0.11251111  0.59790114  1
  Ti  Ti29  1  0.04490038  0.15133714  0.84547702  1
  Ti  Ti30  1  0.12378799  0.53511621  0.14987046  1
  Ti  Ti31  1  -0.10093138  0.49213816  0.52963047  1
  Ti  Ti32  1  -0.02080205  0.55571205  0.88112840  1
  Ti  Ti33  1  -0.03670103  0.92004152  0.16248325  1
  Ti  Ti34  1  -0.00096702  0.82399302  0.43667261  1
  Ti  Ti35  1  0.02931453  0.84461379  0.79978425  1
  Ti  Ti36  1  0.35202370  0.20071317  0.24298134  1
  Ti  Ti37  1  0.37245728  0.23192338  0.48393357  1
  Ti  Ti38  1  0.37338094  0.14221923  0.81340964  1
  Ti  Ti39  1  0.34912815  0.43591707  0.15978977  1
  Ti  Ti40  1  0.26959905  0.51831371  0.45495522  1
  Ti  Ti41  1  0.25731992  0.44751835  0.78258250  1
  Ti  Ti42  1  0.28465882  0.84706956  0.19206391  1
  Ti  Ti43  1  0.30988734  0.81804167  0.54166230  1
  Ti  Ti44  1  0.32118961  0.84820716  0.84943939  1
  Ti  Ti45  1  0.66203522  0.21587434  0.14680200  1
  Ti  Ti46  1  0.65844553  0.14055605  0.48365336  1
  Ti  Ti47  1  0.66065244  0.22834104  0.85342717  1
  Ti  Ti48  1  0.64744568  0.58261778  0.26595136  1
  Ti  Ti49  1  0.60465205  0.51451636  0.46112682  1
  Ti  Ti50  1  0.68967621  0.46046169  0.85690170  1
  Ti  Ti51  1  0.65129462  0.79359247  0.19237581  1
  Ti  Ti52  1  0.68793136  0.83550821  0.56846351  1
  Ti  Ti53  1  0.61008046  0.84443856  0.87853688  1
  Ti  Ti54  1  0.15274981  0.01414346  0.17138485  1
  Ti  Ti55  1  0.18237259  -0.01680710  0.53750788  1
  Ti  Ti56  1  0.13110910  -0.02727863  0.89901003  1
  Ti  Ti57  1  0.18633798  0.32432853  0.17024268  1
  Ti  Ti58  1  0.13113987  0.25938111  0.53879923  1
  Ti  Ti59  1  0.07213936  0.34926854  0.83664569  1
  Ti  Ti60  1  0.20866100  0.68795217  0.07821474  1
  Ti  Ti61  1  0.13159649  0.67937912  0.52451695  1
  Ti  Ti62  1  0.19406212  0.62762094  0.87537529  1
  Ti  Ti63  1  0.44612264  -0.01356668  0.23074343  1
  Ti  Ti64  1  0.53886776  -0.01588167  0.43282622  1
  Ti  Ti65  1  0.50563304  -0.01770474  0.79397233  1
  Ti  Ti66  1  0.48762621  0.29773113  0.14990315  1
  Ti  Ti67  1  0.55971794  0.31050588  0.45942424  1
  Ti  Ti68  1  0.43349357  0.39393553  0.76894089  1
  Ti  Ti69  1  0.39806418  0.64524141  0.15429125  1
  Ti  Ti70  1  0.54183411  0.67558750  0.57130956  1
  Ti  Ti71  1  0.48358029  0.71448198  0.80335069  1
  Ti  Ti72  1  0.79596003  0.06390589  0.12555094  1
  Ti  Ti73  1  0.84571379  0.06662085  0.54474599  1
  Ti  Ti74  1  0.78153077  -0.04555547  0.82338412  1
  Ti  Ti75  1  0.87926214  0.37780917  0.16067049  1
  Ti  Ti76  1  0.90132906  0.25033069  0.52816392  1
  Ti  Ti77  1  0.86294482  0.24903362  0.80667297  1
  Ti  Ti78  1  0.86196211  0.59983978  0.12416514  1
  Ti  Ti79  1  0.80942768  0.63263097  0.45628699  1
  Ti  Ti80  1  0.77856555  0.74538339  0.85909249  1
  Ti  Ti81  1  0.22124150  0.14021335  -0.00474432  1
  Ti  Ti82  1  0.10369041  0.17589516  0.29703055  1
  Ti  Ti83  1  0.19380634  0.10836309  0.70003205  1
  Ti  Ti84  1  0.21352172  0.40118257  -0.01972909  1
  Ti  Ti85  1  0.11233837  0.38254848  0.37591629  1
  Ti  Ti86  1  0.16167889  0.43634361  0.61697349  1
  Ti  Ti87  1  0.12899859  0.86468397  0.06705025  1
  Ti  Ti88  1  0.20658776  0.84370472  0.37295893  1
  Ti  Ti89  1  0.19266434  0.76497153  0.70719992  1
  Ti  Ti90  1  0.43112912  0.14090014  0.01382866  1
  Ti  Ti91  1  0.51538102  0.16269654  0.32750951  1
  Ti  Ti92  1  0.55486508  0.20331909  0.69082070  1
  Ti  Ti93  1  0.51177349  0.54598015  -0.07371499  1
  Ti  Ti94  1  0.46216251  0.51778347  0.32527234  1
  Ti  Ti95  1  0.57770273  0.54485018  0.72337814  1
  Ti  Ti96  1  0.47755307  0.83109955  0.04356443  1
  Ti  Ti97  1  0.53434794  0.83165788  0.33004295  1
  Ti  Ti98  1  0.49567311  0.85299608  0.65297505  1
  Ti  Ti99  1  0.83684569  0.11396240  -0.07475859  1
  Ti  Ti100  1  0.81203873  0.09762231  0.34839698  1
  Ti  Ti101  1  0.75725840  0.19322517  0.65576292  1
  Ti  Ti102  1  0.82049936  0.45611938  0.00178843  1
  Ti  Ti103  1  0.83006272  0.51103478  0.30681896  1
  Ti  Ti104  1  0.83712830  0.49294140  0.72814425  1
  Ti  Ti105  1  0.84499650  0.83646008  0.00793132  1
  Ti  Ti106  1  0.84910191  0.80666698  0.30279674  1
  Ti  Ti107  1  0.94062952  0.75358756  0.62766775  1
  Co  Co108  1  0.00487512  0.87498535  0.97438350  1
  Co  Co109  1  0.78888237  0.80687141  0.71218584  1
  Co  Co110  1  0.32361206  0.95596348  0.46660441  1
  Co  Co111  1  0.44694440  0.97679817  0.55714767  1
  Co  Co112  1  0.65192227  0.90869223  0.72946995  1
  Co  Co113  1  0.51054539  0.12472838  0.16125958  1
  Co  Co114  1  0.23472697  0.66764322  0.39966668  1
  Co  Co115  1  0.50406978  0.14490092  0.52954354  1
  Co  Co116  1  0.90690958  0.91219263  0.73258411  1
  Co  Co117  1  0.97121789  0.50866431  0.04752414  1
  Co  Co118  1  0.39877741  0.08264172  0.40430360  1
  Co  Co119  1  0.11960024  0.53183362  0.98115926  1
  Co  Co120  1  0.21439699  0.15896714  0.17519993  1
  Co  Co121  1  0.78199947  0.95918690  0.63927926  1
  Co  Co122  1  0.33942704  0.42080892  0.61842357  1
  Co  Co123  1  0.74763577  0.34993617  0.75363332  1
  Co  Co124  1  0.95613462  -0.00048737  0.87273353  1
  Co  Co125  1  0.06023558  0.38222234  0.07428355  1
  Co  Co126  1  0.44281992  0.80911472  0.19680844  1
  Co  Co127  1  0.09526059  0.78064538  0.19704539  1
  Co  Co128  1  0.58348264  0.35907794  0.74933177  1
  Co  Co129  1  0.87364635  0.07888027  0.73173615  1
  Co  Co130  1  0.46962142  0.30586903  0.60422957  1
  Co  Co131  1  0.09462350  0.73043317  0.35141284  1
  Co  Co132  1  0.12374119  0.26470181  0.96818593  1
  Co  Co133  1  0.37423652  0.88263351  0.33719463  1
  Co  Co134  1  0.98573786  0.48578355  0.22028033  1
  Co  Co135  1  0.97419681  0.49561164  0.38313205  1
  Co  Co136  1  0.42458626  0.41024981  0.46400590  1
  Co  Co137  1  0.89160415  0.99037667  0.02086344  1
  Co  Co138  1  0.06719857  0.68157708  0.77688115  1
  Co  Co139  1  0.03783101  0.02544785  0.73812264  1
  Co  Co140  1  0.53975456  0.66095913  0.40862417  1
  Co  Co141  1  0.55077857  0.70825801  0.96722202  1
  Co  Co142  1  0.03222204  0.32983461  0.23530087  1
  Co  Co143  1  0.12561201  0.26668162  0.70594536  1
  Co  Co144  1  0.56565224  0.23810573  0.00663064  1
  Co  Co145  1  0.22252699  0.69517223  0.24139487  1
  Co  Co146  1  0.42977259  0.56959027  0.49041741  1
  Co  Co147  1  0.31524550  0.56838444  0.27714285  1
  Co  Co148  1  0.25657173  0.35392259  0.49612742  1
  Co  Co149  1  0.08654941  0.52180409  0.50204375  1
  Co  Co150  1  0.78803086  0.74420242  0.12905262  1
  Co  Co151  1  0.11123828  0.57106145  0.34621593  1
  Co  Co152  1  0.69565225  0.13929436  0.00033896  1
  Co  Co153  1  0.97159302  0.20951050  0.69988231  1
  Co  Co154  1  0.78496441  0.66440547  0.26939387  1
  Co  Co155  1  0.33232305  0.06094557  0.14635987  1
  Co  Co156  1  0.69519065  0.08380275  0.76295893  1
  Co  Co157  1  0.94589236  0.76323788  0.13911333  1
  Co  Co158  1  0.31947522  0.09691769  0.57360497  1
  Co  Co159  1  0.52759918  0.68343739  0.25025920  1
  Co  Co160  1  0.81853501  0.37065663  0.60067727  1
  Co  Co161  1  0.47340540  0.47610043  0.07162656  1
  Ni  Ni162  1  0.56031791  0.60729674  0.10509409  1
  Ni  Ni163  1  0.73501014  0.48114290  0.15851139  1
  Ni  Ni164  1  0.21882381  0.21865621  0.83509118  1
  Ni  Ni165  1  0.83744803  0.79511547  0.48818645  1
  Ni  Ni166  1  0.97641959  0.64938214  0.46682086  1
  Ni  Ni167  1  0.47099536  0.82393633  0.48529492  1
  Ni  Ni168  1  0.23723982  0.23261757  0.37439429  1
  Ni  Ni169  1  0.80835792  0.58076953  0.88173055  1
  Ni  Ni170  1  0.34978297  0.49709911  0.91694634  1
  Ni  Ni171  1  0.71373453  -0.01731768  0.47943268  1
  Ni  Ni172  1  0.20672737  0.59571775  0.68969545  1
  Ni  Ni173  1  0.94886849  0.73256557  0.89736441  1
  Ni  Ni174  1  0.35894069  0.75478028  0.69766750  1
  Ni  Ni175  1  0.14696918  0.78470377  0.91357487  1
  Ni  Ni176  1  0.48936305  0.24694603  0.85347074  1
  Ni  Ni177  1  0.48107193  0.33770164  0.31450785  1
  Ni  Ni178  1  0.34243911  0.61623453  0.80489017  1
  Ni  Ni179  1  0.50938981  0.46341401  0.59893600  1
  Ni  Ni180  1  0.75605820  0.44066200  0.44396786  1
  Ni  Ni181  1  0.57037267  0.43770834  0.21053479  1
  Ni  Ni182  1  0.00875920  0.37347754  0.50206630  1
  Ni  Ni183  1  0.67193144  0.81298803  0.02655997  1
  Ni  Ni184  1  0.46528401  0.97040042  0.95046639  1
  Ni  Ni185  1  0.31216610  0.26412031  0.07393739  1
  Ni  Ni186  1  0.07571626  0.21431999  0.11207443  1
  Ni  Ni187  1  0.96057060  0.17910618  0.38748947  1
  Ni  Ni188  1  0.67190299  0.19972661  0.32982119  1
  Ni  Ni189  1  0.76625333  0.30336647  0.94950018  1
  Ni  Ni190  1  0.72560393  0.52655570  0.58053181  1
  Ni  Ni191  1  0.79977894  0.24032332  0.24774770  1
  Ni  Ni192  1  0.82488032  0.22480516  0.07647641  1
  Ni  Ni193  1  0.96372759  0.04588022  0.26526255  1
  Ni  Ni194  1  0.11371056  0.83695637  0.57237061  1
  Ni  Ni195  1  0.74838306  0.27785798  0.46178024  1
  Ni  Ni196  1  0.56230030  0.09911484  0.89957202  1
  Ni  Ni197  1  0.08862381  0.92704270  0.29326367  1
  Ni  Ni198  1  0.62116562  0.74894046  0.71619796  1
  Ni  Ni199  1  0.16369658  0.93220242  0.71308474  1
  Ni  Ni200  1  0.29775933  0.65971105  0.55757160  1
  Ni  Ni201  1  0.89826156  0.65811901  0.75848995  1
  Ni  Ni202  1  0.72726186  0.97030432  0.98398276  1
  Ni  Ni203  1  0.20256307  0.46128069  0.26941752  1
  Ni  Ni204  1  0.27273028  0.01827011  0.83941949  1
  Ni  Ni205  1  0.28220078  0.54478510  0.05424280  1
  Ni  Ni206  1  0.69927517  0.89439930  0.34646861  1
  Ni  Ni207  1  0.64703565  0.63851971  0.84585993  1
  Ni  Ni208  1  0.80873657  0.95772520  0.24578841  1
  Ni  Ni209  1  0.88621293  0.40248044  0.85891504  1
  Ni  Ni210  1  0.29300808  0.81104322  0.01110362  1
  Ni  Ni211  1  0.10119837  0.50245957  0.78138893  1
  Ni  Ni212  1  0.14838105  0.11997902  0.45647734  1
  Ni  Ni213  1  0.55803172  0.38244763  0.91091870  1
  Ni  Ni214  1  0.86447423  0.94390199  0.41366392  1
  Ni  Ni215  1  0.44986964  0.08053496  0.67487955  1
