# generated using pymatgen
data_Ti2CoNi
_symmetry_space_group_name_H-M   'P 1'
_cell_length_a   14.68955704
_cell_length_b   14.65551076
_cell_length_c   14.60924866
_cell_angle_alpha   90.04441779
_cell_angle_beta   89.93117378
_cell_angle_gamma   89.93143546
_symmetry_Int_Tables_number   1
_chemical_formula_structural   Ti2CoNi
_chemical_formula_sum   'Ti108 Co54 Ni54'
_cell_volume   3145.11684486
_cell_formula_units_Z   54
loop_
 _symmetry_equiv_pos_site_id
 _symmetry_equiv_pos_as_xyz
  1  'x, y, z'
loop_
 _atom_site_type_symbol
 _atom_site_label
 _atom_site_symmetry_multiplicity
 _atom_site_fract_x
 _atom_site_fract_y
 _atom_site_fract_z
 _atom_site_occupancy
  Ti  Ti0  1  -0.04216420  0.02347155  0.02560310  1
  Ti  Ti1  1  0.02046068  0.04054934  0.37676001  1
  Ti  Ti2  1  0.05105546  0.05415336  0.61638122  1
  Ti  Ti3  1  -0.03736782  0.36098714  0.00687912  1
  Ti  Ti4  1  -0.01884413  0.34300459  0.19978235  1
  Ti  Ti5  1  -0.01929954  0.28858191  0.71852452  1
  Ti  Ti6  1  -0.05686141  0.64027603  -0.03460934  1
  Ti  Ti7  1  -0.02558748  0.66318152  0.34620510  1
  Ti  Ti8  1  0.05352080  0.70876172  0.65626768  1
  Ti  Ti9  1  0.38155655  -0.09171731  -0.02771385  1
  Ti  Ti10  1  0.31673298  -0.00341266  0.28725937  1
  Ti  Ti11  1  0.34826637  -0.01263792  0.63574271  1
  Ti  Ti12  1  0.31027672  0.39677766  -0.04075270  1
  Ti  Ti13  1  0.33372406  0.37919279  0.37264099  1
  Ti  Ti14  1  0.33687238  0.33654453  0.66484174  1
  Ti  Ti15  1  0.29737321  0.74951399  0.08580543  1
  Ti  Ti16  1  0.32158241  0.64169813  0.33198567  1
  Ti  Ti17  1  0.43056403  0.59294004  0.69500579  1
  Ti  Ti18  1  0.67619135  0.00845562  -0.08699642  1
  Ti  Ti19  1  0.67143635  -0.05496607  0.30234117  1
  Ti  Ti20  1  0.66344366  -0.00232323  0.70974009  1
  Ti  Ti21  1  0.71227634  0.35693852  0.05036464  1
  Ti  Ti22  1  0.60073418  0.36033452  0.34312947  1
  Ti  Ti23  1  0.72449263  0.35246364  0.62773047  1
  Ti  Ti24  1  0.62784508  0.56760294  0.06387754  1
  Ti  Ti25  1  0.64850197  0.72535911  0.35625874  1
  Ti  Ti26  1  0.69665746  0.68072341  0.71004310  1
  Ti  Ti27  1  0.03152597  0.13927712  0.15502773  1
  Ti  Ti28  1  0.03079585  0.24675958  0.41560164  1
  Ti  Ti29  1  -0.00635325  0.16583491  0.88797992  1
  Ti  Ti30  1  -0.00361428  0.64368188  0.15209974  1
  Ti  Ti31  1  0.00792783  0.52243778  0.47327627  1
  Ti  Ti32  1  0.04284893  0.48938948  0.76244860  1
  Ti  Ti33  1  -0.04236630  0.83719614  0.08935364  1
  Ti  Ti34  1  0.06439437  0.83542713  0.45285860  1
  Ti  Ti35  1  0.01921902  0.80532972  0.90413037  1
  Ti  Ti36  1  0.36411739  0.15622460  0.17798685  1
  Ti  Ti37  1  0.30891455  0.13764892  0.48746062  1
  Ti  Ti38  1  0.33886280  0.20446629  0.81737752  1
  Ti  Ti39  1  0.30775900  0.46460692  0.15771668  1
  Ti  Ti40  1  0.39746641  0.56229994  0.48518346  1
  Ti  Ti41  1  0.33564518  0.58027573  0.86202760  1
  Ti  Ti42  1  0.25556344  0.82468886  0.25086442  1
  Ti  Ti43  1  0.30108354  0.80996679  0.44249737  1
  Ti  Ti44  1  0.29129816  0.85991450  0.80224215  1
  Ti  Ti45  1  0.61240117  0.22775685  0.16863140  1
  Ti  Ti46  1  0.60567014  0.19895501  0.48163670  1
  Ti  Ti47  1  0.68814016  0.19767545  0.85826413  1
  Ti  Ti48  1  0.67054880  0.53783487  0.29074788  1
  Ti  Ti49  1  0.69180503  0.53023174  0.52229345  1
  Ti  Ti50  1  0.63123119  0.48676882  0.80161250  1
  Ti  Ti51  1  0.67066059  0.88184214  0.11967742  1
  Ti  Ti52  1  0.70391757  0.83439831  0.56939716  1
  Ti  Ti53  1  0.66521416  0.82198889  0.82529646  1
  Ti  Ti54  1  0.12770599  -0.02516403  0.14583687  1
  Ti  Ti55  1  0.19445040  -0.02377427  0.49170083  1
  Ti  Ti56  1  0.21161776  0.03656668  0.84217901  1
  Ti  Ti57  1  0.15637952  0.34626426  0.10362093  1
  Ti  Ti58  1  0.14965088  0.38802005  0.51578879  1
  Ti  Ti59  1  0.11770741  0.33970939  0.87729957  1
  Ti  Ti60  1  0.18381934  0.62967254  0.20025954  1
  Ti  Ti61  1  0.20633078  0.60824710  0.51058294  1
  Ti  Ti62  1  0.15189956  0.66125746  0.87145888  1
  Ti  Ti63  1  0.51755339  0.00904708  0.18725160  1
  Ti  Ti64  1  0.55837316  -0.00300885  0.53543252  1
  Ti  Ti65  1  0.49596890  -0.07654052  0.80406368  1
  Ti  Ti66  1  0.44551196  0.32563739  0.20543801  1
  Ti  Ti67  1  0.44300447  0.28566776  0.49562512  1
  Ti  Ti68  1  0.48540953  0.30486355  0.86077802  1
  Ti  Ti69  1  0.52155124  0.65235469  0.22523001  1
  Ti  Ti70  1  0.55465381  0.70055718  0.55135081  1
  Ti  Ti71  1  0.56217862  0.65031704  0.87078727  1
  Ti  Ti72  1  0.81073316  0.05370533  0.20324320  1
  Ti  Ti73  1  0.80003802  -0.00966765  0.49056181  1
  Ti  Ti74  1  0.85950402  -0.05506572  0.84579985  1
  Ti  Ti75  1  0.81209164  0.25014674  0.20219589  1
  Ti  Ti76  1  0.89434114  0.35868456  0.51624198  1
  Ti  Ti77  1  0.77999119  0.37001018  0.80517192  1
  Ti  Ti78  1  0.80524593  0.56867849  0.14192453  1
  Ti  Ti79  1  0.82850057  0.72913057  0.42997815  1
  Ti  Ti80  1  0.86277395  0.69834131  0.77654585  1
  Ti  Ti81  1  0.23103560  0.19676838  -0.02523905  1
  Ti  Ti82  1  0.18889399  0.12038114  0.31487779  1
  Ti  Ti83  1  0.16981813  0.21647221  0.71579311  1
  Ti  Ti84  1  0.13154010  0.53686676  0.03216411  1
  Ti  Ti85  1  0.15482963  0.41250494  0.29785810  1
  Ti  Ti86  1  0.24100276  0.52594839  0.69456729  1
  Ti  Ti87  1  0.17555796  0.87560291  -0.02730396  1
  Ti  Ti88  1  0.06903556  0.80300713  0.24437750  1
  Ti  Ti89  1  0.21268154  0.80566237  0.61270691  1
  Ti  Ti90  1  0.51651177  0.09944839  -0.01919517  1
  Ti  Ti91  1  0.48569852  0.08167670  0.36922494  1
  Ti  Ti92  1  0.53039283  0.17559153  0.67319482  1
  Ti  Ti93  1  0.48829814  0.48639887  -0.05888898  1
  Ti  Ti94  1  0.45806298  0.49631809  0.28084883  1
  Ti  Ti95  1  0.52275387  0.39704573  0.65115031  1
  Ti  Ti96  1  0.49776139  0.77538978  0.08642409  1
  Ti  Ti97  1  0.46383268  0.88639387  0.34990957  1
  Ti  Ti98  1  0.40812584  0.79904277  0.66872958  1
  Ti  Ti99  1  0.74315550  0.15533102  0.03767785  1
  Ti  Ti100  1  0.82439506  0.14201000  0.39240775  1
  Ti  Ti101  1  0.83907879  0.17512830  0.62933950  1
  Ti  Ti102  1  0.81030007  0.49997065  -0.04971304  1
  Ti  Ti103  1  0.86748937  0.47413032  0.30430568  1
  Ti  Ti104  1  0.89473738  0.54453821  0.64128280  1
  Ti  Ti105  1  0.79540150  0.73522912  0.07009305  1
  Ti  Ti106  1  0.90267422  0.88417037  0.33031909  1
  Ti  Ti107  1  0.89845037  0.82187534  0.59735076  1
  Co  Co108  1  0.75370569  0.86439617  0.40780156  1
  Co  Co109  1  0.06421127  0.88280989  0.62006552  1
  Co  Co110  1  0.19091541  0.95356402  0.68951900  1
  Co  Co111  1  0.07488027  0.48816048  0.17898167  1
  Co  Co112  1  0.79935004  0.63377002  0.29571367  1
  Co  Co113  1  0.09750828  0.56813872  0.32649666  1
  Co  Co114  1  0.95045996  0.51207155  0.07117575  1
  Co  Co115  1  0.40432418  0.76092969  0.25873029  1
  Co  Co116  1  0.08950376  0.55434121  0.61510397  1
  Co  Co117  1  0.04685854  0.24732809  0.58277233  1
  Co  Co118  1  0.35873402  0.62873608  0.17293741  1
  Co  Co119  1  1.00807970  0.64559191  0.79781794  1
  Co  Co120  1  0.61289387  0.36753532  0.51113688  1
  Co  Co121  1  0.50841943  0.80553382  0.91602982  1
  Co  Co122  1  0.26369965  0.69637636  0.74245763  1
  Co  Co123  1  0.17086112  0.71415873  0.35219252  1
  Co  Co124  1  0.95555280  0.83897924  0.75277592  1
  Co  Co125  1  0.52551186  0.21834851  0.30818130  1
  Co  Co126  1  0.58499089  0.57932099  0.68226512  1
  Co  Co127  1  0.54361675  0.73887492  0.73404949  1
  Co  Co128  1  0.67063381  0.06716453  0.41649732  1
  Co  Co129  1  0.45386158  0.36962347  0.04712002  1
  Co  Co130  1  0.40346457  0.22405100  0.98543870  1
  Co  Co131  1  0.48289095  0.42956475  0.43352812  1
  Co  Co132  1  0.64941749  0.04557416  0.10266709  1
  Co  Co133  1  0.41053411  0.72564507  0.81801591  1
  Co  Co134  1  0.64138450  0.09994652  0.26119688  1
  Co  Co135  1  0.74630422  0.50969584  0.68526916  1
  Co  Co136  1  0.78779224  0.85084322  0.72365316  1
  Co  Co137  1  0.89056115  0.74663604  0.22488705  1
  Co  Co138  1  0.56432774  0.82351859  0.23826880  1
  Co  Co139  1  0.44052559  0.66034160  0.98354962  1
  Co  Co140  1  0.93784732  0.66532377  0.53954299  1
  Co  Co141  1  0.59518028  0.84929362  0.44253061  1
  Co  Co142  1  0.12466995  0.06664418  0.00821634  1
  Co  Co143  1  1.00773414  0.41303933  0.61018925  1
  Co  Co144  1  0.24192001  0.51076751  0.39129268  1
  Co  Co145  1  0.67050939  0.69623364  0.17582350  1
  Co  Co146  1  0.39568714  0.03159675  0.08559863  1
  Co  Co147  1  0.85472158  0.21788537  0.79140492  1
  Co  Co148  1  0.31103666  0.29741430  0.09097612  1
  Co  Co149  1  0.78397776  0.07680075  0.76935586  1
  Co  Co150  1  0.01988033  0.50317918  0.92075013  1
  Co  Co151  1  0.53503111  0.52036376  0.55026667  1
  Co  Co152  1  0.75209792  0.41632335  0.41313804  1
  Co  Co153  1  0.57174556  0.86952900  0.65011285  1
  Co  Co154  1  0.57132952  0.43100415  0.16591100  1
  Co  Co155  1  0.84216688  0.10227083  0.92050640  1
  Co  Co156  1  0.22260941  0.09381302  0.63223284  1
  Co  Co157  1  0.82504445  0.89199207  0.18129421  1
  Co  Co158  1  0.70285422  0.23174876  0.32721203  1
  Co  Co159  1  0.54606595  0.93549574  0.01000256  1
  Co  Co160  1  0.07912793  0.68383243  0.48203052  1
  Co  Co161  1  0.26464217  0.36157944  0.80507051  1
  Ni  Ni162  1  -0.02712006  0.97952315  0.21130447  1
  Ni  Ni163  1  0.55264186  0.09089998  0.81345417  1
  Ni  Ni164  1  0.84641377  0.40871201  0.12887578  1
  Ni  Ni165  1  0.29761280  0.57641354  0.02495255  1
  Ni  Ni166  1  0.54927274  0.59046808  0.39823941  1
  Ni  Ni167  1  0.12919309  0.81929895  0.77393564  1
  Ni  Ni168  1  0.27140924  0.92757380  0.10262748  1
  Ni  Ni169  1  0.10515701  0.25136314  0.26147308  1
  Ni  Ni170  1  0.94718167  0.17434069  0.28448253  1
  Ni  Ni171  1  0.74770776  0.65330695  0.91069870  1
  Ni  Ni172  1  0.19432370  0.16977179  0.13908558  1
  Ni  Ni173  1  0.72716349  0.85995101  0.96659189  1
  Ni  Ni174  1  0.13605241  0.13891379  0.49262178  1
  Ni  Ni175  1  0.46245156  0.53460409  0.09877489  1
  Ni  Ni176  1  0.45783656  0.72930365  0.41797871  1
  Ni  Ni177  1  0.90623734  0.20278532  0.06695241  1
  Ni  Ni178  1  0.11141681  0.72778100  0.04848249  1
  Ni  Ni179  1  0.33682464  0.68436383  0.57982390  1
  Ni  Ni180  1  0.41486004  0.44527452  0.78571975  1
  Ni  Ni181  1  0.63294898  0.73021194  1.00615580  1
  Ni  Ni182  1  0.39278367  0.05299544  0.77612878  1
  Ni  Ni183  1  0.14863490  0.37841190  0.68400225  1
  Ni  Ni184  1  0.93540271  0.37858696  0.85006864  1
  Ni  Ni185  1  0.96156807  0.95758765  0.51127328  1
  Ni  Ni186  1  0.79769633  0.98679016  0.03959266  1
  Ni  Ni187  1  0.69986514  0.10108144  0.58403530  1
  Ni  Ni188  1  0.63537240  0.37118915  0.91190113  1
  Ni  Ni189  1  0.71849317  0.38947886  0.22542631  1
  Ni  Ni190  1  0.18670145  0.49394799  0.87285950  1
  Ni  Ni191  1  0.26523552  0.29042591  0.24292606  1
  Ni  Ni192  1  0.78263602  0.66534387  0.57777128  1
  Ni  Ni193  1  0.45535709  0.86108582  0.52612105  1
  Ni  Ni194  1  0.75590082  0.26662321  0.48372567  1
  Ni  Ni195  1  0.29225343  0.73765307  0.92472307  1
  Ni  Ni196  1  0.86594779  0.30567670  0.35438733  1
  Ni  Ni197  1  0.40689061  0.89004391  0.17229556  1
  Ni  Ni198  1  0.34869258  0.07629338  0.93523728  1
  Ni  Ni199  1  0.14526183  0.94237767  0.31940000  1
  Ni  Ni200  1  0.21243796  0.26196107  0.40172339  1
  Ni  Ni201  1  0.36508126  0.20575122  0.34443458  1
  Ni  Ni202  1  0.07496577  0.08105767  0.77183687  1
  Ni  Ni203  1  0.06966177  0.23038647  1.02248832  1
  Ni  Ni204  1  0.94521917  0.12678603  0.51145665  1
  Ni  Ni205  1  0.85698009  0.78576470  0.91731596  1
  Ni  Ni206  1  0.82930123  0.27488085  0.94060811  1
  Ni  Ni207  1  0.00623440  0.40103499  0.36419643  1
  Ni  Ni208  1  0.05034301  0.97194603  0.89257581  1
  Ni  Ni209  1  0.36834768  0.17230775  0.64461188  1
  Ni  Ni210  1  0.36736355  -0.01858741  0.45998031  1
  Ni  Ni211  1  0.30966883  0.43394538  0.53699759  1
  Ni  Ni212  1  0.84611171  0.98725660  0.64783532  1
  Ni  Ni213  1  0.57261987  0.25647249  0.00774660  1
  Ni  Ni214  1  0.62099374  0.30779824  0.75530394  1
  Ni  Ni215  1  0.84211642  0.55718727  0.44962846  1
