# generated using pymatgen
data_Ti2CoNi
_symmetry_space_group_name_H-M   'P 1'
_cell_length_a   14.57668835
_cell_length_b   14.59648170
_cell_length_c   14.58532220
_cell_angle_alpha   89.76454281
_cell_angle_beta   89.99736126
_cell_angle_gamma   90.25342511
_symmetry_Int_Tables_number   1
_chemical_formula_structural   Ti2CoNi
_chemical_formula_sum   'Ti108 Co54 Ni54'
_cell_volume   3103.23858705
_cell_formula_units_Z   54
loop_
 _symmetry_equiv_pos_site_id
 _symmetry_equiv_pos_as_xyz
  1  'x, y, z'
loop_
 _atom_site_type_symbol
 _atom_site_label
 _atom_site_symmetry_multiplicity
 _atom_site_fract_x
 _atom_site_fract_y
 _atom_site_fract_z
 _atom_site_occupancy
  Ti  Ti0  1  -0.04090808  -0.02331168  -0.01521957  1
  Ti  Ti1  1  0.00895426  0.01784478  0.30873269  1
  Ti  Ti2  1  0.03053625  -0.03935728  0.66013408  1
  Ti  Ti3  1  0.00529947  0.34643012  0.05306478  1
  Ti  Ti4  1  -0.00056334  0.40120205  0.39964750  1
  Ti  Ti5  1  -0.07680629  0.30976764  0.63178009  1
  Ti  Ti6  1  -0.06703746  0.64757846  -0.02572534  1
  Ti  Ti7  1  0.05546048  0.69370570  0.26920601  1
  Ti  Ti8  1  0.05801658  0.74801974  0.66232398  1
  Ti  Ti9  1  0.35978137  0.03031749  0.10780709  1
  Ti  Ti10  1  0.36216634  -0.02324199  0.29563702  1
  Ti  Ti11  1  0.31526638  0.05714197  0.73124384  1
  Ti  Ti12  1  0.32250317  0.37458889  0.01153223  1
  Ti  Ti13  1  0.27691227  0.29514864  0.34895058  1
  Ti  Ti14  1  0.35113513  0.38628130  0.71788817  1
  Ti  Ti15  1  0.31273081  0.69127189  -0.13297540  1
  Ti  Ti16  1  0.36749367  0.61942411  0.34891740  1
  Ti  Ti17  1  0.33421365  0.62216941  0.67385833  1
  Ti  Ti18  1  0.80197405  0.08567578  0.04919207  1
  Ti  Ti19  1  0.58106855  -0.01560044  0.33007289  1
  Ti  Ti20  1  0.66608796  -0.00579978  0.61612259  1
  Ti  Ti21  1  0.65281159  0.40286819  -0.12858176  1
  Ti  Ti22  1  0.71040020  0.24412992  0.29669817  1
  Ti  Ti23  1  0.73897767  0.26476344  0.65579951  1
  Ti  Ti24  1  0.71251342  0.66336776  0.05824723  1
  Ti  Ti25  1  0.72838318  0.70216006  0.34292124  1
  Ti  Ti26  1  0.63557117  0.64468877  0.67801539  1
  Ti  Ti27  1  0.00971269  0.16248979  0.14899891  1
  Ti  Ti28  1  -0.04820579  0.11715029  0.57771917  1
  Ti  Ti29  1  -0.03677051  0.17739187  0.91403532  1
  Ti  Ti30  1  0.06458991  0.40169071  0.22331247  1
  Ti  Ti31  1  0.03794467  0.57314832  0.44909960  1
  Ti  Ti32  1  -0.01140511  0.48399962  0.87618953  1
  Ti  Ti33  1  -0.01806636  0.83131933  0.14134568  1
  Ti  Ti34  1  -0.00497753  0.75196025  0.45197848  1
  Ti  Ti35  1  0.04645599  0.86008104  0.83684916  1
  Ti  Ti36  1  0.35616745  0.25739653  0.17013548  1
  Ti  Ti37  1  0.34255226  0.21758372  0.53074675  1
  Ti  Ti38  1  0.30485693  0.17984626  0.86827723  1
  Ti  Ti39  1  0.34409225  0.56870706  0.14205654  1
  Ti  Ti40  1  0.32651800  0.44067747  0.45528298  1
  Ti  Ti41  1  0.35786415  0.51033340  0.85743998  1
  Ti  Ti42  1  0.32003703  0.79617755  0.14725158  1
  Ti  Ti43  1  0.31518625  0.91630746  0.47256597  1
  Ti  Ti44  1  0.33010941  0.87211941  0.79189494  1
  Ti  Ti45  1  0.65336916  0.18724786  0.10320346  1
  Ti  Ti46  1  0.61675214  0.17099021  0.53376193  1
  Ti  Ti47  1  0.62481448  0.13867451  0.78680629  1
  Ti  Ti48  1  0.68260542  0.49295680  0.13117997  1
  Ti  Ti49  1  0.71462235  0.45104170  0.61990216  1
  Ti  Ti50  1  0.62458951  0.60381744  0.88252847  1
  Ti  Ti51  1  0.63969762  0.82686642  0.15921699  1
  Ti  Ti52  1  0.68022894  0.87519763  0.46235851  1
  Ti  Ti53  1  0.64185628  0.87313899  0.89544832  1
  Ti  Ti54  1  0.15721677  -0.02171769  0.15539063  1
  Ti  Ti55  1  0.12095008  0.02576380  0.49052020  1
  Ti  Ti56  1  0.13089052  0.06776866  0.86301491  1
  Ti  Ti57  1  0.17392833  0.27053128  0.17180406  1
  Ti  Ti58  1  0.18649496  0.34169473  0.60456997  1
  Ti  Ti59  1  0.13699505  0.27436677  0.78151684  1
  Ti  Ti60  1  0.14358422  0.56599157  0.15061916  1
  Ti  Ti61  1  0.21969875  0.73570167  0.54236245  1
  Ti  Ti62  1  0.10868671  0.67730633  0.86447893  1
  Ti  Ti63  1  0.56390106  0.01487779  0.12797362  1
  Ti  Ti64  1  0.45789911  0.04647881  0.49384137  1
  Ti  Ti65  1  0.51302624  -0.02957503  0.77292367  1
  Ti  Ti66  1  0.57165974  0.34769868  0.17862804  1
  Ti  Ti67  1  0.48740597  0.33078817  0.44379605  1
  Ti  Ti68  1  0.46587171  0.30658903  0.86237608  1
  Ti  Ti69  1  0.49916470  0.70019313  0.16591648  1
  Ti  Ti70  1  0.54243576  0.68669620  0.44712879  1
  Ti  Ti71  1  0.49708323  0.75590674  0.80914342  1
  Ti  Ti72  1  0.82321642  -0.06462948  0.14127164  1
  Ti  Ti73  1  0.84663388  -0.00578364  0.46238862  1
  Ti  Ti74  1  0.87748447  -0.03135274  0.80362713  1
  Ti  Ti75  1  0.86617102  0.44499233  0.21313125  1
  Ti  Ti76  1  0.76274507  0.29921628  0.47369224  1
  Ti  Ti77  1  0.78347359  0.26294851  0.84338953  1
  Ti  Ti78  1  0.86667353  0.62650239  0.18933610  1
  Ti  Ti79  1  0.81058145  0.62216665  0.53983982  1
  Ti  Ti80  1  0.89130791  0.66804316  0.75426501  1
  Ti  Ti81  1  0.16803936  0.23786792  -0.01372268  1
  Ti  Ti82  1  0.15451569  0.14238071  0.31931944  1
  Ti  Ti83  1  0.14190039  0.12778422  0.65850019  1
  Ti  Ti84  1  0.17596813  0.46841090  -0.09351504  1
  Ti  Ti85  1  0.19040481  0.51989397  0.33187351  1
  Ti  Ti86  1  0.13707104  0.55746168  0.62614740  1
  Ti  Ti87  1  0.14603779  0.75676373  0.04792815  1
  Ti  Ti88  1  0.23082268  0.82256723  0.31940675  1
  Ti  Ti89  1  0.21353134  0.90641518  0.62797013  1
  Ti  Ti90  1  0.49008164  0.11321456  -0.04157402  1
  Ti  Ti91  1  0.44163745  0.15240075  0.32715311  1
  Ti  Ti92  1  0.48545544  0.24112226  0.66955607  1
  Ti  Ti93  1  0.50659944  0.46312120  0.01587283  1
  Ti  Ti94  1  0.55977495  0.50664080  0.35134100  1
  Ti  Ti95  1  0.52074695  0.50644089  0.57534826  1
  Ti  Ti96  1  0.47593316  0.86459038  0.02110957  1
  Ti  Ti97  1  0.42552349  0.79578065  0.32253418  1
  Ti  Ti98  1  0.49246349  0.85472844  0.60377231  1
  Ti  Ti99  1  0.82022403  0.26866530  0.03815031  1
  Ti  Ti100  1  0.87841154  0.16005802  0.34319460  1
  Ti  Ti101  1  0.83450114  0.12621027  0.72322415  1
  Ti  Ti102  1  0.80153310  0.48307381  -0.01584577  1
  Ti  Ti103  1  0.78808379  0.49077737  0.39933022  1
  Ti  Ti104  1  0.90613275  0.48495758  0.69364168  1
  Ti  Ti105  1  0.81148922  0.80287495  -0.00050089  1
  Ti  Ti106  1  0.77435564  0.89302253  0.30799791  1
  Ti  Ti107  1  0.77580411  0.81860194  0.64716402  1
  Co  Co108  1  0.02246858  0.14247634  0.43602119  1
  Co  Co109  1  0.29692070  0.12509894  0.25069855  1
  Co  Co110  1  0.00490037  0.53956604  0.27493872  1
  Co  Co111  1  0.30487547  0.09560182  0.41255012  1
  Co  Co112  1  0.81825742  0.16280706  0.18937736  1
  Co  Co113  1  0.99181919  0.79843178  -0.02331590  1
  Co  Co114  1  0.88812972  0.62051188  0.36976413  1
  Co  Co115  1  1.04494664  0.57801604  0.75783715  1
  Co  Co116  1  0.17607150  0.94272078  0.77728413  1
  Co  Co117  1  0.93715934  0.29777974  0.78336372  1
  Co  Co118  1  0.00960087  0.66448602  0.11465097  1
  Co  Co119  1  0.82465618  0.78448054  0.45226113  1
  Co  Co120  1  0.28040750  0.34148102  0.85606630  1
  Co  Co121  1  0.62275719  0.30070144  0.75418052  1
  Co  Co122  1  0.08421792  0.08632372  0.02400819  1
  Co  Co123  1  -0.02314182  0.60010114  0.59952107  1
  Co  Co124  1  0.90222430  0.76158774  0.28911117  1
  Co  Co125  1  0.20718724  0.74511234  0.73581732  1
  Co  Co126  1  0.25080327  0.05475834  0.98311507  1
  Co  Co127  1  0.92731293  0.84541124  0.70551719  1
  Co  Co128  1  0.51395232  0.47737951  0.85168168  1
  Co  Co129  1  0.05496430  0.40382082  0.72197719  1
  Co  Co130  1  0.46535262  0.61736677  0.92318227  1
  Co  Co131  1  0.58459422  0.21543428  0.39384824  1
  Co  Co132  1  0.57736944  0.74319220  0.97827334  1
  Co  Co133  1  0.19995531  0.82253849  0.89014434  1
  Co  Co134  1  0.91835207  0.28710343  0.18886427  1
  Co  Co135  1  0.27218022  0.07020649  0.56805436  1
  Co  Co136  1  0.11228326  0.92308267  0.98541730  1
  Co  Co137  1  0.47892689  0.60345142  0.75702596  1
  Co  Co138  1  0.70995867  1.02893443  0.21544317  1
  Co  Co139  1  0.67456597  0.92899140  0.05329459  1
  Co  Co140  1  0.39864361  0.58617801  0.50747257  1
  Co  Co141  1  0.85677273  0.33434750  0.33070253  1
  Co  Co142  1  0.28730067  0.48656367  0.60175121  1
  Co  Co143  1  0.21166810  0.12706726  0.12025536  1
  Co  Co144  1  0.90496067  0.73940427  0.59055741  1
  Co  Co145  1  0.94806001  0.88942453  0.54382902  1
  Co  Co146  1  0.75704353  0.33048537  0.16689003  1
  Co  Co147  1  0.59814477  0.33633520  0.58761569  1
  Co  Co148  1  0.06059332  0.24860436  0.56854506  1
  Co  Co149  1  0.79041130  0.40100388  0.76854364  1
  Co  Co150  1  0.23462842  0.58507394  0.48448395  1
  Co  Co151  1  0.42040346  0.37392853  0.58134828  1
  Co  Co152  1  0.51909439  0.41155725  0.71219539  1
  Co  Co153  1  0.56376896  0.60347113  0.05631425  1
  Co  Co154  1  0.96956972  0.00821636  0.14352584  1
  Co  Co155  1  0.69329755  0.40890838  0.29428901  1
  Co  Co156  1  0.34514944  0.78727905  0.65152281  1
  Co  Co157  1  0.38231051  0.96133766  0.62748522  1
  Co  Co158  1  0.05394052  0.33100781  0.89743811  1
  Co  Co159  1  0.63619865  0.39293280  0.44683438  1
  Co  Co160  1  0.26121359  0.89924096  0.04351986  1
  Co  Co161  1  0.71604850  0.56763926  0.26368091  1
  Ni  Ni162  1  0.15891266  0.69655617  0.39598544  1
  Ni  Ni163  1  0.51770614  0.07655550  0.64576612  1
  Ni  Ni164  1  0.20765052  0.46718872  0.74885165  1
  Ni  Ni165  1  0.71195845  0.08297225  0.38963182  1
  Ni  Ni166  1  0.78744271  0.10635529  0.88669447  1
  Ni  Ni167  1  0.89081173  0.36201484  0.92276670  1
  Ni  Ni168  1  0.41409640  0.96954002  0.90879189  1
  Ni  Ni169  1  0.18896092  0.97972934  0.34420342  1
  Ni  Ni170  1  0.78491844  0.95381405  0.93955183  1
  Ni  Ni171  1  0.59501478  0.80896156  0.32025943  1
  Ni  Ni172  1  0.38649289  0.45963216  0.30168920  1
  Ni  Ni173  1  0.63123348  0.76375274  0.56770977  1
  Ni  Ni174  1  0.41530810  0.41034437  0.14743064  1
  Ni  Ni175  1  0.86688514  0.79957187  0.84983935  1
  Ni  Ni176  1  0.48053197  0.68681881  0.61205942  1
  Ni  Ni177  1  0.24061701  0.67329155  0.24465015  1
  Ni  Ni178  1  0.63824418  0.04559694  0.94611563  1
  Ni  Ni179  1  0.46125650  0.31316916  0.28803206  1
  Ni  Ni180  1  0.48335609  0.16426690  0.12998500  1
  Ni  Ni181  1  0.46731082  0.89092714  0.19099818  1
  Ni  Ni182  1  0.92698812  0.27003034  0.46655301  1
  Ni  Ni183  1  0.88727990  0.44861132  0.52693248  1
  Ni  Ni184  1  0.25357028  0.41784349  0.21049863  1
  Ni  Ni185  1  0.35183054  0.19368158  1.02313233  1
  Ni  Ni186  1  0.25014427  0.61483593  0.00721914  1
  Ni  Ni187  1  0.18627982  0.19667573  0.47862711  1
  Ni  Ni188  1  0.50435004  0.28671448  0.02181977  1
  Ni  Ni189  1  0.38256836  0.75320654  0.48532358  1
  Ni  Ni190  1  0.07341050  0.86477406  0.28767217  1
  Ni  Ni191  1  0.08630675  0.57159061  0.99911691  1
  Ni  Ni192  1  0.78381356  0.13127933  0.54441297  1
  Ni  Ni193  1  0.75529350  0.56152925  0.75857913  1
  Ni  Ni194  1  0.02520756  0.25553820  0.31118494  1
  Ni  Ni195  1  0.64921390  0.21565706  0.93884172  1
  Ni  Ni196  1  0.70683434  0.73988976  0.80718669  1
  Ni  Ni197  1  0.51168025  0.53598961  0.19868856  1
  Ni  Ni198  1  0.66560006  0.35512524  0.03034600  1
  Ni  Ni199  1  0.93821939  0.88785446  0.37638665  1
  Ni  Ni200  1  0.39117043  0.71015773  0.02413655  1
  Ni  Ni201  1  0.49791347  0.88327709  0.44113723  1
  Ni  Ni202  1  0.29318072  0.22754202  0.70223782  1
  Ni  Ni203  1  0.83281568  -0.01961723  0.63327156  1
  Ni  Ni204  1  0.62084812  0.84973040  0.71784467  1
  Ni  Ni205  1  0.59057934  0.13417696  0.25382084  1
  Ni  Ni206  1  0.95477511  0.50666802  0.07821517  1
  Ni  Ni207  1  0.79393292  0.77085856  0.17087963  1
  Ni  Ni208  1  0.79145612  0.63750590  0.89965088  1
  Ni  Ni209  1  0.15041018  0.43882647  0.47858916  1
  Ni  Ni210  1  0.65953709  0.56827667  0.49158285  1
  Ni  Ni211  1  0.16416624  0.41471834  0.06827095  1
  Ni  Ni212  1  0.12420176  0.86276496  0.46237253  1
  Ni  Ni213  1  0.45038715  0.13107879  0.79413176  1
  Ni  Ni214  1  -0.00312028  0.09887702  0.76575781  1
  Ni  Ni215  1  0.70683069  -0.01022905  0.77859128  1
