# generated using pymatgen
data_Ti2CoNi
_symmetry_space_group_name_H-M   'P 1'
_cell_length_a   14.61806784
_cell_length_b   14.61107091
_cell_length_c   14.65038532
_cell_angle_alpha   89.98166420
_cell_angle_beta   90.06183190
_cell_angle_gamma   89.99631788
_symmetry_Int_Tables_number   1
_chemical_formula_structural   Ti2CoNi
_chemical_formula_sum   'Ti108 Co54 Ni54'
_cell_volume   3129.10972695
_cell_formula_units_Z   54
loop_
 _symmetry_equiv_pos_site_id
 _symmetry_equiv_pos_as_xyz
  1  'x, y, z'
loop_
 _atom_site_type_symbol
 _atom_site_label
 _atom_site_symmetry_multiplicity
 _atom_site_fract_x
 _atom_site_fract_y
 _atom_site_fract_z
 _atom_site_occupancy
  Ti  Ti0  1  0.03848903  0.00753098  0.04921682  1
  Ti  Ti1  1  -0.01387072  -0.07264064  0.24683989  1
  Ti  Ti2  1  -0.00417317  0.04641681  0.71118520  1
  Ti  Ti3  1  0.02774890  0.39782271  -0.03834765  1
  Ti  Ti4  1  0.01014739  0.26910055  0.39064716  1
  Ti  Ti5  1  -0.00010548  0.35231770  0.76765798  1
  Ti  Ti6  1  0.05584535  0.72668503  -0.06954580  1
  Ti  Ti7  1  -0.03624469  0.75095775  0.36066820  1
  Ti  Ti8  1  0.02844260  0.68740132  0.74187978  1
  Ti  Ti9  1  0.32493640  0.05940201  -0.08280559  1
  Ti  Ti10  1  0.46606771  0.00361780  0.28441859  1
  Ti  Ti11  1  0.32723006  -0.02876632  0.66718719  1
  Ti  Ti12  1  0.30425010  0.37179679  -0.00003242  1
  Ti  Ti13  1  0.31337185  0.33991968  0.31446193  1
  Ti  Ti14  1  0.30567797  0.25330747  0.64931151  1
  Ti  Ti15  1  0.36289343  0.62785638  0.04431115  1
  Ti  Ti16  1  0.37922012  0.60527424  0.37012846  1
  Ti  Ti17  1  0.30866972  0.66845101  0.61791812  1
  Ti  Ti18  1  0.65702478  -0.00933414  -0.11211240  1
  Ti  Ti19  1  0.65650374  0.03500131  0.33920186  1
  Ti  Ti20  1  0.63470776  0.01100688  0.66093458  1
  Ti  Ti21  1  0.64564539  0.35058009  -0.01276760  1
  Ti  Ti22  1  0.61906544  0.40294875  0.35497208  1
  Ti  Ti23  1  0.66307788  0.31109698  0.61990586  1
  Ti  Ti24  1  0.65396488  0.63438889  -0.00552310  1
  Ti  Ti25  1  0.67080163  0.64344855  0.39808242  1
  Ti  Ti26  1  0.67925100  0.76090185  0.66443076  1
  Ti  Ti27  1  -0.00336161  0.20948818  0.06762837  1
  Ti  Ti28  1  -0.04661603  0.08012679  0.48268205  1
  Ti  Ti29  1  0.04600230  0.17413290  0.86434653  1
  Ti  Ti30  1  0.00161140  0.54251328  0.18206267  1
  Ti  Ti31  1  0.03653602  0.44637662  0.48030907  1
  Ti  Ti32  1  -0.07670263  0.55773286  0.85949449  1
  Ti  Ti33  1  -0.00195111  0.78439164  0.10345043  1
  Ti  Ti34  1  0.07482448  0.85024221  0.49858976  1
  Ti  Ti35  1  0.05226296  0.88641136  0.82503163  1
  Ti  Ti36  1  0.32675497  0.15797081  0.19510601  1
  Ti  Ti37  1  0.37312848  0.19690253  0.44621439  1
  Ti  Ti38  1  0.34246728  0.24607548  0.85175034  1
  Ti  Ti39  1  0.32139827  0.51504299  0.22061706  1
  Ti  Ti40  1  0.28146115  0.44135267  0.49200569  1
  Ti  Ti41  1  0.35890115  0.44992833  0.83867612  1
  Ti  Ti42  1  0.31371048  0.82390955  0.18852491  1
  Ti  Ti43  1  0.26843889  0.81069363  0.48963052  1
  Ti  Ti44  1  0.42145702  0.80230814  0.89973741  1
  Ti  Ti45  1  0.74864703  0.13534951  0.15284603  1
  Ti  Ti46  1  0.59476217  0.15848932  0.51802571  1
  Ti  Ti47  1  0.65088929  0.17789684  0.88847740  1
  Ti  Ti48  1  0.67574265  0.49512154  0.12510280  1
  Ti  Ti49  1  0.60896446  0.49843731  0.53930344  1
  Ti  Ti50  1  0.71549355  0.47547494  0.83340939  1
  Ti  Ti51  1  0.67060062  0.85130757  0.25308491  1
  Ti  Ti52  1  0.66722018  0.84051072  0.46677137  1
  Ti  Ti53  1  0.64794428  0.80973609  0.92411293  1
  Ti  Ti54  1  0.21716969  -0.00294519  0.10992023  1
  Ti  Ti55  1  0.19950016  0.03026699  0.46313058  1
  Ti  Ti56  1  0.24870431  -0.10400534  0.84476419  1
  Ti  Ti57  1  0.12907816  0.27847056  0.24007524  1
  Ti  Ti58  1  0.18286328  0.24133556  0.47942719  1
  Ti  Ti59  1  0.19983580  0.36732353  0.76013213  1
  Ti  Ti60  1  0.11570595  0.71414090  0.23460446  1
  Ti  Ti61  1  0.08952827  0.63542006  0.49544969  1
  Ti  Ti62  1  0.20262893  0.59677977  0.82206732  1
  Ti  Ti63  1  0.39782718  -0.02468828  0.11931981  1
  Ti  Ti64  1  0.39123982  -0.00525008  0.47000870  1
  Ti  Ti65  1  0.47506352  -0.01855500  0.79202335  1
  Ti  Ti66  1  0.46733721  0.30573900  0.11028120  1
  Ti  Ti67  1  0.47724989  0.36996861  0.54993542  1
  Ti  Ti68  1  0.47903472  0.34029031  0.74034417  1
  Ti  Ti69  1  0.56773040  0.72409805  0.14486249  1
  Ti  Ti70  1  0.54561010  0.68856001  0.55720693  1
  Ti  Ti71  1  0.55625709  0.66214563  0.82064541  1
  Ti  Ti72  1  0.86087091  -0.07705153  0.09475759  1
  Ti  Ti73  1  0.76239055  0.00434355  0.50280576  1
  Ti  Ti74  1  0.79938831  0.04796875  0.77100035  1
  Ti  Ti75  1  0.88550566  0.33553828  0.22555673  1
  Ti  Ti76  1  0.85453553  0.37795587  0.51375054  1
  Ti  Ti77  1  0.84009788  0.24046943  0.84414491  1
  Ti  Ti78  1  0.80706060  0.64813581  0.15541338  1
  Ti  Ti79  1  0.82380522  0.74727553  0.49355035  1
  Ti  Ti80  1  0.76355012  0.67084745  0.81272062  1
  Ti  Ti81  1  0.20031314  0.18619951  0.00740932  1
  Ti  Ti82  1  0.09837838  0.08349726  0.29674963  1
  Ti  Ti83  1  0.12029296  0.17605147  0.65536426  1
  Ti  Ti84  1  0.17703660  0.50456606  0.07334861  1
  Ti  Ti85  1  0.17312169  0.54379777  0.33994499  1
  Ti  Ti86  1  0.16442806  0.51339089  0.63568013  1
  Ti  Ti87  1  0.21653766  0.76901557  0.04027124  1
  Ti  Ti88  1  0.17537886  0.89034392  0.32169853  1
  Ti  Ti89  1  0.14977595  0.90333303  0.66153588  1
  Ti  Ti90  1  0.50065118  0.11680430  0.06896014  1
  Ti  Ti91  1  0.55267233  0.20849802  0.26754740  1
  Ti  Ti92  1  0.53864167  0.16500800  0.73460363  1
  Ti  Ti93  1  0.51013838  0.48973234  -0.01345850  1
  Ti  Ti94  1  0.52809391  0.53205979  0.25858560  1
  Ti  Ti95  1  0.47203436  0.54471540  0.69045014  1
  Ti  Ti96  1  0.57403196  0.91058186  0.08036581  1
  Ti  Ti97  1  0.48965934  0.83106093  0.41087130  1
  Ti  Ti98  1  0.46285334  0.79208674  0.70175140  1
  Ti  Ti99  1  0.84514246  0.08925253  -0.02090006  1
  Ti  Ti100  1  0.85908846  0.11802852  0.31358027  1
  Ti  Ti101  1  0.82206230  0.17158398  0.60563393  1
  Ti  Ti102  1  0.86012422  0.45129811  0.05522358  1
  Ti  Ti103  1  0.87714445  0.52702278  0.34509889  1
  Ti  Ti104  1  0.78558687  0.49935641  0.64467993  1
  Ti  Ti105  1  0.83829641  0.75016465  -0.01911773  1
  Ti  Ti106  1  0.83229165  0.89914044  0.35911322  1
  Ti  Ti107  1  0.87928947  0.81074539  0.67470593  1
  Co  Co108  1  0.15136445  0.02910791  0.77133488  1
  Co  Co109  1  0.61987852  0.22838470  0.10655328  1
  Co  Co110  1  0.72069904  0.95754816  0.05269045  1
  Co  Co111  1  0.61606369  0.43806201  0.69227058  1
  Co  Co112  1  0.30742421  0.53651174  0.71277919  1
  Co  Co113  1  0.75268390  0.33251415  0.12769251  1
  Co  Co114  1  0.87666285  0.62364164  0.70569975  1
  Co  Co115  1  0.64950984  0.09016406  0.02377612  1
  Co  Co116  1  -0.01826107  0.19946938  0.23098589  1
  Co  Co117  1  0.74930183  0.90128457  0.63270405  1
  Co  Co118  1  0.45731859  0.22028058  0.60556765  1
  Co  Co119  1  0.88525477  0.29846248  0.01248307  1
  Co  Co120  1  0.88211978  -0.00761021  0.61501299  1
  Co  Co121  1  0.07418555  1.01524274  0.56313701  1
  Co  Co122  1  0.15879438  0.04284415  0.92973582  1
  Co  Co123  1  0.51365666  0.28128943  0.41669847  1
  Co  Co124  1  0.56882163  0.87204892  0.59290802  1
  Co  Co125  1  0.40895218  0.84796100  0.56455933  1
  Co  Co126  1  0.36791532  0.68275199  0.76983933  1
  Co  Co127  1  0.30673881  0.90367616  -0.00147453  1
  Co  Co128  1  0.28950251  0.81438429  0.68776848  1
  Co  Co129  1  0.33986330  0.40555349  0.64537231  1
  Co  Co130  1  0.12297023  0.87849067  0.16524197  1
  Co  Co131  1  0.40856000  0.53982869  0.54365215  1
  Co  Co132  1  0.14046102  0.73442401  0.39168817  1
  Co  Co133  1  0.24697416  0.64739737  0.16252295  1
  Co  Co134  1  0.91674656  0.88639841  0.50023216  1
  Co  Co135  1  0.50167502  0.11383794  0.39412557  1
  Co  Co136  1  0.02075998  0.59699989  0.34880484  1
  Co  Co137  1  0.05934852  0.50704506  0.77553391  1
  Co  Co138  1  0.90969363  0.76475647  0.83596037  1
  Co  Co139  1  0.43057609  0.80950680  0.06906301  1
  Co  Co140  1  0.79110448  0.34852878  0.72455759  1
  Co  Co141  1  0.52563119  0.57756518  0.42808972  1
  Co  Co142  1  0.89838944  0.92460586  0.78370821  1
  Co  Co143  1  0.60574935  0.36814537  0.18617506  1
  Co  Co144  1  0.46365596  0.36975827  0.26427411  1
  Co  Co145  1  0.81787117  0.93462518  0.92192872  1
  Co  Co146  1  0.48538723  0.85058895  0.22659216  1
  Co  Co147  1  0.75104552  0.22103259  1.00826455  1
  Co  Co148  1  0.78034192  0.98333811  0.22879680  1
  Co  Co149  1  1.01691346  0.42539823  0.30740975  1
  Co  Co150  1  0.28138563  0.71636854  0.90569832  1
  Co  Co151  1  0.60712494  0.03174648  0.18366063  1
  Co  Co152  1  0.12724418  0.88686377  0.98109981  1
  Co  Co153  1  0.40594322  0.70222817  0.48785774  1
  Co  Co154  1  0.25304347  0.61564830  0.47413248  1
  Co  Co155  1  0.51009221  0.58103783  0.11419192  1
  Co  Co156  1  0.03109699  -0.03173922  0.39597070  1
  Co  Co157  1  0.96211358  0.87391891  -0.03676099  1
  Co  Co158  1  0.75696998  0.84430783  0.80068110  1
  Co  Co159  1  0.15674531  0.37252829  0.38744145  1
  Co  Co160  1  0.50856722  0.69094750  0.98222438  1
  Co  Co161  1  0.20847402  0.17553325  0.80286948  1
  Ni  Ni162  1  0.94644972  0.20508114  0.71048515  1
  Ni  Ni163  1  0.23711465  0.16725363  0.33996662  1
  Ni  Ni164  1  0.48392172  0.12227988  0.89596473  1
  Ni  Ni165  1  0.54374013  0.71123953  0.31431088  1
  Ni  Ni166  1  0.13157400  0.13974904  0.14731117  1
  Ni  Ni167  1  0.34770147  0.87942175  0.34270643  1
  Ni  Ni168  1  0.91865241  0.06894210  0.15784189  1
  Ni  Ni169  1  0.71908411  0.25347967  0.27956317  1
  Ni  Ni170  1  0.70572607  0.18436483  0.72326355  1
  Ni  Ni171  1  0.01195576  0.57749636  0.62493518  1
  Ni  Ni172  1  0.37452261  0.11743916  0.74433162  1
  Ni  Ni173  1  0.86653253  0.22858232  0.45349985  1
  Ni  Ni174  1  0.18903127  0.45455658  0.90664038  1
  Ni  Ni175  1  0.40794481  0.45221775  0.11268760  1
  Ni  Ni176  1  0.59796788  0.86937623  0.76968167  1
  Ni  Ni177  1  0.16764663  0.43216128  0.22017448  1
  Ni  Ni178  1  0.63595983  0.32134068  0.80812276  1
  Ni  Ni179  1  0.29912000  0.10736061  0.57494681  1
  Ni  Ni180  1  0.94578654  0.43617364  0.64225232  1
  Ni  Ni181  1  0.28790932  0.01911624  0.28603042  1
  Ni  Ni182  1  0.70214128  0.30926346  0.46009682  1
  Ni  Ni183  1  0.97737223  0.02672588  0.88996328  1
  Ni  Ni184  1  0.41415931  0.59305868  0.88581900  1
  Ni  Ni185  1  0.27795984  0.31204156  0.14911515  1
  Ni  Ni186  1  0.02147410  0.38273496  0.13306293  1
  Ni  Ni187  1  0.47656101  0.32677695  0.92444721  1
  Ni  Ni188  1  0.79979971  0.70674186  0.32002315  1
  Ni  Ni189  1  -0.00603019  0.28027784  0.56462752  1
  Ni  Ni190  1  0.79520465  0.57441582  0.97016245  1
  Ni  Ni191  1  0.71671741  0.78916102  0.09411391  1
  Ni  Ni192  1  0.17282032  0.75853032  0.78815406  1
  Ni  Ni193  1  0.94007033  0.61866356  0.03764006  1
  Ni  Ni194  1  0.97381360  0.73104991  0.56743254  1
  Ni  Ni195  1  0.74708396  0.48476531  0.44838894  1
  Ni  Ni196  1  0.64555181  0.59645404  0.69713931  1
  Ni  Ni197  1  0.47231082  0.05302836  0.61281613  1
  Ni  Ni198  1  0.86201497  0.40087577  0.88135390  1
  Ni  Ni199  1  0.14823874  0.29843304  0.90308165  1
  Ni  Ni200  1  0.09773209  0.64681252  0.07939749  1
  Ni  Ni201  1  0.56726465  0.98976705  0.48104001  1
  Ni  Ni202  1  0.73259052  0.62778655  0.55714941  1
  Ni  Ni203  1  0.85957844  0.80299584  0.20835419  1
  Ni  Ni204  1  0.14419976  0.34982936  0.60055197  1
  Ni  Ni205  1  0.43409560  0.43984762  0.40332164  1
  Ni  Ni206  1  0.47086545  0.95929136  0.95824461  1
  Ni  Ni207  1  0.72334880  0.54459513  0.27675266  1
  Ni  Ni208  1  0.40864517  0.68140054  0.21186896  1
  Ni  Ni209  1  0.07152288  0.56136498  0.93871032  1
  Ni  Ni210  1  0.89605852  0.57798265  0.50798453  1
  Ni  Ni211  1  0.54544016  0.46808966  0.83371766  1
  Ni  Ni212  1  0.73353259  0.15298275  0.42724868  1
  Ni  Ni213  1  0.27499188  0.71648017  0.31393522  1
  Ni  Ni214  1  0.14486981  0.73337802  0.62379990  1
  Ni  Ni215  1  0.36668978  0.20520205  0.01517188  1
