# generated using pymatgen
data_Ti2CoNi
_symmetry_space_group_name_H-M   'P 1'
_cell_length_a   14.56923745
_cell_length_b   14.54125757
_cell_length_c   14.62311121
_cell_angle_alpha   89.94012081
_cell_angle_beta   90.40340663
_cell_angle_gamma   89.83809009
_symmetry_Int_Tables_number   1
_chemical_formula_structural   Ti2CoNi
_chemical_formula_sum   'Ti108 Co54 Ni54'
_cell_volume   3097.88881590
_cell_formula_units_Z   54
loop_
 _symmetry_equiv_pos_site_id
 _symmetry_equiv_pos_as_xyz
  1  'x, y, z'
loop_
 _atom_site_type_symbol
 _atom_site_label
 _atom_site_symmetry_multiplicity
 _atom_site_fract_x
 _atom_site_fract_y
 _atom_site_fract_z
 _atom_site_occupancy
  Ti  Ti0  1  -0.10732823  0.00272850  -0.03495822  1
  Ti  Ti1  1  -0.01205723  -0.02791937  0.27737579  1
  Ti  Ti2  1  -0.08809946  -0.00729101  0.60820556  1
  Ti  Ti3  1  0.00019308  0.32184001  -0.04528675  1
  Ti  Ti4  1  -0.06167464  0.30040804  0.37384887  1
  Ti  Ti5  1  0.06562553  0.30557452  0.63551893  1
  Ti  Ti6  1  0.01682282  0.61100012  0.03301856  1
  Ti  Ti7  1  -0.01127947  0.65763968  0.24906767  1
  Ti  Ti8  1  0.02899209  0.65515738  0.64813506  1
  Ti  Ti9  1  0.33124328  -0.03838783  0.02287553  1
  Ti  Ti10  1  0.28954486  0.10205062  0.33650879  1
  Ti  Ti11  1  0.36379339  -0.00510915  0.71676480  1
  Ti  Ti12  1  0.30029828  0.34646290  -0.05396006  1
  Ti  Ti13  1  0.37895283  0.28815697  0.34890237  1
  Ti  Ti14  1  0.39271800  0.32037596  0.69024567  1
  Ti  Ti15  1  0.32594669  0.73795308  0.04704171  1
  Ti  Ti16  1  0.28401209  0.69636940  0.37430732  1
  Ti  Ti17  1  0.31433178  0.71246189  0.71584544  1
  Ti  Ti18  1  0.63559829  0.03833847  0.01238924  1
  Ti  Ti19  1  0.65690884  -0.05440064  0.34595657  1
  Ti  Ti20  1  0.63229026  -0.01510070  0.66559807  1
  Ti  Ti21  1  0.71142713  0.27694457  0.03935387  1
  Ti  Ti22  1  0.66576342  0.39539843  0.30632357  1
  Ti  Ti23  1  0.62679661  0.33626046  0.68534553  1
  Ti  Ti24  1  0.70959199  0.59847301  0.00134099  1
  Ti  Ti25  1  0.65600825  0.65662396  0.30501641  1
  Ti  Ti26  1  0.66406589  0.66442522  0.79362052  1
  Ti  Ti27  1  0.05923350  0.13462584  0.22850265  1
  Ti  Ti28  1  -0.16838298  0.14418308  0.48882202  1
  Ti  Ti29  1  0.06898422  0.15704391  0.81920145  1
  Ti  Ti30  1  0.07486659  0.48139337  0.21087704  1
  Ti  Ti31  1  -0.03524112  0.48048148  0.51857674  1
  Ti  Ti32  1  -0.00179476  0.52639924  0.79658082  1
  Ti  Ti33  1  0.04542171  0.82040067  0.15575849  1
  Ti  Ti34  1  0.01484506  0.84407338  0.49179631  1
  Ti  Ti35  1  0.03732400  0.83879626  0.88028001  1
  Ti  Ti36  1  0.37267888  0.23436534  0.15854913  1
  Ti  Ti37  1  0.27669217  0.14664198  0.56297634  1
  Ti  Ti38  1  0.27871408  0.15174209  0.85314856  1
  Ti  Ti39  1  0.40505955  0.43256028  0.15171411  1
  Ti  Ti40  1  0.33961739  0.52217071  0.58429480  1
  Ti  Ti41  1  0.36481452  0.56266026  0.79820639  1
  Ti  Ti42  1  0.32626582  0.92552809  0.23691909  1
  Ti  Ti43  1  0.34266977  0.86243124  0.55983638  1
  Ti  Ti44  1  0.37354400  0.85272764  0.86280121  1
  Ti  Ti45  1  0.66547281  0.20178998  0.24591013  1
  Ti  Ti46  1  0.64430396  0.25248189  0.49591963  1
  Ti  Ti47  1  0.69907680  0.18248774  0.78817115  1
  Ti  Ti48  1  0.59845301  0.52930177  0.17260990  1
  Ti  Ti49  1  0.69848523  0.50599825  0.46251956  1
  Ti  Ti50  1  0.70645497  0.46963396  0.85395197  1
  Ti  Ti51  1  0.71679701  0.81241988  0.22043669  1
  Ti  Ti52  1  0.71856271  0.86058498  0.52859973  1
  Ti  Ti53  1  0.60185456  0.87150136  0.88918431  1
  Ti  Ti54  1  0.22818617  0.08548431  0.14207470  1
  Ti  Ti55  1  0.16103910  -0.00535830  0.44346770  1
  Ti  Ti56  1  0.18374046  -0.02445014  0.81801707  1
  Ti  Ti57  1  0.16734231  0.28174904  0.10389449  1
  Ti  Ti58  1  0.16075898  0.41628802  0.51607604  1
  Ti  Ti59  1  0.11853502  0.35782285  0.81840802  1
  Ti  Ti60  1  0.17306311  0.65471143  0.15823984  1
  Ti  Ti61  1  0.09052520  0.66802418  0.44429197  1
  Ti  Ti62  1  0.15027774  0.64274765  0.88460649  1
  Ti  Ti63  1  0.52560739  -0.05646522  0.18475405  1
  Ti  Ti64  1  0.57679296  0.04676373  0.47907844  1
  Ti  Ti65  1  0.52387444  0.08896434  0.80821175  1
  Ti  Ti66  1  0.57228886  0.33997973  0.12485305  1
  Ti  Ti67  1  0.51039759  0.39729592  0.45507909  1
  Ti  Ti68  1  0.57125504  0.34430268  0.88785552  1
  Ti  Ti69  1  0.44870174  0.63108403  0.21515088  1
  Ti  Ti70  1  0.57941239  0.67229428  0.48609201  1
  Ti  Ti71  1  0.45583953  0.69341507  0.90488819  1
  Ti  Ti72  1  0.81621093  -0.07120398  0.11266156  1
  Ti  Ti73  1  0.85748358  -0.04944825  0.41777036  1
  Ti  Ti74  1  0.74981954  -0.00509594  0.82258144  1
  Ti  Ti75  1  0.88075720  0.36154308  0.13554269  1
  Ti  Ti76  1  0.83169766  0.33946189  0.55228774  1
  Ti  Ti77  1  0.81920644  0.28395960  0.88679120  1
  Ti  Ti78  1  0.87176533  0.70481338  0.10038351  1
  Ti  Ti79  1  0.81222174  0.64671120  0.52287311  1
  Ti  Ti80  1  0.83174325  0.71695507  0.71630777  1
  Ti  Ti81  1  0.05729776  0.12305276  0.02814135  1
  Ti  Ti82  1  0.11062758  0.21419121  0.40959642  1
  Ti  Ti83  1  0.09814674  0.10743980  0.61994018  1
  Ti  Ti84  1  0.19976217  0.49962993  0.04104909  1
  Ti  Ti85  1  0.22350005  0.40999547  0.33232380  1
  Ti  Ti86  1  0.23905706  0.43829676  0.71114760  1
  Ti  Ti87  1  0.14152512  0.92976929  0.02224011  1
  Ti  Ti88  1  0.16592322  0.82574995  0.30060275  1
  Ti  Ti89  1  0.16683982  0.77445052  0.60673963  1
  Ti  Ti90  1  0.45298707  0.13379744  -0.00389348  1
  Ti  Ti91  1  0.49584954  0.09620262  0.28593138  1
  Ti  Ti92  1  0.46727735  0.14804933  0.59602971  1
  Ti  Ti93  1  0.41915456  0.50056890  -0.02722798  1
  Ti  Ti94  1  0.41344287  0.56398798  0.40466330  1
  Ti  Ti95  1  0.52759377  0.54363878  0.69826094  1
  Ti  Ti96  1  0.49549849  0.82849574  0.03813654  1
  Ti  Ti97  1  0.50675544  0.78695247  0.32108080  1
  Ti  Ti98  1  0.53876036  0.80457238  0.62685210  1
  Ti  Ti99  1  0.88167468  0.18393534  0.04009487  1
  Ti  Ti100  1  0.84399921  0.15068594  0.26961851  1
  Ti  Ti101  1  0.90618307  0.18283740  0.68850667  1
  Ti  Ti102  1  0.86796146  0.48720378  -0.01881465  1
  Ti  Ti103  1  0.81318830  0.54535763  0.29611374  1
  Ti  Ti104  1  0.76587833  0.49468949  0.67967447  1
  Ti  Ti105  1  0.83561833  0.77343868  -0.10176636  1
  Ti  Ti106  1  0.85276789  0.75002451  0.37320985  1
  Ti  Ti107  1  0.98610006  0.84342769  0.69396214  1
  Co  Co108  1  0.61255948  0.14917420  0.64588470  1
  Co  Co109  1  0.93734471  0.44232739  0.28718661  1
  Co  Co110  1  0.89938144  0.11741437  0.84031991  1
  Co  Co111  1  0.00988652  -0.02446083  0.09710036  1
  Co  Co112  1  0.19391667  0.07102026  0.96213626  1
  Co  Co113  1  0.64339372  0.88699244  0.08276865  1
  Co  Co114  1  0.23824758  0.54461758  0.43147515  1
  Co  Co115  1  0.29935946  0.54755054  0.26869594  1
  Co  Co116  1  0.32927332  0.57513391  0.11132667  1
  Co  Co117  1  0.42408406  0.80841859  0.18014962  1
  Co  Co118  1  0.14400947  0.96999918  0.21404941  1
  Co  Co119  1  0.29765235  0.61876475  0.95086306  1
  Co  Co120  1  0.07988355  0.47516830  0.66378363  1
  Co  Co121  1  0.90323561  0.94052881  0.80274304  1
  Co  Co122  1  0.96133696  0.29219742  0.79174696  1
  Co  Co123  1  0.82333507  0.41788989  0.40473067  1
  Co  Co124  1  0.79710660  0.89208148  0.68836118  1
  Co  Co125  1  0.80608927  0.97400161  0.26894272  1
  Co  Co126  1  0.73518015  0.02116363  0.52025754  1
  Co  Co127  1  0.75163265  0.89686200  0.95682248  1
  Co  Co128  1  0.66658226  0.02506671  0.19902542  1
  Co  Co129  1  0.82295933  0.59691867  0.84906577  1
  Co  Co130  1  0.89920060  0.56700943  0.65084777  1
  Co  Co131  1  0.73870082  0.76378018  0.05263946  1
  Co  Co132  1  0.30501426  0.71379805  0.21997959  1
  Co  Co133  1  0.41570899  0.24399391  0.87583048  1
  Co  Co134  1  0.56960374  0.54279260  0.35657860  1
  Co  Co135  1  0.19055982  0.59664462  0.73021915  1
  Co  Co136  1  0.03035825  0.00866167  0.73435748  1
  Co  Co137  1  0.59293054  0.19300361  0.93321890  1
  Co  Co138  1  0.69955225  0.10343972  0.37236802  1
  Co  Co139  1  0.28582516  0.67884180  0.53747096  1
  Co  Co140  1  0.13996120  0.59496630  0.31066182  1
  Co  Co141  1  0.03819258  1.01089953  0.89683616  1
  Co  Co142  1  0.74505608  0.12335412  0.10363332  1
  Co  Co143  1  0.69867394  0.74695894  0.62598697  1
  Co  Co144  1  0.41131170  0.28075604  0.52074219  1
  Co  Co145  1  0.33485077  0.41302343  0.46340138  1
  Co  Co146  1  0.68965636  0.78387205  0.39315310  1
  Co  Co147  1  0.76338183  0.26051645  0.39258431  1
  Co  Co148  1  0.06678934  0.45145951  0.38383242  1
  Co  Co149  1  0.25340329  0.26237927  0.44385048  1
  Co  Co150  1  0.80227762  0.32979712  0.25724020  1
  Co  Co151  1  0.08559622  0.94117849  0.59264653  1
  Co  Co152  1  0.74375824  0.62484609  0.16465193  1
  Co  Co153  1  0.26146044  0.31386445  0.59276752  1
  Co  Co154  1  0.75639078  0.12898863  0.93492581  1
  Co  Co155  1  0.78233584  0.06680780  0.67460413  1
  Co  Co156  1  0.89911009  0.06899370  0.14636994  1
  Co  Co157  1  0.74714733  0.21626306  0.61952301  1
  Co  Co158  1  0.23053773  -0.00680965  0.62003113  1
  Co  Co159  1  0.56854250  0.15818954  0.11731762  1
  Co  Co160  1  0.66271370  0.83075352  0.75286889  1
  Co  Co161  1  0.52344346  0.24214907  0.76068615  1
  Ni  Ni162  1  0.15949566  0.58014813  0.57092814  1
  Ni  Ni163  1  0.95011041  0.58550275  0.39227548  1
  Ni  Ni164  1  0.87076579  0.43026794  0.82664001  1
  Ni  Ni165  1  0.51091800  0.26504174  0.25350194  1
  Ni  Ni166  1  0.25486855  0.86545945  0.72442443  1
  Ni  Ni167  1  0.20306927  0.82707342  0.46040920  1
  Ni  Ni168  1  0.66156385  0.59857692  0.61462046  1
  Ni  Ni169  1  1.00704483  0.80994396  0.33487007  1
  Ni  Ni170  1  0.40035935  0.06356528  0.14781881  1
  Ni  Ni171  1  -0.03050897  0.11282492  0.38389544  1
  Ni  Ni172  1  0.15845064  0.24580810  0.93996684  1
  Ni  Ni173  1  0.55220446  0.85821767  0.47033845  1
  Ni  Ni174  1  0.24796025  0.40289038  0.17018682  1
  Ni  Ni175  1  0.11674418  0.74904309  0.01715195  1
  Ni  Ni176  1  0.61713682  0.72029384  0.95573405  1
  Ni  Ni177  1  0.13157404  0.75836968  0.76713737  1
  Ni  Ni178  1  0.29655539  0.18854292  0.01881311  1
  Ni  Ni179  1  0.07376049  0.48317431  0.93195599  1
  Ni  Ni180  1  0.22188806  0.83483012  0.13530819  1
  Ni  Ni181  1  0.47391794  0.95027886  0.35646571  1
  Ni  Ni182  1  0.37590448  0.16033564  0.73003154  1
  Ni  Ni183  1  0.97396636  0.69360873  0.81197237  1
  Ni  Ni184  1  0.59856780  0.46353025  1.01012998  1
  Ni  Ni185  1  0.93339040  0.40343123  0.67499451  1
  Ni  Ni186  1  0.73557358  0.45034862  0.11918562  1
  Ni  Ni187  1  0.87153280  0.80320883  0.56049530  1
  Ni  Ni188  1  -0.01740334  0.20689235  0.52705566  1
  Ni  Ni189  1  0.50494952  0.91137904  0.75634867  1
  Ni  Ni190  1  0.42373321  0.74415758  0.46204817  1
  Ni  Ni191  1  0.48256029  0.72992373  0.75615999  1
  Ni  Ni192  1  0.07587630  0.31955069  0.27032899  1
  Ni  Ni193  1  0.40261958  0.06551933  0.45679758  1
  Ni  Ni194  1  0.60041969  0.45240910  0.57879349  1
  Ni  Ni195  1  0.01821068  0.43685878  0.07061523  1
  Ni  Ni196  1  0.95525089  0.83023267  0.01768272  1
  Ni  Ni197  1  0.89017024  0.82104396  0.22622024  1
  Ni  Ni198  1  0.31394868  0.92899504  0.39944112  1
  Ni  Ni199  1  0.46981533  0.97742512  0.92219863  1
  Ni  Ni200  1  0.55365979  0.55610225  0.87445445  1
  Ni  Ni201  1  0.79287284  0.32655993  0.72685029  1
  Ni  Ni202  1  0.44740325  0.41859875  0.80566947  1
  Ni  Ni203  1  0.45455799  0.32784105  0.01301664  1
  Ni  Ni204  1  0.51168591  0.20153166  0.41341833  1
  Ni  Ni205  1  0.49202503  0.42717422  0.28500798  1
  Ni  Ni206  1  0.23162649  0.48973373  0.87297319  1
  Ni  Ni207  1  0.59616310  0.72222712  0.14565464  1
  Ni  Ni208  1  0.20418389  0.23137042  0.71765527  1
  Ni  Ni209  1  0.22762341  0.24096247  0.26383457  1
  Ni  Ni210  1  1.00912187  0.26137667  0.12905321  1
  Ni  Ni211  1  0.43837429  0.66289957  0.60608276  1
  Ni  Ni212  1  0.51473593  0.61262336  0.04633212  1
  Ni  Ni213  1  0.21978700  0.81679701  0.90500106  1
  Ni  Ni214  1  0.89963129  0.53491093  0.14497603  1
  Ni  Ni215  1  0.47391284  0.96293225  0.58881780  1
