# generated using pymatgen
data_Ti2CoNi
_symmetry_space_group_name_H-M   'P 1'
_cell_length_a   14.64076862
_cell_length_b   14.66855863
_cell_length_c   14.65115879
_cell_angle_alpha   90.00959415
_cell_angle_beta   90.08045531
_cell_angle_gamma   89.87770310
_symmetry_Int_Tables_number   1
_chemical_formula_structural   Ti2CoNi
_chemical_formula_sum   'Ti108 Co54 Ni54'
_cell_volume   3146.45749909
_cell_formula_units_Z   54
loop_
 _symmetry_equiv_pos_site_id
 _symmetry_equiv_pos_as_xyz
  1  'x, y, z'
loop_
 _atom_site_type_symbol
 _atom_site_label
 _atom_site_symmetry_multiplicity
 _atom_site_fract_x
 _atom_site_fract_y
 _atom_site_fract_z
 _atom_site_occupancy
  Ti  Ti0  1  0.02039587  0.02010072  -0.03841155  1
  Ti  Ti1  1  0.05741996  -0.08180371  0.31114398  1
  Ti  Ti2  1  -0.08187250  0.04914197  0.69015972  1
  Ti  Ti3  1  -0.02939967  0.34208339  -0.02131670  1
  Ti  Ti4  1  -0.01513322  0.35907543  0.29672509  1
  Ti  Ti5  1  -0.03942481  0.34549305  0.66165639  1
  Ti  Ti6  1  0.02364689  0.70665057  0.04425039  1
  Ti  Ti7  1  0.02278313  0.66919215  0.31843827  1
  Ti  Ti8  1  -0.06511235  0.65128926  0.63813887  1
  Ti  Ti9  1  0.32892188  0.03171207  -0.05624839  1
  Ti  Ti10  1  0.35705064  -0.01261317  0.28176615  1
  Ti  Ti11  1  0.35102109  -0.00295845  0.62389750  1
  Ti  Ti12  1  0.42367880  0.30158762  0.02300276  1
  Ti  Ti13  1  0.35154041  0.36484012  0.37090916  1
  Ti  Ti14  1  0.27594320  0.25773644  0.62613613  1
  Ti  Ti15  1  0.31724148  0.67676390  -0.08066060  1
  Ti  Ti16  1  0.25548573  0.62111228  0.28619638  1
  Ti  Ti17  1  0.41447325  0.69038614  0.65386732  1
  Ti  Ti18  1  0.70475164  0.04247444  0.05736621  1
  Ti  Ti19  1  0.66282794  0.01279586  0.37621645  1
  Ti  Ti20  1  0.67186783  0.01478571  0.67745512  1
  Ti  Ti21  1  0.62373941  0.33645192  -0.05993880  1
  Ti  Ti22  1  0.63285209  0.28892358  0.36416598  1
  Ti  Ti23  1  0.69982562  0.29372561  0.72725862  1
  Ti  Ti24  1  0.62975883  0.70259278  0.04629529  1
  Ti  Ti25  1  0.61574955  0.71321024  0.35672977  1
  Ti  Ti26  1  0.62626216  0.61397121  0.69422259  1
  Ti  Ti27  1  -0.04542086  0.08862866  0.22411433  1
  Ti  Ti28  1  0.02088239  0.14819079  0.53955799  1
  Ti  Ti29  1  0.07204993  0.20013439  0.87387014  1
  Ti  Ti30  1  0.06676250  0.50534872  0.05746937  1
  Ti  Ti31  1  0.06360814  0.47942501  0.55927278  1
  Ti  Ti32  1  0.00246057  0.53893563  0.88030967  1
  Ti  Ti33  1  -0.04071474  0.85817736  0.15564107  1
  Ti  Ti34  1  -0.03555373  0.81166670  0.49210537  1
  Ti  Ti35  1  -0.04385254  0.75982432  0.81297817  1
  Ti  Ti36  1  0.29537395  0.16477214  0.19953275  1
  Ti  Ti37  1  0.39050472  0.14171154  0.48711272  1
  Ti  Ti38  1  0.28123946  0.22725835  0.85754599  1
  Ti  Ti39  1  0.41820212  0.50482199  0.16597644  1
  Ti  Ti40  1  0.30419684  0.52812035  0.57326539  1
  Ti  Ti41  1  0.32844108  0.51757854  0.82191958  1
  Ti  Ti42  1  0.35173329  0.88066748  0.08851341  1
  Ti  Ti43  1  0.32852290  0.83154376  0.51962242  1
  Ti  Ti44  1  0.31355897  0.85403776  0.86809243  1
  Ti  Ti45  1  0.65635935  0.12889151  0.23570530  1
  Ti  Ti46  1  0.60072506  0.21527051  0.56128778  1
  Ti  Ti47  1  0.60360985  0.14817794  0.79022341  1
  Ti  Ti48  1  0.64981695  0.44728082  0.22717022  1
  Ti  Ti49  1  0.73185178  0.45804741  0.47821273  1
  Ti  Ti50  1  0.63765989  0.56001853  0.88352364  1
  Ti  Ti51  1  0.74166484  0.83176493  0.12617863  1
  Ti  Ti52  1  0.65386442  0.86047162  0.49115003  1
  Ti  Ti53  1  0.73958221  0.75061707  0.88339095  1
  Ti  Ti54  1  0.12946003  0.04595356  0.17497408  1
  Ti  Ti55  1  0.13906988  -0.03570404  0.50079525  1
  Ti  Ti56  1  0.11874975  -0.10164750  0.82147404  1
  Ti  Ti57  1  0.19691497  0.31018833  0.23644386  1
  Ti  Ti58  1  0.13898515  0.33224289  0.44225693  1
  Ti  Ti59  1  0.16567313  0.38625501  0.91274183  1
  Ti  Ti60  1  0.22332693  0.65123028  0.08664716  1
  Ti  Ti61  1  0.15038712  0.62837049  0.46824994  1
  Ti  Ti62  1  0.12632687  0.67750241  0.80357927  1
  Ti  Ti63  1  0.48089003  0.05128578  0.12864272  1
  Ti  Ti64  1  0.47645826  -0.03127539  0.45610005  1
  Ti  Ti65  1  0.48278733  -0.03338793  0.77732926  1
  Ti  Ti66  1  0.56019394  0.26417795  0.15406876  1
  Ti  Ti67  1  0.51101871  0.41942775  0.49043677  1
  Ti  Ti68  1  0.46229483  0.30379587  0.83265241  1
  Ti  Ti69  1  0.44531878  0.70545258  0.13265405  1
  Ti  Ti70  1  0.45756417  0.66292177  0.47359860  1
  Ti  Ti71  1  0.47361828  0.72924957  0.82192145  1
  Ti  Ti72  1  0.79867076  -0.02865106  0.22278727  1
  Ti  Ti73  1  0.83754794  0.00464473  0.46220289  1
  Ti  Ti74  1  0.78361411  0.01520725  0.85951585  1
  Ti  Ti75  1  0.85460627  0.40124883  0.15452082  1
  Ti  Ti76  1  0.91383186  0.35668269  0.46781697  1
  Ti  Ti77  1  0.86922529  0.26569142  0.82136334  1
  Ti  Ti78  1  0.78144028  0.58776042  0.15423898  1
  Ti  Ti79  1  0.78591093  0.66016609  0.46730608  1
  Ti  Ti80  1  0.82620025  0.58670381  0.81235396  1
  Ti  Ti81  1  0.19112631  0.13929854  0.02288892  1
  Ti  Ti82  1  0.12996020  0.14764803  0.36460092  1
  Ti  Ti83  1  0.16887028  0.10718072  0.69544863  1
  Ti  Ti84  1  0.24613633  0.43001708  0.09311103  1
  Ti  Ti85  1  0.12267463  0.48867851  0.26194715  1
  Ti  Ti86  1  0.14949555  0.47935282  0.73662205  1
  Ti  Ti87  1  0.15889570  0.89277531  0.04712021  1
  Ti  Ti88  1  0.23612355  0.83431284  0.34288118  1
  Ti  Ti89  1  0.21466561  0.80538202  0.67414134  1
  Ti  Ti90  1  0.56153153  0.15417055  -0.00824506  1
  Ti  Ti91  1  0.45504052  0.18697570  0.29076000  1
  Ti  Ti92  1  0.44151720  0.16256286  0.69141363  1
  Ti  Ti93  1  0.48178248  0.47597369  -0.05417121  1
  Ti  Ti94  1  0.52434356  0.52894760  0.33645852  1
  Ti  Ti95  1  0.43814945  0.42111181  0.68297904  1
  Ti  Ti96  1  0.56413344  0.88661671  0.05880382  1
  Ti  Ti97  1  0.42284070  0.80004967  0.33298072  1
  Ti  Ti98  1  0.59575024  0.81221834  0.68657959  1
  Ti  Ti99  1  0.86773841  0.16871327  0.00673849  1
  Ti  Ti100  1  0.83418267  0.24021156  0.31340508  1
  Ti  Ti101  1  0.81395156  0.17836569  0.58356481  1
  Ti  Ti102  1  0.81248296  0.46075525  -0.02842770  1
  Ti  Ti103  1  0.87356690  0.53521885  0.33661625  1
  Ti  Ti104  1  0.77780778  0.46286049  0.69018277  1
  Ti  Ti105  1  0.87192081  0.87058021  -0.02451454  1
  Ti  Ti106  1  0.82857542  0.74705820  0.29085704  1
  Ti  Ti107  1  0.89619086  0.85727656  0.67008938  1
  Co  Co108  1  0.05133143  0.04575536  0.78711502  1
  Co  Co109  1  0.26220367  0.68621833  0.57448026  1
  Co  Co110  1  0.52757725  0.40812362  0.10245594  1
  Co  Co111  1  0.50072700  0.37373255  0.28263234  1
  Co  Co112  1  0.75805615  0.61336401  0.98531591  1
  Co  Co113  1  0.15481581  0.28462576  0.74850491  1
  Co  Co114  1  0.18535730  0.05834523  0.87382795  1
  Co  Co115  1  0.09588930  0.62800398  0.17876272  1
  Co  Co116  1  0.76021821  0.60444911  0.61251077  1
  Co  Co117  1  0.03042937  0.36250606  0.81498478  1
  Co  Co118  1  0.89850081  0.90983821  0.33042270  1
  Co  Co119  1  0.93697989  0.93259230  0.82303707  1
  Co  Co120  1  0.32538696  0.09449172  0.77397616  1
  Co  Co121  1  0.55934343  0.88064608  0.34360218  1
  Co  Co122  1  0.26547328  0.95217580  0.75427586  1
  Co  Co123  1  0.12315701  0.61885923  0.64118855  1
  Co  Co124  1  0.83923303  0.72763735  0.07141761  1
  Co  Co125  1  0.28652654  1.02639574  0.11433933  1
  Co  Co126  1  0.55932762  0.12682379  0.43114414  1
  Co  Co127  1  0.91495638  0.56459911  0.04949119  1
  Co  Co128  1  0.58109636  0.42820727  0.78897181  1
  Co  Co129  1  0.10165181  0.78934032  0.20493460  1
  Co  Co130  1  0.21638797  0.90642466  0.19785148  1
  Co  Co131  1  0.30576653  0.69411720  0.42184344  1
  Co  Co132  1  1.00562341  0.20026594  0.71869902  1
  Co  Co133  1  0.38182041  0.14976896  0.04984782  1
  Co  Co134  1  0.20474469  0.47791165  0.42556691  1
  Co  Co135  1  0.91883894  0.11190983  0.84790475  1
  Co  Co136  1  0.11250236  0.29247273  1.03548464  1
  Co  Co137  1  0.92464947  0.26074622  0.14084254  1
  Co  Co138  1  0.26798073  0.27621560  0.05457327  1
  Co  Co139  1  0.63161518  0.96044644  0.20184646  1
  Co  Co140  1  0.54326524  0.29491273  0.69088826  1
  Co  Co141  1  0.88936614  0.42934850  0.81483391  1
  Co  Co142  1  0.90121306  0.67856477  0.93236885  1
  Co  Co143  1  0.93182588  0.67410109  0.18611416  1
  Co  Co144  1  0.32741581  0.38291537  0.92156511  1
  Co  Co145  1  0.98485376  0.51820843  0.71479817  1
  Co  Co146  1  0.96433933  0.51776990  0.20605271  1
  Co  Co147  1  0.10656765  0.26833425  0.59312787  1
  Co  Co148  1  0.29155196  0.37249746  0.75749629  1
  Co  Co149  1  0.81812059  0.08742027  0.32751928  1
  Co  Co150  1  0.73282576  0.41155457  0.84345515  1
  Co  Co151  1  0.42260890  0.64715583  0.29233348  1
  Co  Co152  1  0.48309447  0.27230317  0.42162716  1
  Co  Co153  1  0.81131457  0.82898348  0.44452621  1
  Co  Co154  1  0.40001002  0.84833304  0.70188326  1
  Co  Co155  1  0.20409645  0.40245361  0.59918246  1
  Co  Co156  1  0.37255677  0.32599340  0.18484906  1
  Co  Co157  1  0.28726704  0.45929496  0.26004905  1
  Co  Co158  1  0.04926054  0.77046729  0.66754454  1
  Co  Co159  1  0.77477011  0.13690267  0.74448643  1
  Co  Co160  1  0.71368856  0.85595710  0.31599486  1
  Co  Co161  1  0.51297643  0.03681188  0.29585668  1
  Ni  Ni162  1  0.66468567  0.90160469  0.80373179  1
  Ni  Ni163  1  0.49864425  0.55229511  0.60023289  1
  Ni  Ni164  1  0.61417314  0.56676133  0.47849462  1
  Ni  Ni165  1  0.30314258  0.98854491  0.45401879  1
  Ni  Ni166  1  0.04800645  0.37440947  0.15022192  1
  Ni  Ni167  1  0.47600645  0.89213115  0.20190847  1
  Ni  Ni168  1  0.02836658  0.84637511  0.94772433  1
  Ni  Ni169  1  0.72275063  0.16381495  0.43960481  1
  Ni  Ni170  1  0.60754683  0.70715268  0.55092485  1
  Ni  Ni171  1  0.52586050  0.05144158  0.60053374  1
  Ni  Ni172  1  0.49072411  0.63534779  0.97675421  1
  Ni  Ni173  1  -0.01663783  0.05154033  0.38992188  1
  Ni  Ni174  1  0.80738714  0.14577795  0.16393123  1
  Ni  Ni175  1  0.02679484  0.15033226  0.06829819  1
  Ni  Ni176  1  0.02864627  0.49516366  0.39821043  1
  Ni  Ni177  1  0.48614837  0.56438401  0.78291453  1
  Ni  Ni178  1  0.70599086  0.89689012  0.96557417  1
  Ni  Ni179  1  0.98257484  0.21926734  0.39004834  1
  Ni  Ni180  1  0.61023407  0.02056458  0.90507270  1
  Ni  Ni181  1  0.69621805  0.39494299  0.07754503  1
  Ni  Ni182  1  0.70724564  0.57479401  0.32966060  1
  Ni  Ni183  1  0.20252392  0.01262404  0.32924407  1
  Ni  Ni184  1  0.10196148  0.78274446  0.40873643  1
  Ni  Ni185  1  0.75726631  0.77186380  0.58955115  1
  Ni  Ni186  1  0.59765858  0.78080161  0.20428805  1
  Ni  Ni187  1  0.77866268  0.93453397  0.59133655  1
  Ni  Ni188  1  0.58122410  0.80694060  0.90755515  1
  Ni  Ni189  1  0.46584132  0.94740746  0.94324225  1
  Ni  Ni190  1  0.70248527  0.22350257  0.05911464  1
  Ni  Ni191  1  0.78527418  0.33853390  0.58111130  1
  Ni  Ni192  1  0.06160781  0.21668931  0.22146771  1
  Ni  Ni193  1  0.07601338  0.93368404  0.65970141  1
  Ni  Ni194  1  0.20939414  0.13244160  0.52097989  1
  Ni  Ni195  1  0.87778562  1.00934600  0.07374392  1
  Ni  Ni196  1  0.79517333  0.72417987  0.73169521  1
  Ni  Ni197  1  0.42883589  0.29107297  0.56913497  1
  Ni  Ni198  1  0.17040996  0.75407820  0.95064514  1
  Ni  Ni199  1  0.45399602  0.12366864  0.87489192  1
  Ni  Ni200  1  0.95552661  0.62786114  0.47152416  1
  Ni  Ni201  1  0.26915819  0.64051994  0.73150248  1
  Ni  Ni202  1  0.49106086  0.82721938  0.55027870  1
  Ni  Ni203  1  0.43461710  0.78803290  -0.02025600  1
  Ni  Ni204  1  0.17556480  0.56925101  0.93425489  1
  Ni  Ni205  1  0.28623057  0.20928649  0.37473253  1
  Ni  Ni206  1  0.62597171  0.42414204  0.61589659  1
  Ni  Ni207  1  0.78023339  0.39837633  0.32987616  1
  Ni  Ni208  1  0.97437027  -0.01981676  0.54394801  1
  Ni  Ni209  1  0.88553900  0.49602498  0.56004645  1
  Ni  Ni210  1  0.36114258  0.53381753  0.40519119  1
  Ni  Ni211  1  0.33759793  0.53736849  0.00692746  1
  Ni  Ni212  1  0.29338633  0.76004730  0.19372685  1
  Ni  Ni213  1  0.61691345  0.53723502  0.05365751  1
  Ni  Ni214  1  0.72448852  0.19258214  0.89814209  1
  Ni  Ni215  1  0.72345312  0.29319764  0.20570912  1
