# generated using pymatgen
data_Ti2CoNi
_symmetry_space_group_name_H-M   'P 1'
_cell_length_a   14.70300680
_cell_length_b   14.66840916
_cell_length_c   14.61665292
_cell_angle_alpha   89.75113019
_cell_angle_beta   89.90537715
_cell_angle_gamma   90.35940771
_symmetry_Int_Tables_number   1
_chemical_formula_structural   Ti2CoNi
_chemical_formula_sum   'Ti108 Co54 Ni54'
_cell_volume   3152.27323702
_cell_formula_units_Z   54
loop_
 _symmetry_equiv_pos_site_id
 _symmetry_equiv_pos_as_xyz
  1  'x, y, z'
loop_
 _atom_site_type_symbol
 _atom_site_label
 _atom_site_symmetry_multiplicity
 _atom_site_fract_x
 _atom_site_fract_y
 _atom_site_fract_z
 _atom_site_occupancy
  Ti  Ti0  1  -0.03969890  -0.00411742  -0.06423787  1
  Ti  Ti1  1  0.04711184  0.03942155  0.26680419  1
  Ti  Ti2  1  -0.00397084  -0.04772758  0.71273454  1
  Ti  Ti3  1  -0.05555205  0.35707216  0.06196032  1
  Ti  Ti4  1  -0.06560690  0.32126690  0.26748283  1
  Ti  Ti5  1  0.01210949  0.28687862  0.60152905  1
  Ti  Ti6  1  -0.01718485  0.70776463  0.04097591  1
  Ti  Ti7  1  0.01732163  0.72932442  0.27838159  1
  Ti  Ti8  1  0.01178347  0.75991648  0.69582050  1
  Ti  Ti9  1  0.25832541  -0.05734116  -0.04812336  1
  Ti  Ti10  1  0.27876494  -0.03823371  0.31803187  1
  Ti  Ti11  1  0.34883320  -0.01149748  0.65232592  1
  Ti  Ti12  1  0.38427813  0.32595710  -0.06113546  1
  Ti  Ti13  1  0.41847173  0.34315231  0.35086512  1
  Ti  Ti14  1  0.34402553  0.28500935  0.60207591  1
  Ti  Ti15  1  0.37966541  0.68357605  -0.04875298  1
  Ti  Ti16  1  0.31166565  0.64376417  0.28987475  1
  Ti  Ti17  1  0.34468301  0.63781662  0.64628806  1
  Ti  Ti18  1  0.60268051  0.02313648  0.04196172  1
  Ti  Ti19  1  0.62999733  0.06920143  0.25182602  1
  Ti  Ti20  1  0.65077113  0.00696551  0.66943868  1
  Ti  Ti21  1  0.74497151  0.31929811  -0.01766746  1
  Ti  Ti22  1  0.62291424  0.30308975  0.30533796  1
  Ti  Ti23  1  0.66669638  0.35855487  0.65605329  1
  Ti  Ti24  1  0.62484856  0.60333430  -0.00484914  1
  Ti  Ti25  1  0.66553813  0.67140795  0.39891359  1
  Ti  Ti26  1  0.71064766  0.67495885  0.72765706  1
  Ti  Ti27  1  0.04712915  0.18970039  0.11480951  1
  Ti  Ti28  1  0.00434177  0.10925268  0.47173908  1
  Ti  Ti29  1  0.00713817  0.23371598  0.81802866  1
  Ti  Ti30  1  0.05214655  0.46461239  0.20356955  1
  Ti  Ti31  1  0.05389356  0.47683418  0.56522131  1
  Ti  Ti32  1  0.00544843  0.41992309  0.86401035  1
  Ti  Ti33  1  -0.01574134  0.90102009  0.13538807  1
  Ti  Ti34  1  -0.03972925  0.87954404  0.52623871  1
  Ti  Ti35  1  -0.04422081  0.81759549  0.87665314  1
  Ti  Ti36  1  0.34816092  0.10283248  0.18761133  1
  Ti  Ti37  1  0.27500708  0.10624930  0.46693479  1
  Ti  Ti38  1  0.31136849  0.19511133  0.79577713  1
  Ti  Ti39  1  0.25511867  0.48684450  0.16712812  1
  Ti  Ti40  1  0.29542448  0.47467098  0.54583259  1
  Ti  Ti41  1  0.29294958  0.50825345  0.88619548  1
  Ti  Ti42  1  0.38339601  0.82594852  0.18489035  1
  Ti  Ti43  1  0.29801957  0.90567501  0.50201622  1
  Ti  Ti44  1  0.39283065  0.78177219  0.76385158  1
  Ti  Ti45  1  0.70701248  0.17439836  0.10641758  1
  Ti  Ti46  1  0.71790960  0.17768528  0.55452274  1
  Ti  Ti47  1  0.67804511  0.22440661  0.83862513  1
  Ti  Ti48  1  0.67798461  0.51478519  0.19473072  1
  Ti  Ti49  1  0.73040029  0.48813603  0.48391279  1
  Ti  Ti50  1  0.64065063  0.43256514  0.84589255  1
  Ti  Ti51  1  0.68134505  0.86414459  0.18735962  1
  Ti  Ti52  1  0.66044869  0.85537694  0.42879306  1
  Ti  Ti53  1  0.71874676  0.86249996  0.83398168  1
  Ti  Ti54  1  0.21211391  -0.06580551  0.14689162  1
  Ti  Ti55  1  0.13934115  0.01457386  0.58049411  1
  Ti  Ti56  1  0.20501104  0.02160951  0.77870170  1
  Ti  Ti57  1  0.25180905  0.26724721  0.12273799  1
  Ti  Ti58  1  0.09762665  0.29833209  0.42291688  1
  Ti  Ti59  1  0.19064512  0.34757615  0.85757529  1
  Ti  Ti60  1  0.16572095  0.65519644  0.14811117  1
  Ti  Ti61  1  0.16541797  0.65384143  0.51958268  1
  Ti  Ti62  1  0.11576657  0.68066505  0.85958139  1
  Ti  Ti63  1  0.41486611  -0.01280119  0.05003377  1
  Ti  Ti64  1  0.52373038  -0.06921975  0.53453647  1
  Ti  Ti65  1  0.53741139  -0.06381151  0.87063622  1
  Ti  Ti66  1  0.42358434  0.37696217  0.12501514  1
  Ti  Ti67  1  0.53653429  0.26570983  0.52424503  1
  Ti  Ti68  1  0.50190538  0.30226909  0.78813668  1
  Ti  Ti69  1  0.48710051  0.59842331  0.19076937  1
  Ti  Ti70  1  0.46913030  0.70500473  0.48558480  1
  Ti  Ti71  1  0.54161637  0.72501845  0.85337219  1
  Ti  Ti72  1  0.83207512  0.04375472  0.21310723  1
  Ti  Ti73  1  0.85217008  0.04299270  0.58767951  1
  Ti  Ti74  1  0.74439289  0.03992138  0.89139794  1
  Ti  Ti75  1  0.76758147  0.34866564  0.16656998  1
  Ti  Ti76  1  0.90106997  0.38324711  0.45248528  1
  Ti  Ti77  1  0.81174348  0.42284108  0.79808666  1
  Ti  Ti78  1  0.82627514  0.68231441  0.21672530  1
  Ti  Ti79  1  0.87883855  0.64597335  0.46978852  1
  Ti  Ti80  1  0.88703801  0.61711709  0.81670277  1
  Ti  Ti81  1  0.13382707  0.12223622  -0.05986397  1
  Ti  Ti82  1  0.26292998  0.22302244  0.31384012  1
  Ti  Ti83  1  0.12921184  0.17138564  0.69601673  1
  Ti  Ti84  1  0.11313816  0.49125217  0.01613767  1
  Ti  Ti85  1  0.20407504  0.49628048  0.38124072  1
  Ti  Ti86  1  0.20523471  0.49068772  0.71229395  1
  Ti  Ti87  1  0.10604770  0.85138573  -0.01707837  1
  Ti  Ti88  1  0.16524973  0.80204555  0.39339900  1
  Ti  Ti89  1  0.20392947  0.81272013  0.69605103  1
  Ti  Ti90  1  0.53848169  0.21132359  0.01593619  1
  Ti  Ti91  1  0.46655646  0.14352119  0.35422319  1
  Ti  Ti92  1  0.48072348  0.12056341  0.71760935  1
  Ti  Ti93  1  0.47981609  0.49736423  -0.09178720  1
  Ti  Ti94  1  0.52700166  0.51040631  0.39261255  1
  Ti  Ti95  1  0.49983718  0.48343577  0.68462928  1
  Ti  Ti96  1  0.53721876  0.79363034  0.05183576  1
  Ti  Ti97  1  0.47745027  0.85372031  0.34602725  1
  Ti  Ti98  1  0.59107900  0.81631405  0.69193201  1
  Ti  Ti99  1  0.88198981  0.17063322  -0.01997085  1
  Ti  Ti100  1  0.79894889  0.10121093  0.40082814  1
  Ti  Ti101  1  0.83968779  0.23727566  0.69278115  1
  Ti  Ti102  1  0.83172015  0.57668822  0.05151656  1
  Ti  Ti103  1  0.92395624  0.53722826  0.31852571  1
  Ti  Ti104  1  0.87497783  0.53287304  0.63994752  1
  Ti  Ti105  1  0.82246635  0.85672129  0.02717766  1
  Ti  Ti106  1  0.85875269  0.81438583  0.36790370  1
  Ti  Ti107  1  0.79209600  0.86136775  0.64481823  1
  Co  Co108  1  0.56342393  0.36010673  0.96415501  1
  Co  Co109  1  0.84343262  0.77527940  0.78053776  1
  Co  Co110  1  0.86169540  0.48143550  0.18308229  1
  Co  Co111  1  0.04929409  0.06426353  0.81112981  1
  Co  Co112  1  0.86913297  0.70961397  0.63808768  1
  Co  Co113  1  0.58295111  0.09726821  0.88165500  1
  Co  Co114  1  0.44833156  0.54669112  0.54537985  1
  Co  Co115  1  0.78005373  0.77053283  0.50990197  1
  Co  Co116  1  0.58146327  0.42683827  0.53547564  1
  Co  Co117  1  0.68252256  0.01548226  0.49151009  1
  Co  Co118  1  0.57067122  0.99228911  0.37350455  1
  Co  Co119  1  0.01653888  0.74830758  0.45428913  1
  Co  Co120  1  0.97909185  0.60974702  0.16514494  1
  Co  Co121  1  0.89464263  0.10761506  0.82461625  1
  Co  Co122  1  0.42770671  0.60568381  0.79581423  1
  Co  Co123  1  0.51287597  0.66437002  0.66491123  1
  Co  Co124  1  0.28456398  0.75577231  0.54697588  1
  Co  Co125  1  0.22052872  0.30090571  0.69926726  1
  Co  Co126  1  0.27607080  0.12995981  0.64313967  1
  Co  Co127  1  0.93635553  0.38503619  0.71172976  1
  Co  Co128  1  0.43556072  0.99735538  0.27129574  1
  Co  Co129  1  0.81002146  0.92874326  0.48034896  1
  Co  Co130  1  0.61706516  0.75244688  0.55357259  1
  Co  Co131  1  0.59214493  0.58337048  0.79934973  1
  Co  Co132  1  0.10482624  0.88892690  0.26950187  1
  Co  Co133  1  0.04500564  0.43739327  0.36971230  1
  Co  Co134  1  0.16879562  0.20456302  0.53684623  1
  Co  Co135  1  0.30436923  0.09392603  0.93598902  1
  Co  Co136  1  0.74087720  0.56933012  0.87972860  1
  Co  Co137  1  0.39642516  0.01642445  0.82975610  1
  Co  Co138  1  0.53362032  0.42539996  0.24037022  1
  Co  Co139  1  0.11498859  0.59167112  0.28832499  1
  Co  Co140  1  0.85942422  0.94620267  0.79552298  1
  Co  Co141  1  0.24444563  0.23995198  -0.03478345  1
  Co  Co142  1  0.11912631  0.35149454  0.11779152  1
  Co  Co143  1  0.11203591  0.87690594  0.82062919  1
  Co  Co144  1  0.74225324  0.62762755  0.57076583  1
  Co  Co145  1  0.29687195  0.89500887  0.80253687  1
  Co  Co146  1  0.59672455  0.59100042  0.53109461  1
  Co  Co147  1  0.43015600  0.39082633  0.50402671  1
  Co  Co148  1  0.26021981  0.41051744  1.02384685  1
  Co  Co149  1  0.17015094  0.37054240  0.56541415  1
  Co  Co150  1  0.71792487  0.51388105  0.70028516  1
  Co  Co151  1  0.24484918  0.77541705  0.89590410  1
  Co  Co152  1  0.70722883  0.46383173  0.02752252  1
  Co  Co153  1  0.08871587  0.38213535  0.72129520  1
  Co  Co154  1  0.13784628  0.13110168  0.38235244  1
  Co  Co155  1  0.44200582  0.16553040  0.88686635  1
  Co  Co156  1  0.61279505  0.33182408  0.12379146  1
  Co  Co157  1  0.67206527  0.89505921  1.00322546  1
  Co  Co158  1  0.23492003  0.78827482  0.23921975  1
  Co  Co159  1  0.51021388  0.10090491  0.15128583  1
  Co  Co160  1  0.38220847  0.18097271  0.04866746  1
  Co  Co161  1  0.10654452  0.79760010  0.13733784  1
  Ni  Ni162  1  0.91588750  0.98568781  0.36452630  1
  Ni  Ni163  1  0.00805590  0.63705399  0.58870366  1
  Ni  Ni164  1  0.07560946  0.28695302  0.97150547  1
  Ni  Ni165  1  0.47899898  0.24885801  0.21311182  1
  Ni  Ni166  1  0.55406039  0.75592417  0.22628698  1
  Ni  Ni167  1  0.67263316  0.75054592  0.94304894  1
  Ni  Ni168  1  0.78146398  0.02399637  0.05237660  1
  Ni  Ni169  1  0.93244838  0.15887104  0.30331236  1
  Ni  Ni170  1  0.76951271  0.09290664  0.72812134  1
  Ni  Ni171  1  0.33199555  0.77880876  0.38475749  1
  Ni  Ni172  1  0.97129404  0.12500705  0.66454473  1
  Ni  Ni173  1  0.82085722  0.37422556  0.59609814  1
  Ni  Ni174  1  0.26382839  0.79343652  0.05990203  1
  Ni  Ni175  1  0.13822670  0.97110348  0.41986949  1
  Ni  Ni176  1  0.78320700  0.39754520  0.32771388  1
  Ni  Ni177  1  0.09809405  0.02475801  0.07373303  1
  Ni  Ni178  1  0.43234758  0.81278492  0.60669463  1
  Ni  Ni179  1  0.54960526  0.48077565  0.08088466  1
  Ni  Ni180  1  0.49273506  0.94494583  0.70994362  1
  Ni  Ni181  1  0.84625457  0.85560068  0.20992150  1
  Ni  Ni182  1  0.94090348  1.06064533  0.09435018  1
  Ni  Ni183  1  0.52849437  0.92241124  0.16936778  1
  Ni  Ni184  1  0.76230675  0.56165909  0.33037682  1
  Ni  Ni185  1  0.27161402  0.65022925  0.79901740  1
  Ni  Ni186  1  0.62470385  0.19486976  0.68648234  1
  Ni  Ni187  1  0.70654209  0.32091905  0.46805101  1
  Ni  Ni188  1  0.76164380  0.20112629  0.27000100  1
  Ni  Ni189  1  0.35162810  0.66888228  0.12268578  1
  Ni  Ni190  1  1.02805079  0.54579142  0.74223657  1
  Ni  Ni191  1  1.03819795  0.58684678  0.43289694  1
  Ni  Ni192  1  0.14956706  0.64614257  0.68509593  1
  Ni  Ni193  1  0.82740960  0.71006445  0.94739351  1
  Ni  Ni194  1  0.85378453  0.27550851  0.85512475  1
  Ni  Ni195  1  0.32302183  0.61869830  0.45514807  1
  Ni  Ni196  1  0.27572188  0.32924451  0.44628024  1
  Ni  Ni197  1  0.18262066  0.10957177  0.20579231  1
  Ni  Ni198  1  0.40423080  0.85035414  0.93851224  1
  Ni  Ni199  1  0.86433363  0.45652048  0.95138450  1
  Ni  Ni200  1  0.38089758  0.48745289  0.28207718  1
  Ni  Ni201  1  -0.00131509  0.57875613  0.92871068  1
  Ni  Ni202  1  0.23549607  0.61532601  0.00329829  1
  Ni  Ni203  1  0.56257190  0.09863388  0.55176488  1
  Ni  Ni204  1  0.38472490  0.52723897  0.04335588  1
  Ni  Ni205  1  0.87426002  0.21287328  0.14601682  1
  Ni  Ni206  1  0.41533732  0.01008401  0.43805166  1
  Ni  Ni207  1  0.74771513  0.95089858  0.32378097  1
  Ni  Ni208  1  0.35459139  0.38412396  0.77201538  1
  Ni  Ni209  1  0.12372854  0.84478962  0.55432968  1
  Ni  Ni210  1  0.63078005  0.16217684  0.40392286  1
  Ni  Ni211  1  0.19335414  0.36981645  0.27882158  1
  Ni  Ni212  1  0.41192523  0.13710814  0.55397690  1
  Ni  Ni213  1  0.70987964  0.71629077  0.09958940  1
  Ni  Ni214  1  0.09365739  0.23864266  0.26237170  1
  Ni  Ni215  1  0.88049377  0.22035051  0.51120567  1
