# generated using pymatgen
data_Ti2CoNi
_symmetry_space_group_name_H-M   'P 1'
_cell_length_a   14.43916794
_cell_length_b   14.48590258
_cell_length_c   14.53132550
_cell_angle_alpha   89.83571398
_cell_angle_beta   90.16306756
_cell_angle_gamma   90.09960495
_symmetry_Int_Tables_number   1
_chemical_formula_structural   Ti2CoNi
_chemical_formula_sum   'Ti108 Co54 Ni54'
_cell_volume   3039.40633495
_cell_formula_units_Z   54
loop_
 _symmetry_equiv_pos_site_id
 _symmetry_equiv_pos_as_xyz
  1  'x, y, z'
loop_
 _atom_site_type_symbol
 _atom_site_label
 _atom_site_symmetry_multiplicity
 _atom_site_fract_x
 _atom_site_fract_y
 _atom_site_fract_z
 _atom_site_occupancy
  Ti  Ti0  1  -0.01928463  0.02576883  0.00994175  1
  Ti  Ti1  1  -0.04865154  0.02342193  0.31964463  1
  Ti  Ti2  1  -0.02321661  0.00182081  0.66949670  1
  Ti  Ti3  1  0.11429339  0.31801963  -0.01280471  1
  Ti  Ti4  1  0.12743149  0.28936598  0.29918923  1
  Ti  Ti5  1  -0.02061402  0.37232723  0.70707090  1
  Ti  Ti6  1  0.06696657  0.64820248  -0.01219263  1
  Ti  Ti7  1  0.05360900  0.58265383  0.36362129  1
  Ti  Ti8  1  -0.02557883  0.70342151  0.63745319  1
  Ti  Ti9  1  0.37206543  -0.05061914  0.02580705  1
  Ti  Ti10  1  0.32337960  0.04518123  0.23607356  1
  Ti  Ti11  1  0.22130523  0.04875002  0.70742389  1
  Ti  Ti12  1  0.33551709  0.27169640  -0.02298817  1
  Ti  Ti13  1  0.32337668  0.25328198  0.34405711  1
  Ti  Ti14  1  0.38269697  0.37862286  0.68222384  1
  Ti  Ti15  1  0.28648974  0.68810389  0.05498817  1
  Ti  Ti16  1  0.36872704  0.74294482  0.34708179  1
  Ti  Ti17  1  0.38411352  0.72883664  0.64565479  1
  Ti  Ti18  1  0.66401700  -0.05381912  -0.05515898  1
  Ti  Ti19  1  0.64074206  0.05100705  0.36677508  1
  Ti  Ti20  1  0.68790662  0.01522068  0.74923883  1
  Ti  Ti21  1  0.62415988  0.37689109  0.04486006  1
  Ti  Ti22  1  0.68031039  0.38628174  0.41108564  1
  Ti  Ti23  1  0.61303572  0.37725349  0.61283287  1
  Ti  Ti24  1  0.71410315  0.73838776  -0.02539811  1
  Ti  Ti25  1  0.67789631  0.70534763  0.28200621  1
  Ti  Ti26  1  0.70419417  0.56369834  0.64604228  1
  Ti  Ti27  1  -0.12893237  0.19539321  0.19542487  1
  Ti  Ti28  1  0.02498045  0.16728265  0.44087456  1
  Ti  Ti29  1  -0.00598088  0.18982543  0.87402439  1
  Ti  Ti30  1  -0.03798058  0.53697746  0.14405129  1
  Ti  Ti31  1  -0.03600351  0.48217515  0.55116648  1
  Ti  Ti32  1  -0.02074463  0.48471675  0.86628596  1
  Ti  Ti33  1  -0.03759144  0.82517436  0.25774005  1
  Ti  Ti34  1  0.04415161  0.84489076  0.52612797  1
  Ti  Ti35  1  0.03441037  0.76102553  0.83974716  1
  Ti  Ti36  1  0.36700549  0.21115369  0.15633565  1
  Ti  Ti37  1  0.40404657  0.11019464  0.58308365  1
  Ti  Ti38  1  0.32782061  0.14164025  0.82968017  1
  Ti  Ti39  1  0.32155648  0.51162956  0.14938322  1
  Ti  Ti40  1  0.40138358  0.51178540  0.46155887  1
  Ti  Ti41  1  0.27983107  0.48022189  0.80998236  1
  Ti  Ti42  1  0.27279709  0.83761430  0.16081785  1
  Ti  Ti43  1  0.26535126  0.85054694  0.49894299  1
  Ti  Ti44  1  0.37786972  0.90226374  0.77860918  1
  Ti  Ti45  1  0.66186671  0.19578708  0.21342340  1
  Ti  Ti46  1  0.59176429  0.18527631  0.54790935  1
  Ti  Ti47  1  0.67672811  0.12881009  0.88737042  1
  Ti  Ti48  1  0.67740553  0.49061087  0.16723246  1
  Ti  Ti49  1  0.72312316  0.60728025  0.40567985  1
  Ti  Ti50  1  0.61803822  0.54866019  0.82531935  1
  Ti  Ti51  1  0.66560115  0.82200736  0.13063573  1
  Ti  Ti52  1  0.73212791  0.79764150  0.47457943  1
  Ti  Ti53  1  0.64853877  0.81733060  0.80156454  1
  Ti  Ti54  1  0.10990356  -0.06324927  0.19798256  1
  Ti  Ti55  1  0.23993796  0.04423468  0.49875152  1
  Ti  Ti56  1  0.18163976  0.00254641  0.90189430  1
  Ti  Ti57  1  0.13230109  0.42964260  0.16267651  1
  Ti  Ti58  1  0.13203102  0.33605371  0.56219427  1
  Ti  Ti59  1  0.16781137  0.26253134  0.73928873  1
  Ti  Ti60  1  0.09383318  0.69679638  0.17810653  1
  Ti  Ti61  1  0.17150655  0.66607449  0.55701496  1
  Ti  Ti62  1  0.22476393  0.71141743  0.86142914  1
  Ti  Ti63  1  0.50317815  -0.02352301  0.19605866  1
  Ti  Ti64  1  0.56067263  -0.03171447  0.49551432  1
  Ti  Ti65  1  0.51361888  0.03729383  0.89629766  1
  Ti  Ti66  1  0.47727359  0.38985579  0.18365640  1
  Ti  Ti67  1  0.47918924  0.32697632  0.45267669  1
  Ti  Ti68  1  0.56886471  0.35395194  0.80748362  1
  Ti  Ti69  1  0.49424311  0.57852403  0.15528890  1
  Ti  Ti70  1  0.52935104  0.66039922  0.48156417  1
  Ti  Ti71  1  0.42381671  0.65256860  0.83142914  1
  Ti  Ti72  1  0.77179827  0.04912054  0.06402871  1
  Ti  Ti73  1  0.80257182  -0.01707100  0.45318857  1
  Ti  Ti74  1  0.86118812  -0.04882748  0.84217437  1
  Ti  Ti75  1  0.94790168  0.34820503  0.14479012  1
  Ti  Ti76  1  0.88151735  0.32757714  0.44532233  1
  Ti  Ti77  1  0.83329153  0.27983795  0.84201565  1
  Ti  Ti78  1  0.85343029  0.71829111  0.13100550  1
  Ti  Ti79  1  0.88560754  0.70466338  0.48814885  1
  Ti  Ti80  1  0.83715258  0.60314553  0.84217937  1
  Ti  Ti81  1  0.16263648  0.13048097  0.07446654  1
  Ti  Ti82  1  0.15249616  0.08098110  0.32985890  1
  Ti  Ti83  1  0.05750344  0.15346444  0.61849936  1
  Ti  Ti84  1  0.22565203  0.45628978  -0.01964964  1
  Ti  Ti85  1  0.22520030  0.43132182  0.39933962  1
  Ti  Ti86  1  0.12942527  0.51301472  0.68061739  1
  Ti  Ti87  1  0.13515281  0.84401119  -0.00160287  1
  Ti  Ti88  1  0.17473019  0.76417916  0.33861028  1
  Ti  Ti89  1  0.21045158  0.83114820  0.69577124  1
  Ti  Ti90  1  0.52511036  0.21644704  -0.05204604  1
  Ti  Ti91  1  0.46483176  0.11751498  0.38790753  1
  Ti  Ti92  1  0.50455998  0.15443619  0.74621939  1
  Ti  Ti93  1  0.50082308  0.51758575  -0.02436415  1
  Ti  Ti94  1  0.55278578  0.51421110  0.34277929  1
  Ti  Ti95  1  0.50875599  0.53676818  0.65905813  1
  Ti  Ti96  1  0.44896548  0.76939798  0.03296436  1
  Ti  Ti97  1  0.52827485  0.85748118  0.36344221  1
  Ti  Ti98  1  0.55047828  0.83702620  0.63553146  1
  Ti  Ti99  1  0.82517306  0.24101374  0.01313973  1
  Ti  Ti100  1  0.80398072  0.15448782  0.39439370  1
  Ti  Ti101  1  0.77830525  0.24296528  0.66456416  1
  Ti  Ti102  1  0.83144229  0.45031028  0.02217742  1
  Ti  Ti103  1  0.85717012  0.45001443  0.29450855  1
  Ti  Ti104  1  0.82381825  0.46492146  0.74601070  1
  Ti  Ti105  1  0.84760057  0.87884854  0.03990110  1
  Ti  Ti106  1  0.80377182  0.89772586  0.24260804  1
  Ti  Ti107  1  0.78815143  0.77129919  0.67815922  1
  Co  Co108  1  0.54605614  0.94613354  0.77990687  1
  Co  Co109  1  0.70948962  0.36808033  0.74634543  1
  Co  Co110  1  0.82210924  0.78732417  0.85819023  1
  Co  Co111  1  0.95521645  0.27645168  0.30522714  1
  Co  Co112  1  -0.03023741  0.89194720  0.91636278  1
  Co  Co113  1  0.03157504  0.74606160  0.37536379  1
  Co  Co114  1  0.90650354  0.58739981  0.00090282  1
  Co  Co115  1  0.79725757  0.29535251  0.28812298  1
  Co  Co116  1  0.77633561  0.34028444  0.13855187  1
  Co  Co117  1  0.34927777  0.93536625  0.59628283  1
  Co  Co118  1  0.06758534  0.24997491  0.16005193  1
  Co  Co119  1  0.81572991  0.48583343  0.46432637  1
  Co  Co120  1  0.26875375  0.64885063  0.71920615  1
  Co  Co121  1  0.18365975  0.58009172  0.08508367  1
  Co  Co122  1  0.48047178  0.87620660  0.91188477  1
  Co  Co123  1  0.53213543  0.79739700  0.19980655  1
  Co  Co124  1  0.55513070  0.92567245  0.05169082  1
  Co  Co125  1  0.66580444  0.21752945  0.04951769  1
  Co  Co126  1  0.60106883  0.08193054  1.04730657  1
  Co  Co127  1  0.56391604  0.70645775  0.88777862  1
  Co  Co128  1  0.66091870  0.19664235  0.74184788  1
  Co  Co129  1  0.57371516  0.68277759  0.70672133  1
  Co  Co130  1  0.22487458  0.59509625  0.39351209  1
  Co  Co131  1  0.08841713  0.10773059  0.78418972  1
  Co  Co132  1  0.50285226  0.12305988  0.22867838  1
  Co  Co133  1  0.81451494  0.58611098  0.22185418  1
  Co  Co134  1  0.63623926  0.22448418  0.38554729  1
  Co  Co135  1  0.25575181  0.33102315  0.85021111  1
  Co  Co136  1  0.84299881  0.57755740  0.59394382  1
  Co  Co137  1  0.91342339  0.74200034  0.97161344  1
  Co  Co138  1  0.05404123  0.48404351  0.01448797  1
  Co  Co139  1  0.44999408  0.80252428  0.49569169  1
  Co  Co140  1  0.14895647  0.95337890  0.60380041  1
  Co  Co141  1  0.33929469  0.21897397  0.68408342  1
  Co  Co142  1  0.47974380  0.78728793  0.77865361  1
  Co  Co143  1  0.44244184  0.08769618  0.07547754  1
  Co  Co144  1  0.51350040  0.25819353  0.29649942  1
  Co  Co145  1  0.83139638  0.74261255  0.33243583  1
  Co  Co146  1  0.21944096  0.19080296  0.21182577  1
  Co  Co147  1  0.21262295  0.18471078  0.59117313  1
  Co  Co148  1  0.12805677  0.56543525  0.85258123  1
  Co  Co149  1  0.88164188  0.59547472  0.37687244  1
  Co  Co150  1  0.51687134  0.25117256  0.12350581  1
  Co  Co151  1  0.40211046  0.70788072  0.18293383  1
  Co  Co152  1  0.22007846  0.30917119  0.09813140  1
  Co  Co153  1  0.54988382  0.02151732  0.63909059  1
  Co  Co154  1  0.66525525  0.29131240  0.90037322  1
  Co  Co155  1  0.08943635  0.91802860  0.36836135  1
  Co  Co156  1  0.40980575  0.40907325  0.33461343  1
  Co  Co157  1  0.39597386  0.04385763  0.73065571  1
  Co  Co158  1  0.92564231  0.87130259  0.41181987  1
  Co  Co159  1  0.70111318  0.66530899  0.80035919  1
  Co  Co160  1  0.94909486  0.20457233  0.71312483  1
  Co  Co161  1  0.16764632  0.55349760  0.25464605  1
  Ni  Ni162  1  0.25620078  0.67692072  0.23030893  1
  Ni  Ni163  1  0.57395489  0.48933245  0.50974170  1
  Ni  Ni164  1  0.82861999  0.11432556  0.74140262  1
  Ni  Ni165  1  0.10731944  0.66666473  0.71327273  1
  Ni  Ni166  1  0.98203977  0.19293483  0.04541906  1
  Ni  Ni167  1  0.84203641  0.10316458  0.91775279  1
  Ni  Ni168  1  0.65539590  0.98432284  0.20427559  1
  Ni  Ni169  1  0.27791067  0.36155379  0.22621987  1
  Ni  Ni170  1  0.03093734  0.02106272  0.50883364  1
  Ni  Ni171  1  0.19015558  0.22930503  0.44088347  1
  Ni  Ni172  1  0.28117587  0.85435696  0.90730753  1
  Ni  Ni173  1  0.31400827  0.09419499  0.99417158  1
  Ni  Ni174  1  0.38702235  0.57703597  0.29823769  1
  Ni  Ni175  1  0.41191509  0.30565403  0.82368674  1
  Ni  Ni176  1  0.11772658  0.39230817  0.82667380  1
  Ni  Ni177  1  0.00027904  0.83204521  0.08146165  1
  Ni  Ni178  1  0.97037480  0.57400861  0.71861959  1
  Ni  Ni179  1  0.69753460  0.65296919  0.11804315  1
  Ni  Ni180  1  0.71485182  0.08619603  0.56343292  1
  Ni  Ni181  1  0.38799880  0.87557324  0.25402124  1
  Ni  Ni182  1  0.77463883  0.40753870  0.59697844  1
  Ni  Ni183  1  0.70805263  0.56324058  0.98710890  1
  Ni  Ni184  1  0.21950409  0.97581319  0.07238527  1
  Ni  Ni185  1  0.65529040  0.69792422  0.56607734  1
  Ni  Ni186  1  0.79247909  0.05778809  0.25334137  1
  Ni  Ni187  1  0.51942618  0.67135288  0.28884068  1
  Ni  Ni188  1  0.39827681  -0.03456668  0.42538613  1
  Ni  Ni189  1  0.93703797  0.84717681  0.73603772  1
  Ni  Ni190  1  0.46325082  0.48434386  0.81257832  1
  Ni  Ni191  1  0.68420729  0.89553028  0.35912777  1
  Ni  Ni192  1  0.57409436  0.65270548  0.03085253  1
  Ni  Ni193  1  0.86889192  0.86855610  0.57099562  1
  Ni  Ni194  1  0.64634938  0.35456046  0.25860704  1
  Ni  Ni195  1  0.24533337  0.93455464  0.33418166  1
  Ni  Ni196  1  0.73077627  0.43656221  0.89526312  1
  Ni  Ni197  1  0.46961397  0.27756106  0.61304670  1
  Ni  Ni198  1  0.18141252  0.18903917  0.92107804  1
  Ni  Ni199  1  0.69683266  0.92131166  0.58822375  1
  Ni  Ni200  1  0.25970913  0.43436780  0.57194440  1
  Ni  Ni201  1  1.02727063  0.43353761  0.29376138  1
  Ni  Ni202  1  0.94937743  0.33639980  0.95352929  1
  Ni  Ni203  1  0.73999435  0.25400051  0.50978355  1
  Ni  Ni204  1  0.40334236  0.39077074  0.03175004  1
  Ni  Ni205  1  0.31945383  0.67564785  0.49963917  1
  Ni  Ni206  1  0.05031871  0.34761532  0.42225955  1
  Ni  Ni207  1  0.95600659  0.65564203  0.26008504  1
  Ni  Ni208  1  0.35050347  0.55769361  0.96223255  1
  Ni  Ni209  1  0.35031973  0.55003281  0.63461945  1
  Ni  Ni210  1  -0.04134468  0.28718885  0.57293106  1
  Ni  Ni211  1  0.11496503  0.50449530  0.50177760  1
  Ni  Ni212  1  0.87453975  0.12587816  0.56016224  1
  Ni  Ni213  1  0.04196898  0.09647966  0.19094227  1
  Ni  Ni214  1  0.09771363  0.92008676  0.78137693  1
  Ni  Ni215  1  0.93354636  0.97392811  0.16149738  1
