# generated using pymatgen
data_Ti2CoNi
_symmetry_space_group_name_H-M   'P 1'
_cell_length_a   14.63823291
_cell_length_b   14.57151217
_cell_length_c   14.56862379
_cell_angle_alpha   90.12121127
_cell_angle_beta   90.06962207
_cell_angle_gamma   89.72961930
_symmetry_Int_Tables_number   1
_chemical_formula_structural   Ti2CoNi
_chemical_formula_sum   'Ti108 Co54 Ni54'
_cell_volume   3107.46096523
_cell_formula_units_Z   54
loop_
 _symmetry_equiv_pos_site_id
 _symmetry_equiv_pos_as_xyz
  1  'x, y, z'
loop_
 _atom_site_type_symbol
 _atom_site_label
 _atom_site_symmetry_multiplicity
 _atom_site_fract_x
 _atom_site_fract_y
 _atom_site_fract_z
 _atom_site_occupancy
  Ti  Ti0  1  -0.05895413  -0.03310147  -0.08868943  1
  Ti  Ti1  1  -0.00612070  0.08702227  0.36018991  1
  Ti  Ti2  1  0.06300672  0.04539903  0.63003549  1
  Ti  Ti3  1  -0.04166199  0.29412058  -0.02777072  1
  Ti  Ti4  1  0.04090981  0.37229439  0.29284886  1
  Ti  Ti5  1  0.02294564  0.39449430  0.73867491  1
  Ti  Ti6  1  -0.00483155  0.69167219  -0.05484949  1
  Ti  Ti7  1  -0.04236000  0.62740572  0.35668204  1
  Ti  Ti8  1  0.04547674  0.64207432  0.68945597  1
  Ti  Ti9  1  0.34940527  -0.00633094  -0.02388326  1
  Ti  Ti10  1  0.38072311  -0.04067002  0.29908607  1
  Ti  Ti11  1  0.27890294  0.01238541  0.63853333  1
  Ti  Ti12  1  0.30489259  0.37011305  0.05816091  1
  Ti  Ti13  1  0.36842144  0.29950460  0.37118408  1
  Ti  Ti14  1  0.32593821  0.28213167  0.59792068  1
  Ti  Ti15  1  0.38120856  0.65413372  -0.02621462  1
  Ti  Ti16  1  0.28199763  0.64258218  0.35609879  1
  Ti  Ti17  1  0.34853085  0.71186227  0.64743844  1
  Ti  Ti18  1  0.64595057  0.07867676  0.06512567  1
  Ti  Ti19  1  0.61267409  -0.00619254  0.34746234  1
  Ti  Ti20  1  0.68015928  -0.01094189  0.65009776  1
  Ti  Ti21  1  0.63529736  0.31990475  -0.01068526  1
  Ti  Ti22  1  0.74046634  0.26273672  0.38262626  1
  Ti  Ti23  1  0.64972728  0.29693429  0.66338102  1
  Ti  Ti24  1  0.67887604  0.70334450  -0.00198039  1
  Ti  Ti25  1  0.71883715  0.73847548  0.28559681  1
  Ti  Ti26  1  0.71489653  0.67597938  0.66308478  1
  Ti  Ti27  1  0.09137326  0.08656410  0.17328661  1
  Ti  Ti28  1  -0.00840640  0.22360188  0.61402462  1
  Ti  Ti29  1  -0.02746640  0.13875463  0.79639660  1
  Ti  Ti30  1  0.06629317  0.47857996  0.12253534  1
  Ti  Ti31  1  0.00039437  0.33520623  0.46727073  1
  Ti  Ti32  1  0.03344129  0.49148358  0.92348836  1
  Ti  Ti33  1  0.04041184  0.89289855  0.14845171  1
  Ti  Ti34  1  0.01040364  0.78795109  0.46052172  1
  Ti  Ti35  1  0.04638372  0.82389555  0.83292376  1
  Ti  Ti36  1  0.26205151  0.18568689  0.16294987  1
  Ti  Ti37  1  0.37301980  0.11107578  0.48978902  1
  Ti  Ti38  1  0.27689690  0.14106097  0.86481153  1
  Ti  Ti39  1  0.33906558  0.46894110  0.25062769  1
  Ti  Ti40  1  0.30981744  0.48758931  0.59969541  1
  Ti  Ti41  1  0.30641918  0.56430916  0.79090187  1
  Ti  Ti42  1  0.31946018  0.78825876  0.18598321  1
  Ti  Ti43  1  0.33082851  0.88644267  0.48014426  1
  Ti  Ti44  1  0.32550169  0.89956183  0.78325263  1
  Ti  Ti45  1  0.67241528  0.25191951  0.16499701  1
  Ti  Ti46  1  0.72191145  0.14883585  0.52844073  1
  Ti  Ti47  1  0.68983446  0.16766143  0.87179686  1
  Ti  Ti48  1  0.66201896  0.47453630  0.22373103  1
  Ti  Ti49  1  0.58555997  0.57330474  0.49091523  1
  Ti  Ti50  1  0.67649513  0.50201885  0.79022958  1
  Ti  Ti51  1  0.67504611  0.88886880  0.15701124  1
  Ti  Ti52  1  0.63084095  0.80820358  0.45138960  1
  Ti  Ti53  1  0.67020901  0.84075591  0.82074215  1
  Ti  Ti54  1  0.23619459  -0.02211087  0.19052178  1
  Ti  Ti55  1  0.13036023  -0.03809392  0.48399443  1
  Ti  Ti56  1  0.16070408  -0.02722676  0.91822700  1
  Ti  Ti57  1  0.10643796  0.28408649  0.12204785  1
  Ti  Ti58  1  0.21209147  0.38696010  0.43714732  1
  Ti  Ti59  1  0.21441084  0.37184658  0.84573076  1
  Ti  Ti60  1  0.19971390  0.63222462  0.17682449  1
  Ti  Ti61  1  0.18962623  0.72489158  0.52465373  1
  Ti  Ti62  1  0.20331070  0.74214554  0.75793446  1
  Ti  Ti63  1  0.42621251  0.08487651  0.13991871  1
  Ti  Ti64  1  0.50473240  -0.04272520  0.54905068  1
  Ti  Ti65  1  0.51532935  -0.03611219  0.80889164  1
  Ti  Ti66  1  0.50353043  0.38728730  0.15634266  1
  Ti  Ti67  1  0.58440294  0.33854023  0.48500112  1
  Ti  Ti68  1  0.49856592  0.38686156  0.86083506  1
  Ti  Ti69  1  0.50201818  0.60007100  0.19233326  1
  Ti  Ti70  1  0.43905621  0.71748730  0.48178388  1
  Ti  Ti71  1  0.50154709  0.57634613  0.85494093  1
  Ti  Ti72  1  0.85534274  -0.09822861  0.13861326  1
  Ti  Ti73  1  0.79820154  -0.03169618  0.47733030  1
  Ti  Ti74  1  0.78857165  0.01882354  0.81634673  1
  Ti  Ti75  1  0.90601687  0.34295277  0.15622659  1
  Ti  Ti76  1  0.78166772  0.38268500  0.53191405  1
  Ti  Ti77  1  0.84757761  0.39690501  0.85500159  1
  Ti  Ti78  1  0.89411819  0.70634621  0.18869111  1
  Ti  Ti79  1  0.84300245  0.67298469  0.50523323  1
  Ti  Ti80  1  0.82244339  0.61240728  0.88662073  1
  Ti  Ti81  1  0.08007342  0.14103262  -0.03676135  1
  Ti  Ti82  1  0.15740673  0.21163311  0.32367121  1
  Ti  Ti83  1  0.16496314  0.22755771  0.71483954  1
  Ti  Ti84  1  0.21885812  0.53453632  -0.01987013  1
  Ti  Ti85  1  0.15314280  0.51065829  0.30246049  1
  Ti  Ti86  1  0.08812884  0.47283521  0.58015401  1
  Ti  Ti87  1  0.19239375  0.72563159  0.01879409  1
  Ti  Ti88  1  0.19563918  0.82737649  0.34598807  1
  Ti  Ti89  1  0.05357562  0.83847141  0.63988149  1
  Ti  Ti90  1  0.47796871  0.17626147  -0.08304643  1
  Ti  Ti91  1  0.49387166  0.19679387  0.28210699  1
  Ti  Ti92  1  0.49845370  0.14337199  0.66871961  1
  Ti  Ti93  1  0.60806766  0.52227441  0.02903131  1
  Ti  Ti94  1  0.50253450  0.44669358  0.35281048  1
  Ti  Ti95  1  0.49591188  0.42716149  0.66042042  1
  Ti  Ti96  1  0.54185874  0.86903759  0.02599707  1
  Ti  Ti97  1  0.51971665  0.82947950  0.24762012  1
  Ti  Ti98  1  0.50630765  0.74357344  0.75136572  1
  Ti  Ti99  1  0.83898071  0.06878016  0.04275844  1
  Ti  Ti100  1  0.83617629  0.16826083  0.22699890  1
  Ti  Ti101  1  0.85479387  0.07793894  0.65490265  1
  Ti  Ti102  1  0.81379269  0.54445529  0.11411431  1
  Ti  Ti103  1  0.85830047  0.45226759  0.36620761  1
  Ti  Ti104  1  0.85944114  0.53991322  0.66545169  1
  Ti  Ti105  1  0.75582616  0.89327727  -0.01647233  1
  Ti  Ti106  1  0.91113901  0.87453270  0.31086398  1
  Ti  Ti107  1  0.84693381  0.85142932  0.72029430  1
  Co  Co108  1  0.94239362  0.08455210  0.51844764  1
  Co  Co109  1  0.45728043  0.32927390  0.01105363  1
  Co  Co110  1  0.25137814  0.21072757  0.44524141  1
  Co  Co111  1  0.12017249  0.66691012  0.37566873  1
  Co  Co112  1  0.04540533  0.49533087  0.41883285  1
  Co  Co113  1  1.03508409  0.77222967  0.28501658  1
  Co  Co114  1  0.91957378  0.73638538  0.62187588  1
  Co  Co115  1  0.14252327  0.29678536  0.55342949  1
  Co  Co116  1  0.02545348  0.63345584  0.52333828  1
  Co  Co117  1  0.93441414  0.84503110  0.01339175  1
  Co  Co118  1  0.08476974  0.16027352  0.47384687  1
  Co  Co119  1  0.60179196  0.17663615  0.39865772  1
  Co  Co120  1  0.36008654  0.40288562  0.75139057  1
  Co  Co121  1  0.93723877  0.03638260  0.20121964  1
  Co  Co122  1  0.90098688  0.27671130  0.76242178  1
  Co  Co123  1  0.01231908  0.01272994  0.04446384  1
  Co  Co124  1  0.20289170  0.38776682  0.67649447  1
  Co  Co125  1  0.40156322  0.90937078  0.11325047  1
  Co  Co126  1  0.36278438  0.72088476  0.82639554  1
  Co  Co127  1  0.91998544  0.37432344  0.61665212  1
  Co  Co128  1  0.94316420  0.51000310  0.23602558  1
  Co  Co129  1  0.13757663  0.64763541  0.87060450  1
  Co  Co130  1  0.35470605  0.18510455  0.02247043  1
  Co  Co131  1  0.80821101  0.24558932  0.63167131  1
  Co  Co132  1  0.73882745  0.48465678  0.94765146  1
  Co  Co133  1  0.33864326  0.12690055  0.29739208  1
  Co  Co134  1  0.96335998  0.59077579  0.06960451  1
  Co  Co135  1  0.48661557  0.87663226  0.40926475  1
  Co  Co136  1  0.35764109  0.46862195  0.91061540  1
  Co  Co137  1  0.16291297  0.79856379  0.18344920  1
  Co  Co138  1  0.23853355  0.89168216  0.05686108  1
  Co  Co139  1  -0.07957858  0.92397998  0.59113855  1
  Co  Co140  1  0.47352504  0.05587902  0.38935853  1
  Co  Co141  1  0.96821297  0.94516551  0.44304404  1
  Co  Co142  1  0.45388623  0.49674819  1.03021491  1
  Co  Co143  1  0.78341355  0.39315202  0.70599851  1
  Co  Co144  1  0.91480577  0.50533905  0.51300037  1
  Co  Co145  1  0.20780436  0.24044295  -0.01417890  1
  Co  Co146  1  0.67899553  0.14008377  0.70509411  1
  Co  Co147  1  0.34694062  0.29729600  0.89866328  1
  Co  Co148  1  0.59562595  0.73798985  0.13663324  1
  Co  Co149  1  0.21670576  0.07426548  1.04115579  1
  Co  Co150  1  0.53848989  0.97761944  0.17424229  1
  Co  Co151  1  0.61954311  0.11111336  0.22943306  1
  Co  Co152  1  -0.06869126  0.71344978  0.77874653  1
  Co  Co153  1  0.47223625  0.24009804  0.52957176  1
  Co  Co154  1  0.04747936  0.62710910  0.21640896  1
  Co  Co155  1  0.56996047  0.10176823  0.53250840  1
  Co  Co156  1  0.38315629  0.28535590  0.18884303  1
  Co  Co157  1  0.52623323  0.20864793  0.09626506  1
  Co  Co158  1  0.75716783  0.03297238  0.19513983  1
  Co  Co159  1  0.68928418  0.62382270  0.17034953  1
  Co  Co160  1  0.09009724  0.85301178  0.99137562  1
  Co  Co161  1  0.03868398  0.73420984  0.10072133  1
  Ni  Ni162  1  0.20861493  0.60698079  0.64380379  1
  Ni  Ni163  1  0.34379527  0.57893351  0.11939304  1
  Ni  Ni164  1  0.19606370  0.55629655  0.47895483  1
  Ni  Ni165  1  0.24278984  0.82268004  0.90152661  1
  Ni  Ni166  1  0.74925943  0.39114214  0.08801126  1
  Ni  Ni167  1  0.74927470  0.54599216  0.50053933  1
  Ni  Ni168  1  0.23295939  0.85499771  0.61778335  1
  Ni  Ni169  1  0.55433744  0.24253466  0.78878487  1
  Ni  Ni170  1  0.83563770  0.79278652  0.88121240  1
  Ni  Ni171  1  0.37576529  0.23087964  0.75327832  1
  Ni  Ni172  1  0.41078219  0.86835796  0.64656568  1
  Ni  Ni173  1  0.95892897  0.55163840  0.79945303  1
  Ni  Ni174  1  0.56715876  0.68875540  0.34379200  1
  Ni  Ni175  1  0.65689625  0.67014969  0.82636566  1
  Ni  Ni176  1  0.43812688  0.59422239  0.35473236  1
  Ni  Ni177  1  0.58186711  0.86393130  0.67119476  1
  Ni  Ni178  1  0.38815721  0.77076471  0.33595889  1
  Ni  Ni179  1  0.67735778  0.34412491  0.83215706  1
  Ni  Ni180  1  0.20357790  0.13955164  0.57906460  1
  Ni  Ni181  1  0.60520636  0.32520216  0.30431934  1
  Ni  Ni182  1  0.12888966  0.08353453  0.79309948  1
  Ni  Ni183  1  0.42310672  0.40768129  0.50118453  1
  Ni  Ni184  1  0.72864784  0.82694999  0.58780644  1
  Ni  Ni185  1  0.74842103  0.09238180  0.35615576  1
  Ni  Ni186  1  0.85518963  0.16545130  0.90480505  1
  Ni  Ni187  1  0.66067490  0.47232913  0.61753761  1
  Ni  Ni188  1  0.80423156  0.80758173  0.42718492  1
  Ni  Ni189  1  0.56600158  0.72295627  0.58995647  1
  Ni  Ni190  1  0.08088049  0.94432888  0.30817299  1
  Ni  Ni191  1  0.83848331  0.71443264  0.03198941  1
  Ni  Ni192  1  0.77517819  0.35764163  0.25369964  1
  Ni  Ni193  1  0.57053857  0.59137646  0.69646258  1
  Ni  Ni194  1  0.13077799  0.38197992  -0.00684624  1
  Ni  Ni195  1  0.06339560  0.28144511  0.85110208  1
  Ni  Ni196  1  0.79414900  0.58950596  0.29290137  1
  Ni  Ni197  1  0.89715088  0.44697727  1.01078907  1
  Ni  Ni198  1  0.21943589  0.35273945  0.23853688  1
  Ni  Ni199  1  0.79734697  0.23457278  1.04327803  1
  Ni  Ni200  1  0.41139729  0.84810179  0.92272343  1
  Ni  Ni201  1  0.15515846  0.92689532  0.74628039  1
  Ni  Ni202  1  0.65057697  0.99713696  0.90474009  1
  Ni  Ni203  1  0.95752848  0.17439219  0.08950524  1
  Ni  Ni204  1  0.20459864  1.04815030  0.36217385  1
  Ni  Ni205  1  0.13908643  0.51760779  0.77039454  1
  Ni  Ni206  1  0.44158868  0.73339025  0.10334053  1
  Ni  Ni207  1  0.53215492  0.73702210  0.91697783  1
  Ni  Ni208  1  0.51043318  0.02575037  0.97830838  1
  Ni  Ni209  1  0.38522548  0.05986647  0.76218969  1
  Ni  Ni210  1  0.90115509  0.28397397  0.34384338  1
  Ni  Ni211  1  0.97723077  0.96593378  0.74906153  1
  Ni  Ni212  1  0.74737809  0.90823054  0.31036997  1
  Ni  Ni213  1  0.67940320  0.44665609  0.39214960  1
  Ni  Ni214  1  0.00311470  0.21292122  0.24127858  1
  Ni  Ni215  1  0.44766624  0.58610071  0.59414949  1
