# generated using pymatgen
data_Ti2CoNi
_symmetry_space_group_name_H-M   'P 1'
_cell_length_a   14.63384142
_cell_length_b   14.62599474
_cell_length_c   14.64141618
_cell_angle_alpha   90.14587988
_cell_angle_beta   90.04690697
_cell_angle_gamma   90.05817597
_symmetry_Int_Tables_number   1
_chemical_formula_structural   Ti2CoNi
_chemical_formula_sum   'Ti108 Co54 Ni54'
_cell_volume   3133.75517935
_cell_formula_units_Z   54
loop_
 _symmetry_equiv_pos_site_id
 _symmetry_equiv_pos_as_xyz
  1  'x, y, z'
loop_
 _atom_site_type_symbol
 _atom_site_label
 _atom_site_symmetry_multiplicity
 _atom_site_fract_x
 _atom_site_fract_y
 _atom_site_fract_z
 _atom_site_occupancy
  Ti  Ti0  1  -0.00743948  0.08426816  0.05864736  1
  Ti  Ti1  1  0.00283028  -0.02257948  0.37142680  1
  Ti  Ti2  1  -0.04443262  0.00189478  0.66377548  1
  Ti  Ti3  1  -0.01033325  0.40858604  -0.01968353  1
  Ti  Ti4  1  -0.01458788  0.28964875  0.41780851  1
  Ti  Ti5  1  -0.06148385  0.30208783  0.62921234  1
  Ti  Ti6  1  -0.01329518  0.62137590  -0.04622273  1
  Ti  Ti7  1  0.06932785  0.64903915  0.36734158  1
  Ti  Ti8  1  0.07313564  0.64307335  0.62365800  1
  Ti  Ti9  1  0.31057763  -0.02903141  0.00212107  1
  Ti  Ti10  1  0.32563581  0.01806151  0.27942076  1
  Ti  Ti11  1  0.35569917  -0.03319786  0.68495758  1
  Ti  Ti12  1  0.34347703  0.28711776  -0.15039907  1
  Ti  Ti13  1  0.35577824  0.38626251  0.36186957  1
  Ti  Ti14  1  0.32889985  0.31811831  0.65757962  1
  Ti  Ti15  1  0.31258122  0.66320938  0.03830009  1
  Ti  Ti16  1  0.27303439  0.70887416  0.30657921  1
  Ti  Ti17  1  0.37574995  0.66538748  0.73785180  1
  Ti  Ti18  1  0.70194723  0.06023204  0.02416892  1
  Ti  Ti19  1  0.65499884  -0.02497896  0.34896343  1
  Ti  Ti20  1  0.69052648  -0.00560909  0.58913726  1
  Ti  Ti21  1  0.66693810  0.26417163  -0.02427626  1
  Ti  Ti22  1  0.65452248  0.29415960  0.32599676  1
  Ti  Ti23  1  0.73008044  0.30489247  0.67376046  1
  Ti  Ti24  1  0.64263694  0.68805732  -0.01270731  1
  Ti  Ti25  1  0.63048677  0.61293461  0.28419614  1
  Ti  Ti26  1  0.64129179  0.64006789  0.62664825  1
  Ti  Ti27  1  -0.00595479  0.22095790  0.22454379  1
  Ti  Ti28  1  0.07240420  0.10375430  0.50349587  1
  Ti  Ti29  1  -0.01738211  0.13304525  0.85629237  1
  Ti  Ti30  1  -0.06118251  0.56675636  0.19907625  1
  Ti  Ti31  1  -0.04435354  0.52000772  0.53978008  1
  Ti  Ti32  1  -0.02225354  0.38224414  0.80261357  1
  Ti  Ti33  1  0.07846513  0.82352218  0.22963176  1
  Ti  Ti34  1  -0.05163785  0.86849277  0.53186159  1
  Ti  Ti35  1  0.07354253  0.79470193  0.88823081  1
  Ti  Ti36  1  0.38816380  0.11431699  0.13428859  1
  Ti  Ti37  1  0.30896782  0.16362189  0.41950199  1
  Ti  Ti38  1  0.28234515  0.08829531  0.84151758  1
  Ti  Ti39  1  0.33219983  0.45665040  0.15992888  1
  Ti  Ti40  1  0.27940512  0.48307478  0.55995025  1
  Ti  Ti41  1  0.35819567  0.48343201  0.88985928  1
  Ti  Ti42  1  0.37001006  0.84746602  0.16354756  1
  Ti  Ti43  1  0.32560855  0.79598671  0.60917478  1
  Ti  Ti44  1  0.26903767  0.82929643  0.81924205  1
  Ti  Ti45  1  0.71631333  0.24526287  0.14814800  1
  Ti  Ti46  1  0.60190712  0.22880035  0.50581002  1
  Ti  Ti47  1  0.63723562  0.18019702  0.82093273  1
  Ti  Ti48  1  0.71479110  0.43724114  0.20257774  1
  Ti  Ti49  1  0.65322802  0.43161438  0.51835653  1
  Ti  Ti50  1  0.69985897  0.55825025  0.83232786  1
  Ti  Ti51  1  0.67488800  0.86979660  0.10214912  1
  Ti  Ti52  1  0.65246383  0.77934087  0.44401964  1
  Ti  Ti53  1  0.62583913  0.86843561  0.79216633  1
  Ti  Ti54  1  0.10332282  0.03155080  0.21089546  1
  Ti  Ti55  1  0.24682114  -0.04387904  0.50596170  1
  Ti  Ti56  1  0.11443527  -0.02032340  0.80773936  1
  Ti  Ti57  1  0.14756599  0.34466911  0.11349915  1
  Ti  Ti58  1  0.11491956  0.38420120  0.51296826  1
  Ti  Ti59  1  0.16997423  0.36724825  0.86486652  1
  Ti  Ti60  1  0.09916036  0.67582968  0.09672036  1
  Ti  Ti61  1  0.20832134  0.70585151  0.50899102  1
  Ti  Ti62  1  0.21424002  0.62582209  0.84851458  1
  Ti  Ti63  1  0.54112967  -0.00183491  0.17143202  1
  Ti  Ti64  1  0.50268174  0.06778478  0.56623850  1
  Ti  Ti65  1  0.50260890  0.04565981  0.78071227  1
  Ti  Ti66  1  0.50418000  0.28087246  0.17133888  1
  Ti  Ti67  1  0.46366237  0.35589435  0.51407495  1
  Ti  Ti68  1  0.51613799  0.34731745  0.91507224  1
  Ti  Ti69  1  0.45370476  0.63112019  0.19112996  1
  Ti  Ti70  1  0.48591342  0.65987159  0.44614552  1
  Ti  Ti71  1  0.54688121  0.69571470  0.82027505  1
  Ti  Ti72  1  0.80106883  -0.01644683  0.18292633  1
  Ti  Ti73  1  0.83848992  0.04633975  0.48170192  1
  Ti  Ti74  1  0.81006467  -0.01114942  0.83345344  1
  Ti  Ti75  1  0.90161835  0.37706120  0.15326778  1
  Ti  Ti76  1  0.79987194  0.26821096  0.45168996  1
  Ti  Ti77  1  0.77945667  0.37203558  0.86355997  1
  Ti  Ti78  1  0.77226095  0.70460303  0.17580985  1
  Ti  Ti79  1  0.82142964  0.69526119  0.51370398  1
  Ti  Ti80  1  0.88954909  0.66890533  0.78266616  1
  Ti  Ti81  1  0.25561053  0.20069567  0.00330950  1
  Ti  Ti82  1  0.21519731  0.18627351  0.23372608  1
  Ti  Ti83  1  0.18171974  0.10145825  0.66204606  1
  Ti  Ti84  1  0.18755192  0.51508791  0.00604250  1
  Ti  Ti85  1  0.18812987  0.47670262  0.33790237  1
  Ti  Ti86  1  0.13900844  0.49350834  0.70703508  1
  Ti  Ti87  1  0.12911755  0.91452797  0.04922961  1
  Ti  Ti88  1  0.12524496  0.84100703  0.41493448  1
  Ti  Ti89  1  0.05388700  0.81952007  0.68900437  1
  Ti  Ti90  1  0.52232780  0.13596072  0.00545943  1
  Ti  Ti91  1  0.50803746  0.12434078  0.34028855  1
  Ti  Ti92  1  0.49918112  0.24119977  0.71322721  1
  Ti  Ti93  1  0.51443392  0.53810999  0.01188981  1
  Ti  Ti94  1  0.53470087  0.46931016  0.35261659  1
  Ti  Ti95  1  0.48156267  0.50900520  0.64668742  1
  Ti  Ti96  1  0.42582512  0.81862837  -0.05995699  1
  Ti  Ti97  1  0.56660093  0.80303680  0.26734678  1
  Ti  Ti98  1  0.50886629  0.77234418  0.61544953  1
  Ti  Ti99  1  0.86413841  0.23839917  -0.01848699  1
  Ti  Ti100  1  0.79506308  0.14003807  0.30009183  1
  Ti  Ti101  1  0.81707895  0.12636364  0.69722730  1
  Ti  Ti102  1  0.79698562  0.54224873  0.03858263  1
  Ti  Ti103  1  0.86895719  0.44982560  0.37349069  1
  Ti  Ti104  1  0.82344691  0.47655030  0.69728926  1
  Ti  Ti105  1  0.87410990  0.89745459  0.02313090  1
  Ti  Ti106  1  0.90424199  0.79623349  0.35803294  1
  Ti  Ti107  1  0.81966871  0.84181311  0.69322204  1
  Co  Co108  1  0.08755414  0.23967041  0.59188473  1
  Co  Co109  1  0.22364835  0.91400575  0.21183191  1
  Co  Co110  1  0.33784006  0.27977193  0.12386466  1
  Co  Co111  1  0.75386701  0.16601049  0.55640060  1
  Co  Co112  1  0.57413416  0.35197370  0.63946582  1
  Co  Co113  1  0.17623048  0.35093838  0.67089178  1
  Co  Co114  1  0.29656577  0.87215051  0.36549268  1
  Co  Co115  1  0.47294386  0.70228943  0.03697722  1
  Co  Co116  1  0.13270989  0.54937992  0.50083716  1
  Co  Co117  1  0.64011921  0.55047842  0.11454848  1
  Co  Co118  1  0.87831402  0.25427384  0.78456392  1
  Co  Co119  1  0.77624829  0.76553006  0.01886853  1
  Co  Co120  1  0.47559283  -0.02707356  0.02199264  1
  Co  Co121  1  0.93494800  0.13891727  0.38699706  1
  Co  Co122  1  0.00499612  0.14065354  0.69242384  1
  Co  Co123  1  0.37605203  0.21175145  0.27173353  1
  Co  Co124  1  0.78289898  0.15462698  0.87009611  1
  Co  Co125  1  0.66773911  0.02565987  0.74744156  1
  Co  Co126  1  0.91030735  0.61958080  0.38575373  1
  Co  Co127  1  0.00451578  0.96674283  0.93975458  1
  Co  Co128  1  0.58187103  0.84545382  0.95751068  1
  Co  Co129  1  0.67564770  0.12257061  0.41002516  1
  Co  Co130  1  0.01213717  0.72298942  0.49510236  1
  Co  Co131  1  0.51003147  0.45837084  0.19974574  1
  Co  Co132  1  0.51577692  0.83736170  0.10792425  1
  Co  Co133  1  0.59568941  0.70017604  0.14359822  1
  Co  Co134  1  0.02648631  0.48560054  0.38742509  1
  Co  Co135  1  0.08328756  0.24156520  0.92976526  1
  Co  Co136  1  0.62890588  0.15628525  0.65549442  1
  Co  Co137  1  0.45311403  0.17435555  0.86938441  1
  Co  Co138  1  0.99593992  0.26636093  0.06425098  1
  Co  Co139  1  0.65309705  0.46103268  0.95070905  1
  Co  Co140  1  0.26205609  0.59992622  0.17790218  1
  Co  Co141  1  0.80516076  0.65000557  0.91889598  1
  Co  Co142  1  0.76759815  0.70569220  0.35396688  1
  Co  Co143  1  0.44205124  0.82750371  0.75931142  1
  Co  Co144  1  0.60650020  0.00483685  0.90458282  1
  Co  Co145  1  0.06707986  0.26688896  0.75946188  1
  Co  Co146  1  0.07344762  0.51015288  0.86705943  1
  Co  Co147  1  0.89845872  0.78583821  0.90361994  1
  Co  Co148  1  0.06831177  0.66006269  0.79025189  1
  Co  Co149  1  0.33039549  0.07357903  0.56430126  1
  Co  Co150  1  0.12175490  0.17634201  0.09350247  1
  Co  Co151  1  0.21893874  0.22476514  0.76628848  1
  Co  Co152  1  0.25430919  0.33858515  0.24969068  1
  Co  Co153  1  0.92946426  0.16813002  0.54645901  1
  Co  Co154  1  0.01092662  0.80315453  0.04046175  1
  Co  Co155  1  0.95872055  0.71862074  0.22652298  1
  Co  Co156  1  0.62700713  0.37042139  0.80415626  1
  Co  Co157  1  0.41006360  0.02877111  0.42771574  1
  Co  Co158  1  0.73041797  0.89912172  0.93579115  1
  Co  Co159  1  0.10613326  0.30823191  0.31041502  1
  Co  Co160  1  0.85535236  0.05754359  0.97662628  1
  Co  Co161  1  0.90283787  0.68908753  0.07268443  1
  Ni  Ni162  1  0.38679605  0.95661285  0.85470198  1
  Ni  Ni163  1  0.08992619  0.95081474  0.57450367  1
  Ni  Ni164  1  0.63886311  0.12167123  0.23055867  1
  Ni  Ni165  1  0.71261622  0.72000486  0.75556224  1
  Ni  Ni166  1  0.28380092  0.37380992  0.99870942  1
  Ni  Ni167  1  0.24246021  0.80617843  0.98603162  1
  Ni  Ni168  1  0.11006690  0.57527478  0.22966020  1
  Ni  Ni169  1  0.14554747  0.06745399  0.95653347  1
  Ni  Ni170  1  0.23022035  0.05688301  0.11042527  1
  Ni  Ni171  1  0.67312393  0.81744372  0.61332800  1
  Ni  Ni172  1  0.54046935  0.93061062  0.65448499  1
  Ni  Ni173  1  0.73365032  0.84458022  0.27363875  1
  Ni  Ni174  1  0.35898394  0.15103989  0.70743126  1
  Ni  Ni175  1  0.76815193  0.54613413  0.55734184  1
  Ni  Ni176  1  0.37555029  0.54698875  0.30451275  1
  Ni  Ni177  1  0.44050679  0.39364516  0.05477206  1
  Ni  Ni178  1  0.83478266  0.95234622  0.34783295  1
  Ni  Ni179  1  0.52839160  0.52475915  0.83260888  1
  Ni  Ni180  1  0.20264939  0.72091322  0.70155594  1
  Ni  Ni181  1  0.65413495  0.48470947  0.68535737  1
  Ni  Ni182  1  0.22460334  0.76344856  0.15304767  1
  Ni  Ni183  1  0.21909971  0.30007352  0.41702239  1
  Ni  Ni184  1  0.97567526  0.53499430  0.71983331  1
  Ni  Ni185  1  0.42442005  0.51040947  0.47539939  1
  Ni  Ni186  1  0.41414777  0.20764760  0.54880016  1
  Ni  Ni187  1  0.40584992  0.63811953  0.89844645  1
  Ni  Ni188  1  0.20342589  0.89654601  0.67594987  1
  Ni  Ni189  1  0.78300761  0.87594366  0.49784916  1
  Ni  Ni190  1  0.97659284  0.92945662  0.15517643  1
  Ni  Ni191  1  0.28583240  0.58600947  0.42969682  1
  Ni  Ni192  1  0.57162988  0.92007606  0.48481697  1
  Ni  Ni193  1  0.79444123  0.56506795  0.27408384  1
  Ni  Ni194  1  0.60782036  0.38363330  0.08627006  1
  Ni  Ni195  1  0.09588220  0.14322267  0.34456915  1
  Ni  Ni196  1  0.41633628  0.90585442  0.52708613  1
  Ni  Ni197  1  0.93665127  0.06050999  0.24248323  1
  Ni  Ni198  1  0.30665796  0.49401973  0.73029030  1
  Ni  Ni199  1  0.49460336  0.29630684  0.35187790  1
  Ni  Ni200  1  0.92656274  0.71751841  0.63432144  1
  Ni  Ni201  1  0.17607826  0.99973870  0.36094173  1
  Ni  Ni202  1  0.95509089  0.90096735  0.80048320  1
  Ni  Ni203  1  0.65237241  0.60731260  0.45330722  1
  Ni  Ni204  1  0.83132882  0.30290822  0.28287113  1
  Ni  Ni205  1  0.70176858  0.46385711  0.36980735  1
  Ni  Ni206  1  0.88447868  0.51213484  0.86725984  1
  Ni  Ni207  1  0.37420318  0.63183107  0.57494123  1
  Ni  Ni208  1  0.42440366  0.77281398  0.34425224  1
  Ni  Ni209  1  0.84214604  0.14252903  0.12526277  1
  Ni  Ni210  1  0.46792270  0.93279989  0.31153663  1
  Ni  Ni211  1  0.44659345  0.39772155  0.76239358  1
  Ni  Ni212  1  1.03226351  0.42311610  0.23884552  1
  Ni  Ni213  1  0.05079068  0.50031144  0.09434608  1
  Ni  Ni214  1  0.77634958  0.37655344  0.04037124  1
  Ni  Ni215  1  0.83322539  0.39943485  0.54105287  1
