# generated using pymatgen
data_Ti2CoNi
_symmetry_space_group_name_H-M   'P 1'
_cell_length_a   14.58549457
_cell_length_b   14.70170448
_cell_length_c   14.68152370
_cell_angle_alpha   90.08845855
_cell_angle_beta   89.95618729
_cell_angle_gamma   89.68007040
_symmetry_Int_Tables_number   1
_chemical_formula_structural   Ti2CoNi
_chemical_formula_sum   'Ti108 Co54 Ni54'
_cell_volume   3148.12929897
_cell_formula_units_Z   54
loop_
 _symmetry_equiv_pos_site_id
 _symmetry_equiv_pos_as_xyz
  1  'x, y, z'
loop_
 _atom_site_type_symbol
 _atom_site_label
 _atom_site_symmetry_multiplicity
 _atom_site_fract_x
 _atom_site_fract_y
 _atom_site_fract_z
 _atom_site_occupancy
  Ti  Ti0  1  -0.02160749  -0.02239468  -0.00858925  1
  Ti  Ti1  1  0.04177119  -0.03692604  0.39493872  1
  Ti  Ti2  1  0.01787758  -0.00589937  0.69170456  1
  Ti  Ti3  1  -0.04175945  0.40244709  -0.04291353  1
  Ti  Ti4  1  0.02209229  0.30976716  0.40163747  1
  Ti  Ti5  1  0.02555001  0.38263731  0.59136198  1
  Ti  Ti6  1  -0.02760577  0.69234331  0.00163565  1
  Ti  Ti7  1  0.03563928  0.76057455  0.31844572  1
  Ti  Ti8  1  -0.02927962  0.58791822  0.66279179  1
  Ti  Ti9  1  0.37069778  0.03250488  -0.04608514  1
  Ti  Ti10  1  0.33562838  -0.01760571  0.34868749  1
  Ti  Ti11  1  0.33706299  -0.00083210  0.65047960  1
  Ti  Ti12  1  0.32658225  0.43490438  -0.05751030  1
  Ti  Ti13  1  0.25600756  0.35963866  0.34625698  1
  Ti  Ti14  1  0.30042697  0.32487396  0.72887995  1
  Ti  Ti15  1  0.32053479  0.62688102  0.06284421  1
  Ti  Ti16  1  0.35495883  0.67993131  0.29662501  1
  Ti  Ti17  1  0.37648603  0.61633725  0.63080249  1
  Ti  Ti18  1  0.67524132  -0.02202360  0.05729145  1
  Ti  Ti19  1  0.69292954  0.04762568  0.34468763  1
  Ti  Ti20  1  0.63567030  0.06464295  0.72887723  1
  Ti  Ti21  1  0.73805380  0.34394417  -0.00597294  1
  Ti  Ti22  1  0.66038105  0.37409629  0.31189310  1
  Ti  Ti23  1  0.65945757  0.26777471  0.64612082  1
  Ti  Ti24  1  0.61490244  0.73084670  -0.02420488  1
  Ti  Ti25  1  0.62273926  0.72474066  0.34178384  1
  Ti  Ti26  1  0.65580493  0.68017069  0.67267698  1
  Ti  Ti27  1  0.00746420  0.06617518  0.21867462  1
  Ti  Ti28  1  0.04547360  0.16866121  0.57214472  1
  Ti  Ti29  1  0.01514130  0.22541000  0.80931800  1
  Ti  Ti30  1  0.01488873  0.61207155  0.17456386  1
  Ti  Ti31  1  -0.03066098  0.50321715  0.39328845  1
  Ti  Ti32  1  0.06237836  0.52768739  0.82303997  1
  Ti  Ti33  1  0.05436747  0.82029109  0.12130269  1
  Ti  Ti34  1  -0.05757897  0.88751269  0.55108405  1
  Ti  Ti35  1  -0.01030386  0.72994283  0.80349319  1
  Ti  Ti36  1  0.36121679  0.19232111  0.22077895  1
  Ti  Ti37  1  0.35175563  0.21466963  0.44229348  1
  Ti  Ti38  1  0.32697134  0.23776898  0.88680922  1
  Ti  Ti39  1  0.31421785  0.45071517  0.17465210  1
  Ti  Ti40  1  0.30331382  0.52197963  0.47435605  1
  Ti  Ti41  1  0.26935305  0.54080008  0.77360845  1
  Ti  Ti42  1  0.39814774  0.87417681  0.08149648  1
  Ti  Ti43  1  0.31082463  0.81003753  0.54317707  1
  Ti  Ti44  1  0.32040087  0.87397666  0.83383088  1
  Ti  Ti45  1  0.69885174  0.19100242  0.10394490  1
  Ti  Ti46  1  0.63719946  0.11955710  0.52672432  1
  Ti  Ti47  1  0.64662911  0.22909968  0.84278017  1
  Ti  Ti48  1  0.63913602  0.56264962  0.21948529  1
  Ti  Ti49  1  0.75781562  0.49982312  0.44648381  1
  Ti  Ti50  1  0.61432982  0.45566209  0.85471345  1
  Ti  Ti51  1  0.67573872  0.76504928  0.15791776  1
  Ti  Ti52  1  0.61292198  0.80924518  0.52488121  1
  Ti  Ti53  1  0.77439256  0.77504364  0.84891521  1
  Ti  Ti54  1  0.19013665  0.01541112  0.14094566  1
  Ti  Ti55  1  0.20604970  0.07865882  0.48337636  1
  Ti  Ti56  1  0.16806596  0.03152932  0.90594044  1
  Ti  Ti57  1  0.09338578  0.22796785  0.14246955  1
  Ti  Ti58  1  0.22555545  0.35862738  0.54773487  1
  Ti  Ti59  1  0.15338524  0.36464167  0.85315278  1
  Ti  Ti60  1  0.19037434  0.67113811  0.21326316  1
  Ti  Ti61  1  0.18492753  0.68783462  0.44187551  1
  Ti  Ti62  1  0.17975786  0.68206804  0.87967854  1
  Ti  Ti63  1  0.49946220  -0.00940216  0.24039722  1
  Ti  Ti64  1  0.53368733  -0.01697716  0.45247761  1
  Ti  Ti65  1  0.48231841  0.14175902  0.85284383  1
  Ti  Ti66  1  0.51102311  0.29673416  0.13319714  1
  Ti  Ti67  1  0.56236952  0.33771709  0.48524106  1
  Ti  Ti68  1  0.48887983  0.33406249  0.94177476  1
  Ti  Ti69  1  0.48904543  0.71664611  0.16769958  1
  Ti  Ti70  1  0.51265924  0.63425568  0.48791276  1
  Ti  Ti71  1  0.49923850  0.63187192  0.77505306  1
  Ti  Ti72  1  0.80848107  0.04834640  0.18967639  1
  Ti  Ti73  1  0.76800523  -0.07034689  0.47416645  1
  Ti  Ti74  1  0.86858669  -0.03661133  0.82437790  1
  Ti  Ti75  1  0.83749030  0.29943377  0.18583447  1
  Ti  Ti76  1  0.81267183  0.33885723  0.52962535  1
  Ti  Ti77  1  0.82735328  0.27488129  0.81322115  1
  Ti  Ti78  1  0.81989585  0.64209988  0.15663864  1
  Ti  Ti79  1  0.84725115  0.68559730  0.46783520  1
  Ti  Ti80  1  0.87031000  0.57977607  0.87114439  1
  Ti  Ti81  1  0.24373038  0.18513068  0.03895183  1
  Ti  Ti82  1  0.17035318  0.18750075  0.30726529  1
  Ti  Ti83  1  0.17816442  0.11037933  0.70597474  1
  Ti  Ti84  1  0.14987920  0.38839691  0.04726322  1
  Ti  Ti85  1  0.11437132  0.43521428  0.24227880  1
  Ti  Ti86  1  0.13994930  0.55216071  0.58308049  1
  Ti  Ti87  1  0.13147904  0.84104189  -0.04476906  1
  Ti  Ti88  1  0.21408661  0.83916397  0.31864186  1
  Ti  Ti89  1  0.09956217  0.79948614  0.64453712  1
  Ti  Ti90  1  0.52005387  0.06858381  0.06278768  1
  Ti  Ti91  1  0.55968555  0.20106336  0.33234893  1
  Ti  Ti92  1  0.48036178  0.18704283  0.65110138  1
  Ti  Ti93  1  0.48696225  0.56021459  -0.05507806  1
  Ti  Ti94  1  0.45231557  0.49469120  0.33861149  1
  Ti  Ti95  1  0.53178319  0.43840861  0.67155655  1
  Ti  Ti96  1  0.53761906  0.90257339  -0.08645166  1
  Ti  Ti97  1  0.45100932  0.81824432  0.39669078  1
  Ti  Ti98  1  0.52823793  0.87330359  0.71402286  1
  Ti  Ti99  1  0.91778550  0.18136803  0.03799321  1
  Ti  Ti100  1  0.86718351  0.16233101  0.35084820  1
  Ti  Ti101  1  0.87062497  0.11503155  0.70104314  1
  Ti  Ti102  1  0.71085759  0.54564930  0.01026003  1
  Ti  Ti103  1  0.83133458  0.48619205  0.25117171  1
  Ti  Ti104  1  0.82924699  0.45362963  0.69814609  1
  Ti  Ti105  1  0.82749484  0.84891258  0.06504377  1
  Ti  Ti106  1  0.80257646  0.85598190  0.28586180  1
  Ti  Ti107  1  0.77485697  0.83682741  0.65730021  1
  Co  Co108  1  0.08860632  0.82004600  0.47448247  1
  Co  Co109  1  0.29748975  0.05186960  0.81314459  1
  Co  Co110  1  0.43635481  0.46160931  0.06772473  1
  Co  Co111  1  0.23279314  0.68298394  0.61072767  1
  Co  Co112  1  0.34151680  0.32538755  0.06190162  1
  Co  Co113  1  0.70521662  0.24395851  0.44498907  1
  Co  Co114  1  0.96171871  0.38895692  0.25822136  1
  Co  Co115  1  0.78539071  0.18765614  0.59481005  1
  Co  Co116  1  0.45107453  1.00185969  0.78449728  1
  Co  Co117  1  0.22284639  0.91591164  0.45817561  1
  Co  Co118  1  0.16130860  0.43870905  0.69394959  1
  Co  Co119  1  0.00167006  0.47080376  0.11842695  1
  Co  Co120  1  0.53439101  0.83869579  0.25480842  1
  Co  Co121  1  0.75161019  0.07402135  0.84167371  1
  Co  Co122  1  0.31200091  0.71112389  0.76175156  1
  Co  Co123  1  0.63800298  0.88531689  0.37011301  1
  Co  Co124  1  0.92689319  0.84877681  0.71901989  1
  Co  Co125  1  0.29563730  0.76960618  0.97051154  1
  Co  Co126  1  0.68511788  0.91231242  0.77531290  1
  Co  Co127  1  0.97381219  0.32186454  0.09939371  1
  Co  Co128  1  0.34814949  0.62471385  0.89621892  1
  Co  Co129  1  0.91489751  0.21943120  0.49746906  1
  Co  Co130  1  0.67642606  0.53221725  0.72622504  1
  Co  Co131  1  0.88056640  -0.00701901  0.35720417  1
  Co  Co132  1  0.14673898  0.69402308  0.04811992  1
  Co  Co133  1  0.09577895  0.91706112  0.23231924  1
  Co  Co134  1  0.18235804  0.19572080  0.84180705  1
  Co  Co135  1  0.34860108  0.16788282  0.72862051  1
  Co  Co136  1  0.67423604  0.92677101  0.21001756  1
  Co  Co137  1  0.44274904  0.76194047  0.85569987  1
  Co  Co138  1  0.23430923  0.30093032  0.18514992  1
  Co  Co139  1  0.04317899  0.55272637  0.98229935  1
  Co  Co140  1  0.35569804  0.67370730  0.45612086  1
  Co  Co141  1  0.89704919  0.12458839  0.88412034  1
  Co  Co142  1  0.68353368  0.62195535  0.86051439  1
  Co  Co143  1  0.79495215  0.09052279  0.47278486  1
  Co  Co144  1  0.74209597  0.91879449  0.92239383  1
  Co  Co145  1  0.16010701  0.23995555  0.46128187  1
  Co  Co146  1  0.88431489  0.54838915  0.03486435  1
  Co  Co147  1  0.58686499  0.21171101  -0.00766658  1
  Co  Co148  1  0.53703613  0.43866769  0.20432516  1
  Co  Co149  1  0.92280313  0.64074670  0.31614588  1
  Co  Co150  1  0.43428730  0.56626287  0.19603509  1
  Co  Co151  1  0.94109405  0.05164993  0.52435446  1
  Co  Co152  1  0.60525842  0.04648403  0.90219159  1
  Co  Co153  1  0.45390851  0.72482005  0.00767797  1
  Co  Co154  1  0.03593342  0.13250335  0.39519348  1
  Co  Co155  1  0.03255917  0.06601694  0.83268472  1
  Co  Co156  1  0.60729992  0.76917071  0.81404637  1
  Co  Co157  1  -0.01609049  0.23009404  0.25662525  1
  Co  Co158  1  0.55991448  0.86643802  0.08496070  1
  Co  Co159  1  0.76389719  0.18788291  0.95562637  1
  Co  Co160  1  0.69866651  0.36932445  0.75297475  1
  Co  Co161  1  0.12490722  0.65421213  0.72532809  1
  Ni  Ni162  1  0.12963228  0.27847407  0.69041378  1
  Ni  Ni163  1  0.91922047  0.27751717  0.66172481  1
  Ni  Ni164  1  0.25693952  0.93117417  0.01266994  1
  Ni  Ni165  1  0.91079991  0.49823007  0.54176225  1
  Ni  Ni166  1  0.92760515  0.92665883  0.18464690  1
  Ni  Ni167  1  0.50960673  0.30929396  0.77307097  1
  Ni  Ni168  1  0.65363314  0.95102131  0.60445780  1
  Ni  Ni169  1  0.45058313  0.32240012  0.29766282  1
  Ni  Ni170  1  0.10573378  0.97150970  0.56040238  1
  Ni  Ni171  1  0.82948774  0.34201173  0.35953327  1
  Ni  Ni172  1  0.91657685  0.76261117  0.19298707  1
  Ni  Ni173  1  0.16804320  0.54086174  0.10634143  1
  Ni  Ni174  1  0.23204910  0.81802204  0.13317837  1
  Ni  Ni175  1  0.40489075  0.31423741  0.58883299  1
  Ni  Ni176  1  0.82229448  0.66319825  0.73541921  1
  Ni  Ni177  1  0.92256858  0.83209583  0.92547631  1
  Ni  Ni178  1  0.07810014  0.09956424  0.03511075  1
  Ni  Ni179  1  0.48607311  0.73750600  0.62258329  1
  Ni  Ni180  1  0.75764612  0.62801517  0.32744519  1
  Ni  Ni181  1  0.09189943  0.59718488  0.33596885  1
  Ni  Ni182  1  0.55635052  0.59175499  0.08370859  1
  Ni  Ni183  1  0.91712445  0.72923868  0.61369209  1
  Ni  Ni184  1  0.07884394  0.25567216  0.96740845  1
  Ni  Ni185  1  0.38955157  0.37383394  0.44138953  1
  Ni  Ni186  1  0.25242500  0.53887241  0.31464125  1
  Ni  Ni187  1  0.33776499  0.45772175  0.63755012  1
  Ni  Ni188  1  0.62279461  0.09398567  0.20343438  1
  Ni  Ni189  1  0.41681513  0.18765946  1.02838065  1
  Ni  Ni190  1  0.45152749  0.88905258  0.56173376  1
  Ni  Ni191  1  0.50622236  0.02786964  0.62113794  1
  Ni  Ni192  1  0.78401600  0.58619608  0.59825207  1
  Ni  Ni193  1  0.14034696  0.46413666  0.42576040  1
  Ni  Ni194  1  0.59209004  0.42563620  1.03879883  1
  Ni  Ni195  1  0.72078100  0.21336335  0.27661827  1
  Ni  Ni196  1  0.47234061  0.47997800  0.52648489  1
  Ni  Ni197  1  0.36682336  0.84951795  0.24271451  1
  Ni  Ni198  1  0.01521778  0.66317678  0.48234587  1
  Ni  Ni199  1  0.91682657  0.82616644  0.40476968  1
  Ni  Ni200  1  0.61049262  0.53743343  0.38321623  1
  Ni  Ni201  1  0.17670092  0.02679124  0.31862211  1
  Ni  Ni202  1  0.26763444  0.19914347  0.58971001  1
  Ni  Ni203  1  0.79670162  0.43755877  0.87237916  1
  Ni  Ni204  1  0.96776824  0.39531807  0.78092484  1
  Ni  Ni205  1  0.79039984  0.68984142  -0.00762524  1
  Ni  Ni206  1  0.35829315  0.04838813  0.13016458  1
  Ni  Ni207  1  0.42948528  0.46247089  0.80390857  1
  Ni  Ni208  1  0.04461112  0.89796152  0.82871969  1
  Ni  Ni209  1  0.18464802  0.94140925  0.73768168  1
  Ni  Ni210  1  0.68291370  0.43735264  0.59147240  1
  Ni  Ni211  1  0.68117228  0.65489868  0.48768113  1
  Ni  Ni212  1  0.44471823  0.09968838  0.37416027  1
  Ni  Ni213  1  0.19873231  0.52988635  0.94196636  1
  Ni  Ni214  1  0.70879481  0.41607022  0.15278382  1
  Ni  Ni215  1  0.82559119  0.04003195  0.01541332  1
