# generated using pymatgen
data_Ti2CoNi
_symmetry_space_group_name_H-M   'P 1'
_cell_length_a   14.52959721
_cell_length_b   14.67014019
_cell_length_c   14.59735572
_cell_angle_alpha   90.01220810
_cell_angle_beta   90.28857888
_cell_angle_gamma   89.93035582
_symmetry_Int_Tables_number   1
_chemical_formula_structural   Ti2CoNi
_chemical_formula_sum   'Ti108 Co54 Ni54'
_cell_volume   3111.40246684
_cell_formula_units_Z   54
loop_
 _symmetry_equiv_pos_site_id
 _symmetry_equiv_pos_as_xyz
  1  'x, y, z'
loop_
 _atom_site_type_symbol
 _atom_site_label
 _atom_site_symmetry_multiplicity
 _atom_site_fract_x
 _atom_site_fract_y
 _atom_site_fract_z
 _atom_site_occupancy
  Ti  Ti0  1  0.01154518  0.03700847  -0.07568050  1
  Ti  Ti1  1  0.02305232  0.00312157  0.37248131  1
  Ti  Ti2  1  0.06850719  -0.00138544  0.66207696  1
  Ti  Ti3  1  0.04812860  0.35822873  -0.01359779  1
  Ti  Ti4  1  -0.00159658  0.36208284  0.39693304  1
  Ti  Ti5  1  0.08120490  0.32697196  0.66048377  1
  Ti  Ti6  1  -0.01711326  0.71694423  -0.06932909  1
  Ti  Ti7  1  0.02235188  0.58873801  0.30993480  1
  Ti  Ti8  1  -0.00638530  0.66473415  0.73247245  1
  Ti  Ti9  1  0.38949550  0.00248889  0.02482959  1
  Ti  Ti10  1  0.34224323  -0.01766860  0.32646385  1
  Ti  Ti11  1  0.30115744  -0.01637697  0.71133617  1
  Ti  Ti12  1  0.35847074  0.32545612  -0.03276040  1
  Ti  Ti13  1  0.37903451  0.39524016  0.28541350  1
  Ti  Ti14  1  0.36325793  0.29627945  0.72744903  1
  Ti  Ti15  1  0.34952175  0.65213413  -0.04561850  1
  Ti  Ti16  1  0.43095259  0.67774327  0.32462646  1
  Ti  Ti17  1  0.37533597  0.67963133  0.65578648  1
  Ti  Ti18  1  0.61850847  -0.03797836  0.03084954  1
  Ti  Ti19  1  0.67853792  -0.06665056  0.31475197  1
  Ti  Ti20  1  0.73002142  0.01780802  0.60759089  1
  Ti  Ti21  1  0.66786411  0.41913293  -0.01640265  1
  Ti  Ti22  1  0.71764950  0.27564138  0.30136250  1
  Ti  Ti23  1  0.65901276  0.25389004  0.60088050  1
  Ti  Ti24  1  0.70338984  0.68096400  -0.01152667  1
  Ti  Ti25  1  0.66755578  0.74700380  0.34464711  1
  Ti  Ti26  1  0.72748328  0.65365484  0.62985057  1
  Ti  Ti27  1  -0.01651745  0.16656359  0.21298641  1
  Ti  Ti28  1  -0.09413241  0.18787847  0.40207297  1
  Ti  Ti29  1  0.02587602  0.16905541  0.78290680  1
  Ti  Ti30  1  -0.04340888  0.48885545  0.15100659  1
  Ti  Ti31  1  0.00196590  0.54952143  0.57581646  1
  Ti  Ti32  1  -0.00745624  0.51194201  0.86002351  1
  Ti  Ti33  1  -0.03474039  0.84932502  0.13294896  1
  Ti  Ti34  1  -0.06467662  0.84693650  0.50647892  1
  Ti  Ti35  1  -0.01965612  0.86457956  0.78355282  1
  Ti  Ti36  1  0.30963564  0.15308003  0.10644305  1
  Ti  Ti37  1  0.33842108  0.23587009  0.42340853  1
  Ti  Ti38  1  0.48561417  0.11645129  0.75722307  1
  Ti  Ti39  1  0.30722945  0.57629378  0.20328711  1
  Ti  Ti40  1  0.30707715  0.55564070  0.52706392  1
  Ti  Ti41  1  0.30489317  0.47077556  0.85462840  1
  Ti  Ti42  1  0.39473351  0.84154558  0.21756977  1
  Ti  Ti43  1  0.27973276  0.84817481  0.46403532  1
  Ti  Ti44  1  0.29204108  0.78275056  0.79861433  1
  Ti  Ti45  1  0.65030501  0.15564550  0.14040801  1
  Ti  Ti46  1  0.60847920  0.11856882  0.43780372  1
  Ti  Ti47  1  0.68578007  0.22246359  0.84454604  1
  Ti  Ti48  1  0.62985843  0.51731471  0.17363690  1
  Ti  Ti49  1  0.66728326  0.40074236  0.45272458  1
  Ti  Ti50  1  0.61469422  0.45689483  0.79202437  1
  Ti  Ti51  1  0.69751455  0.80489032  0.14890277  1
  Ti  Ti52  1  0.63987797  0.84694561  0.58378620  1
  Ti  Ti53  1  0.66158558  0.85076347  0.86202192  1
  Ti  Ti54  1  0.14536073  0.04189246  0.20722749  1
  Ti  Ti55  1  0.24350805  0.05770301  0.48784127  1
  Ti  Ti56  1  0.15652109  -0.09155035  0.86007463  1
  Ti  Ti57  1  0.18591217  0.26273036  0.18894383  1
  Ti  Ti58  1  0.18588103  0.37076063  0.50880540  1
  Ti  Ti59  1  0.19522728  0.28966266  0.84635688  1
  Ti  Ti60  1  0.16089597  0.71543836  0.19878705  1
  Ti  Ti61  1  0.12728276  0.64256414  0.48263671  1
  Ti  Ti62  1  0.15834527  0.63975339  0.89484981  1
  Ti  Ti63  1  0.47373598  0.05058024  0.18856744  1
  Ti  Ti64  1  0.43872126  0.00153712  0.50411938  1
  Ti  Ti65  1  0.48985149  -0.04444537  0.86368463  1
  Ti  Ti66  1  0.52835149  0.35757896  0.14107113  1
  Ti  Ti67  1  0.46099720  0.37830588  0.56127386  1
  Ti  Ti68  1  0.51160347  0.26444693  0.88299514  1
  Ti  Ti69  1  0.52304417  0.68935395  0.14176711  1
  Ti  Ti70  1  0.58692531  0.66879124  0.47851490  1
  Ti  Ti71  1  0.53582563  0.65997583  0.84456028  1
  Ti  Ti72  1  0.85552517  0.03354802  0.09004667  1
  Ti  Ti73  1  0.91050889  0.03122751  0.52563480  1
  Ti  Ti74  1  0.77691931  -0.00722717  0.79358060  1
  Ti  Ti75  1  0.76639986  0.35380812  0.13261922  1
  Ti  Ti76  1  0.89019492  0.30057492  0.55995510  1
  Ti  Ti77  1  0.82223190  0.40172567  0.81414255  1
  Ti  Ti78  1  0.87071345  0.66653763  0.17327112  1
  Ti  Ti79  1  0.79034996  0.61771770  0.41974388  1
  Ti  Ti80  1  0.83006381  0.62301926  0.83871696  1
  Ti  Ti81  1  0.21311333  0.09025988  -0.05189285  1
  Ti  Ti82  1  0.11780422  0.19019778  0.37240272  1
  Ti  Ti83  1  0.18245000  0.16832164  0.64071728  1
  Ti  Ti84  1  0.22161856  0.46376570  0.04542833  1
  Ti  Ti85  1  0.21956837  0.51442489  0.35080148  1
  Ti  Ti86  1  0.14640141  0.49562488  0.72517652  1
  Ti  Ti87  1  0.18523357  0.89895869  0.06818376  1
  Ti  Ti88  1  0.10396838  0.80135775  0.38811072  1
  Ti  Ti89  1  0.07980953  0.77492607  0.60555011  1
  Ti  Ti90  1  0.53427037  0.11453169  -0.02206598  1
  Ti  Ti91  1  0.52648071  0.23673359  0.28445108  1
  Ti  Ti92  1  0.47101965  0.19016549  0.57359880  1
  Ti  Ti93  1  0.42252875  0.51260338  0.07499200  1
  Ti  Ti94  1  0.48782969  0.50205868  0.41680749  1
  Ti  Ti95  1  0.43550920  0.50431057  0.71057598  1
  Ti  Ti96  1  0.40967888  0.82559337  0.03270102  1
  Ti  Ti97  1  0.48853748  0.83349121  0.43679398  1
  Ti  Ti98  1  0.50018420  0.83319573  0.72359430  1
  Ti  Ti99  1  0.91814389  0.20494076  0.02107383  1
  Ti  Ti100  1  0.80197495  0.08510067  0.27909190  1
  Ti  Ti101  1  0.82748350  0.17291123  0.72867344  1
  Ti  Ti102  1  0.86822949  0.43224216  -0.00907516  1
  Ti  Ti103  1  0.80767506  0.47514551  0.28947665  1
  Ti  Ti104  1  0.80681857  0.47624452  0.56385444  1
  Ti  Ti105  1  0.87519383  0.89006651  -0.04912040  1
  Ti  Ti106  1  0.85000852  0.80302055  0.33092888  1
  Ti  Ti107  1  0.82321487  0.82554862  0.66978870  1
  Co  Co108  1  0.76125991  0.06403460  0.43552906  1
  Co  Co109  1  0.87693741  0.30917693  0.27455394  1
  Co  Co110  1  0.54688148  0.80163242  0.27485989  1
  Co  Co111  1  0.77072441  0.75325713  0.50351982  1
  Co  Co112  1  0.33647735  0.40760392  0.44628175  1
  Co  Co113  1  0.03604452  0.87744671  0.96997059  1
  Co  Co114  1  0.51010910  0.40450387  0.98498275  1
  Co  Co115  1  0.82940431  0.37011144  0.41847006  1
  Co  Co116  1  0.11761466  0.75496611  0.78302710  1
  Co  Co117  1  0.52117443  0.73055339  0.60432391  1
  Co  Co118  1  0.63236650  0.05082932  0.86348343  1
  Co  Co119  1  0.77880539  0.29170956  0.95683527  1
  Co  Co120  1  0.48019159  0.56636225  0.56574191  1
  Co  Co121  1  0.81161574  0.15612947  0.56620917  1
  Co  Co122  1  0.94120941  0.32401465  0.12939736  1
  Co  Co123  1  0.73457165  0.23452822  0.45178329  1
  Co  Co124  1  0.12737336  0.55117695  0.18615437  1
  Co  Co125  1  0.36968925  0.16763956  0.94730728  1
  Co  Co126  1  0.95815346  -0.00476243  0.22816103  1
  Co  Co127  1  0.60168179  0.43634956  0.63173990  1
  Co  Co128  1  0.64667766  0.13216653  0.71354980  1
  Co  Co129  1  0.71886532  0.54039240  0.90605956  1
  Co  Co130  1  0.91784181  0.27933167  0.87850227  1
  Co  Co131  1  0.86640153  0.96084842  0.36524102  1
  Co  Co132  1  0.57802108  0.60240031  0.69001595  1
  Co  Co133  1  0.04425354  0.35783611  0.81861259  1
  Co  Co134  1  0.23697872  0.77123609  0.98420798  1
  Co  Co135  1  0.45788221  0.39579716  0.82578567  1
  Co  Co136  1  0.65182929  0.54028002  0.52886483  1
  Co  Co137  1  0.61511508  0.95410829  0.46296623  1
  Co  Co138  1  0.16053663  0.63697134  0.65645736  1
  Co  Co139  1  0.45410332  -0.01649316  0.66804859  1
  Co  Co140  1  0.09230149  0.40289186  0.12928903  1
  Co  Co141  1  0.34352200  0.70715836  0.12270486  1
  Co  Co142  1  0.20565542  0.32905373  0.35125696  1
  Co  Co143  1  0.77978363  0.90868566  0.48970270  1
  Co  Co144  1  0.50839811  0.96002391  0.33115727  1
  Co  Co145  1  0.34600757  0.03529085  0.85707010  1
  Co  Co146  1  0.30424158  0.28058621  0.57580570  1
  Co  Co147  1  0.04947664  0.31681073  0.25805965  1
  Co  Co148  1  0.22415392  0.42188721  0.21749984  1
  Co  Co149  1  0.20841212  0.26642297  0.01526087  1
  Co  Co150  1  0.33794622  0.11809016  0.61830990  1
  Co  Co151  1  0.09239975  0.74197527  0.04787169  1
  Co  Co152  1  0.14759520  0.46160731  0.89549363  1
  Co  Co153  1  0.25109090  0.72588711  0.55309820  1
  Co  Co154  1  0.40324317  0.69489370  0.48191470  1
  Co  Co155  1  0.30809448  0.89897722  0.91871455  1
  Co  Co156  1  0.92386204  0.29650393  0.71929532  1
  Co  Co157  1  0.05647584  0.54387939  1.01879109  1
  Co  Co158  1  0.15326770  0.06346742  0.79482384  1
  Co  Co159  1  1.02846748  1.00010993  0.08283447  1
  Co  Co160  1  0.61336525  0.95876344  0.72914791  1
  Co  Co161  1  0.20893475  0.62721130  0.06221813  1
  Ni  Ni162  1  0.34378474  0.34553778  0.12593031  1
  Ni  Ni163  1  0.83789284  0.75733364  0.03782745  1
  Ni  Ni164  1  0.75568601  0.99442106  0.95719530  1
  Ni  Ni165  1  0.44442773  0.79372075  0.87635312  1
  Ni  Ni166  1  0.09891618  0.88192158  0.23241816  1
  Ni  Ni167  1  0.68569485  0.69797860  0.78979765  1
  Ni  Ni168  1  0.61528506  0.26682214  0.02168456  1
  Ni  Ni169  1  0.90209207  0.98315414  0.68435949  1
  Ni  Ni170  1  0.38291534  0.84310407  0.59455093  1
  Ni  Ni171  1  0.53894414  0.88349188  0.14113607  1
  Ni  Ni172  1  0.64607544  0.54957119  0.35027923  1
  Ni  Ni173  1  0.86318853  0.56428599  0.69030660  1
  Ni  Ni174  1  0.07304770  0.20373823  0.93315813  1
  Ni  Ni175  1  0.48032009  0.53346133  0.24615604  1
  Ni  Ni176  1  0.82723498  0.78653098  0.83256821  1
  Ni  Ni177  1  0.18272193  0.87151923  0.68373046  1
  Ni  Ni178  1  0.61255423  0.08212576  0.28051279  1
  Ni  Ni179  1  0.10761134  0.14793600  0.08319623  1
  Ni  Ni180  1  0.97527745  0.15847746  0.62613879  1
  Ni  Ni181  1  0.91965249  0.51473026  0.42946672  1
  Ni  Ni182  1  0.28224062  0.60743336  0.77219914  1
  Ni  Ni183  1  0.11751213  0.92106898  0.51720508  1
  Ni  Ni184  1  0.73126813  0.14511491  0.00069833  1
  Ni  Ni185  1  0.89059338  0.59792540  0.00663302  1
  Ni  Ni186  1  0.57422094  0.57575101  0.01369362  1
  Ni  Ni187  1  0.08064371  0.08801848  0.51276956  1
  Ni  Ni188  1  0.96910275  0.44682629  0.69782918  1
  Ni  Ni189  1  0.55292132  0.28233662  0.44102653  1
  Ni  Ni190  1  0.57324489  0.05692308  0.59141176  1
  Ni  Ni191  1  0.75935291  0.35823133  0.67203432  1
  Ni  Ni192  1  0.53930255  0.29425600  0.71194237  1
  Ni  Ni193  1  0.77865146  0.52965039  0.10315515  1
  Ni  Ni194  1  0.30119195  0.98639375  0.16428959  1
  Ni  Ni195  1  0.05505731  0.24856498  0.51495897  1
  Ni  Ni196  1  0.46733106  0.20860847  0.10028167  1
  Ni  Ni197  1  0.99654680  0.75004645  0.27027920  1
  Ni  Ni198  1  0.72263512  0.64271153  0.23268731  1
  Ni  Ni199  1  0.57896465  0.40093809  0.30295298  1
  Ni  Ni200  1  0.85663524  0.11738971  0.88781822  1
  Ni  Ni201  1  0.57348389  0.78816875  0.99488813  1
  Ni  Ni202  1  0.17906806  0.95882921  0.36357104  1
  Ni  Ni203  1  0.08612962  0.48849836  0.44121901  1
  Ni  Ni204  1  -0.03897835  0.69521112  0.43075775  1
  Ni  Ni205  1  0.90386076  0.69048744  0.58529303  1
  Ni  Ni206  1  0.28564634  0.43319174  0.64956288  1
  Ni  Ni207  1  0.81043933  0.91929056  0.20307343  1
  Ni  Ni208  1  0.36902489  0.22643671  0.24354781  1
  Ni  Ni209  1  0.25847013  0.12699092  0.30740422  1
  Ni  Ni210  1  0.26007960  0.68235714  0.38015160  1
  Ni  Ni211  1  0.25165303  0.82701155  0.29203785  1
  Ni  Ni212  1  0.81716533  0.19812441  0.15544013  1
  Ni  Ni213  1  0.45796166  0.53257326  0.90442284  1
  Ni  Ni214  1  0.29034407  0.16115377  0.78198299  1
  Ni  Ni215  1  0.44058022  0.11524768  0.36341784  1
