# generated using pymatgen
data_Ti2CoNi
_symmetry_space_group_name_H-M   'P 1'
_cell_length_a   14.69783937
_cell_length_b   14.64902854
_cell_length_c   14.52837697
_cell_angle_alpha   90.05427999
_cell_angle_beta   89.93790744
_cell_angle_gamma   90.32518582
_symmetry_Int_Tables_number   1
_chemical_formula_structural   Ti2CoNi
_chemical_formula_sum   'Ti108 Co54 Ni54'
_cell_volume   3128.03770657
_cell_formula_units_Z   54
loop_
 _symmetry_equiv_pos_site_id
 _symmetry_equiv_pos_as_xyz
  1  'x, y, z'
loop_
 _atom_site_type_symbol
 _atom_site_label
 _atom_site_symmetry_multiplicity
 _atom_site_fract_x
 _atom_site_fract_y
 _atom_site_fract_z
 _atom_site_occupancy
  Ti  Ti0  1  0.06076803  0.06161405  -0.01390156  1
  Ti  Ti1  1  0.00802613  0.00035295  0.33861838  1
  Ti  Ti2  1  0.01858328  0.02672500  0.62294082  1
  Ti  Ti3  1  0.07271774  0.29379281  0.07223423  1
  Ti  Ti4  1  0.04067909  0.32940386  0.39312302  1
  Ti  Ti5  1  -0.03944231  0.31370949  0.60189815  1
  Ti  Ti6  1  -0.06637640  0.61169089  0.01566458  1
  Ti  Ti7  1  0.00060991  0.68781284  0.27873079  1
  Ti  Ti8  1  0.06801123  0.64579264  0.64384974  1
  Ti  Ti9  1  0.28862625  -0.00541766  -0.07069391  1
  Ti  Ti10  1  0.39905933  -0.00173463  0.35035185  1
  Ti  Ti11  1  0.36920625  0.04781459  0.59452312  1
  Ti  Ti12  1  0.32207482  0.36580430  -0.03434033  1
  Ti  Ti13  1  0.33552620  0.32106037  0.29535273  1
  Ti  Ti14  1  0.37949201  0.25870502  0.64557146  1
  Ti  Ti15  1  0.36530485  0.68366855  -0.02956509  1
  Ti  Ti16  1  0.27255915  0.61937262  0.38264028  1
  Ti  Ti17  1  0.26869468  0.71494935  0.68902250  1
  Ti  Ti18  1  0.58081666  -0.00415117  0.05552578  1
  Ti  Ti19  1  0.65761144  0.01722452  0.32039987  1
  Ti  Ti20  1  0.67554335  -0.00398749  0.74839094  1
  Ti  Ti21  1  0.62002832  0.34471466  -0.05709049  1
  Ti  Ti22  1  0.74307497  0.31942957  0.28103495  1
  Ti  Ti23  1  0.64756568  0.41119859  0.67474732  1
  Ti  Ti24  1  0.61515262  0.67440848  -0.03704565  1
  Ti  Ti25  1  0.64614425  0.69892545  0.38049430  1
  Ti  Ti26  1  0.68434133  0.62107328  0.64090687  1
  Ti  Ti27  1  -0.00280986  0.14756473  0.18211030  1
  Ti  Ti28  1  -0.04128239  0.14897222  0.45758401  1
  Ti  Ti29  1  -0.05287539  0.19911234  0.81933872  1
  Ti  Ti30  1  0.02152987  0.48845822  0.13749174  1
  Ti  Ti31  1  -0.08749643  0.46319153  0.48476439  1
  Ti  Ti32  1  0.07178460  0.46469769  0.91338144  1
  Ti  Ti33  1  -0.02233992  0.82834803  0.13489744  1
  Ti  Ti34  1  -0.02108726  0.79408130  0.45289408  1
  Ti  Ti35  1  -0.00138365  0.86345181  0.73979128  1
  Ti  Ti36  1  0.34945795  0.17673314  0.16640993  1
  Ti  Ti37  1  0.26192863  0.18435282  0.49202355  1
  Ti  Ti38  1  0.38286893  0.13399163  0.82343394  1
  Ti  Ti39  1  0.30994286  0.48388744  0.12984993  1
  Ti  Ti40  1  0.33995850  0.46884945  0.53337709  1
  Ti  Ti41  1  0.33707998  0.47993158  0.79126413  1
  Ti  Ti42  1  0.29772835  0.84900916  0.11445316  1
  Ti  Ti43  1  0.36833633  0.79757858  0.42817621  1
  Ti  Ti44  1  0.23065924  0.82530557  0.84546654  1
  Ti  Ti45  1  0.70255352  0.14082604  0.17724179  1
  Ti  Ti46  1  0.64860468  0.19634457  0.56409048  1
  Ti  Ti47  1  0.69515960  0.17151444  0.87147199  1
  Ti  Ti48  1  0.70337025  0.50262165  0.20760216  1
  Ti  Ti49  1  0.63477481  0.50288480  0.44106557  1
  Ti  Ti50  1  0.65279878  0.52837186  0.84524690  1
  Ti  Ti51  1  0.66789636  0.80039289  0.10632814  1
  Ti  Ti52  1  0.73159744  0.78895864  0.52331270  1
  Ti  Ti53  1  0.65829413  0.86396755  0.90524122  1
  Ti  Ti54  1  0.10854690  -0.02329164  0.18199080  1
  Ti  Ti55  1  0.12474057  -0.07037809  0.47731993  1
  Ti  Ti56  1  0.14364065  0.00433058  0.79503330  1
  Ti  Ti57  1  0.16393923  0.41613617  0.23892535  1
  Ti  Ti58  1  0.16318756  0.35541084  0.54638185  1
  Ti  Ti59  1  0.17557256  0.32727752  0.84863051  1
  Ti  Ti60  1  0.15666137  0.74912581  0.18034217  1
  Ti  Ti61  1  0.18847667  0.74586203  0.50805795  1
  Ti  Ti62  1  0.19438877  0.61856905  0.82986758  1
  Ti  Ti63  1  0.41108902  0.00009654  0.14893203  1
  Ti  Ti64  1  0.54275286  0.06450456  0.46282573  1
  Ti  Ti65  1  0.48861299  -0.02478619  0.87888985  1
  Ti  Ti66  1  0.53648856  0.41174170  0.12970923  1
  Ti  Ti67  1  0.52447460  0.32939168  0.56321817  1
  Ti  Ti68  1  0.48540606  0.30440550  0.80353784  1
  Ti  Ti69  1  0.52253292  0.61974532  0.13710396  1
  Ti  Ti70  1  0.46414960  0.61538682  0.44665503  1
  Ti  Ti71  1  0.57786041  0.71075117  0.76844270  1
  Ti  Ti72  1  0.86783961  0.00302404  0.15011980  1
  Ti  Ti73  1  0.83745433  -0.05028741  0.45389484  1
  Ti  Ti74  1  0.85729360  -0.08978279  0.86295916  1
  Ti  Ti75  1  0.85514397  0.30983425  0.11391263  1
  Ti  Ti76  1  0.76069993  0.34269575  0.51097156  1
  Ti  Ti77  1  0.84043369  0.30108807  0.92329013  1
  Ti  Ti78  1  0.82047481  0.67620813  0.20483572  1
  Ti  Ti79  1  0.86622104  0.64201373  0.54057556  1
  Ti  Ti80  1  0.91577041  0.69203060  0.79915591  1
  Ti  Ti81  1  0.25349296  0.18591266  0.00014320  1
  Ti  Ti82  1  0.18735559  0.14301197  0.32223410  1
  Ti  Ti83  1  0.21946208  0.19400963  0.69290785  1
  Ti  Ti84  1  0.15596449  0.59218728  0.03817929  1
  Ti  Ti85  1  0.09035912  0.52452228  0.38816674  1
  Ti  Ti86  1  0.10615522  0.46761099  0.70877174  1
  Ti  Ti87  1  0.12929805  0.87666542  0.01850245  1
  Ti  Ti88  1  0.23050004  0.88537620  0.31934633  1
  Ti  Ti89  1  0.19817862  0.89588025  0.65343304  1
  Ti  Ti90  1  0.53880033  0.19175769  0.07156588  1
  Ti  Ti91  1  0.54864146  0.22483208  0.36295665  1
  Ti  Ti92  1  0.53600978  0.13743986  0.69880181  1
  Ti  Ti93  1  0.45073262  0.51209163  -0.01499240  1
  Ti  Ti94  1  0.44593716  0.48768475  0.28912143  1
  Ti  Ti95  1  0.42986962  0.61637323  0.66379257  1
  Ti  Ti96  1  0.49017504  0.83156314  0.07236498  1
  Ti  Ti97  1  0.54060309  0.85289617  0.37387344  1
  Ti  Ti98  1  0.49422175  0.81245923  0.62518860  1
  Ti  Ti99  1  0.85357957  0.08490492  -0.03381090  1
  Ti  Ti100  1  0.76198447  0.16722734  0.39112166  1
  Ti  Ti101  1  0.78666539  0.20711571  0.69953684  1
  Ti  Ti102  1  0.79420389  0.47082676  -0.04152157  1
  Ti  Ti103  1  0.89965625  0.46904053  0.28219450  1
  Ti  Ti104  1  0.82469818  0.50734891  0.73730943  1
  Ti  Ti105  1  0.82177485  0.76684921  -0.01105190  1
  Ti  Ti106  1  0.73436040  0.84839332  0.29366069  1
  Ti  Ti107  1  0.76398974  0.81887191  0.70769959  1
  Co  Co108  1  0.41426591  0.85804417  0.25687699  1
  Co  Co109  1  0.59038623  0.40279429  0.29227069  1
  Co  Co110  1  0.69708259  0.08556874  0.01915130  1
  Co  Co111  1  0.74299108  0.37041865  0.81411085  1
  Co  Co112  1  0.51038452  0.78806489  0.91542859  1
  Co  Co113  1  0.18845678  0.55794597  0.52369127  1
  Co  Co114  1  0.55706721  0.93063426  0.21801725  1
  Co  Co115  1  0.34630793  0.59300177  0.24349931  1
  Co  Co116  1  0.43759179  0.42112911  0.67724147  1
  Co  Co117  1  0.28066298  0.65482363  0.11522378  1
  Co  Co118  1  0.70671408  0.96507746  0.16375012  1
  Co  Co119  1  0.71706039  0.06679026  0.50070000  1
  Co  Co120  1  0.24083614  0.29928929  0.14377641  1
  Co  Co121  1  0.74300234  0.94367970  0.60044614  1
  Co  Co122  1  0.86170342  0.05967435  0.57984997  1
  Co  Co123  1  0.25351007  0.55098149  0.66898945  1
  Co  Co124  1  0.97349821  0.02671302  0.81241917  1
  Co  Co125  1  0.05622238  0.90907134  0.88905423  1
  Co  Co126  1  0.63303344  0.26085298  0.74024125  1
  Co  Co127  1  0.77232445  0.44424489  0.37958323  1
  Co  Co128  1  0.03913140  0.64321536  0.48340732  1
  Co  Co129  1  0.57419913  0.76016091  0.23062942  1
  Co  Co130  1  0.94101228  0.93363077  0.01054511  1
  Co  Co131  1  0.29643666  0.74546665  0.27259756  1
  Co  Co132  1  0.21443142  0.74413289  0.98953995  1
  Co  Co133  1  0.97101612  0.78377969  0.92714947  1
  Co  Co134  1  0.06588058  0.81297077  0.59787628  1
  Co  Co135  1  0.83348752  0.20715565  0.54123559  1
  Co  Co136  1  0.19601543  0.05461368  0.60830490  1
  Co  Co137  1  0.05363585  0.71469468  0.04896967  1
  Co  Co138  1  0.95242602  0.20112849  0.01387903  1
  Co  Co139  1  0.45651521  0.69499556  0.31486242  1
  Co  Co140  1  0.41188846  0.72525241  0.15867712  1
  Co  Co141  1  0.82045949  0.84461341  0.14430314  1
  Co  Co142  1  0.94486339  0.42182421  1.00277830  1
  Co  Co143  1  0.32133112  0.28283248  0.81354015  1
  Co  Co144  1  0.86890716  0.95351359  0.69821051  1
  Co  Co145  1  0.55563740  0.54258340  0.71781226  1
  Co  Co146  1  0.20229637  0.31332818  0.38956186  1
  Co  Co147  1  0.65582490  0.91902163  0.46359739  1
  Co  Co148  1  0.32945356  0.65826466  0.54040356  1
  Co  Co149  1  0.05147748  0.64604647  0.88987708  1
  Co  Co150  1  0.63674901  0.29130547  0.16721858  1
  Co  Co151  1  0.05042675  0.47494263  0.55232185  1
  Co  Co152  1  0.55828591  0.86913069  0.77194390  1
  Co  Co153  1  0.75939893  0.59803924  0.33622774  1
  Co  Co154  1  0.63511185  0.33360379  0.42948089  1
  Co  Co155  1  0.59296306  0.00811606  0.60417351  1
  Co  Co156  1  0.71808776  0.24000248  1.02803669  1
  Co  Co157  1  0.21692533  0.13885823  0.85097931  1
  Co  Co158  1  0.10766209  0.75354440  0.76687191  1
  Co  Co159  1  0.81750250  0.36245362  0.66099424  1
  Co  Co160  1  0.14140376  0.71393423  0.35756973  1
  Co  Co161  1  0.27335242  0.46238117  0.35640527  1
  Ni  Ni162  1  0.08431155  0.21017683  0.91578149  1
  Ni  Ni163  1  0.52362938  0.50754720  0.56239459  1
  Ni  Ni164  1  0.42462590  0.24373693  0.96011945  1
  Ni  Ni165  1  0.80117009  0.61705242  0.90329404  1
  Ni  Ni166  1  0.15037661  0.58734996  0.23412274  1
  Ni  Ni167  1  0.57669627  0.69172944  0.54351024  1
  Ni  Ni168  1  0.11466144  0.09015275  0.46321339  1
  Ni  Ni169  1  0.07608472  0.14103483  0.74499643  1
  Ni  Ni170  1  0.16316467  0.14171814  0.14444066  1
  Ni  Ni171  1  0.48532727  0.26907501  0.22381213  1
  Ni  Ni172  1  0.33508049  0.83626185  0.58724932  1
  Ni  Ni173  1  0.76893922  0.93537419  1.01230189  1
  Ni  Ni174  1  0.85147728  0.50286908  0.12179997  1
  Ni  Ni175  1  0.08220875  0.19568183  0.58368765  1
  Ni  Ni176  1  0.83120346  0.74588378  0.38829578  1
  Ni  Ni177  1  0.26804347  0.02834530  0.23626674  1
  Ni  Ni178  1  0.46904707  -0.01460899  0.71062781  1
  Ni  Ni179  1  0.36537451  0.85257396  0.95092290  1
  Ni  Ni180  1  0.39574315  0.33518308  0.10818760  1
  Ni  Ni181  1  0.74182188  0.62209016  0.06788538  1
  Ni  Ni182  1  0.51693709  0.09931919  0.24518795  1
  Ni  Ni183  1  0.37603429  0.16071141  0.34174122  1
  Ni  Ni184  1  0.81940311  0.07437682  0.79824251  1
  Ni  Ni185  1  0.72721824  0.72336257  0.82844619  1
  Ni  Ni186  1  0.91299465  0.60148665  0.38135754  1
  Ni  Ni187  1  0.47446463  0.40347902  0.42455366  1
  Ni  Ni188  1  0.26094214  0.37381243  0.68166325  1
  Ni  Ni189  1  0.46262965  0.92640118  0.51326334  1
  Ni  Ni190  1  0.84600092  0.03600967  0.31001342  1
  Ni  Ni191  1  0.58363379  0.58099594  0.28774164  1
  Ni  Ni192  1  0.06920476  0.84969469  0.30392229  1
  Ni  Ni193  1  0.93579168  0.52886374  0.85682638  1
  Ni  Ni194  1  0.17479163  0.41613841  0.04337313  1
  Ni  Ni195  1  0.30364431  1.00576988  0.75059683  1
  Ni  Ni196  1  0.26064532  0.51251497  0.93867942  1
  Ni  Ni197  1  0.23956007  1.01947521  0.07664105  1
  Ni  Ni198  1  0.46681318  0.61711225  0.84992472  1
  Ni  Ni199  1  0.28930293  0.95284048  0.47971823  1
  Ni  Ni200  1  0.41824117  0.08420170  0.00260057  1
  Ni  Ni201  1  0.54112862  0.14557054  0.89843695  1
  Ni  Ni202  1  0.61918857  0.51534884  0.02258389  1
  Ni  Ni203  1  0.90502276  0.86599223  0.29243817  1
  Ni  Ni204  1  0.85234155  0.18843468  0.24441622  1
  Ni  Ni205  1  0.96796449  0.32735652  0.23478953  1
  Ni  Ni206  1  0.87887435  0.30050632  0.38934626  1
  Ni  Ni207  1  0.77085791  0.50131327  0.56642404  1
  Ni  Ni208  1  0.43903349  0.18583993  0.50611623  1
  Ni  Ni209  1  0.39868202  0.75987522  0.79200957  1
  Ni  Ni210  1  0.90363988  0.77440410  0.62727576  1
  Ni  Ni211  1  0.93021581  0.37350452  0.78350978  1
  Ni  Ni212  1  0.71573724  0.39648968  0.07895722  1
  Ni  Ni213  1  0.11325621  0.26167155  0.24467126  1
  Ni  Ni214  1  0.07618508  0.30257193  0.71820419  1
  Ni  Ni215  1  0.50136167  0.45567955  0.84234540  1
