# generated using pymatgen
data_Ti2CoNi
_symmetry_space_group_name_H-M   'P 1'
_cell_length_a   14.71480273
_cell_length_b   14.73106994
_cell_length_c   14.65470399
_cell_angle_alpha   89.84794759
_cell_angle_beta   90.07937569
_cell_angle_gamma   89.77165066
_symmetry_Int_Tables_number   1
_chemical_formula_structural   Ti2CoNi
_chemical_formula_sum   'Ti108 Co54 Ni54'
_cell_volume   3176.58429845
_cell_formula_units_Z   54
loop_
 _symmetry_equiv_pos_site_id
 _symmetry_equiv_pos_as_xyz
  1  'x, y, z'
loop_
 _atom_site_type_symbol
 _atom_site_label
 _atom_site_symmetry_multiplicity
 _atom_site_fract_x
 _atom_site_fract_y
 _atom_site_fract_z
 _atom_site_occupancy
  Ti  Ti0  1  0.03497807  -0.00062913  -0.03541972  1
  Ti  Ti1  1  -0.05822079  -0.04394451  0.35414523  1
  Ti  Ti2  1  0.03380412  0.03445340  0.65233353  1
  Ti  Ti3  1  0.02584319  0.38091232  0.09055689  1
  Ti  Ti4  1  -0.02919679  0.25044981  0.31197219  1
  Ti  Ti5  1  0.05284923  0.30896724  0.59563523  1
  Ti  Ti6  1  -0.05374759  0.71472671  0.04898832  1
  Ti  Ti7  1  0.01228815  0.68466739  0.36411652  1
  Ti  Ti8  1  0.05871943  0.62770964  0.72734498  1
  Ti  Ti9  1  0.34818907  0.00313019  0.05309463  1
  Ti  Ti10  1  0.33798609  -0.00413980  0.26962042  1
  Ti  Ti11  1  0.29755405  -0.02998311  0.68941889  1
  Ti  Ti12  1  0.38651127  0.35467981  -0.05157324  1
  Ti  Ti13  1  0.30438367  0.32102692  0.35209685  1
  Ti  Ti14  1  0.36932131  0.26662171  0.65914064  1
  Ti  Ti15  1  0.27992983  0.68229895  0.03326899  1
  Ti  Ti16  1  0.27420462  0.77131748  0.31889395  1
  Ti  Ti17  1  0.34920171  0.63811482  0.70378878  1
  Ti  Ti18  1  0.72721390  -0.02289625  -0.01618090  1
  Ti  Ti19  1  0.67309842  -0.04993774  0.34314531  1
  Ti  Ti20  1  0.64375587  -0.04305977  0.70544535  1
  Ti  Ti21  1  0.65077738  0.27237962  0.00098181  1
  Ti  Ti22  1  0.71916361  0.33492376  0.28464953  1
  Ti  Ti23  1  0.69318004  0.32612363  0.75286034  1
  Ti  Ti24  1  0.74694439  0.67838186  -0.08474680  1
  Ti  Ti25  1  0.66796593  0.57814173  0.37746464  1
  Ti  Ti26  1  0.65514737  0.67814455  0.71833496  1
  Ti  Ti27  1  -0.02987808  0.13787357  0.11161888  1
  Ti  Ti28  1  -0.04521731  0.15700879  0.49916130  1
  Ti  Ti29  1  0.05855137  0.17883024  0.87213495  1
  Ti  Ti30  1  -0.03939558  0.49440954  0.24396620  1
  Ti  Ti31  1  -0.03594571  0.51347370  0.55348007  1
  Ti  Ti32  1  0.01158237  0.48909808  0.87669115  1
  Ti  Ti33  1  -0.00478182  0.93229289  0.15358737  1
  Ti  Ti34  1  -0.03093643  0.80926205  0.49377813  1
  Ti  Ti35  1  -0.01436741  0.82444513  0.69909938  1
  Ti  Ti36  1  0.28181033  0.25133907  0.16716595  1
  Ti  Ti37  1  0.39221568  0.09735832  0.56210174  1
  Ti  Ti38  1  0.24757247  0.25902080  0.85129289  1
  Ti  Ti39  1  0.38566459  0.48997060  0.19612501  1
  Ti  Ti40  1  0.37915215  0.53010909  0.48560441  1
  Ti  Ti41  1  0.36565108  0.52968804  0.88250556  1
  Ti  Ti42  1  0.39326561  0.83607509  0.15477422  1
  Ti  Ti43  1  0.34958739  0.90205889  0.48251297  1
  Ti  Ti44  1  0.27784152  0.80085633  0.80192717  1
  Ti  Ti45  1  0.67881462  0.15964419  0.21102921  1
  Ti  Ti46  1  0.67840789  0.22382637  0.46240329  1
  Ti  Ti47  1  0.59428538  0.16929708  0.84377870  1
  Ti  Ti48  1  0.64198477  0.54562396  0.18449006  1
  Ti  Ti49  1  0.65228826  0.52597810  0.57329597  1
  Ti  Ti50  1  0.73276436  0.46359170  0.90619666  1
  Ti  Ti51  1  0.67067294  0.85579767  0.16818099  1
  Ti  Ti52  1  0.53361991  0.85746325  0.46210957  1
  Ti  Ti53  1  0.63582145  0.83591913  0.85605824  1
  Ti  Ti54  1  0.19741900  -0.07782177  0.15921550  1
  Ti  Ti55  1  0.11077103  -0.00364548  0.44603059  1
  Ti  Ti56  1  0.22597219  -0.02423684  0.88297373  1
  Ti  Ti57  1  0.12109019  0.34697491  0.25381096  1
  Ti  Ti58  1  0.13448756  0.32107771  0.43774050  1
  Ti  Ti59  1  0.10080560  0.35816915  0.77227814  1
  Ti  Ti60  1  0.08866512  0.65587764  0.19910461  1
  Ti  Ti61  1  0.27996593  0.69141269  0.50235884  1
  Ti  Ti62  1  0.20402145  0.62165641  0.85562926  1
  Ti  Ti63  1  0.51797731  0.01009436  0.20976624  1
  Ti  Ti64  1  0.57379316  0.04611165  0.51044259  1
  Ti  Ti65  1  0.45993514  -0.09068609  0.79911025  1
  Ti  Ti66  1  0.55892101  0.35930355  0.16924726  1
  Ti  Ti67  1  0.48770684  0.33353788  0.44922898  1
  Ti  Ti68  1  0.50650028  0.36053843  0.80388560  1
  Ti  Ti69  1  0.55394499  0.70494616  0.11292241  1
  Ti  Ti70  1  0.53045780  0.66057601  0.49344920  1
  Ti  Ti71  1  0.54591435  0.58992250  0.86516339  1
  Ti  Ti72  1  0.81807919  -0.00110061  0.19900418  1
  Ti  Ti73  1  0.79322839  0.04099930  0.61041030  1
  Ti  Ti74  1  0.88994660  0.07507544  0.78984568  1
  Ti  Ti75  1  0.82675993  0.33404679  0.11010699  1
  Ti  Ti76  1  0.78176599  0.37356625  0.56600575  1
  Ti  Ti77  1  0.83956642  0.25860199  0.87464597  1
  Ti  Ti78  1  0.75969127  0.69938437  0.11219122  1
  Ti  Ti79  1  0.81306633  0.68454778  0.45161426  1
  Ti  Ti80  1  0.85867037  0.68264131  0.75602353  1
  Ti  Ti81  1  0.14103500  0.20565718  0.04314155  1
  Ti  Ti82  1  0.21581126  0.14883969  0.33749807  1
  Ti  Ti83  1  0.19745773  0.17636544  0.66758834  1
  Ti  Ti84  1  0.18751282  0.49665239  0.03154021  1
  Ti  Ti85  1  0.22122179  0.49395023  0.33586780  1
  Ti  Ti86  1  0.19631765  0.49773879  0.56001461  1
  Ti  Ti87  1  0.10867731  0.80495618  -0.05063594  1
  Ti  Ti88  1  0.09058793  0.84055962  0.30029928  1
  Ti  Ti89  1  0.16563525  0.76552398  0.62805897  1
  Ti  Ti90  1  0.46005871  0.17803949  0.01482373  1
  Ti  Ti91  1  0.44761043  0.15871442  0.35863136  1
  Ti  Ti92  1  0.45802180  0.09455438  0.73985655  1
  Ti  Ti93  1  0.50711668  0.49969150  0.04450897  1
  Ti  Ti94  1  0.49219798  0.59441762  0.30872095  1
  Ti  Ti95  1  0.45744719  0.43480177  0.63367200  1
  Ti  Ti96  1  0.53438596  0.92821584  0.01223181  1
  Ti  Ti97  1  0.55360926  0.76810768  0.29655747  1
  Ti  Ti98  1  0.50524600  0.78876194  0.64179469  1
  Ti  Ti99  1  0.78973252  0.14786002  0.05396603  1
  Ti  Ti100  1  0.81883300  0.12440946  0.35892838  1
  Ti  Ti101  1  0.84947231  0.22650451  0.65310274  1
  Ti  Ti102  1  0.83686184  0.53557697  0.06242675  1
  Ti  Ti103  1  0.80893217  0.45256705  0.39627723  1
  Ti  Ti104  1  0.77213610  0.50298742  0.72192473  1
  Ti  Ti105  1  0.86938601  0.85936697  -0.09245359  1
  Ti  Ti106  1  0.82516557  0.80526607  0.28899576  1
  Ti  Ti107  1  0.79936028  0.81662759  0.60916752  1
  Co  Co108  1  0.60000891  0.36487938  0.59052149  1
  Co  Co109  1  0.37188288  0.69205407  0.87961696  1
  Co  Co110  1  0.83691021  0.84800810  0.09945421  1
  Co  Co111  1  0.06021764  0.13783591  0.37364964  1
  Co  Co112  1  0.83625321  0.28249995  0.42869960  1
  Co  Co113  1  0.87505133  0.93512999  0.71232747  1
  Co  Co114  1  0.25431640  0.84573846  0.02480066  1
  Co  Co115  1  0.57620878  0.26593722  0.32421756  1
  Co  Co116  1  0.56947618  0.44316787  0.30778148  1
  Co  Co117  1  0.66267871  0.39055809  0.43614845  1
  Co  Co118  1  0.86604906  0.56144948  0.88299313  1
  Co  Co119  1  0.87728211  0.36003618  0.26749960  1
  Co  Co120  1  0.43021504  0.29606576  0.26083001  1
  Co  Co121  1  0.93012652  0.53218333  0.72803803  1
  Co  Co122  1  0.15284358  0.91273205  0.71025345  1
  Co  Co123  1  0.53216541  0.25033320  0.69806416  1
  Co  Co124  1  0.68340644  0.22768483  0.62228715  1
  Co  Co125  1  0.07282705  0.50892388  0.36252720  1
  Co  Co126  1  0.51314335  0.20430832  0.54743442  1
  Co  Co127  1  0.61292544  0.11308154  0.02269770  1
  Co  Co128  1  0.24512888  0.33293879  0.02330899  1
  Co  Co129  1  0.53550233  0.49303766  0.46674631  1
  Co  Co130  1  0.40887118  0.44772622  0.35007378  1
  Co  Co131  1  0.73061804  0.04554256  0.46464323  1
  Co  Co132  1  0.73553291  0.13612485  0.74252920  1
  Co  Co133  1  0.41004419  0.22048876  0.84414785  1
  Co  Co134  1  0.22500416  0.92533422  0.35763561  1
  Co  Co135  1  0.13794741  0.77843405  0.44917249  1
  Co  Co136  1  0.59626612  0.10238701  0.65853390  1
  Co  Co137  1  0.58627413  1.00666631  0.87203699  1
  Co  Co138  1  0.95866872  0.78060078  0.21022595  1
  Co  Co139  1  0.07922225  0.47513635  0.66928335  1
  Co  Co140  1  0.11435684  0.76613022  0.79444479  1
  Co  Co141  1  0.10804715  1.01429544  0.27182131  1
  Co  Co142  1  0.61858155  0.10397935  0.34887231  1
  Co  Co143  1  0.24805973  0.41445847  0.16774661  1
  Co  Co144  1  0.73836431  0.12651241  0.90087745  1
  Co  Co145  1  0.83951940  0.19786245  0.21138739  1
  Co  Co146  1  0.57393558  0.71986636  0.95591235  1
  Co  Co147  1  0.65586135  0.57885036  0.01205420  1
  Co  Co148  1  0.11319838  0.49792770  0.18370907  1
  Co  Co149  1  0.43460019  0.79146614  0.00939155  1
  Co  Co150  1  0.36521600  0.89724693  0.92110811  1
  Co  Co151  1  0.69348785  0.81793488  0.01104086  1
  Co  Co152  1  0.75585771  0.98108138  0.81762006  1
  Co  Co153  1  0.42493517  0.86764273  0.31656813  1
  Co  Co154  1  0.69662092  0.69068821  0.26330029  1
  Co  Co155  1  0.43333923  0.63032130  1.02173359  1
  Co  Co156  1  0.86412643  0.39983460  0.80931070  1
  Co  Co157  1  0.77068452  0.81946353  0.77370499  1
  Co  Co158  1  0.95849671  0.08511376  0.26256338  1
  Co  Co159  1  0.08093632  0.89745665  0.56728706  1
  Co  Co160  1  0.23246354  0.75765392  0.17035115  1
  Co  Co161  1  0.48691695  0.99855588  0.37581587  1
  Ni  Ni162  1  0.98663446  0.23466248  0.73811181  1
  Ni  Ni163  1  0.29693168  0.10741125  0.79447545  1
  Ni  Ni164  1  0.92081344  0.56199713  0.40037231  1
  Ni  Ni165  1  0.53415974  0.19882746  0.16224878  1
  Ni  Ni166  1  0.06990419  0.62692376  0.95136860  1
  Ni  Ni167  1  0.03931105  0.91902683  0.82625606  1
  Ni  Ni168  1  0.67310849  0.90392687  0.53971085  1
  Ni  Ni169  1  0.46695445  0.95238442  0.62518354  1
  Ni  Ni170  1  0.39232474  0.13085513  0.18239482  1
  Ni  Ni171  1  0.88552915  0.99337939  0.04158784  1
  Ni  Ni172  1  0.22097976  0.35602365  0.65676721  1
  Ni  Ni173  1  0.58094591  0.41394380  0.93379992  1
  Ni  Ni174  1  0.29567207  0.15523827  0.97838418  1
  Ni  Ni175  1  0.28767679  0.20967084  0.48981797  1
  Ni  Ni176  1  0.68598604  0.78759392  0.40235593  1
  Ni  Ni177  1  0.78748486  0.49015657  0.22093649  1
  Ni  Ni178  1  0.88125096  0.63741552  0.21591539  1
  Ni  Ni179  1  0.89263482  0.41006421  0.96962102  1
  Ni  Ni180  1  0.08945691  0.80032800  0.11004797  1
  Ni  Ni181  1  0.66006631  0.73293981  0.55767736  1
  Ni  Ni182  1  0.10106738  0.18310137  0.21048299  1
  Ni  Ni183  1  0.31780123  0.05367290  0.42426676  1
  Ni  Ni184  1  0.17859423  0.03742782  0.02812104  1
  Ni  Ni185  1  0.78673523  0.62733075  0.60536086  1
  Ni  Ni186  1  0.33714097  0.80283590  0.63193432  1
  Ni  Ni187  1  0.34249474  0.38644266  0.77572414  1
  Ni  Ni188  1  0.42089243  0.05379380  0.90530008  1
  Ni  Ni189  1  0.66418138  1.01432783  0.13820908  1
  Ni  Ni190  1  0.40034470  0.34947085  0.10681176  1
  Ni  Ni191  1  0.13443917  0.06462715  0.78150690  1
  Ni  Ni192  1  0.92619863  0.38386123  0.66509785  1
  Ni  Ni193  1  0.09529236  0.63381260  0.54402924  1
  Ni  Ni194  1  0.50260736  0.73860625  0.79647852  1
  Ni  Ni195  1  0.96222853  0.26108784  -0.00449314  1
  Ni  Ni196  1  0.94067182  0.68062098  0.60113109  1
  Ni  Ni197  1  0.21877291  0.04130474  0.56357147  1
  Ni  Ni198  1  0.96823305  0.72944425  0.87225603  1
  Ni  Ni199  1  0.22249152  0.43177798  0.88103996  1
  Ni  Ni200  1  0.68984483  0.42629727  0.07228198  1
  Ni  Ni201  1  0.81255673  0.89045051  0.44742660  1
  Ni  Ni202  1  0.60250186  0.49079681  0.74021364  1
  Ni  Ni203  1  -0.02738937  0.39020453  0.42040340  1
  Ni  Ni204  1  0.23367128  0.50985281  0.73278911  1
  Ni  Ni205  1  0.39341580  0.67341955  0.18497002  1
  Ni  Ni206  1  0.32952306  0.61264612  0.33788019  1
  Ni  Ni207  1  0.10023497  0.34063024  0.94322393  1
  Ni  Ni208  1  0.23322676  0.09093701  0.16974668  1
  Ni  Ni209  1  0.93065413  -0.01779507  0.52436012  1
  Ni  Ni210  1  0.91342393  0.11635709  0.94329421  1
  Ni  Ni211  1  0.12358993  0.16829317  0.51829033  1
  Ni  Ni212  1  0.41305345  0.73631007  0.41290616  1
  Ni  Ni213  1  0.50130646  0.59667079  0.64720265  1
  Ni  Ni214  1  0.31273026  0.37481184  0.51515717  1
  Ni  Ni215  1  0.24713681  0.59125470  0.18803088  1
