# generated using pymatgen
data_Ti2CoNi
_symmetry_space_group_name_H-M   'P 1'
_cell_length_a   14.55796948
_cell_length_b   14.53688389
_cell_length_c   14.52297658
_cell_angle_alpha   89.71997481
_cell_angle_beta   89.81833281
_cell_angle_gamma   89.37287294
_symmetry_Int_Tables_number   1
_chemical_formula_structural   Ti2CoNi
_chemical_formula_sum   'Ti108 Co54 Ni54'
_cell_volume   3073.22566032
_cell_formula_units_Z   54
loop_
 _symmetry_equiv_pos_site_id
 _symmetry_equiv_pos_as_xyz
  1  'x, y, z'
loop_
 _atom_site_type_symbol
 _atom_site_label
 _atom_site_symmetry_multiplicity
 _atom_site_fract_x
 _atom_site_fract_y
 _atom_site_fract_z
 _atom_site_occupancy
  Ti  Ti0  1  0.05153359  -0.02246230  -0.06344855  1
  Ti  Ti1  1  0.01163164  0.01512617  0.40539701  1
  Ti  Ti2  1  0.04754660  -0.01662975  0.62113929  1
  Ti  Ti3  1  0.00403554  0.34145028  0.07397375  1
  Ti  Ti4  1  0.01332109  0.37787063  0.32765229  1
  Ti  Ti5  1  -0.10103940  0.31673479  0.66530725  1
  Ti  Ti6  1  -0.01320302  0.61451375  -0.08729060  1
  Ti  Ti7  1  0.05638187  0.65393409  0.35332706  1
  Ti  Ti8  1  -0.07893435  0.69843158  0.68938501  1
  Ti  Ti9  1  0.30997680  -0.04655982  0.06287823  1
  Ti  Ti10  1  0.36849300  0.02352377  0.29255798  1
  Ti  Ti11  1  0.35210673  -0.05155157  0.66147491  1
  Ti  Ti12  1  0.37054713  0.33018952  0.01960370  1
  Ti  Ti13  1  0.27958818  0.32726569  0.33513874  1
  Ti  Ti14  1  0.37185400  0.44946163  0.62892674  1
  Ti  Ti15  1  0.31538244  0.76798992  -0.04017473  1
  Ti  Ti16  1  0.28981201  0.67468808  0.38571464  1
  Ti  Ti17  1  0.47686458  0.62200475  0.65837541  1
  Ti  Ti18  1  0.74052667  -0.03050743  0.04657266  1
  Ti  Ti19  1  0.67982499  0.06058718  0.34211898  1
  Ti  Ti20  1  0.66179767  0.05405068  0.68404630  1
  Ti  Ti21  1  0.65859090  0.32221773  0.06069970  1
  Ti  Ti22  1  0.72382322  0.31679699  0.36733125  1
  Ti  Ti23  1  0.68725365  0.29254522  0.58274317  1
  Ti  Ti24  1  0.69209461  0.64007282  0.01567322  1
  Ti  Ti25  1  0.59836270  0.70346455  0.32181790  1
  Ti  Ti26  1  0.65382990  0.64299147  0.70438510  1
  Ti  Ti27  1  0.02928756  0.12724507  0.11244816  1
  Ti  Ti28  1  -0.02710192  0.21513766  0.46659183  1
  Ti  Ti29  1  -0.02950346  0.17598793  0.86436154  1
  Ti  Ti30  1  -0.02986260  0.51843991  0.18811531  1
  Ti  Ti31  1  0.03068406  0.47313766  0.49689232  1
  Ti  Ti32  1  -0.02109613  0.50949210  0.76492219  1
  Ti  Ti33  1  0.01756208  0.79766343  0.15420525  1
  Ti  Ti34  1  0.04697530  0.72954666  0.54149538  1
  Ti  Ti35  1  0.09103372  0.85071212  0.77910310  1
  Ti  Ti36  1  0.36190164  0.23366964  0.18324149  1
  Ti  Ti37  1  0.26943416  0.14123162  0.60549015  1
  Ti  Ti38  1  0.35149330  0.21223279  0.85339060  1
  Ti  Ti39  1  0.36092473  0.51212180  0.09482783  1
  Ti  Ti40  1  0.27999080  0.49197504  0.45393617  1
  Ti  Ti41  1  0.38250135  0.38961574  0.81341623  1
  Ti  Ti42  1  0.32408879  0.81020822  0.20887272  1
  Ti  Ti43  1  0.31216309  0.85876020  0.49357431  1
  Ti  Ti44  1  0.36110901  0.90762392  0.84534589  1
  Ti  Ti45  1  0.66258534  0.13053091  0.15092908  1
  Ti  Ti46  1  0.58900995  0.12758332  0.52464855  1
  Ti  Ti47  1  0.67375936  0.18192149  0.80622307  1
  Ti  Ti48  1  0.64416396  0.45238214  0.25698003  1
  Ti  Ti49  1  0.66526529  0.64645385  0.50108951  1
  Ti  Ti50  1  0.67580558  0.52101883  0.83587720  1
  Ti  Ti51  1  0.62295722  0.86986800  0.23775393  1
  Ti  Ti52  1  0.65368620  0.83018854  0.45106743  1
  Ti  Ti53  1  0.65857195  0.86547553  0.78288876  1
  Ti  Ti54  1  0.17904731  0.00301143  0.23841600  1
  Ti  Ti55  1  0.22859852  0.04147996  0.42798910  1
  Ti  Ti56  1  0.20085576  0.08071565  0.85565081  1
  Ti  Ti57  1  0.16990922  0.25970976  0.17387581  1
  Ti  Ti58  1  0.26265996  0.31712950  0.56095948  1
  Ti  Ti59  1  0.06753219  0.33997301  0.84010399  1
  Ti  Ti60  1  0.20890371  0.68034298  0.11571755  1
  Ti  Ti61  1  0.21951906  0.63077831  0.60857357  1
  Ti  Ti62  1  0.21339563  0.64323018  0.82486917  1
  Ti  Ti63  1  0.46059084  0.08180058  0.13367642  1
  Ti  Ti64  1  0.42057031  0.03226924  0.48972941  1
  Ti  Ti65  1  0.52145536  0.02263551  0.82470501  1
  Ti  Ti66  1  0.47806905  0.36980384  0.19455150  1
  Ti  Ti67  1  0.48136330  0.28008077  0.53196143  1
  Ti  Ti68  1  0.57610798  0.35552306  0.82701707  1
  Ti  Ti69  1  0.52080698  0.59122263  0.18064583  1
  Ti  Ti70  1  0.47551931  0.72706016  0.48558579  1
  Ti  Ti71  1  0.51781459  0.67494307  0.84643735  1
  Ti  Ti72  1  0.86438656  -0.00867713  0.23458018  1
  Ti  Ti73  1  0.80618017  -0.05880824  0.47863321  1
  Ti  Ti74  1  0.86998798  -0.07236835  0.90071164  1
  Ti  Ti75  1  0.79913176  0.33389008  0.18422116  1
  Ti  Ti76  1  0.85123571  0.41788358  0.46356858  1
  Ti  Ti77  1  0.83890850  0.40670558  0.86256270  1
  Ti  Ti78  1  0.80921600  0.78236684  0.18028607  1
  Ti  Ti79  1  0.87381486  0.66485424  0.45445467  1
  Ti  Ti80  1  0.79277251  0.72183056  0.84426710  1
  Ti  Ti81  1  0.23195321  0.15031814  0.01973098  1
  Ti  Ti82  1  0.09570412  0.17867407  0.32966296  1
  Ti  Ti83  1  0.07897485  0.19447975  0.67070189  1
  Ti  Ti84  1  0.17366931  0.44454026  0.04822137  1
  Ti  Ti85  1  0.20048494  0.53458524  0.26318599  1
  Ti  Ti86  1  0.18334811  0.47359886  0.73062607  1
  Ti  Ti87  1  0.12201402  0.78012021  -0.04916863  1
  Ti  Ti88  1  0.09529656  0.84783362  0.33542704  1
  Ti  Ti89  1  0.19422140  0.82191384  0.62584561  1
  Ti  Ti90  1  0.58984529  0.12126651  -0.02415918  1
  Ti  Ti91  1  0.50542762  0.14695045  0.33040161  1
  Ti  Ti92  1  0.45530544  0.12213698  0.66620774  1
  Ti  Ti93  1  0.50366942  0.51338762  -0.04877683  1
  Ti  Ti94  1  0.40854667  0.49400966  0.31252075  1
  Ti  Ti95  1  0.49744079  0.52467533  0.49102758  1
  Ti  Ti96  1  0.49403442  0.82167725  0.04682338  1
  Ti  Ti97  1  0.44816393  0.85994990  0.35131986  1
  Ti  Ti98  1  0.48432611  0.81845024  0.71536594  1
  Ti  Ti99  1  0.78146509  0.16938744  -0.02896209  1
  Ti  Ti100  1  0.83556653  0.10976479  0.40125796  1
  Ti  Ti101  1  0.84702202  0.14991940  0.66910522  1
  Ti  Ti102  1  0.84298733  0.46839112  0.04911688  1
  Ti  Ti103  1  0.77377919  0.57110134  0.31482753  1
  Ti  Ti104  1  0.75203283  0.47486168  0.63668646  1
  Ti  Ti105  1  0.89390657  0.76768541  0.00371577  1
  Ti  Ti106  1  0.91384117  0.83111376  0.34126949  1
  Ti  Ti107  1  0.82857937  0.95641485  0.67812173  1
  Co  Co108  1  0.72785460  0.51644070  0.14045086  1
  Co  Co109  1  0.59465549  0.95739773  0.09424756  1
  Co  Co110  1  0.81920100  0.57707832  0.75237583  1
  Co  Co111  1  0.94974171  0.12640524  0.28793123  1
  Co  Co112  1  0.76069074  0.76455698  0.68938418  1
  Co  Co113  1  0.90691589  0.67061144  0.27400575  1
  Co  Co114  1  0.37383923  0.71580588  0.78920759  1
  Co  Co115  1  0.82404355  0.58322283  0.93050233  1
  Co  Co116  1  0.28159469  0.09341666  0.15374753  1
  Co  Co117  1  0.40037882  0.38996431  0.46207537  1
  Co  Co118  1  0.13905936  0.90924281  0.47940690  1
  Co  Co119  1  0.28475025  0.40288967  0.18904518  1
  Co  Co120  1  0.05739744  0.64727788  0.19021704  1
  Co  Co121  1  0.37354399  0.61880288  0.92068044  1
  Co  Co122  1  0.96733273  0.76548116  0.85117787  1
  Co  Co123  1  0.20254241  0.96325272  0.74629159  1
  Co  Co124  1  0.54136030  0.97667677  0.38200439  1
  Co  Co125  1  0.70986220  0.49885151  0.45612923  1
  Co  Co126  1  0.56372367  0.02221998  0.23432092  1
  Co  Co127  1  0.85195089  0.43468018  0.28017591  1
  Co  Co128  1  0.43077809  0.28304860  0.34021015  1
  Co  Co129  1  0.35979130  0.75974539  0.62796557  1
  Co  Co130  1  0.74993762  0.08287258  0.54902032  1
  Co  Co131  1  0.06686931  0.65217669  0.03400151  1
  Co  Co132  1  0.71039089  0.31108005  0.90687942  1
  Co  Co133  1  0.17574781  0.75532842  0.45284096  1
  Co  Co134  1  0.69264212  0.46200879  0.97701723  1
  Co  Co135  1  0.36596199  0.05123823  0.90864906  1
  Co  Co136  1  0.83258527  0.24703272  0.81750787  1
  Co  Co137  1  0.06513288  0.37055428  0.67791144  1
  Co  Co138  1  0.21557959  -0.00240893  0.58706287  1
  Co  Co139  1  0.39381472  0.15718649  0.01670212  1
  Co  Co140  1  0.11428895  0.41085176  0.20353403  1
  Co  Co141  1  0.53962807  0.38804777  0.36001690  1
  Co  Co142  1  0.14966940  0.58131038  0.46486281  1
  Co  Co143  1  0.70383716  0.88946477  0.61122540  1
  Co  Co144  1  0.60025608  0.40020559  0.50033445  1
  Co  Co145  1  0.33080952  0.08189299  0.75429620  1
  Co  Co146  1  0.44152862  0.66177781  0.34037562  1
  Co  Co147  1  0.24869571  0.80617216  0.77927822  1
  Co  Co148  1  0.89683919  0.63662400  0.09140215  1
  Co  Co149  1  0.87868272  0.27734081  0.34497548  1
  Co  Co150  1  0.52923515  0.97097787  0.66425534  1
  Co  Co151  1  0.05674930  0.57822451  0.62038862  1
  Co  Co152  1  0.60463441  0.23883545  0.41511526  1
  Co  Co153  1  0.17242925  0.44733382  0.57281694  1
  Co  Co154  1  0.58012837  0.55568899  0.36444898  1
  Co  Co155  1  0.14225247  0.01120197  0.07677118  1
  Co  Co156  1  0.18565017  0.73218544  0.26766985  1
  Co  Co157  1  0.79208868  0.62898051  0.59375685  1
  Co  Co158  1  0.91918883  0.05772147  0.54964182  1
  Co  Co159  1  0.94552215  0.53429516  0.36896329  1
  Co  Co160  1  0.20955574  0.92091539  0.92849362  1
  Co  Co161  1  0.49192218  0.75330740  0.20332071  1
  Ni  Ni162  1  0.02285617  0.98425813  0.22549882  1
  Ni  Ni163  1  0.76114686  0.74163699  0.33935790  1
  Ni  Ni164  1  0.95991575  0.93552171  0.76785962  1
  Ni  Ni165  1  0.83373562  0.07356925  0.82131034  1
  Ni  Ni166  1  0.20258071  0.21514017  0.45091313  1
  Ni  Ni167  1  0.36235835  0.61619903  0.53700703  1
  Ni  Ni168  1  0.92506924  0.07725177  0.99025531  1
  Ni  Ni169  1  0.53544722  0.40332080  0.65679640  1
  Ni  Ni170  1  0.25867827  0.88692350  0.34489811  1
  Ni  Ni171  1  0.47869149  0.88026786  0.54127229  1
  Ni  Ni172  1  0.05859359  0.06054344  0.77463479  1
  Ni  Ni173  1  0.66668694  0.79945523  0.08853232  1
  Ni  Ni174  1  0.39155833  0.27930277  0.68311511  1
  Ni  Ni175  1  0.69718614  0.00412955  0.87082125  1
  Ni  Ni176  1  0.36209015  0.18007328  0.44827980  1
  Ni  Ni177  1  0.09702112  0.11131466  0.51960493  1
  Ni  Ni178  1  0.48295883  0.98648239  0.98844100  1
  Ni  Ni179  1  0.92361501  0.46949053  0.62227731  1
  Ni  Ni180  1  0.08995985  0.69374667  0.72431649  1
  Ni  Ni181  1  0.49854012  0.50774799  0.77941466  1
  Ni  Ni182  1  0.22238545  0.59916451  -0.01684465  1
  Ni  Ni183  1  0.12564244  0.50050453  0.89306793  1
  Ni  Ni184  1  0.40167371  0.67479488  0.07417246  1
  Ni  Ni185  1  0.49886954  0.25328337  0.92705323  1
  Ni  Ni186  1  0.68245109  0.66520264  0.18672531  1
  Ni  Ni187  1  0.73840446  0.84079209  0.94530030  1
  Ni  Ni188  1  0.33754189  0.63738534  0.22100579  1
  Ni  Ni189  1  0.56312371  0.24160421  0.69182868  1
  Ni  Ni190  1  0.08086277  0.29964755  0.53428857  1
  Ni  Ni191  1  0.31191707  0.47044821  -0.06584226  1
  Ni  Ni192  1  0.88298414  0.23081667  0.08842784  1
  Ni  Ni193  1  0.52086162  0.23625837  0.09265959  1
  Ni  Ni194  1  -0.00978668  0.26337584  0.21602823  1
  Ni  Ni195  1  0.60456143  0.76943020  0.93254264  1
  Ni  Ni196  1  0.62014741  -0.02258670  0.51820984  1
  Ni  Ni197  1  0.59708482  0.76608636  0.60974218  1
  Ni  Ni198  1  0.97482989  0.87513020  0.49341544  1
  Ni  Ni199  1  0.79062998  0.17783538  0.24674154  1
  Ni  Ni200  1  0.84046473  0.79505382  0.55246115  1
  Ni  Ni201  1  0.17897152  0.84947711  0.10840136  1
  Ni  Ni202  1  0.33957355  0.55812503  0.75151267  1
  Ni  Ni203  1  0.11521324  0.25902418  0.99493202  1
  Ni  Ni204  1  0.56633592  0.46045956  0.08858101  1
  Ni  Ni205  1  0.22741688  0.33378364  0.90041338  1
  Ni  Ni206  1  0.23320399  0.30207007  0.73397481  1
  Ni  Ni207  1  0.83036452  0.08540355  0.11461006  1
  Ni  Ni208  1  0.26294700  0.16035647  0.30189452  1
  Ni  Ni209  1  0.15142089  0.38107494  0.41198868  1
  Ni  Ni210  1  0.75966446  0.90498501  0.31947559  1
  Ni  Ni211  1  0.44831712  0.91761607  0.18042065  1
  Ni  Ni212  1  0.98171967  0.44568123  0.94997448  1
  Ni  Ni213  1  0.72392437  0.33937657  0.73761021  1
  Ni  Ni214  1  0.82040370  0.24433654  0.50973507  1
  Ni  Ni215  1  0.92456879  0.92511288  0.07892703  1
