# generated using pymatgen
data_Ti2CoNi
_symmetry_space_group_name_H-M   'P 1'
_cell_length_a   14.53980053
_cell_length_b   14.53778299
_cell_length_c   14.44606742
_cell_angle_alpha   90.01309149
_cell_angle_beta   89.94116437
_cell_angle_gamma   89.99681451
_symmetry_Int_Tables_number   1
_chemical_formula_structural   Ti2CoNi
_chemical_formula_sum   'Ti108 Co54 Ni54'
_cell_volume   3053.55696741
_cell_formula_units_Z   54
loop_
 _symmetry_equiv_pos_site_id
 _symmetry_equiv_pos_as_xyz
  1  'x, y, z'
loop_
 _atom_site_type_symbol
 _atom_site_label
 _atom_site_symmetry_multiplicity
 _atom_site_fract_x
 _atom_site_fract_y
 _atom_site_fract_z
 _atom_site_occupancy
  Ti  Ti0  1  0.00206924  0.05456009  -0.02447469  1
  Ti  Ti1  1  -0.04353884  -0.01158056  0.34061011  1
  Ti  Ti2  1  -0.00533686  0.09822485  0.66776774  1
  Ti  Ti3  1  0.02573310  0.29109604  0.03391316  1
  Ti  Ti4  1  -0.00975147  0.34764421  0.25927013  1
  Ti  Ti5  1  -0.05138944  0.30772705  0.63183993  1
  Ti  Ti6  1  -0.02350097  0.68615769  -0.08640295  1
  Ti  Ti7  1  0.09201458  0.66087586  0.31492465  1
  Ti  Ti8  1  0.00320232  0.64304788  0.65996390  1
  Ti  Ti9  1  0.38235678  -0.01617550  -0.09360295  1
  Ti  Ti10  1  0.29829724  -0.00845481  0.30598953  1
  Ti  Ti11  1  0.29021128  -0.02924712  0.59479322  1
  Ti  Ti12  1  0.32215276  0.26623152  0.04526124  1
  Ti  Ti13  1  0.32065294  0.33308075  0.31703483  1
  Ti  Ti14  1  0.28825687  0.29042843  0.62753615  1
  Ti  Ti15  1  0.31996213  0.61065494  0.02763857  1
  Ti  Ti16  1  0.36463577  0.59731181  0.39193962  1
  Ti  Ti17  1  0.21634899  0.72659510  0.64595045  1
  Ti  Ti18  1  0.69483681  0.00553601  0.02255112  1
  Ti  Ti19  1  0.67386881  0.02885500  0.26152552  1
  Ti  Ti20  1  0.69453928  0.03317692  0.59343210  1
  Ti  Ti21  1  0.60806494  0.37857707  0.01741600  1
  Ti  Ti22  1  0.62937703  0.30464755  0.30681837  1
  Ti  Ti23  1  0.70536241  0.35474521  0.60497501  1
  Ti  Ti24  1  0.62822978  0.73317099  0.06178897  1
  Ti  Ti25  1  0.59344649  0.65816611  0.38784685  1
  Ti  Ti26  1  0.67586454  0.65324711  0.69339578  1
  Ti  Ti27  1  -0.03508488  0.13716671  0.16670801  1
  Ti  Ti28  1  0.08266020  0.18075238  0.48722476  1
  Ti  Ti29  1  0.02371112  0.22660061  0.80638634  1
  Ti  Ti30  1  -0.08757035  0.52294938  0.22650413  1
  Ti  Ti31  1  -0.01268386  0.50039973  0.41406016  1
  Ti  Ti32  1  -0.00565705  0.41123039  0.81092855  1
  Ti  Ti33  1  0.01917596  0.85486942  0.18205994  1
  Ti  Ti34  1  0.01392567  0.87104860  0.53530492  1
  Ti  Ti35  1  0.02121648  0.88708671  0.85811688  1
  Ti  Ti36  1  0.39508291  0.15318801  0.18803342  1
  Ti  Ti37  1  0.37687395  0.18582626  0.44350128  1
  Ti  Ti38  1  0.32610862  0.16617487  0.86960310  1
  Ti  Ti39  1  0.36468083  0.48202269  0.19819569  1
  Ti  Ti40  1  0.28186266  0.45657281  0.47749222  1
  Ti  Ti41  1  0.36320846  0.45994853  0.81363441  1
  Ti  Ti42  1  0.38632592  0.79556212  0.17735134  1
  Ti  Ti43  1  0.37516217  0.78100970  0.47716827  1
  Ti  Ti44  1  0.31752939  0.77258748  0.80069303  1
  Ti  Ti45  1  0.64748389  0.18860556  0.08324018  1
  Ti  Ti46  1  0.72641792  0.17935851  0.42383362  1
  Ti  Ti47  1  0.68431899  0.28884050  0.84531471  1
  Ti  Ti48  1  0.68916318  0.56546218  0.17820004  1
  Ti  Ti49  1  0.62737319  0.53741576  0.53974703  1
  Ti  Ti50  1  0.71949794  0.46873376  0.90269404  1
  Ti  Ti51  1  0.71121707  0.81659034  0.21439755  1
  Ti  Ti52  1  0.59207757  0.87349614  0.51738162  1
  Ti  Ti53  1  0.64255584  0.85510380  0.71287759  1
  Ti  Ti54  1  0.20774271  -0.08194653  0.14980169  1
  Ti  Ti55  1  0.13394756  -0.00170315  0.45796704  1
  Ti  Ti56  1  0.18734230  -0.00631924  0.90685965  1
  Ti  Ti57  1  0.18638920  0.38907339  0.11176683  1
  Ti  Ti58  1  0.10813162  0.37607185  0.53210258  1
  Ti  Ti59  1  0.19832676  0.39336463  0.78561550  1
  Ti  Ti60  1  0.19536579  0.73126772  0.16635665  1
  Ti  Ti61  1  0.13424159  0.70036260  0.48702310  1
  Ti  Ti62  1  0.22941420  0.59762058  0.84005710  1
  Ti  Ti63  1  0.48435177  -0.02861828  0.20134724  1
  Ti  Ti64  1  0.48266835  0.08047438  0.56659380  1
  Ti  Ti65  1  0.58026057  -0.00270551  0.85691185  1
  Ti  Ti66  1  0.50280251  0.34912402  0.17563165  1
  Ti  Ti67  1  0.55686398  0.32186721  0.50932246  1
  Ti  Ti68  1  0.47207949  0.28945285  0.90478287  1
  Ti  Ti69  1  0.52126418  0.52273647  0.11781934  1
  Ti  Ti70  1  0.45410606  0.64886261  0.56320657  1
  Ti  Ti71  1  0.55360371  0.71592873  0.88308632  1
  Ti  Ti72  1  0.86883317  -0.02017264  0.11352961  1
  Ti  Ti73  1  0.87942428  0.02351694  0.53690373  1
  Ti  Ti74  1  0.86148855  -0.04382107  0.73896089  1
  Ti  Ti75  1  0.84466028  0.29000692  0.15981703  1
  Ti  Ti76  1  0.84564013  0.34877695  0.47028200  1
  Ti  Ti77  1  0.86123217  0.34624924  0.90810250  1
  Ti  Ti78  1  0.83714119  0.67505826  0.14199423  1
  Ti  Ti79  1  0.75760452  0.70415537  0.50244294  1
  Ti  Ti80  1  0.78408749  0.63516750  0.83693804  1
  Ti  Ti81  1  0.15762641  0.12799742  0.05987583  1
  Ti  Ti82  1  0.20652946  0.17006796  0.34115182  1
  Ti  Ti83  1  0.18681453  0.09195217  0.73531236  1
  Ti  Ti84  1  0.12536926  0.52316824  -0.01792078  1
  Ti  Ti85  1  0.10495442  0.49592068  0.23570267  1
  Ti  Ti86  1  0.20792288  0.53156964  0.65644953  1
  Ti  Ti87  1  0.18697359  0.75931549  -0.06184968  1
  Ti  Ti88  1  0.15281601  0.85068432  0.33652958  1
  Ti  Ti89  1  0.15897901  0.87157020  0.74155333  1
  Ti  Ti90  1  0.50178970  0.06623763  0.03159177  1
  Ti  Ti91  1  0.48766123  0.04264016  0.36900019  1
  Ti  Ti92  1  0.53133335  0.15631230  0.76260413  1
  Ti  Ti93  1  0.48936225  0.52046806  -0.07074275  1
  Ti  Ti94  1  0.47688616  0.44104233  0.37544383  1
  Ti  Ti95  1  0.50877110  0.55302150  0.71517363  1
  Ti  Ti96  1  0.48074931  0.87396371  0.02149834  1
  Ti  Ti97  1  0.55624691  0.85309022  0.33511337  1
  Ti  Ti98  1  0.43892245  0.84748040  0.65372075  1
  Ti  Ti99  1  0.80413176  0.11627411  -0.11168926  1
  Ti  Ti100  1  0.89384805  0.18679448  0.35156634  1
  Ti  Ti101  1  0.83137010  0.16059675  0.71313944  1
  Ti  Ti102  1  0.82651162  0.46687315  0.06463065  1
  Ti  Ti103  1  0.78796531  0.51991024  0.37792522  1
  Ti  Ti104  1  0.82786945  0.47933936  0.70071921  1
  Ti  Ti105  1  0.78285114  0.81780025  -0.01225542  1
  Ti  Ti106  1  0.86483162  0.77872838  0.31751188  1
  Ti  Ti107  1  0.85098085  0.76840638  0.68763946  1
  Co  Co108  1  0.45213472  0.72314702  0.32258419  1
  Co  Co109  1  0.04689734  0.00330245  0.12752170  1
  Co  Co110  1  0.35565374  -0.02302681  0.11777596  1
  Co  Co111  1  0.49195724  0.71497856  0.72711568  1
  Co  Co112  1  0.13265360  0.15889185  0.89303959  1
  Co  Co113  1  0.54315504  0.40130950  0.82631426  1
  Co  Co114  1  0.73697062  0.66288462  0.30885798  1
  Co  Co115  1  0.39872938  0.31089615  0.75125880  1
  Co  Co116  1  0.73572886  0.94565209  0.84056200  1
  Co  Co117  1  0.52631398  0.41314398  0.64448065  1
  Co  Co118  1  0.24100678  0.09051507  0.18646667  1
  Co  Co119  1  0.86522697  -0.03172715  0.92447292  1
  Co  Co120  1  0.10480398  0.24438799  0.17025333  1
  Co  Co121  1  0.10341578  0.22832445  0.65418799  1
  Co  Co122  1  0.81450620  0.92812764  0.27631139  1
  Co  Co123  1  0.06838149  0.75401390  0.05118641  1
  Co  Co124  1  0.60959104  0.90432519  0.12373503  1
  Co  Co125  1  0.01488897  0.03999252  0.81504072  1
  Co  Co126  1  0.28560233  0.61894289  0.54054191  1
  Co  Co127  1  0.53502625  0.97998330  0.68809544  1
  Co  Co128  1  0.11148833  0.91069654  1.01517114  1
  Co  Co129  1  0.07404308  0.55178809  0.55555223  1
  Co  Co130  1  0.23188898  0.24549045  0.77515079  1
  Co  Co131  1  0.86945017  0.82272520  0.14450873  1
  Co  Co132  1  0.35516835  0.45381737  0.64555929  1
  Co  Co133  1  0.45299325  0.49691600  0.52442443  1
  Co  Co134  1  0.00084042  0.43705651  0.11595953  1
  Co  Co135  1  0.23558945  0.56467440  0.16064641  1
  Co  Co136  1  0.59307273  0.29365706  0.71411382  1
  Co  Co137  1  0.99009684  0.69328660  0.19994896  1
  Co  Co138  1  0.58819998  0.70410724  0.22161017  1
  Co  Co139  1  0.72621197  0.20037937  0.22839731  1
  Co  Co140  1  0.09797124  0.61152001  0.10386716  1
  Co  Co141  1  0.92182133  0.57573520  0.78594170  1
  Co  Co142  1  0.61593926  0.18083969  0.60060498  1
  Co  Co143  1  0.87979181  0.81160002  0.85781247  1
  Co  Co144  1  0.32928420  0.09910307  1.02451198  1
  Co  Co145  1  0.68600481  0.08892365  0.75830347  1
  Co  Co146  1  0.80006703  0.02727650  0.40413864  1
  Co  Co147  1  0.40360275  0.87506676  0.32824647  1
  Co  Co148  1  0.93058114  0.18340759  0.52161853  1
  Co  Co149  1  0.94746390  0.60190206  0.04635832  1
  Co  Co150  1  0.72922092  0.78283555  0.82470164  1
  Co  Co151  1  0.30359102  0.05391633  0.45209956  1
  Co  Co152  1  0.62012053  0.57152384  0.83601540  1
  Co  Co153  1  0.82550010  0.08377611  0.24326650  1
  Co  Co154  1  0.45193877  0.23991717  0.61515513  1
  Co  Co155  1  0.00854935  0.80627448  0.38680021  1
  Co  Co156  1  0.35073078  0.62212003  0.70000074  1
  Co  Co157  1  0.28524896  0.89648144  0.43906423  1
  Co  Co158  1  0.97644238  0.46876323  0.95963017  1
  Co  Co159  1  0.43596947  0.94505649  0.49565424  1
  Co  Co160  1  0.39273008  0.62910824  0.85702834  1
  Co  Co161  1  0.48275095  0.22855996  0.05633402  1
  Ni  Ni162  1  0.62198552  0.85973075  0.93166996  1
  Ni  Ni163  1  0.79736098  0.34074646  0.31529105  1
  Ni  Ni164  1  0.69024012  0.36590384  0.16291222  1
  Ni  Ni165  1  0.56278703  0.17601012  0.43511654  1
  Ni  Ni166  1  0.92747399  0.71612765  0.51153086  1
  Ni  Ni167  1  0.28385518  0.74697458  0.32776038  1
  Ni  Ni168  1  0.99846703  0.31025245  0.42286972  1
  Ni  Ni169  1  0.76607828  0.28201735  1.01915988  1
  Ni  Ni170  1  0.47436243  0.68261833  0.10223220  1
  Ni  Ni171  1  0.41292395  0.40993569  0.02803853  1
  Ni  Ni172  1  0.07622670  0.55328070  0.81160988  1
  Ni  Ni173  1  0.11786996  0.34157874  0.91694852  1
  Ni  Ni174  1  0.29211608  0.94900181  0.77444874  1
  Ni  Ni175  1  0.47455239  0.86212711  0.82094087  1
  Ni  Ni176  1  0.11001023  0.99104973  0.62823594  1
  Ni  Ni177  1  0.62771851  0.57091741  0.00593038  1
  Ni  Ni178  1  0.86612846  0.87141404  0.45182825  1
  Ni  Ni179  1  0.55782773  0.15089572  0.21833403  1
  Ni  Ni180  1  1.00505040  0.83620615  0.69249469  1
  Ni  Ni181  1  0.11767475  1.00446079  0.27476890  1
  Ni  Ni182  1  0.28923104  0.86794624  0.01444165  1
  Ni  Ni183  1  0.67654099  0.41263976  0.43100731  1
  Ni  Ni184  1  0.95233564  0.85772144  0.00769746  1
  Ni  Ni185  1  0.49003416  0.57822960  0.26924948  1
  Ni  Ni186  1  0.61473106  0.15623177  0.91769603  1
  Ni  Ni187  1  0.07033571  0.44221929  0.67717169  1
  Ni  Ni188  1  0.14432751  0.35142439  0.35129150  1
  Ni  Ni189  1  0.82690926  0.32292291  0.74881838  1
  Ni  Ni190  1  0.76813920  0.63645475  1.00550342  1
  Ni  Ni191  1  0.91925471  0.20093930  -0.03720397  1
  Ni  Ni192  1  0.38937577  0.75333340  0.95718261  1
  Ni  Ni193  1  0.70830301  0.82869487  0.39970088  1
  Ni  Ni194  1  0.04785599  0.15233339  0.30881703  1
  Ni  Ni195  1  0.59097669  0.73147136  0.58589742  1
  Ni  Ni196  1  0.25652777  0.25613090  0.19523307  1
  Ni  Ni197  1  0.22344508  0.13757014  0.56139939  1
  Ni  Ni198  1  0.78108008  0.20854885  0.57295623  1
  Ni  Ni199  1  0.83191116  0.61598044  0.61849579  1
  Ni  Ni200  1  0.66688562  0.45639836  0.73350887  1
  Ni  Ni201  1  0.39722213  0.34039078  0.49547905  1
  Ni  Ni202  1  0.80889386  0.12691760  0.06913853  1
  Ni  Ni203  1  0.14666373  0.53359314  0.42195696  1
  Ni  Ni204  1  0.63927825  1.00697244  0.42920681  1
  Ni  Ni205  1  0.61535789  0.47581288  0.28709598  1
  Ni  Ni206  1  0.24858269  0.48645334  0.31133898  1
  Ni  Ni207  1  0.93810096  0.46485149  0.56996469  1
  Ni  Ni208  1  0.91104708  0.63825299  0.36232788  1
  Ni  Ni209  1  0.09821290  0.71739078  0.77943509  1
  Ni  Ni210  1  0.39073744  0.06724237  0.74048549  1
  Ni  Ni211  1  0.23862363  0.29191932  0.47070489  1
  Ni  Ni212  1  0.75417905  0.85440937  0.57390229  1
  Ni  Ni213  1  0.26572162  0.42961012  0.96670950  1
  Ni  Ni214  1  0.17894129  0.85532935  0.55237037  1
  Ni  Ni215  1  0.47083648  0.25406543  0.31592443  1
