# generated using pymatgen
data_Ti2CoNi
_symmetry_space_group_name_H-M   'P 1'
_cell_length_a   14.70418017
_cell_length_b   14.64226243
_cell_length_c   14.61436063
_cell_angle_alpha   89.97955490
_cell_angle_beta   89.83429149
_cell_angle_gamma   90.15742933
_symmetry_Int_Tables_number   1
_chemical_formula_structural   Ti2CoNi
_chemical_formula_sum   'Ti108 Co54 Ni54'
_cell_volume   3146.48261805
_cell_formula_units_Z   54
loop_
 _symmetry_equiv_pos_site_id
 _symmetry_equiv_pos_as_xyz
  1  'x, y, z'
loop_
 _atom_site_type_symbol
 _atom_site_label
 _atom_site_symmetry_multiplicity
 _atom_site_fract_x
 _atom_site_fract_y
 _atom_site_fract_z
 _atom_site_occupancy
  Ti  Ti0  1  -0.00574227  0.01561749  -0.05921113  1
  Ti  Ti1  1  0.01308975  -0.05930748  0.29894097  1
  Ti  Ti2  1  -0.02975067  -0.02175986  0.70405104  1
  Ti  Ti3  1  0.00588950  0.29995530  0.01367240  1
  Ti  Ti4  1  0.00628126  0.25053737  0.32991352  1
  Ti  Ti5  1  -0.00717012  0.37288964  0.52322684  1
  Ti  Ti6  1  -0.03140581  0.67689617  0.07467383  1
  Ti  Ti7  1  0.02944574  0.71310419  0.28239888  1
  Ti  Ti8  1  -0.08152063  0.69861230  0.63673937  1
  Ti  Ti9  1  0.29897766  -0.01041725  -0.02418084  1
  Ti  Ti10  1  0.33738721  0.00253295  0.37627981  1
  Ti  Ti11  1  0.30616499  0.03027519  0.66587477  1
  Ti  Ti12  1  0.32557116  0.31778336  -0.10239580  1
  Ti  Ti13  1  0.37175232  0.43838086  0.29513839  1
  Ti  Ti14  1  0.37536608  0.38605974  0.72114428  1
  Ti  Ti15  1  0.40747316  0.67760758  -0.01464274  1
  Ti  Ti16  1  0.34983490  0.67601051  0.33485516  1
  Ti  Ti17  1  0.29362276  0.69562737  0.66790581  1
  Ti  Ti18  1  0.60358036  -0.02099645  -0.05297858  1
  Ti  Ti19  1  0.81576471  -0.02863885  0.34830352  1
  Ti  Ti20  1  0.66435417  0.00465931  0.61364654  1
  Ti  Ti21  1  0.72507730  0.30229543  0.05657062  1
  Ti  Ti22  1  0.59601020  0.35339006  0.32071017  1
  Ti  Ti23  1  0.62844386  0.32197749  0.67134416  1
  Ti  Ti24  1  0.68110137  0.69531204  -0.03170200  1
  Ti  Ti25  1  0.72172868  0.67951783  0.37956676  1
  Ti  Ti26  1  0.58592393  0.65967020  0.61577519  1
  Ti  Ti27  1  0.03498675  0.10371110  0.21869104  1
  Ti  Ti28  1  0.11311124  0.22141021  0.49320158  1
  Ti  Ti29  1  0.01054976  0.27337764  0.79319164  1
  Ti  Ti30  1  0.04357989  0.41887921  0.21803509  1
  Ti  Ti31  1  0.01293367  0.57543832  0.45966888  1
  Ti  Ti32  1  0.03474507  0.47263733  0.87271109  1
  Ti  Ti33  1  -0.07047842  0.84256551  0.17103164  1
  Ti  Ti34  1  0.06139019  0.85491229  0.55821858  1
  Ti  Ti35  1  0.03033851  0.82528674  0.90619602  1
  Ti  Ti36  1  0.34496565  0.12511967  0.14282734  1
  Ti  Ti37  1  0.33743363  0.21206795  0.59664165  1
  Ti  Ti38  1  0.25888774  0.12658148  0.83542082  1
  Ti  Ti39  1  0.31140145  0.56875753  0.14360023  1
  Ti  Ti40  1  0.34555166  0.46795712  0.55100999  1
  Ti  Ti41  1  0.36405269  0.54757915  0.83791288  1
  Ti  Ti42  1  0.31531007  0.86655855  0.24114034  1
  Ti  Ti43  1  0.37336483  0.84858478  0.52821576  1
  Ti  Ti44  1  0.34373935  0.86255041  0.78627780  1
  Ti  Ti45  1  0.75087267  0.14213866  0.17388244  1
  Ti  Ti46  1  0.69264388  0.18272313  0.53483925  1
  Ti  Ti47  1  0.70856343  0.11477541  0.84155224  1
  Ti  Ti48  1  0.61585228  0.53900485  0.08100279  1
  Ti  Ti49  1  0.65317934  0.49791028  0.46528324  1
  Ti  Ti50  1  0.65489398  0.45515385  0.82429479  1
  Ti  Ti51  1  0.64543051  0.77201053  0.15332041  1
  Ti  Ti52  1  0.57786276  0.80981574  0.48671695  1
  Ti  Ti53  1  0.65162574  0.83264114  0.82479451  1
  Ti  Ti54  1  0.13753412  -0.00706221  0.10797711  1
  Ti  Ti55  1  0.11867128  0.03616506  0.43791137  1
  Ti  Ti56  1  0.15859502  -0.03882645  0.79869375  1
  Ti  Ti57  1  0.25210405  0.30248421  0.19234136  1
  Ti  Ti58  1  0.20426223  0.39807952  0.42779743  1
  Ti  Ti59  1  0.18119858  0.39363161  0.76434598  1
  Ti  Ti60  1  0.16302660  0.71149751  0.11448551  1
  Ti  Ti61  1  0.21918052  0.62074776  0.49752402  1
  Ti  Ti62  1  0.15973127  0.60780251  0.81619090  1
  Ti  Ti63  1  0.57668994  0.07980089  0.12335159  1
  Ti  Ti64  1  0.54440447  0.01248800  0.45111962  1
  Ti  Ti65  1  0.43843666  0.03976636  0.82857797  1
  Ti  Ti66  1  0.45410404  0.31326754  0.18594713  1
  Ti  Ti67  1  0.44168255  0.30409045  0.44385760  1
  Ti  Ti68  1  0.50655161  0.29003617  0.82849952  1
  Ti  Ti69  1  0.46911893  0.70904607  0.20602844  1
  Ti  Ti70  1  0.42042176  0.65258629  0.51090315  1
  Ti  Ti71  1  0.49592744  0.71367678  0.80620688  1
  Ti  Ti72  1  0.74688504  -0.06055867  0.16124644  1
  Ti  Ti73  1  0.84553077  0.01895677  0.53623941  1
  Ti  Ti74  1  0.81098897  -0.04589884  0.87398124  1
  Ti  Ti75  1  0.85903278  0.38445329  0.18839631  1
  Ti  Ti76  1  0.79227228  0.35212300  0.53671687  1
  Ti  Ti77  1  0.81168870  0.28109327  0.82063479  1
  Ti  Ti78  1  0.77788811  0.61760940  0.16238672  1
  Ti  Ti79  1  0.78850325  0.57195748  0.56525264  1
  Ti  Ti80  1  0.82264912  0.64996779  0.81872476  1
  Ti  Ti81  1  0.19983928  0.21060436  0.03165374  1
  Ti  Ti82  1  0.20815269  0.16371882  0.31895816  1
  Ti  Ti83  1  0.13008782  0.14079711  0.66596301  1
  Ti  Ti84  1  0.12206378  0.52833593  0.03552859  1
  Ti  Ti85  1  0.16883078  0.56115668  0.32629360  1
  Ti  Ti86  1  0.12055899  0.50112542  0.61483138  1
  Ti  Ti87  1  0.23020187  0.78455900  -0.05232139  1
  Ti  Ti88  1  0.17698329  0.85441339  0.38218532  1
  Ti  Ti89  1  0.12155028  0.78090524  0.73374976  1
  Ti  Ti90  1  0.52865494  0.24796834  0.01512806  1
  Ti  Ti91  1  0.48247253  0.12842160  0.28965016  1
  Ti  Ti92  1  0.55307282  0.14142755  0.70126548  1
  Ti  Ti93  1  0.45005062  0.44700563  0.02262931  1
  Ti  Ti94  1  0.56717481  0.55805111  0.28963665  1
  Ti  Ti95  1  0.52152559  0.47286784  0.60493277  1
  Ti  Ti96  1  0.42797276  0.85743834  0.07064231  1
  Ti  Ti97  1  0.52769627  0.91087041  0.27312118  1
  Ti  Ti98  1  0.49393870  0.92882001  0.66809608  1
  Ti  Ti99  1  0.85424830  0.15206986  -0.00724346  1
  Ti  Ti100  1  0.80677381  0.18617032  0.37266974  1
  Ti  Ti101  1  0.89916648  0.16258388  0.66327082  1
  Ti  Ti102  1  0.88365498  0.50829209  0.00431401  1
  Ti  Ti103  1  0.85366866  0.52469743  0.34122577  1
  Ti  Ti104  1  0.86975999  0.48014842  0.76206194  1
  Ti  Ti105  1  0.85789369  0.77882295  -0.05618438  1
  Ti  Ti106  1  0.87960227  0.80462602  0.40318913  1
  Ti  Ti107  1  0.77871702  0.85034105  0.67606093  1
  Co  Co108  1  0.66967947  0.16044832  1.00193210  1
  Co  Co109  1  0.87696079  0.68180312  0.27403310  1
  Co  Co110  1  0.90950843  0.31767766  0.65414677  1
  Co  Co111  1  0.47911162  0.44031159  0.85944044  1
  Co  Co112  1  0.23976072  0.25149917  0.72914943  1
  Co  Co113  1  0.08639994  0.29933264  0.63875150  1
  Co  Co114  1  0.54186395  0.55858066  0.76002113  1
  Co  Co115  1  0.45688174  0.76772016  0.65280105  1
  Co  Co116  1  0.61933953  0.82024678  0.64899158  1
  Co  Co117  1  0.96048048  0.61504031  0.91165653  1
  Co  Co118  1  0.25831183  0.60603256  -0.02634990  1
  Co  Co119  1  0.88980202  0.84491584  0.56197306  1
  Co  Co120  1  0.14754860  0.08375298  0.94718387  1
  Co  Co121  1  0.54799362  0.13539164  0.89103590  1
  Co  Co122  1  0.80439203  0.76804700  0.09969532  1
  Co  Co123  1  0.38197305  0.15998910  0.94152007  1
  Co  Co124  1  0.36525329  0.27622651  0.05346140  1
  Co  Co125  1  0.53891115  0.67177438  0.07074757  1
  Co  Co126  1  0.55898547  0.80236993  0.97112295  1
  Co  Co127  1  0.61393739  0.99047850  0.77990981  1
  Co  Co128  1  0.06441806  0.83063446  0.06485753  1
  Co  Co129  1  0.32281490  0.53394129  0.40779873  1
  Co  Co130  1  0.74611029  0.02874837  0.02454670  1
  Co  Co131  1  0.01648441  0.42126400  0.71314803  1
  Co  Co132  1  1.01408944  0.58057657  0.73151465  1
  Co  Co133  1  0.24809773  0.10671508  0.50529491  1
  Co  Co134  1  0.65865838  0.27064499  0.86514065  1
  Co  Co135  1  0.10135986  0.67931447  0.95038113  1
  Co  Co136  1  0.12347204  0.85223252  0.21638104  1
  Co  Co137  1  0.09402734  0.58358829  0.18562065  1
  Co  Co138  1  0.76903361  0.37903302  0.69604508  1
  Co  Co139  1  0.73702769  0.19721231  0.69132691  1
  Co  Co140  1  0.55966588  0.63186923  0.43814512  1
  Co  Co141  1  0.70174791  0.04839565  0.43915726  1
  Co  Co142  1  0.87805973  0.65603985  0.45218225  1
  Co  Co143  1  0.39335577  0.19663871  0.75990236  1
  Co  Co144  1  0.39518092  0.14155299  0.42901171  1
  Co  Co145  1  0.24205529  0.87057217  0.08778961  1
  Co  Co146  1  0.46410257  0.51917506  0.17417286  1
  Co  Co147  1  0.53875688  0.58080446  0.92383237  1
  Co  Co148  1  0.41847105  0.98976031  0.18712858  1
  Co  Co149  1  0.75160335  0.73815996  0.53613667  1
  Co  Co150  1  0.14883104  0.92505096  0.95892297  1
  Co  Co151  1  0.40257978  1.02271046  0.54091572  1
  Co  Co152  1  0.27462335  0.25626396  0.44036023  1
  Co  Co153  1  -0.01300624  0.71540955  0.79650325  1
  Co  Co154  1  0.41818067  0.59081123  0.66845900  1
  Co  Co155  1  0.60702436  0.40142374  0.97230290  1
  Co  Co156  1  0.73087335  0.89664144  0.50936801  1
  Co  Co157  1  0.71493918  0.86492830  0.99870187  1
  Co  Co158  1  0.77361060  0.80414743  0.26172681  1
  Co  Co159  1  0.36039543  0.24040288  0.30071859  1
  Co  Co160  1  0.75299033  0.45692070  0.08292078  1
  Co  Co161  1  0.12719294  0.98417667  0.63293945  1
  Ni  Ni162  1  0.05615918  0.10613796  0.80760152  1
  Ni  Ni163  1  0.90622191  0.84641232  0.77761465  1
  Ni  Ni164  1  0.20878944  0.45789973  0.20310656  1
  Ni  Ni165  1  0.58461652  0.74727819  0.31866129  1
  Ni  Ni166  1  0.48696734  0.47402730  0.42789823  1
  Ni  Ni167  1  0.57852315  0.91676643  0.10409256  1
  Ni  Ni168  1  0.74350968  0.29174184  0.25357099  1
  Ni  Ni169  1  0.05210162  0.43242275  0.37939420  1
  Ni  Ni170  1  0.66898643  0.88970126  0.35865315  1
  Ni  Ni171  1  0.60081102  0.32968340  0.49664349  1
  Ni  Ni172  1  0.90473844  0.37394453  0.91159960  1
  Ni  Ni173  1  -0.04350078  0.09512743  0.38939985  1
  Ni  Ni174  1  0.72933632  0.68447783  0.69060749  1
  Ni  Ni175  1  0.52029514  0.15933064  0.53707846  1
  Ni  Ni176  1  0.91588463  0.22080965  0.49777448  1
  Ni  Ni177  1  0.31305384  0.70610259  0.83438072  1
  Ni  Ni178  1  0.60425651  0.23000724  0.19503944  1
  Ni  Ni179  1  0.23463166  0.35043477  0.59109583  1
  Ni  Ni180  1  0.13698917  0.36848261  0.08153976  1
  Ni  Ni181  1  0.67380289  0.51033849  0.66258074  1
  Ni  Ni182  1  0.08461471  0.25139434  0.17884250  1
  Ni  Ni183  1  0.32166839  0.73350348  0.13736286  1
  Ni  Ni184  1  0.60589192  0.19016492  0.38483726  1
  Ni  Ni185  1  0.20248278  0.71868533  0.28348691  1
  Ni  Ni186  1  0.74659501  0.39165427  0.38384506  1
  Ni  Ni187  1  0.87588179  0.92640500  0.03258591  1
  Ni  Ni188  1  0.87856571  0.07405643  0.24051230  1
  Ni  Ni189  1  0.79561796  0.02725731  0.71460529  1
  Ni  Ni190  1  0.93416124  0.54609566  0.17767343  1
  Ni  Ni191  1  0.09244779  0.67280344  0.60853229  1
  Ni  Ni192  1  0.17790493  0.39857469  0.93004009  1
  Ni  Ni193  1  1.00538344  0.07889454  0.55580836  1
  Ni  Ni194  1  0.72909246  0.54135483  0.94013413  1
  Ni  Ni195  1  0.47485001  0.30120899  0.61992509  1
  Ni  Ni196  1  0.44408747  0.89097393  0.90737570  1
  Ni  Ni197  1  0.18341264  -0.00052270  0.27579420  1
  Ni  Ni198  1  0.24244343  0.87329899  0.66385940  1
  Ni  Ni199  1  0.59726095  0.38962375  0.14654905  1
  Ni  Ni200  1  0.26751587  0.52394558  0.69256591  1
  Ni  Ni201  1  0.14557920  0.24303351  0.87556094  1
  Ni  Ni202  1  0.93695859  0.51456720  0.59901017  1
  Ni  Ni203  1  0.09404024  0.71874811  0.43698201  1
  Ni  Ni204  1  0.24118881  0.94569676  0.51518875  1
  Ni  Ni205  1  0.89114767  0.10841935  0.82971301  1
  Ni  Ni206  1  0.70871193  0.47928562  0.24731578  1
  Ni  Ni207  1  0.45521268  0.02809473  0.02126806  1
  Ni  Ni208  1  0.28809701  0.42364220  0.05344716  1
  Ni  Ni209  1  0.97045495  0.94361476  0.45635735  1
  Ni  Ni210  1  0.90017136  0.36107961  0.37260731  1
  Ni  Ni211  1  0.21237541  0.77944073  0.53737007  1
  Ni  Ni212  1  0.43719987  0.81487915  0.37663779  1
  Ni  Ni213  1  0.02657975  0.13869679  0.05225644  1
  Ni  Ni214  1  0.64896914  0.04676213  0.28193243  1
  Ni  Ni215  1  0.90790476  0.22317834  0.14515887  1
