# generated using pymatgen
data_Ti2CoNi
_symmetry_space_group_name_H-M   'P 1'
_cell_length_a   14.62247968
_cell_length_b   14.64157701
_cell_length_c   14.66534631
_cell_angle_alpha   89.92748003
_cell_angle_beta   89.89911683
_cell_angle_gamma   90.11875985
_symmetry_Int_Tables_number   1
_chemical_formula_structural   Ti2CoNi
_chemical_formula_sum   'Ti108 Co54 Ni54'
_cell_volume   3139.78022212
_cell_formula_units_Z   54
loop_
 _symmetry_equiv_pos_site_id
 _symmetry_equiv_pos_as_xyz
  1  'x, y, z'
loop_
 _atom_site_type_symbol
 _atom_site_label
 _atom_site_symmetry_multiplicity
 _atom_site_fract_x
 _atom_site_fract_y
 _atom_site_fract_z
 _atom_site_occupancy
  Ti  Ti0  1  0.02727368  0.04554794  -0.02018959  1
  Ti  Ti1  1  0.03699887  0.06654333  0.30726583  1
  Ti  Ti2  1  0.05363837  0.01776240  0.64198276  1
  Ti  Ti3  1  0.05339493  0.34668026  -0.00099554  1
  Ti  Ti4  1  0.03787943  0.36062250  0.35083102  1
  Ti  Ti5  1  0.05635866  0.30983546  0.67745397  1
  Ti  Ti6  1  -0.05660052  0.75189207  0.03974209  1
  Ti  Ti7  1  -0.03379172  0.70823719  0.37812427  1
  Ti  Ti8  1  -0.05642397  0.63628082  0.70452529  1
  Ti  Ti9  1  0.37138825  0.01885016  -0.03949683  1
  Ti  Ti10  1  0.30185762  -0.04976313  0.33244140  1
  Ti  Ti11  1  0.30520470  -0.03795603  0.65837369  1
  Ti  Ti12  1  0.31898589  0.35314106  -0.05762297  1
  Ti  Ti13  1  0.38465272  0.39359556  0.29319797  1
  Ti  Ti14  1  0.33375309  0.32422634  0.74106285  1
  Ti  Ti15  1  0.36204753  0.63783433  -0.06352181  1
  Ti  Ti16  1  0.41251077  0.61523130  0.33195089  1
  Ti  Ti17  1  0.34262154  0.75229782  0.65658960  1
  Ti  Ti18  1  0.69410373  -0.00250756  0.04520316  1
  Ti  Ti19  1  0.74803381  -0.04986520  0.32266994  1
  Ti  Ti20  1  0.74228234  0.00465584  0.68939359  1
  Ti  Ti21  1  0.64088506  0.28246742  -0.01516149  1
  Ti  Ti22  1  0.64558850  0.31880927  0.42051824  1
  Ti  Ti23  1  0.62667075  0.33470538  0.63667911  1
  Ti  Ti24  1  0.65524905  0.62640422  -0.06686172  1
  Ti  Ti25  1  0.60592341  0.66232974  0.34133557  1
  Ti  Ti26  1  0.66223154  0.72273629  0.70700434  1
  Ti  Ti27  1  0.06227170  0.17979655  0.13226989  1
  Ti  Ti28  1  -0.03368144  0.10841761  0.47325802  1
  Ti  Ti29  1  -0.07280916  0.17170497  0.87745367  1
  Ti  Ti30  1  0.00260574  0.51062585  0.12338104  1
  Ti  Ti31  1  -0.00878811  0.46484518  0.54715467  1
  Ti  Ti32  1  0.06262369  0.53777995  0.89852306  1
  Ti  Ti33  1  0.02679171  0.80184833  0.19285315  1
  Ti  Ti34  1  -0.01321926  0.88399711  0.50568337  1
  Ti  Ti35  1  0.04985741  0.85800837  0.88748349  1
  Ti  Ti36  1  0.33397061  0.16736464  0.08936808  1
  Ti  Ti37  1  0.31709028  0.21365962  0.42775625  1
  Ti  Ti38  1  0.32933415  0.18122135  0.88492094  1
  Ti  Ti39  1  0.36156184  0.53594826  0.14869283  1
  Ti  Ti40  1  0.29990533  0.51383599  0.46497032  1
  Ti  Ti41  1  0.35565879  0.52688222  0.76621790  1
  Ti  Ti42  1  0.37257241  0.86938286  0.17764895  1
  Ti  Ti43  1  0.28241526  0.85982123  0.49212290  1
  Ti  Ti44  1  0.25380925  0.88628110  0.86670912  1
  Ti  Ti45  1  0.58725593  0.17993560  0.16640242  1
  Ti  Ti46  1  0.65782603  0.14800483  0.60798941  1
  Ti  Ti47  1  0.62937278  0.12296322  0.82167711  1
  Ti  Ti48  1  0.67371269  0.47461917  0.20632032  1
  Ti  Ti49  1  0.72642925  0.55852767  0.47244548  1
  Ti  Ti50  1  0.64485308  0.48713420  0.79431171  1
  Ti  Ti51  1  0.69070140  0.76873646  0.07876218  1
  Ti  Ti52  1  0.59694021  0.79419729  0.50955955  1
  Ti  Ti53  1  0.62455236  0.83352441  0.89789045  1
  Ti  Ti54  1  0.15260473  -0.03861909  0.19129431  1
  Ti  Ti55  1  0.18847202  0.05485206  0.46422106  1
  Ti  Ti56  1  0.19316018  0.05714819  0.79123757  1
  Ti  Ti57  1  0.24032726  0.30414628  0.20862860  1
  Ti  Ti58  1  0.19554766  0.32069443  0.53572522  1
  Ti  Ti59  1  0.17297304  0.38970091  0.82980919  1
  Ti  Ti60  1  0.20385803  0.63690580  0.17322445  1
  Ti  Ti61  1  0.11059326  0.61365781  0.46187717  1
  Ti  Ti62  1  0.13135170  0.70424452  0.78030714  1
  Ti  Ti63  1  0.58203184  -0.02653849  0.20310048  1
  Ti  Ti64  1  0.52671032  0.03195324  0.48164489  1
  Ti  Ti65  1  0.44925410  0.04218392  0.78690842  1
  Ti  Ti66  1  0.51118006  0.38223405  0.11613585  1
  Ti  Ti67  1  0.49246416  0.23256278  0.51600881  1
  Ti  Ti68  1  0.50477804  0.38658404  0.90989230  1
  Ti  Ti69  1  0.49248280  0.71048882  0.15966742  1
  Ti  Ti70  1  0.42337766  0.70998638  0.48831432  1
  Ti  Ti71  1  0.50089909  0.69805282  0.80950310  1
  Ti  Ti72  1  0.89949332  -0.01417352  0.18954413  1
  Ti  Ti73  1  0.76179346  -0.09398534  0.50885393  1
  Ti  Ti74  1  0.87477866  -0.01116569  0.81733280  1
  Ti  Ti75  1  0.80960147  0.30450867  0.26112674  1
  Ti  Ti76  1  0.88947479  0.29468746  0.47251392  1
  Ti  Ti77  1  0.79821371  0.38667409  0.88097143  1
  Ti  Ti78  1  0.81209548  0.60595607  0.11370608  1
  Ti  Ti79  1  0.79821442  0.72443041  0.46269739  1
  Ti  Ti80  1  0.80054027  0.65210166  0.81977857  1
  Ti  Ti81  1  0.14154853  0.19050687  -0.07316206  1
  Ti  Ti82  1  0.23783440  0.12483689  0.27882673  1
  Ti  Ti83  1  0.22314642  0.15193687  0.62093882  1
  Ti  Ti84  1  0.20013353  0.45984169  0.06119893  1
  Ti  Ti85  1  0.17342250  0.47847711  0.28004317  1
  Ti  Ti86  1  0.16342340  0.48469547  0.65810578  1
  Ti  Ti87  1  0.17718236  0.78411387  0.05436014  1
  Ti  Ti88  1  0.18047075  0.78461241  0.30018432  1
  Ti  Ti89  1  0.14068581  0.76529126  0.60299892  1
  Ti  Ti90  1  0.54308685  0.11010602  -0.00007818  1
  Ti  Ti91  1  0.49066023  0.17053511  0.33376207  1
  Ti  Ti92  1  0.48785984  0.21609303  0.70419461  1
  Ti  Ti93  1  0.53612039  0.55114600  0.04890556  1
  Ti  Ti94  1  0.51886951  0.47045374  0.39463601  1
  Ti  Ti95  1  0.46141685  0.43640530  0.58698062  1
  Ti  Ti96  1  0.41282955  0.83260659  -0.01806441  1
  Ti  Ti97  1  0.47660334  0.82579757  0.33632819  1
  Ti  Ti98  1  0.50239274  0.85963297  0.68906091  1
  Ti  Ti99  1  0.79529078  0.18217792  0.07212452  1
  Ti  Ti100  1  0.80645810  0.13402868  0.34724583  1
  Ti  Ti101  1  0.90180374  0.15699996  0.65006162  1
  Ti  Ti102  1  0.80917337  0.40716064  0.08169818  1
  Ti  Ti103  1  0.88610398  0.51801709  0.34062386  1
  Ti  Ti104  1  0.81599370  0.49102969  0.67671218  1
  Ti  Ti105  1  0.82154880  0.87420608  -0.04142193  1
  Ti  Ti106  1  0.83099459  0.78049855  0.25148042  1
  Ti  Ti107  1  0.84258009  0.82213501  0.67031442  1
  Co  Co108  1  0.35052529  0.75967653  0.81124441  1
  Co  Co109  1  0.77753577  0.24852637  0.58232516  1
  Co  Co110  1  0.43819647  0.89060529  0.83432977  1
  Co  Co111  1  0.19509559  0.23715719  0.77588744  1
  Co  Co112  1  0.13640405  0.93874080  0.37162850  1
  Co  Co113  1  0.65958823  0.87474477  0.64414523  1
  Co  Co114  1  0.33516584  0.14279220  0.72754004  1
  Co  Co115  1  0.34748052  0.36640368  0.10317798  1
  Co  Co116  1  0.54219048  -0.03047498  0.93716017  1
  Co  Co117  1  0.18697482  0.08941944  0.09113601  1
  Co  Co118  1  0.35304992  0.26207250  0.59203409  1
  Co  Co119  1  0.05891245  0.65523459  0.10210291  1
  Co  Co120  1  0.92830925  0.65373239  0.21925455  1
  Co  Co121  1  0.38417245  0.48886085  -0.00597581  1
  Co  Co122  1  0.72279942  1.00971255  0.88751812  1
  Co  Co123  1  0.65357871  0.44574257  0.99944325  1
  Co  Co124  1  0.27877630  0.92530591  0.05485328  1
  Co  Co125  1  0.33049474  0.71824939  0.06985409  1
  Co  Co126  1  0.78627835  0.53523131  0.95412881  1
  Co  Co127  1  0.10708481  0.23441074  0.27296378  1
  Co  Co128  1  0.69902370  0.79355168  0.36663469  1
  Co  Co129  1  0.37101442  0.06322140  0.43060330  1
  Co  Co130  1  0.50401901  0.54581541  0.87289859  1
  Co  Co131  1  0.30337877  0.42444547  0.61263511  1
  Co  Co132  1  0.93220695  0.59906471  -0.01744556  1
  Co  Co133  1  0.67955807  0.32086531  0.14228481  1
  Co  Co134  1  0.20300298  0.61063293  0.01189487  1
  Co  Co135  1  0.89568828  0.52026259  0.83531921  1
  Co  Co136  1  0.62765233  0.06886553  0.32860143  1
  Co  Co137  1  0.75373555  0.86231554  0.79954837  1
  Co  Co138  1  0.22587668  0.73027810  0.90731429  1
  Co  Co139  1  0.95745336  0.21797659  0.34055496  1
  Co  Co140  1  0.60854948  0.95248482  0.78785640  1
  Co  Co141  1  0.34270553  0.71120900  0.22496817  1
  Co  Co142  1  0.45743700  -0.00381311  0.09679953  1
  Co  Co143  1  0.37713687  0.58598928  0.59841546  1
  Co  Co144  1  0.24429546  0.51668024  0.89039377  1
  Co  Co145  1  0.32851261  0.77326605  0.36495755  1
  Co  Co146  1  0.26040511  0.68508659  0.50102244  1
  Co  Co147  1  0.15133644  0.92478098  0.55757367  1
  Co  Co148  1  0.64230910  0.16472023  0.45182471  1
  Co  Co149  1  0.20750494  0.03680009  0.94670194  1
  Co  Co150  1  0.67187406  0.22095860  0.29149715  1
  Co  Co151  1  0.45998144  1.00283700  0.30281070  1
  Co  Co152  1  0.79997273  0.71096032  -0.02908684  1
  Co  Co153  1  0.89740559  0.28250766  0.77226693  1
  Co  Co154  1  0.73800326  0.08151703  0.19932411  1
  Co  Co155  1  0.39669163  0.08819842  0.58830481  1
  Co  Co156  1  0.06929921  0.69414611  0.94030683  1
  Co  Co157  1  0.37374567  0.36756361  0.45691611  1
  Co  Co158  1  0.32047913  0.02731841  0.17538788  1
  Co  Co159  1  0.06990385  0.61284376  0.62230252  1
  Co  Co160  1  0.11818664  0.92889714  1.03561429  1
  Co  Co161  1  0.92941173  0.43879098  0.97732072  1
  Ni  Ni162  1  0.55396541  0.60228505  0.49856884  1
  Ni  Ni163  1  0.74989689  0.90555938  0.16410341  1
  Ni  Ni164  1  0.89125259  0.98246082  0.40070014  1
  Ni  Ni165  1  0.89731131  0.58723044  0.50220965  1
  Ni  Ni166  1  0.05144937  0.15624256  0.74897113  1
  Ni  Ni167  1  0.00902226  0.80831780  0.69794422  1
  Ni  Ni168  1  0.43239667  0.90252889  0.54657170  1
  Ni  Ni169  1  0.20502875  0.28104758  0.05019917  1
  Ni  Ni170  1  0.51795979  0.55636084  0.70475695  1
  Ni  Ni171  1  0.22046176  0.34271742  0.36980108  1
  Ni  Ni172  1  0.62469508  0.30003976  0.80902702  1
  Ni  Ni173  1  0.52755774  0.71409264  0.99288045  1
  Ni  Ni174  1  1.03615531  1.00312216  0.80706749  1
  Ni  Ni175  1  0.49168279  0.21573957  0.87448146  1
  Ni  Ni176  1  0.59727133  0.91819668  0.38583820  1
  Ni  Ni177  1  0.88765519  -0.00852362  0.59130075  1
  Ni  Ni178  1  0.78768782  0.65115737  0.62131875  1
  Ni  Ni179  1  0.93153162  0.40470857  0.22708514  1
  Ni  Ni180  1  0.61751440  0.80911655  0.22821638  1
  Ni  Ni181  1  0.90862569  0.78218031  0.83497642  1
  Ni  Ni182  1  0.46040370  0.25491911  0.02810512  1
  Ni  Ni183  1  0.89806598  0.35320582  0.63016012  1
  Ni  Ni184  1  0.62032104  0.45172887  0.52703743  1
  Ni  Ni185  1  0.13410666  0.45199969  0.45953484  1
  Ni  Ni186  1  0.03468748  0.30114736  0.84399726  1
  Ni  Ni187  1  0.94275000  0.73095718  0.56072342  1
  Ni  Ni188  1  0.08472051  0.36333513  0.16642246  1
  Ni  Ni189  1  0.64439589  0.63897098  0.17363049  1
  Ni  Ni190  1  0.93088182  0.29319617  0.10044584  1
  Ni  Ni191  1  0.51478117  0.52591291  0.23067719  1
  Ni  Ni192  1  -0.00896590  0.87500340  0.33098475  1
  Ni  Ni193  1  0.85585982  0.04278004  0.99051268  1
  Ni  Ni194  1  0.54861199  0.03264562  0.65377595  1
  Ni  Ni195  1  0.77496336  0.16572403  0.74879929  1
  Ni  Ni196  1  0.55471450  0.86476374  0.07288694  1
  Ni  Ni197  1  0.95894470  0.91543331  0.05666572  1
  Ni  Ni198  1  0.50942209  0.69711447  0.63094491  1
  Ni  Ni199  1  0.15164521  0.88896953  0.73051598  1
  Ni  Ni200  1  0.49808214  0.39521208  0.74772179  1
  Ni  Ni201  1  0.06734340  0.18264361  0.57549603  1
  Ni  Ni202  1  0.90077104  0.15572558  0.19780064  1
  Ni  Ni203  1  0.77551310  0.07342812  0.49947077  1
  Ni  Ni204  1  0.78364839  0.40719101  0.42441727  1
  Ni  Ni205  1  0.42171430  0.25157084  0.20553104  1
  Ni  Ni206  1  0.10768546  0.78934784  0.44423658  1
  Ni  Ni207  1  0.07610069  0.62243701  0.28525453  1
  Ni  Ni208  1  0.75808922  0.33956049  0.72540147  1
  Ni  Ni209  1  0.76535595  0.62259081  0.29422472  1
  Ni  Ni210  1  0.12391334  0.20014838  0.42324626  1
  Ni  Ni211  1  0.00293341  0.46213129  0.72946420  1
  Ni  Ni212  1  0.23268223  0.63110241  0.66990289  1
  Ni  Ni213  1  0.55933520  0.34632710  0.27101770  1
  Ni  Ni214  1  0.76545116  0.21452020  0.89883349  1
  Ni  Ni215  1  0.24134053  0.62421908  0.34066066  1
