# generated using pymatgen
data_Ti2CoNi
_symmetry_space_group_name_H-M   'P 1'
_cell_length_a   14.55697871
_cell_length_b   14.58120536
_cell_length_c   14.57100420
_cell_angle_alpha   90.01271999
_cell_angle_beta   90.24150881
_cell_angle_gamma   89.94423498
_symmetry_Int_Tables_number   1
_chemical_formula_structural   Ti2CoNi
_chemical_formula_sum   'Ti108 Co54 Ni54'
_cell_volume   3092.78750825
_cell_formula_units_Z   54
loop_
 _symmetry_equiv_pos_site_id
 _symmetry_equiv_pos_as_xyz
  1  'x, y, z'
loop_
 _atom_site_type_symbol
 _atom_site_label
 _atom_site_symmetry_multiplicity
 _atom_site_fract_x
 _atom_site_fract_y
 _atom_site_fract_z
 _atom_site_occupancy
  Ti  Ti0  1  -0.04630984  -0.02821640  -0.02926748  1
  Ti  Ti1  1  -0.00802063  0.04700344  0.31897853  1
  Ti  Ti2  1  -0.03965455  -0.09881908  0.70003102  1
  Ti  Ti3  1  0.00418282  0.32870709  0.10544679  1
  Ti  Ti4  1  0.07068631  0.37606014  0.32706403  1
  Ti  Ti5  1  0.03391955  0.37401653  0.65125001  1
  Ti  Ti6  1  -0.03118529  0.61995952  -0.00133869  1
  Ti  Ti7  1  -0.02475757  0.66673131  0.38073944  1
  Ti  Ti8  1  0.05198483  0.69607002  0.68403270  1
  Ti  Ti9  1  0.38700296  -0.01863479  -0.05592647  1
  Ti  Ti10  1  0.29804547  0.02588977  0.31890985  1
  Ti  Ti11  1  0.34081932  0.03959044  0.65914980  1
  Ti  Ti12  1  0.28947878  0.26725780  -0.01640448  1
  Ti  Ti13  1  0.36927627  0.33094978  0.25870830  1
  Ti  Ti14  1  0.37095632  0.36877731  0.72018303  1
  Ti  Ti15  1  0.33159212  0.63672092  0.05081843  1
  Ti  Ti16  1  0.37105717  0.59422058  0.35578251  1
  Ti  Ti17  1  0.40423673  0.65493421  0.72121800  1
  Ti  Ti18  1  0.67249474  0.02662413  -0.02453413  1
  Ti  Ti19  1  0.63761737  0.04177576  0.35908370  1
  Ti  Ti20  1  0.63202122  0.05433840  0.66754266  1
  Ti  Ti21  1  0.63873219  0.40185785  0.00717891  1
  Ti  Ti22  1  0.64495312  0.24106148  0.31352944  1
  Ti  Ti23  1  0.67544754  0.38236350  0.63579125  1
  Ti  Ti24  1  0.64871063  0.62933765  0.01230759  1
  Ti  Ti25  1  0.67850423  0.61250004  0.31929688  1
  Ti  Ti26  1  0.75131425  0.58519102  0.70135917  1
  Ti  Ti27  1  0.03158503  0.15105655  0.16660549  1
  Ti  Ti28  1  -0.03398252  0.13095591  0.50976323  1
  Ti  Ti29  1  -0.02687724  0.15910327  0.80251205  1
  Ti  Ti30  1  0.08007821  0.49221230  0.12576248  1
  Ti  Ti31  1  -0.04494083  0.48734358  0.46977500  1
  Ti  Ti32  1  -0.03805006  0.49269754  0.81373481  1
  Ti  Ti33  1  0.00423488  0.89364228  0.17807650  1
  Ti  Ti34  1  -0.00653577  0.82488654  0.51528093  1
  Ti  Ti35  1  0.05559028  0.82870561  0.84622883  1
  Ti  Ti36  1  0.28050187  0.09623798  0.10240349  1
  Ti  Ti37  1  0.31444304  0.12232251  0.48526154  1
  Ti  Ti38  1  0.35577895  0.17844865  0.79998604  1
  Ti  Ti39  1  0.41672091  0.50638598  0.19066626  1
  Ti  Ti40  1  0.38545259  0.51903201  0.55475217  1
  Ti  Ti41  1  0.33394720  0.51954360  0.86357902  1
  Ti  Ti42  1  0.29900422  0.80259220  0.15345992  1
  Ti  Ti43  1  0.23776230  0.84313545  0.51053074  1
  Ti  Ti44  1  0.36940334  0.81459536  0.83019573  1
  Ti  Ti45  1  0.69751519  0.10567472  0.16591917  1
  Ti  Ti46  1  0.59185677  0.18342833  0.52602660  1
  Ti  Ti47  1  0.67970704  0.16118878  0.82327155  1
  Ti  Ti48  1  0.64248774  0.42382631  0.21617700  1
  Ti  Ti49  1  0.70763376  0.51752317  0.49454751  1
  Ti  Ti50  1  0.62132519  0.48780733  0.83063149  1
  Ti  Ti51  1  0.68161839  0.75016171  0.18331604  1
  Ti  Ti52  1  0.68038903  0.86961624  0.51120229  1
  Ti  Ti53  1  0.68796119  0.81050389  0.81416593  1
  Ti  Ti54  1  0.17492636  -0.05091430  0.19747698  1
  Ti  Ti55  1  0.12965813  -0.01376651  0.42044926  1
  Ti  Ti56  1  0.23071658  -0.05126021  0.82002535  1
  Ti  Ti57  1  0.22910610  0.38738172  0.12563098  1
  Ti  Ti58  1  0.17241126  0.27970355  0.55485353  1
  Ti  Ti59  1  0.09996802  0.34055942  0.83549157  1
  Ti  Ti60  1  0.15285037  0.66242731  0.09480237  1
  Ti  Ti61  1  0.24655686  0.65178420  0.49499391  1
  Ti  Ti62  1  0.21605042  0.68020000  0.79224252  1
  Ti  Ti63  1  0.53531246  -0.07394366  0.20040607  1
  Ti  Ti64  1  0.50755781  0.00286056  0.51399710  1
  Ti  Ti65  1  0.47947561  -0.03790818  0.76150319  1
  Ti  Ti66  1  0.46168210  0.35281891  0.07047904  1
  Ti  Ti67  1  0.41155138  0.28592149  0.52243985  1
  Ti  Ti68  1  0.51207323  0.25616556  0.88746445  1
  Ti  Ti69  1  0.48746753  0.70816873  0.14758163  1
  Ti  Ti70  1  0.53674177  0.73401906  0.43618620  1
  Ti  Ti71  1  0.52610563  0.69179866  0.88125678  1
  Ti  Ti72  1  0.81716932  -0.02264423  0.24417553  1
  Ti  Ti73  1  0.83306799  -0.02413401  0.57373859  1
  Ti  Ti74  1  0.80865015  -0.00219147  0.83127291  1
  Ti  Ti75  1  0.80891263  0.37026883  0.12596193  1
  Ti  Ti76  1  0.76000114  0.28050409  0.49428946  1
  Ti  Ti77  1  0.82607170  0.33395567  0.92215619  1
  Ti  Ti78  1  0.84729966  0.64163334  0.17392830  1
  Ti  Ti79  1  0.80119929  0.70453668  0.47989799  1
  Ti  Ti80  1  0.87351322  0.69058448  0.84145451  1
  Ti  Ti81  1  0.09862896  0.16082634  -0.03743230  1
  Ti  Ti82  1  0.14478703  0.18295798  0.38492577  1
  Ti  Ti83  1  0.17023568  0.15374536  0.74158822  1
  Ti  Ti84  1  0.14603108  0.53833199  -0.05503660  1
  Ti  Ti85  1  0.15874422  0.58029614  0.30998702  1
  Ti  Ti86  1  0.16224436  0.50608480  0.60645917  1
  Ti  Ti87  1  0.12482720  0.84708763  0.02338897  1
  Ti  Ti88  1  0.12365496  0.76026356  0.25852917  1
  Ti  Ti89  1  0.15676807  0.97708381  0.62556149  1
  Ti  Ti90  1  0.55614907  0.18385481  0.05774854  1
  Ti  Ti91  1  0.45233200  0.18652267  0.35398911  1
  Ti  Ti92  1  0.53842696  0.27074010  0.69657822  1
  Ti  Ti93  1  0.48632961  0.54113924  -0.00213410  1
  Ti  Ti94  1  0.52385058  0.44331919  0.35872909  1
  Ti  Ti95  1  0.56400724  0.53547850  0.63140430  1
  Ti  Ti96  1  0.63907238  0.81252927  0.00785044  1
  Ti  Ti97  1  0.39259470  0.84255736  0.32997343  1
  Ti  Ti98  1  0.43518981  0.83816972  0.60087544  1
  Ti  Ti99  1  0.85422979  0.19015589  0.06960203  1
  Ti  Ti100  1  0.81555106  0.13779760  0.37336952  1
  Ti  Ti101  1  0.86822976  0.23839708  0.65075359  1
  Ti  Ti102  1  0.80199056  0.52355575  -0.05938245  1
  Ti  Ti103  1  0.84929760  0.36390932  0.34992927  1
  Ti  Ti104  1  0.85775599  0.42782097  0.62840539  1
  Ti  Ti105  1  0.83435766  0.84311678  0.10903516  1
  Ti  Ti106  1  0.83703524  0.82706706  0.34467318  1
  Ti  Ti107  1  0.84130741  0.76032004  0.65768612  1
  Co  Co108  1  0.68494760  0.77277660  0.37600380  1
  Co  Co109  1  0.52707831  0.86406200  0.88271883  1
  Co  Co110  1  0.21123244  0.33552324  0.71404047  1
  Co  Co111  1  0.23892321  0.49223436  0.44545520  1
  Co  Co112  1  0.69388324  0.40271175  0.39139434  1
  Co  Co113  1  0.87435238  0.85011943  0.82588595  1
  Co  Co114  1  0.10119442  0.02688592  0.07308322  1
  Co  Co115  1  0.93140501  0.32921109  0.77656176  1
  Co  Co116  1  0.75555295  0.91146226  0.69603842  1
  Co  Co117  1  0.16602648  0.21538935  0.09723317  1
  Co  Co118  1  0.52358264  0.29966473  0.22156042  1
  Co  Co119  1  0.37450758  0.75199615  0.47086986  1
  Co  Co120  1  0.01487637  0.98108757  0.54225544  1
  Co  Co121  1  0.68311297  0.93290952  0.11328709  1
  Co  Co122  1  0.93297988  0.27631946  0.23542715  1
  Co  Co123  1  0.70957505  0.64533044  0.86420329  1
  Co  Co124  1  0.59052842  0.90326622  0.64357639  1
  Co  Co125  1  0.45851641  0.13999555  0.61452415  1
  Co  Co126  1  0.36631192  0.66774476  0.89765035  1
  Co  Co127  1  0.15833267  0.10018642  0.24731818  1
  Co  Co128  1  0.28409440  0.28672923  0.40248986  1
  Co  Co129  1  0.37822625  0.41888483  0.41235117  1
  Co  Co130  1  0.56597417  0.30295449  0.43330581  1
  Co  Co131  1  0.78162866  0.88001559  0.95834830  1
  Co  Co132  1  0.98082474  0.66236118  0.54899807  1
  Co  Co133  1  0.50692824  0.12222828  0.76893502  1
  Co  Co134  1  0.25558596  0.55782373  0.17609043  1
  Co  Co135  1  0.30474770  0.21218658  0.64280895  1
  Co  Co136  1  0.77476144  0.25572725  0.23513566  1
  Co  Co137  1  0.04524435  0.20814540  0.64951877  1
  Co  Co138  1  0.68328890  0.89671030  0.27426491  1
  Co  Co139  1  0.81236819  0.01924376  0.05290586  1
  Co  Co140  1  0.28931394  0.38572274  0.56470975  1
  Co  Co141  1  0.47604682  0.67576109  0.58290810  1
  Co  Co142  1  0.86753420  0.12696073  0.21970469  1
  Co  Co143  1  0.09838298  0.40653139  0.48343559  1
  Co  Co144  1  0.55324682  0.77298652  0.27768431  1
  Co  Co145  1  0.70109840  0.22697411  0.66371650  1
  Co  Co146  1  0.12286431  0.34555311  0.00005034  1
  Co  Co147  1  0.92149162  0.59830781  0.70537442  1
  Co  Co148  1  0.64874413  0.66935135  0.54135271  1
  Co  Co149  1  0.83350237  0.56147294  0.38939284  1
  Co  Co150  1  0.27384744  0.72457330  0.33263187  1
  Co  Co151  1  0.21848249  0.87390745  0.33797349  1
  Co  Co152  1  0.12468555  0.74462875  0.42487000  1
  Co  Co153  1  0.30574568  0.88289097  0.68918097  1
  Co  Co154  1  0.93470442  0.32106885  0.50741200  1
  Co  Co155  1  0.52129197  0.61071072  0.29147155  1
  Co  Co156  1  0.52125414  0.78977788  0.73709317  1
  Co  Co157  1  0.67598361  0.76797447  0.65564526  1
  Co  Co158  1  0.94430625  1.02161383  0.12996407  1
  Co  Co159  1  0.65881016  0.28582815  0.12602735  1
  Co  Co160  1  0.56250800  0.89709084  0.38793906  1
  Co  Co161  1  0.84886870  0.57976815  0.56456410  1
  Ni  Ni162  1  0.35535865  0.95388912  0.46831890  1
  Ni  Ni163  1  0.07205159  0.00128379  0.76492784  1
  Ni  Ni164  1  0.99083310  0.44421796  0.97191190  1
  Ni  Ni165  1  0.14306735  0.83328517  0.70038674  1
  Ni  Ni166  1  0.46832740  0.50274149  0.76208667  1
  Ni  Ni167  1  0.59675716  0.64667600  0.73789746  1
  Ni  Ni168  1  0.29658174  0.18221046  0.27337758  1
  Ni  Ni169  1  0.05222828  0.65097275  0.85070034  1
  Ni  Ni170  1  0.70643335  0.22524821  0.97667893  1
  Ni  Ni171  1  0.52263120  0.40630229  0.54359094  1
  Ni  Ni172  1  0.46381737  0.05166936  0.09131210  1
  Ni  Ni173  1  0.67124920  0.32818513  0.83726192  1
  Ni  Ni174  1  0.52608392  0.92368685  1.02945312  1
  Ni  Ni175  1  0.79364362  0.49587251  0.25046310  1
  Ni  Ni176  1  0.73417385  0.52682268  0.10424619  1
  Ni  Ni177  1  0.01941764  0.86666669  0.35418848  1
  Ni  Ni178  1  0.52761884  0.06335475  0.91312647  1
  Ni  Ni179  1  0.01270639  0.61068725  0.21370269  1
  Ni  Ni180  1  0.90249525  0.50171057  0.09866462  1
  Ni  Ni181  1  0.22110065  0.73183202  0.94908319  1
  Ni  Ni182  1  0.46243180  0.01609961  0.33183469  1
  Ni  Ni183  1  0.88941349  0.96740229  0.42020071  1
  Ni  Ni184  1  0.53845949  0.12283244  0.22580695  1
  Ni  Ni185  1  0.24848723  0.43714320  0.29108448  1
  Ni  Ni186  1  0.36145268  0.95508786  0.17954688  1
  Ni  Ni187  1  0.80188959  0.70568959  0.00337737  1
  Ni  Ni188  1  0.94158454  0.79762597  0.96965084  1
  Ni  Ni189  1  0.13190351  0.51649584  0.77291708  1
  Ni  Ni190  1  0.98121009  0.22925739  0.37754367  1
  Ni  Ni191  1  0.27701366  0.72674559  0.64005863  1
  Ni  Ni192  1  0.86925769  0.12476408  0.92440142  1
  Ni  Ni193  1  0.79140332  0.42914875  0.78183815  1
  Ni  Ni194  1  0.57634106  0.55930722  0.14588475  1
  Ni  Ni195  1  0.17005270  0.28233503  0.24225352  1
  Ni  Ni196  1  0.09809486  0.58273055  0.46773407  1
  Ni  Ni197  1  0.42858892  0.78541698  0.00662795  1
  Ni  Ni198  1  0.24051446  0.39802742  0.90162213  1
  Ni  Ni199  1  0.10975861  0.99468044  0.91758768  1
  Ni  Ni200  1  0.40616425  0.20386866  0.14239007  1
  Ni  Ni201  1  -0.02545550  0.27154124  0.93761178  1
  Ni  Ni202  1  0.46851056  0.40741202  0.89722894  1
  Ni  Ni203  1  0.00802179  0.74048410  0.10529955  1
  Ni  Ni204  1  0.73771735  0.10317653  0.52179797  1
  Ni  Ni205  1  0.40075787  0.15031441  0.97531169  1
  Ni  Ni206  1  0.79099663  0.09367924  0.69777288  1
  Ni  Ni207  1  0.29382359  0.52100021  0.70211008  1
  Ni  Ni208  1  0.53147201  0.56847498  0.46450454  1
  Ni  Ni209  1  0.33657204  0.46309790  0.02938819  1
  Ni  Ni210  1  0.15184296  0.11512702  0.54705053  1
  Ni  Ni211  1  0.94308492  0.75653909  0.24778945  1
  Ni  Ni212  1  0.24953631  0.09703770  0.91009862  1
  Ni  Ni213  1  0.25863958  0.93757521  0.03501176  1
  Ni  Ni214  1  0.94984668  0.06822709  0.66784032  1
  Ni  Ni215  1  0.95328531  0.45244184  0.24412521  1
