# generated using pymatgen
data_Ti2CoNi
_symmetry_space_group_name_H-M   'P 1'
_cell_length_a   14.63941173
_cell_length_b   14.58397782
_cell_length_c   14.60377674
_cell_angle_alpha   90.19632217
_cell_angle_beta   89.86863711
_cell_angle_gamma   90.15842009
_symmetry_Int_Tables_number   1
_chemical_formula_structural   Ti2CoNi
_chemical_formula_sum   'Ti108 Co54 Ni54'
_cell_volume   3117.88048699
_cell_formula_units_Z   54
loop_
 _symmetry_equiv_pos_site_id
 _symmetry_equiv_pos_as_xyz
  1  'x, y, z'
loop_
 _atom_site_type_symbol
 _atom_site_label
 _atom_site_symmetry_multiplicity
 _atom_site_fract_x
 _atom_site_fract_y
 _atom_site_fract_z
 _atom_site_occupancy
  Ti  Ti0  1  0.01767928  -0.03157041  -0.04784381  1
  Ti  Ti1  1  0.00579254  -0.00595875  0.30909037  1
  Ti  Ti2  1  -0.02784949  0.02734481  0.71744678  1
  Ti  Ti3  1  -0.00825479  0.29707348  -0.03761632  1
  Ti  Ti4  1  0.03658138  0.26631229  0.42428002  1
  Ti  Ti5  1  0.02954811  0.34050644  0.63412785  1
  Ti  Ti6  1  -0.10943201  0.67907927  0.02052404  1
  Ti  Ti7  1  -0.02125815  0.64929246  0.25388392  1
  Ti  Ti8  1  -0.06237272  0.66866175  0.59943619  1
  Ti  Ti9  1  0.33920133  0.06933857  -0.03632466  1
  Ti  Ti10  1  0.38367605  -0.04774850  0.30496796  1
  Ti  Ti11  1  0.30472608  -0.04545410  0.66293826  1
  Ti  Ti12  1  0.32822498  0.32574306  0.03470108  1
  Ti  Ti13  1  0.33410122  0.36463775  0.36109973  1
  Ti  Ti14  1  0.29109769  0.25505057  0.61884590  1
  Ti  Ti15  1  0.28029912  0.60833190  0.01209756  1
  Ti  Ti16  1  0.30924452  0.69724410  0.28423024  1
  Ti  Ti17  1  0.31417419  0.61030125  0.59055141  1
  Ti  Ti18  1  0.58773798  -0.02555412  0.04670020  1
  Ti  Ti19  1  0.67220305  0.02528742  0.34093679  1
  Ti  Ti20  1  0.72422076  0.09171446  0.61998618  1
  Ti  Ti21  1  0.73884317  0.35266111  0.02501368  1
  Ti  Ti22  1  0.63578651  0.32074499  0.32204518  1
  Ti  Ti23  1  0.68442451  0.29687239  0.61089005  1
  Ti  Ti24  1  0.70167091  0.56034979  -0.01367016  1
  Ti  Ti25  1  0.62704266  0.74949156  0.34638738  1
  Ti  Ti26  1  0.70644052  0.65149259  0.72387438  1
  Ti  Ti27  1  -0.01359821  0.19048894  0.12917550  1
  Ti  Ti28  1  0.04782761  0.06341068  0.53390600  1
  Ti  Ti29  1  0.05863515  0.15071622  0.84288195  1
  Ti  Ti30  1  -0.00449392  0.43284116  0.21708345  1
  Ti  Ti31  1  -0.05497803  0.48181097  0.53742463  1
  Ti  Ti32  1  -0.02629087  0.60534503  0.85414260  1
  Ti  Ti33  1  -0.07397440  0.90073832  0.15138643  1
  Ti  Ti34  1  0.07641486  0.80657430  0.56311295  1
  Ti  Ti35  1  0.03211442  0.85484719  0.75307404  1
  Ti  Ti36  1  0.28137722  0.17334719  0.15731551  1
  Ti  Ti37  1  0.37395578  0.18602045  0.45236056  1
  Ti  Ti38  1  0.38620266  0.21062222  0.78723088  1
  Ti  Ti39  1  0.27511853  0.51664150  0.24877848  1
  Ti  Ti40  1  0.34181077  0.43225360  0.55327007  1
  Ti  Ti41  1  0.33701836  0.49138371  0.87544203  1
  Ti  Ti42  1  0.39076138  0.82100307  0.15986158  1
  Ti  Ti43  1  0.34117071  0.81175893  0.55553734  1
  Ti  Ti44  1  0.34178721  0.70860510  0.85046194  1
  Ti  Ti45  1  0.67673528  0.11674918  0.15966431  1
  Ti  Ti46  1  0.63934085  0.17940281  0.46741188  1
  Ti  Ti47  1  0.68376975  0.19319042  0.80823758  1
  Ti  Ti48  1  0.60440427  0.52154583  0.25827590  1
  Ti  Ti49  1  0.61039307  0.45154920  0.49559739  1
  Ti  Ti50  1  0.66427934  0.47396876  0.80811955  1
  Ti  Ti51  1  0.65559095  0.81949348  0.17063159  1
  Ti  Ti52  1  0.67525777  0.90003489  0.49842226  1
  Ti  Ti53  1  0.65615199  0.89821147  0.84061380  1
  Ti  Ti54  1  0.19194299  0.00537784  0.26923702  1
  Ti  Ti55  1  0.19914250  -0.05248469  0.47426911  1
  Ti  Ti56  1  0.18513063  -0.01080013  0.83960294  1
  Ti  Ti57  1  0.18333893  0.35544386  0.18561772  1
  Ti  Ti58  1  0.14533171  0.45967502  0.49544783  1
  Ti  Ti59  1  0.16321792  0.41271559  0.79869950  1
  Ti  Ti60  1  0.15445719  0.70138081  0.14380183  1
  Ti  Ti61  1  0.20476871  0.69322916  0.45687704  1
  Ti  Ti62  1  0.16942465  0.61560553  0.83619796  1
  Ti  Ti63  1  0.43719456  0.03460452  0.13227600  1
  Ti  Ti64  1  0.41623494  0.00034310  0.49399442  1
  Ti  Ti65  1  0.49587084  0.03830132  0.85578521  1
  Ti  Ti66  1  0.51827431  0.35265383  0.12575857  1
  Ti  Ti67  1  0.48105815  0.31351791  0.59620252  1
  Ti  Ti68  1  0.48470323  0.38154791  0.83832573  1
  Ti  Ti69  1  0.55496357  0.64239382  0.09976702  1
  Ti  Ti70  1  0.52502132  0.70791197  0.57174164  1
  Ti  Ti71  1  0.53193811  0.68494878  0.78367085  1
  Ti  Ti72  1  0.85624048  0.06500920  0.20689217  1
  Ti  Ti73  1  0.87769460  -0.05797785  0.52645395  1
  Ti  Ti74  1  0.85862586  -0.09358843  0.80817714  1
  Ti  Ti75  1  0.77789494  0.38872837  0.21319521  1
  Ti  Ti76  1  0.82355724  0.35402160  0.44664451  1
  Ti  Ti77  1  0.88257932  0.41099100  0.82932910  1
  Ti  Ti78  1  0.81907952  0.72675697  0.20966508  1
  Ti  Ti79  1  0.76923116  0.58848670  0.48669025  1
  Ti  Ti80  1  0.76331864  0.73165859  0.88725207  1
  Ti  Ti81  1  0.15469980  0.11565015  0.01411857  1
  Ti  Ti82  1  0.21222636  0.21162875  0.34043302  1
  Ti  Ti83  1  0.18897277  0.10373787  0.68547008  1
  Ti  Ti84  1  0.18036788  0.43672208  -0.00795067  1
  Ti  Ti85  1  0.09975510  0.55711271  0.34607965  1
  Ti  Ti86  1  0.11753815  0.56065883  0.65815340  1
  Ti  Ti87  1  0.19808065  0.88856235  0.04424686  1
  Ti  Ti88  1  0.12995491  0.82155150  0.32750363  1
  Ti  Ti89  1  0.21757109  0.80828862  0.75803825  1
  Ti  Ti90  1  0.57807425  0.19003790  0.01160845  1
  Ti  Ti91  1  0.48386899  0.19637304  0.24388438  1
  Ti  Ti92  1  0.53101628  0.14000237  0.64971620  1
  Ti  Ti93  1  0.46144928  0.49291575  0.02333564  1
  Ti  Ti94  1  0.44466916  0.54283258  0.36221406  1
  Ti  Ti95  1  0.44840822  0.52056609  0.70752388  1
  Ti  Ti96  1  0.47847006  0.84398398  -0.06875592  1
  Ti  Ti97  1  0.45727679  0.79526487  0.38982153  1
  Ti  Ti98  1  0.46666302  0.86090405  0.74022423  1
  Ti  Ti99  1  0.81222226  0.16341477  -0.00184405  1
  Ti  Ti100  1  0.79876078  0.18491645  0.34379843  1
  Ti  Ti101  1  0.86636501  0.21563742  0.72818218  1
  Ti  Ti102  1  0.89681716  0.48589890  0.01192874  1
  Ti  Ti103  1  0.86313546  0.51076016  0.32395806  1
  Ti  Ti104  1  0.84850964  0.53393688  0.69980367  1
  Ti  Ti105  1  0.84035832  0.87485463  -0.00297581  1
  Ti  Ti106  1  0.82149137  0.89492069  0.33583972  1
  Ti  Ti107  1  0.75853222  0.76029195  0.57671495  1
  Co  Co108  1  0.23582918  0.15054322  0.85680309  1
  Co  Co109  1  0.49737178  0.69133892  0.24406798  1
  Co  Co110  1  0.17537404  0.25942516  0.74045742  1
  Co  Co111  1  0.47617269  -0.00891143  0.66052876  1
  Co  Co112  1  0.77837062  0.05733452  0.46398417  1
  Co  Co113  1  0.04054936  0.71892150  0.39970565  1
  Co  Co114  1  1.03952410  0.45796534  0.89700827  1
  Co  Co115  1  0.64715390  0.46990580  0.11268619  1
  Co  Co116  1  0.74189634  0.35220224  0.74697110  1
  Co  Co117  1  0.57700834  0.42183640  0.67397133  1
  Co  Co118  1  0.92473334  0.14429978  0.44496239  1
  Co  Co119  1  0.10831770  0.09586078  0.38792638  1
  Co  Co120  1  0.48652785  0.38094360  0.28971250  1
  Co  Co121  1  0.52162605  0.86223319  0.24389099  1
  Co  Co122  1  0.56357965  0.01505252  0.22529774  1
  Co  Co123  1  0.95540044  0.81330475  0.28851538  1
  Co  Co124  1  0.30086923  0.32324211  0.87536338  1
  Co  Co125  1  0.14749040  0.28174397  0.90426740  1
  Co  Co126  1  0.00359723  0.47868351  0.73022672  1
  Co  Co127  1  0.97995794  0.15554151  0.29741974  1
  Co  Co128  1  0.46848219  0.53943680  0.53430562  1
  Co  Co129  1  0.02346275  0.18006958  0.68442987  1
  Co  Co130  1  0.67622723  0.85220556  0.99749056  1
  Co  Co131  1  0.75117131  0.80886559  0.73974253  1
  Co  Co132  1  0.24478002  0.84657005  0.21379402  1
  Co  Co133  1  0.13631410  0.26594022  0.06641233  1
  Co  Co134  1  0.30568207  0.47844395  0.10157798  1
  Co  Co135  1  0.88928138  0.09863526  0.59947041  1
  Co  Co136  1  0.93524706  0.60239647  0.43142252  1
  Co  Co137  1  0.34583688  0.37552340  0.72806087  1
  Co  Co138  1  0.35109789  1.04667596  0.78613625  1
  Co  Co139  1  0.52431541  0.80125439  0.07427332  1
  Co  Co140  1  0.42522245  0.19438536  0.08447574  1
  Co  Co141  1  0.46939494  0.39360975  0.45138975  1
  Co  Co142  1  0.80433730  0.21730534  0.52974670  1
  Co  Co143  1  0.91743653  1.04684993  0.05094349  1
  Co  Co144  1  0.80863008  0.57216135  0.86126173  1
  Co  Co145  1  0.58495538  0.03570259  0.51442657  1
  Co  Co146  1  1.01842868  0.31400762  0.79652309  1
  Co  Co147  1  0.61362940  0.81593149  0.66462585  1
  Co  Co148  1  0.49919795  0.08608518  0.37179875  1
  Co  Co149  1  0.54751354  0.92949150  0.39032506  1
  Co  Co150  1  -0.00675781  0.42331944  0.39486823  1
  Co  Co151  1  0.13131916  0.53362837  0.17055382  1
  Co  Co152  1  0.44944580  0.50596839  0.18947938  1
  Co  Co153  1  0.98961028  0.58306199  0.11072597  1
  Co  Co154  1  0.35070777  0.33466535  0.20182068  1
  Co  Co155  1  0.90775586  0.77056258  0.47932440  1
  Co  Co156  1  0.08849700  0.87225827  0.18158328  1
  Co  Co157  1  0.71450203  0.46246479  0.36995344  1
  Co  Co158  1  0.76100348  0.93776579  0.65211151  1
  Co  Co159  1  0.19281939  0.71227122  0.63331192  1
  Co  Co160  1  0.07510561  0.62151644  0.52040744  1
  Co  Co161  1  0.04307507  0.42378144  0.06516431  1
  Ni  Ni162  1  0.28012565  0.99621720  0.13319050  1
  Ni  Ni163  1  0.23620303  0.10453278  0.51132187  1
  Ni  Ni164  1  0.07035277  0.01876154  0.12141595  1
  Ni  Ni165  1  -0.00575373  0.75298718  0.12362981  1
  Ni  Ni166  1  0.78274475  0.05308080  0.77842376  1
  Ni  Ni167  1  0.09775254  0.59077523  0.99264120  1
  Ni  Ni168  1  0.27510683  0.53992456  0.41784572  1
  Ni  Ni169  1  0.65480188  0.07298441  0.91419632  1
  Ni  Ni170  1  0.19595119  0.39344779  0.63668012  1
  Ni  Ni171  1  0.19817389  0.73628285  0.95953456  1
  Ni  Ni172  1  0.37974418  0.66812843  0.44936342  1
  Ni  Ni173  1  0.45981959  0.63406213  0.93808817  1
  Ni  Ni174  1  0.14709281  0.38690918  0.34208901  1
  Ni  Ni175  1  0.10924370  0.84482005  0.89724506  1
  Ni  Ni176  1  0.73714408  0.95429615  0.17688318  1
  Ni  Ni177  1  0.37388212  0.72385843  0.69224322  1
  Ni  Ni178  1  0.73325529  0.61795728  0.30792993  1
  Ni  Ni179  1  0.13351148  0.94759682  0.64912224  1
  Ni  Ni180  1  0.75476206  0.01036081  0.02302377  1
  Ni  Ni181  1  0.05399503  0.69741280  0.73731753  1
  Ni  Ni182  1  0.65860621  0.27887397  0.15708386  1
  Ni  Ni183  1  0.62295903  1.02860690  0.74625822  1
  Ni  Ni184  1  0.90320517  0.83677193  0.64787085  1
  Ni  Ni185  1  0.29242839  0.83444041  0.38976728  1
  Ni  Ni186  1  0.56411351  0.27866186  0.74432129  1
  Ni  Ni187  1  0.30917917  0.88437423  0.89245451  1
  Ni  Ni188  1  0.90540816  0.07397321  0.88385892  1
  Ni  Ni189  1  0.79913333  0.28642884  0.88704912  1
  Ni  Ni190  1  0.12846862  0.22033501  0.56920823  1
  Ni  Ni191  1  0.59768383  0.41346748  0.96180868  1
  Ni  Ni192  1  0.34528217  0.10842650  0.29766346  1
  Ni  Ni193  1  0.60216936  0.71638639  0.93925794  1
  Ni  Ni194  1  0.91101871  0.30500762  0.29968292  1
  Ni  Ni195  1  0.36707621  0.11055080  0.62128162  1
  Ni  Ni196  1  0.51060216  0.25279841  0.40593394  1
  Ni  Ni197  1  0.72641988  0.47034952  0.61612801  1
  Ni  Ni198  1  0.35000721  0.76715731  0.01386525  1
  Ni  Ni199  1  0.38103845  0.64184630  0.13345159  1
  Ni  Ni200  1  0.45097742  0.26115982  0.94133848  1
  Ni  Ni201  1  0.59705836  0.57509375  0.63540844  1
  Ni  Ni202  1  0.27518184  0.52710152  0.72522353  1
  Ni  Ni203  1  0.85482945  0.36043806  0.62550549  1
  Ni  Ni204  1  0.12194612  0.15452594  0.21168636  1
  Ni  Ni205  1  0.81615475  0.55506489  0.14875354  1
  Ni  Ni206  1  0.94795712  0.78429353  0.89136759  1
  Ni  Ni207  1  0.81526147  0.22521985  0.17059486  1
  Ni  Ni208  1  0.87725001  0.70571444  0.75387693  1
  Ni  Ni209  1  0.72965914  0.70913784  0.06178786  1
  Ni  Ni210  1  1.01064664  0.89121553  0.43611717  1
  Ni  Ni211  1  0.89938029  0.33950870  0.09646376  1
  Ni  Ni212  1  0.51204400  0.87409652  0.54798623  1
  Ni  Ni213  1  0.58605391  0.61241572  0.42997813  1
  Ni  Ni214  1  0.77515254  0.75059641  0.40169024  1
  Ni  Ni215  1  0.22283686  0.31160720  0.47672250  1
