# generated using pymatgen
data_Ti2CoNi
_symmetry_space_group_name_H-M   'P 1'
_cell_length_a   14.53380743
_cell_length_b   14.57549803
_cell_length_c   14.56866390
_cell_angle_alpha   90.13334657
_cell_angle_beta   90.49266972
_cell_angle_gamma   90.18138890
_symmetry_Int_Tables_number   1
_chemical_formula_structural   Ti2CoNi
_chemical_formula_sum   'Ti108 Co54 Ni54'
_cell_volume   3086.05095800
_cell_formula_units_Z   54
loop_
 _symmetry_equiv_pos_site_id
 _symmetry_equiv_pos_as_xyz
  1  'x, y, z'
loop_
 _atom_site_type_symbol
 _atom_site_label
 _atom_site_symmetry_multiplicity
 _atom_site_fract_x
 _atom_site_fract_y
 _atom_site_fract_z
 _atom_site_occupancy
  Ti  Ti0  1  0.02961101  -0.02320870  0.00792959  1
  Ti  Ti1  1  -0.04578477  0.01099470  0.33613154  1
  Ti  Ti2  1  -0.03237812  0.03823032  0.70611207  1
  Ti  Ti3  1  -0.00725208  0.35248874  -0.00494749  1
  Ti  Ti4  1  0.01644720  0.27898670  0.36910684  1
  Ti  Ti5  1  0.05453283  0.27858516  0.66122561  1
  Ti  Ti6  1  0.00508000  0.67303651  0.01750459  1
  Ti  Ti7  1  -0.04239788  0.61269811  0.34335024  1
  Ti  Ti8  1  0.00256844  0.60975279  0.71483593  1
  Ti  Ti9  1  0.32762645  0.06917894  -0.01130229  1
  Ti  Ti10  1  0.28599727  -0.06136893  0.28221708  1
  Ti  Ti11  1  0.34461623  -0.01924735  0.68609005  1
  Ti  Ti12  1  0.33433194  0.29251405  0.03518747  1
  Ti  Ti13  1  0.39616287  0.32628835  0.31855176  1
  Ti  Ti14  1  0.32383557  0.36719645  0.63957020  1
  Ti  Ti15  1  0.36814424  0.70457272  -0.02751608  1
  Ti  Ti16  1  0.29491934  0.59440882  0.30613778  1
  Ti  Ti17  1  0.37026296  0.62148032  0.71512258  1
  Ti  Ti18  1  0.61952032  0.00368402  -0.01659740  1
  Ti  Ti19  1  0.60031714  -0.08519317  0.29589000  1
  Ti  Ti20  1  0.70451589  0.00883362  0.66609607  1
  Ti  Ti21  1  0.66261823  0.34442076  0.03739250  1
  Ti  Ti22  1  0.70457099  0.40066857  0.34578383  1
  Ti  Ti23  1  0.61975177  0.33764753  0.67628407  1
  Ti  Ti24  1  0.66286205  0.60822540  -0.00630518  1
  Ti  Ti25  1  0.72403652  0.64669874  0.30774661  1
  Ti  Ti26  1  0.68237874  0.68239650  0.60969220  1
  Ti  Ti27  1  -0.05280521  0.18628613  0.09281749  1
  Ti  Ti28  1  0.04249909  0.12874569  0.51696878  1
  Ti  Ti29  1  -0.04732091  0.18282185  0.84705018  1
  Ti  Ti30  1  0.06860321  0.52740866  0.16131419  1
  Ti  Ti31  1  -0.05764172  0.50872412  0.52199603  1
  Ti  Ti32  1  -0.08407073  0.44758371  0.74265147  1
  Ti  Ti33  1  -0.02290392  0.85485850  0.24272080  1
  Ti  Ti34  1  -0.01532773  0.87551641  0.51427409  1
  Ti  Ti35  1  0.02200334  0.83362678  0.84216373  1
  Ti  Ti36  1  0.31940699  0.13504867  0.17522924  1
  Ti  Ti37  1  0.28908243  0.14375910  0.53285858  1
  Ti  Ti38  1  0.33479896  0.23890326  0.81131880  1
  Ti  Ti39  1  0.31157623  0.54095432  0.08851427  1
  Ti  Ti40  1  0.36043992  0.47474881  0.45302538  1
  Ti  Ti41  1  0.32040117  0.56029467  0.88699749  1
  Ti  Ti42  1  0.43441087  0.81669470  0.25849424  1
  Ti  Ti43  1  0.30681380  0.83585985  0.45398555  1
  Ti  Ti44  1  0.32382583  0.88033446  0.94061010  1
  Ti  Ti45  1  0.61925278  0.17102316  0.13945172  1
  Ti  Ti46  1  0.69011632  0.11987120  0.47875775  1
  Ti  Ti47  1  0.64937217  0.16209676  0.79755177  1
  Ti  Ti48  1  0.67517828  0.52430522  0.18663892  1
  Ti  Ti49  1  0.64362594  0.55902072  0.45780055  1
  Ti  Ti50  1  0.66309903  0.45338616  0.88334413  1
  Ti  Ti51  1  0.69062473  0.76742083  0.12722178  1
  Ti  Ti52  1  0.69970129  0.86960158  0.52600053  1
  Ti  Ti53  1  0.62410916  0.86477899  0.78385925  1
  Ti  Ti54  1  0.18625067  -0.05026514  0.12451297  1
  Ti  Ti55  1  0.14863072  -0.00568761  0.42495326  1
  Ti  Ti56  1  0.16968384  -0.03831804  0.80258614  1
  Ti  Ti57  1  0.14559788  0.35136746  0.12274755  1
  Ti  Ti58  1  0.16524160  0.41547204  0.53141143  1
  Ti  Ti59  1  0.16293630  0.29600619  0.81604182  1
  Ti  Ti60  1  0.17524102  0.71287851  0.16017046  1
  Ti  Ti61  1  0.12388289  0.61716146  0.54163041  1
  Ti  Ti62  1  0.13454320  0.64175405  0.85094916  1
  Ti  Ti63  1  0.45894363  0.03310474  0.24424700  1
  Ti  Ti64  1  0.45774546  0.10720564  0.47782315  1
  Ti  Ti65  1  0.45893047  -0.03194190  0.85357624  1
  Ti  Ti66  1  0.56355806  0.36347560  0.20524404  1
  Ti  Ti67  1  0.49015896  0.33623678  0.51038974  1
  Ti  Ti68  1  0.46357142  0.44564551  0.79575445  1
  Ti  Ti69  1  0.51674034  0.68063519  0.12790756  1
  Ti  Ti70  1  0.45578692  0.63254624  0.53627666  1
  Ti  Ti71  1  0.55856791  0.67207340  0.79651184  1
  Ti  Ti72  1  0.89858625  -0.00276217  0.12836905  1
  Ti  Ti73  1  0.84919073  0.03087244  0.51209055  1
  Ti  Ti74  1  0.83441699  -0.10319200  0.78409385  1
  Ti  Ti75  1  0.81774553  0.33214120  0.17459046  1
  Ti  Ti76  1  0.84000460  0.27112431  0.47471107  1
  Ti  Ti77  1  0.78013033  0.27527441  0.86087078  1
  Ti  Ti78  1  0.85587500  0.64918344  0.15628807  1
  Ti  Ti79  1  0.81735601  0.72671420  0.46644536  1
  Ti  Ti80  1  0.86027067  0.70927093  0.85606274  1
  Ti  Ti81  1  0.16307382  0.14180622  0.07834235  1
  Ti  Ti82  1  0.20909306  0.22110855  0.35604217  1
  Ti  Ti83  1  0.18066436  0.08464628  0.66439660  1
  Ti  Ti84  1  0.16070605  0.46898057  -0.04401279  1
  Ti  Ti85  1  0.14668168  0.39979063  0.30339388  1
  Ti  Ti86  1  0.13241962  0.46629904  0.76129202  1
  Ti  Ti87  1  0.16244236  0.79718232  -0.00799587  1
  Ti  Ti88  1  0.12450547  0.76776700  0.36866855  1
  Ti  Ti89  1  0.18335577  0.83488657  0.64745049  1
  Ti  Ti90  1  0.49933952  0.15447694  -0.07345256  1
  Ti  Ti91  1  0.57412577  0.13565294  0.34080674  1
  Ti  Ti92  1  0.46167048  0.11794640  0.73072731  1
  Ti  Ti93  1  0.46434175  0.44088362  -0.00913168  1
  Ti  Ti94  1  0.50378856  0.61766559  0.31387596  1
  Ti  Ti95  1  0.57427287  0.53778107  0.66988636  1
  Ti  Ti96  1  0.53738876  0.79797075  -0.02764515  1
  Ti  Ti97  1  0.50191186  0.80828728  0.44739280  1
  Ti  Ti98  1  0.41258125  0.80533656  0.64794949  1
  Ti  Ti99  1  0.81405478  0.11268998  -0.03779095  1
  Ti  Ti100  1  0.79986303  0.11464323  0.28570649  1
  Ti  Ti101  1  0.74882777  0.19227125  0.64215718  1
  Ti  Ti102  1  0.90932788  0.49895605  0.05966361  1
  Ti  Ti103  1  0.90627732  0.42154125  0.33591299  1
  Ti  Ti104  1  0.75349034  0.50616683  0.62966253  1
  Ti  Ti105  1  0.78248874  0.88624952  -0.02273332  1
  Ti  Ti106  1  0.78675527  0.90515970  0.24507053  1
  Ti  Ti107  1  0.89180807  0.75543231  0.65675079  1
  Co  Co108  1  0.87703638  0.28103477  0.73131226  1
  Co  Co109  1  0.84676295  0.75074202  0.28058124  1
  Co  Co110  1  0.61944166  0.71268394  0.45606630  1
  Co  Co111  1  0.83393382  0.29773371  0.01468435  1
  Co  Co112  1  0.19266716  0.62267294  0.69724080  1
  Co  Co113  1  0.38227706  0.69706844  0.39730978  1
  Co  Co114  1  0.28422266  0.48099476  0.74823598  1
  Co  Co115  1  0.85647689  0.88627729  0.40263217  1
  Co  Co116  1  0.28217940  0.28708745  0.19851599  1
  Co  Co117  1  0.99645195  0.88331499  0.69647194  1
  Co  Co118  1  0.66456992  0.04580404  0.23870516  1
  Co  Co119  1  0.77318971  0.34585758  0.61314576  1
  Co  Co120  1  0.54228439  0.88617410  0.13847567  1
  Co  Co121  1  0.59474811  0.74487376  0.26836632  1
  Co  Co122  1  0.75469899  0.47378814  0.04972749  1
  Co  Co123  1  0.81330542  0.55729901  0.40617117  1
  Co  Co124  1  0.82373030  0.56754761  0.92592395  1
  Co  Co125  1  0.83775694  0.50235634  0.22288066  1
  Co  Co126  1  0.06484118  0.12701351  0.34802592  1
  Co  Co127  1  0.05053763  0.46517090  0.63153189  1
  Co  Co128  1  0.78957767  0.42580595  0.47789923  1
  Co  Co129  1  0.69405207  0.93066292  0.11263086  1
  Co  Co130  1  0.90632039  0.14910220  0.41905628  1
  Co  Co131  1  0.86824116  0.81882363  0.12094152  1
  Co  Co132  1  0.86223334  0.41765506  0.90266193  1
  Co  Co133  1  0.46068008  0.95440837  1.01651020  1
  Co  Co134  1  0.18118734  0.79429068  0.83247888  1
  Co  Co135  1  0.74286999  1.00505189  0.86056666  1
  Co  Co136  1  0.20535332  0.53237912  0.42531999  1
  Co  Co137  1  0.43705362  0.47897971  0.62502740  1
  Co  Co138  1  0.60293466  0.30306481  0.87252155  1
  Co  Co139  1  0.82605991  0.10326169  0.76175274  1
  Co  Co140  1  0.84348542  0.60132622  0.73546339  1
  Co  Co141  1  0.59209533  0.02301578  0.79562309  1
  Co  Co142  1  0.46277003  0.95378166  0.38408376  1
  Co  Co143  1  0.28302898  0.53899822  0.58411479  1
  Co  Co144  1  0.55884010  0.29590033  0.36313978  1
  Co  Co145  1  0.98024148  0.37449692  0.18671413  1
  Co  Co146  1  0.85340088  0.62039671  0.57733310  1
  Co  Co147  1  0.51149363  0.28032344  0.05024584  1
  Co  Co148  1  0.66368330  0.27195501  0.49321583  1
  Co  Co149  1  0.05402481  0.82424834  0.10644193  1
  Co  Co150  1  0.35838062  0.96807354  0.13244436  1
  Co  Co151  1  0.10133320  0.23296505  0.21901478  1
  Co  Co152  1  0.44723545  0.30561413  0.90203573  1
  Co  Co153  1  0.19948602  0.07891649  0.27099462  1
  Co  Co154  1  0.93991734  0.18376150  0.24968539  1
  Co  Co155  1  0.47482343  0.21419203  0.22273337  1
  Co  Co156  1  0.66713691  0.18694224  0.97675507  1
  Co  Co157  1  0.99189049  0.70235636  0.53343831  1
  Co  Co158  1  0.31809284  1.01633285  0.41834583  1
  Co  Co159  1  0.35528219  0.15102350  0.34030413  1
  Co  Co160  1  1.01101085  0.69510940  0.20981394  1
  Co  Co161  1  0.07244684  0.74125140  0.69305601  1
  Ni  Ni162  1  0.49068820  0.28551434  0.74800794  1
  Ni  Ni163  1  0.46051599  0.80361490  0.81864481  1
  Ni  Ni164  1  0.91148019  0.16992035  0.61583911  1
  Ni  Ni165  1  0.53970915  0.45982971  0.34967845  1
  Ni  Ni166  1  0.41892769  0.22302432  0.61147238  1
  Ni  Ni167  1  0.50138404  0.59716716  0.94112990  1
  Ni  Ni168  1  0.91954885  0.00322792  0.88619770  1
  Ni  Ni169  1  0.80755481  0.70932649  0.01111451  1
  Ni  Ni170  1  0.40269892  0.81450728  0.09211036  1
  Ni  Ni171  1  0.31354300  0.84570359  0.77557979  1
  Ni  Ni172  1  0.30636036  0.39447479  0.89080485  1
  Ni  Ni173  1  0.94027167  0.82672929  0.97536651  1
  Ni  Ni174  1  0.00695969  0.34483192  0.83211354  1
  Ni  Ni175  1  0.35094293  0.68189045  0.17277333  1
  Ni  Ni176  1  0.00565190  0.51703122  0.90785358  1
  Ni  Ni177  1  0.11060130  0.93568098  0.27458331  1
  Ni  Ni178  1  0.20479903  0.15385673  0.90704744  1
  Ni  Ni179  1  0.08040938  0.97530180  0.59480052  1
  Ni  Ni180  1  0.09512242  0.14591141  0.77892765  1
  Ni  Ni181  1  0.32122013  0.29777709  0.47056030  1
  Ni  Ni182  1  0.23727920  0.23529412  0.67338779  1
  Ni  Ni183  1  0.75615406  0.07741333  0.10626633  1
  Ni  Ni184  1  0.53247119  0.95760751  0.65923365  1
  Ni  Ni185  1  0.62937153  0.42184375  0.53200528  1
  Ni  Ni186  1  0.46723549  0.11242409  0.08438562  1
  Ni  Ni187  1  0.18187316  0.62266872  0.01420893  1
  Ni  Ni188  1  0.58088479  0.98364979  0.50100962  1
  Ni  Ni189  1  -0.03472047  0.76994251  0.38831953  1
  Ni  Ni190  1  0.05035184  0.07038990  0.18208938  1
  Ni  Ni191  1  0.31246005  0.07248999  0.81898461  1
  Ni  Ni192  1  0.69898913  0.24319764  0.28581632  1
  Ni  Ni193  1  0.52220024  0.51814249  0.12333945  1
  Ni  Ni194  1  0.57185785  0.13086883  0.60618041  1
  Ni  Ni195  1  0.18099228  0.30395853  -0.02568154  1
  Ni  Ni196  1  0.26708425  0.77192123  0.28926816  1
  Ni  Ni197  1  0.40488513  0.39990978  0.15245685  1
  Ni  Ni198  1  0.75595639  0.40432453  0.76263676  1
  Ni  Ni199  1  0.68632297  0.75924584  0.90587749  1
  Ni  Ni200  1  0.93189975  0.35696313  0.58838398  1
  Ni  Ni201  1  0.70395303  0.58641414  0.79776296  1
  Ni  Ni202  1  0.12446692  0.60731518  0.30290207  1
  Ni  Ni203  1  0.71145655  0.81073933  0.36481138  1
  Ni  Ni204  1  0.41360327  0.94497888  0.53896162  1
  Ni  Ni205  1  0.05943623  0.19548667  0.96516575  1
  Ni  Ni206  1  0.73402913  0.74802502  0.74580001  1
  Ni  Ni207  1  0.16026144  0.25029433  0.52744335  1
  Ni  Ni208  1  0.05246691  0.47594203  0.40562987  1
  Ni  Ni209  1  0.18745295  0.98452287  0.95835394  1
  Ni  Ni210  1  0.28334564  0.70978319  0.58281500  1
  Ni  Ni211  1  0.57065044  0.79908862  0.61114163  1
  Ni  Ni212  1  0.26901050  0.45361797  0.22073398  1
  Ni  Ni213  1  0.84221307  0.90794169  0.61418194  1
  Ni  Ni214  1  0.72292898  -0.02081345  0.39589891  1
  Ni  Ni215  1  0.24440031  -0.03807562  0.55370441  1
