# generated using pymatgen
data_Ti2CoNi
_symmetry_space_group_name_H-M   'P 1'
_cell_length_a   14.57455715
_cell_length_b   14.68196136
_cell_length_c   14.59206899
_cell_angle_alpha   89.88161429
_cell_angle_beta   90.12865467
_cell_angle_gamma   89.87781336
_symmetry_Int_Tables_number   1
_chemical_formula_structural   Ti2CoNi
_chemical_formula_sum   'Ti108 Co54 Ni54'
_cell_volume   3122.43427022
_cell_formula_units_Z   54
loop_
 _symmetry_equiv_pos_site_id
 _symmetry_equiv_pos_as_xyz
  1  'x, y, z'
loop_
 _atom_site_type_symbol
 _atom_site_label
 _atom_site_symmetry_multiplicity
 _atom_site_fract_x
 _atom_site_fract_y
 _atom_site_fract_z
 _atom_site_occupancy
  Ti  Ti0  1  -0.03409756  -0.01962814  -0.04051564  1
  Ti  Ti1  1  0.06172275  -0.07848684  0.31512625  1
  Ti  Ti2  1  0.02040143  -0.04709349  0.64082686  1
  Ti  Ti3  1  0.07380775  0.32149111  -0.00397872  1
  Ti  Ti4  1  -0.12067344  0.30599717  0.37082708  1
  Ti  Ti5  1  0.03855712  0.31836197  0.72736765  1
  Ti  Ti6  1  -0.00399983  0.66445579  0.09689704  1
  Ti  Ti7  1  0.00486538  0.59208942  0.30385988  1
  Ti  Ti8  1  0.02917742  0.63845508  0.61350117  1
  Ti  Ti9  1  0.25377102  -0.04579079  -0.04772525  1
  Ti  Ti10  1  0.37146601  -0.03789913  0.39642392  1
  Ti  Ti11  1  0.32476794  -0.00153283  0.59808504  1
  Ti  Ti12  1  0.37926049  0.32243414  0.02244452  1
  Ti  Ti13  1  0.23402152  0.26352502  0.30779060  1
  Ti  Ti14  1  0.33487444  0.26754976  0.73717484  1
  Ti  Ti15  1  0.34009362  0.63167511  -0.05262955  1
  Ti  Ti16  1  0.36398395  0.66320713  0.31098846  1
  Ti  Ti17  1  0.35211937  0.61769501  0.66141267  1
  Ti  Ti18  1  0.69624667  0.06518751  0.04508906  1
  Ti  Ti19  1  0.66555012  -0.06875247  0.33489554  1
  Ti  Ti20  1  0.69553727  -0.05795704  0.67596044  1
  Ti  Ti21  1  0.70066728  0.36287268  -0.11396135  1
  Ti  Ti22  1  0.65534591  0.39390750  0.31978446  1
  Ti  Ti23  1  0.65075539  0.42249395  0.69388699  1
  Ti  Ti24  1  0.69587765  0.64980259  -0.03001643  1
  Ti  Ti25  1  0.67785665  0.73739295  0.28131831  1
  Ti  Ti26  1  0.66346134  0.70839125  0.68749888  1
  Ti  Ti27  1  -0.04523486  0.23397223  0.19828396  1
  Ti  Ti28  1  0.02720938  0.16072063  0.48281952  1
  Ti  Ti29  1  -0.00548079  0.13050475  0.71945942  1
  Ti  Ti30  1  -0.01693395  0.46155942  0.11123260  1
  Ti  Ti31  1  -0.05719328  0.46011190  0.48969404  1
  Ti  Ti32  1  -0.02467993  0.55530352  0.80440011  1
  Ti  Ti33  1  -0.01336784  0.87953891  0.14011528  1
  Ti  Ti34  1  0.06829474  0.81499560  0.51604775  1
  Ti  Ti35  1  -0.06550919  0.85316660  0.80564500  1
  Ti  Ti36  1  0.34280895  0.18841339  0.16372304  1
  Ti  Ti37  1  0.36144026  0.16714362  0.46695822  1
  Ti  Ti38  1  0.41245645  0.16664735  0.90033974  1
  Ti  Ti39  1  0.28785157  0.49355052  0.08573967  1
  Ti  Ti40  1  0.31049410  0.52033180  0.48598585  1
  Ti  Ti41  1  0.27831502  0.50333878  0.77754403  1
  Ti  Ti42  1  0.37330345  0.84789985  0.23059456  1
  Ti  Ti43  1  0.27998966  0.78754465  0.55462126  1
  Ti  Ti44  1  0.39199370  0.83228261  0.85352199  1
  Ti  Ti45  1  0.70442515  0.27567145  0.05072270  1
  Ti  Ti46  1  0.66380636  0.24890774  0.49538118  1
  Ti  Ti47  1  0.62751514  0.16441217  0.88486159  1
  Ti  Ti48  1  0.70176598  0.56268096  0.20397044  1
  Ti  Ti49  1  0.62422098  0.49614018  0.49964383  1
  Ti  Ti50  1  0.63464729  0.55268102  0.82231213  1
  Ti  Ti51  1  0.67979499  0.89149722  0.12950518  1
  Ti  Ti52  1  0.64632389  0.75920990  0.48092934  1
  Ti  Ti53  1  0.69956983  0.84461733  0.85056109  1
  Ti  Ti54  1  0.22515143  0.04984112  0.14881510  1
  Ti  Ti55  1  0.19247400  0.04749677  0.45888183  1
  Ti  Ti56  1  0.16410681  -0.02060902  0.76518205  1
  Ti  Ti57  1  0.10494061  0.33510699  0.18688970  1
  Ti  Ti58  1  0.25088133  0.32614931  0.52355028  1
  Ti  Ti59  1  0.21412108  0.33686648  0.86951884  1
  Ti  Ti60  1  0.20093602  0.62341425  0.19905852  1
  Ti  Ti61  1  0.19975467  0.65705303  0.42221461  1
  Ti  Ti62  1  0.13810543  0.71153968  0.88584584  1
  Ti  Ti63  1  0.48314655  -0.01121509  0.12928974  1
  Ti  Ti64  1  0.51307291  -0.02765866  0.63410744  1
  Ti  Ti65  1  0.51180818  -0.00251179  0.83052798  1
  Ti  Ti66  1  0.43539671  0.36451512  0.22150382  1
  Ti  Ti67  1  0.46828077  0.34296705  0.44393808  1
  Ti  Ti68  1  0.53808843  0.28342023  0.77577913  1
  Ti  Ti69  1  0.51034528  0.64019316  0.19530454  1
  Ti  Ti70  1  0.46822769  0.66493005  0.50715087  1
  Ti  Ti71  1  0.49827401  0.67897935  0.81426217  1
  Ti  Ti72  1  0.92875611  0.04546156  0.22832617  1
  Ti  Ti73  1  0.85413126  0.01660991  0.41974977  1
  Ti  Ti74  1  0.77790784  0.04322637  0.83682108  1
  Ti  Ti75  1  0.82776426  0.36806739  0.19786186  1
  Ti  Ti76  1  0.90925506  0.27689171  0.56500741  1
  Ti  Ti77  1  0.90245417  0.29444600  0.87502430  1
  Ti  Ti78  1  0.81163546  0.70504764  0.14102789  1
  Ti  Ti79  1  0.81241400  0.67814469  0.53815403  1
  Ti  Ti80  1  0.82264678  0.68442744  0.83302320  1
  Ti  Ti81  1  0.12816744  0.09956866  -0.04016672  1
  Ti  Ti82  1  0.10284824  0.12094562  0.28612819  1
  Ti  Ti83  1  0.18448182  0.16454012  0.75854737  1
  Ti  Ti84  1  0.15983747  0.52178451  -0.07677055  1
  Ti  Ti85  1  0.14665357  0.42455865  0.38488604  1
  Ti  Ti86  1  0.14386455  0.47190084  0.61869307  1
  Ti  Ti87  1  0.13181331  0.83756404  0.03622209  1
  Ti  Ti88  1  0.20063229  0.79734263  0.29968556  1
  Ti  Ti89  1  0.15070943  0.78309480  0.70509595  1
  Ti  Ti90  1  0.52512238  0.18818041  0.11104874  1
  Ti  Ti91  1  0.51343653  0.10406304  0.34109499  1
  Ti  Ti92  1  0.50000091  0.16642921  0.63540794  1
  Ti  Ti93  1  0.60620769  0.49230535  0.02703562  1
  Ti  Ti94  1  0.47084056  0.51148096  0.36268400  1
  Ti  Ti95  1  0.46287717  0.44853829  0.71549723  1
  Ti  Ti96  1  0.45989313  0.79042164  0.05330865  1
  Ti  Ti97  1  0.50386474  0.79724650  0.36653957  1
  Ti  Ti98  1  0.43678189  0.78434216  0.66836980  1
  Ti  Ti99  1  0.92702482  0.14946633  0.03386853  1
  Ti  Ti100  1  0.75330092  0.16153276  0.31219095  1
  Ti  Ti101  1  0.78001686  0.12918885  0.64897344  1
  Ti  Ti102  1  0.81306645  0.48940888  0.03448976  1
  Ti  Ti103  1  0.81177414  0.51649729  0.36134839  1
  Ti  Ti104  1  0.80056436  0.53420454  0.69484749  1
  Ti  Ti105  1  0.87218959  0.81746466  0.00168587  1
  Ti  Ti106  1  0.83964540  0.86376624  0.25602756  1
  Ti  Ti107  1  0.85354846  0.87695936  0.55563302  1
  Co  Co108  1  0.26914209  0.52796705  0.32058084  1
  Co  Co109  1  0.77279854  0.94465085  0.96045217  1
  Co  Co110  1  0.40285482  0.34444288  0.85960600  1
  Co  Co111  1  0.17671538  0.20784695  0.44610035  1
  Co  Co112  1  0.43708272  0.53583155  0.85119765  1
  Co  Co113  1  0.26202314  0.77196400  0.14044491  1
  Co  Co114  1  0.88179352  0.66754450  0.68461758  1
  Co  Co115  1  0.31937725  0.45660692  0.93120446  1
  Co  Co116  1  0.01607500  0.71258501  0.77315475  1
  Co  Co117  1  0.30367372  0.70107536  0.79325767  1
  Co  Co118  1  0.63403821  0.08369489  0.57998096  1
  Co  Co119  1  0.20098235  0.63829948  0.58737637  1
  Co  Co120  1  0.48121560  0.06478446  0.49937413  1
  Co  Co121  1  0.60456544  0.92706564  -0.01919875  1
  Co  Co122  1  0.68932267  0.41205299  0.14583909  1
  Co  Co123  1  0.50400069  0.95395780  0.28824064  1
  Co  Co124  1  0.56135747  0.77506451  0.92919119  1
  Co  Co125  1  0.12883077  0.07318001  0.61424038  1
  Co  Co126  1  0.36135031  0.08352747  0.03841165  1
  Co  Co127  1  0.26132418  0.39400286  0.20868611  1
  Co  Co128  1  0.39057289  0.52066371  0.21048239  1
  Co  Co129  1  0.71180492  0.80002759  0.00579663  1
  Co  Co130  1  0.81324720  0.38975798  0.77048480  1
  Co  Co131  1  0.33588694  0.79091605  0.40219431  1
  Co  Co132  1  0.25059154  0.20209326  0.93696701  1
  Co  Co133  1  0.32626864  0.38596761  0.37178869  1
  Co  Co134  1  0.54511821  0.35058695  0.10203103  1
  Co  Co135  1  0.70635273  0.93619297  0.51160221  1
  Co  Co136  1  0.03566396  -0.01224736  0.47317364  1
  Co  Co137  1  0.32067646  0.92079825  0.09598723  1
  Co  Co138  1  0.76699641  0.37081579  0.45367753  1
  Co  Co139  1  0.66042710  0.23883965  0.67313521  1
  Co  Co140  1  0.58329914  0.82714189  0.59908033  1
  Co  Co141  1  0.43008228  0.93659988  0.97421697  1
  Co  Co142  1  0.44792209  0.48162231  0.03044144  1
  Co  Co143  1  0.02266013  0.57885667  0.97321094  1
  Co  Co144  1  0.96521796  0.79763711  0.64681636  1
  Co  Co145  1  0.16713375  0.90871861  0.17996227  1
  Co  Co146  1  0.53859311  0.28027241  0.95727189  1
  Co  Co147  1  0.62255925  0.08718432  0.74278752  1
  Co  Co148  1  0.36124374  0.65230180  0.11388238  1
  Co  Co149  1  0.55208950  0.48192022  0.20260263  1
  Co  Co150  1  0.81582340  0.17219675  0.47578616  1
  Co  Co151  1  0.18427399  0.65609566  0.03732689  1
  Co  Co152  1  0.12751170  0.49876073  0.08075797  1
  Co  Co153  1  0.54872331  0.42366096  0.87136696  1
  Co  Co154  1  0.86900846  0.25026434  0.71961427  1
  Co  Co155  1  0.10070119  0.75460282  0.17716083  1
  Co  Co156  1  0.96159883  0.71412791  0.92213263  1
  Co  Co157  1  0.93639727  0.15213242  0.34892959  1
  Co  Co158  1  0.77400587  0.35064210  0.61447830  1
  Co  Co159  1  0.18017565  0.92049441  0.59723087  1
  Co  Co160  1  0.15307401  0.61164251  0.74609649  1
  Co  Co161  1  0.55933682  0.93661840  0.45367394  1
  Ni  Ni162  1  0.28916594  0.06905592  0.85151913  1
  Ni  Ni163  1  0.46372649  0.49204891  0.55435455  1
  Ni  Ni164  1  0.43585293  0.85585100  0.51830515  1
  Ni  Ni165  1  0.05112574  0.27988268  0.34454616  1
  Ni  Ni166  1  0.66517920  0.07639892  0.42707455  1
  Ni  Ni167  1  0.93924002  0.86023948  0.40392165  1
  Ni  Ni168  1  0.19730358  0.88617310  0.43584587  1
  Ni  Ni169  1  0.10380563  0.45422053  0.78109211  1
  Ni  Ni170  1  0.08983055  0.55306132  0.47814673  1
  Ni  Ni171  1  0.89799200  0.32381081  0.04522970  1
  Ni  Ni172  1  0.27553370  0.16270052  0.60623045  1
  Ni  Ni173  1  0.93466124  0.42978287  0.65398041  1
  Ni  Ni174  1  0.40273233  0.29652049  0.59443694  1
  Ni  Ni175  1  0.78633256  0.19115861  0.93489008  1
  Ni  Ni176  1  0.52643338  0.07176879  0.98841384  1
  Ni  Ni177  1  0.87264512  0.55305645  0.19695910  1
  Ni  Ni178  1  0.92323973  0.11900324  0.86622576  1
  Ni  Ni179  1  0.08598037  0.89152819  0.87987098  1
  Ni  Ni180  1  0.58159588  0.63176396  0.37254636  1
  Ni  Ni181  1  0.62311838  0.08855127  0.21156324  1
  Ni  Ni182  1  0.06413488  0.21817754  0.86686230  1
  Ni  Ni183  1  0.40082710  0.23126957  0.32078997  1
  Ni  Ni184  1  0.05682792  0.03865535  0.11409968  1
  Ni  Ni185  1  0.38466139  0.08609582  0.72677929  1
  Ni  Ni186  1  0.54355203  0.59345172  0.66282420  1
  Ni  Ni187  1  0.96804979  0.42543426  0.28850218  1
  Ni  Ni188  1  0.94006849  0.62571822  0.45361166  1
  Ni  Ni189  1  0.82971531  0.67380282  0.31883805  1
  Ni  Ni190  1  0.96148657  0.43807231  0.93202151  1
  Ni  Ni191  1  0.22206538  0.27732350  0.08314407  1
  Ni  Ni192  1  0.76338248  1.01178841  0.22697163  1
  Ni  Ni193  1  0.28880483  0.78838390  0.98102498  1
  Ni  Ni194  1  0.55665297  0.34130164  0.58872972  1
  Ni  Ni195  1  0.29415952  0.87553846  0.71921389  1
  Ni  Ni196  1  0.86540833  0.98167298  0.70519578  1
  Ni  Ni197  1  0.79559480  0.51657293  0.87412051  1
  Ni  Ni198  1  0.66533102  0.25915783  0.20919235  1
  Ni  Ni199  1  0.12553395  0.23611809  0.61218861  1
  Ni  Ni200  1  0.63220367  0.70707433  0.11151531  1
  Ni  Ni201  1  0.78168794  0.81679475  0.40792609  1
  Ni  Ni202  1  0.92183567  0.07644425  0.57410756  1
  Ni  Ni203  1  0.28646798  0.10254773  0.31485765  1
  Ni  Ni204  1  0.11916670  0.49138499  0.24089807  1
  Ni  Ni205  1  0.78590902  0.50929109  0.53589086  1
  Ni  Ni206  1  0.79402854  0.15838250  0.14668918  1
  Ni  Ni207  1  0.06807354  0.34578846  0.51120495  1
  Ni  Ni208  1  0.80347769  0.80945730  0.70377806  1
  Ni  Ni209  1  0.85265405  0.98694426  0.09346900  1
  Ni  Ni210  1  0.31631284  0.43355641  0.63174547  1
  Ni  Ni211  1  0.54524284  0.82316082  0.20088030  1
  Ni  Ni212  1  0.56100343  0.26191310  0.33333836  1
  Ni  Ni213  1  0.95980725  0.75369466  0.25385713  1
  Ni  Ni214  1  0.55473067  0.84599578  0.76832078  1
  Ni  Ni215  1  0.05559859  0.73011970  0.38121649  1
