# generated using pymatgen
data_Ti2CoNi
_symmetry_space_group_name_H-M   'P 1'
_cell_length_a   14.56357269
_cell_length_b   14.60344361
_cell_length_c   14.64339715
_cell_angle_alpha   90.26890843
_cell_angle_beta   90.01899660
_cell_angle_gamma   89.67556856
_symmetry_Int_Tables_number   1
_chemical_formula_structural   Ti2CoNi
_chemical_formula_sum   'Ti108 Co54 Ni54'
_cell_volume   3114.24862403
_cell_formula_units_Z   54
loop_
 _symmetry_equiv_pos_site_id
 _symmetry_equiv_pos_as_xyz
  1  'x, y, z'
loop_
 _atom_site_type_symbol
 _atom_site_label
 _atom_site_symmetry_multiplicity
 _atom_site_fract_x
 _atom_site_fract_y
 _atom_site_fract_z
 _atom_site_occupancy
  Ti  Ti0  1  0.03156314  0.02003770  0.00231926  1
  Ti  Ti1  1  0.00987863  0.02130619  0.28780805  1
  Ti  Ti2  1  0.01672901  -0.07259343  0.71750516  1
  Ti  Ti3  1  -0.02327516  0.33735038  -0.06277048  1
  Ti  Ti4  1  -0.01811099  0.29119070  0.31183520  1
  Ti  Ti5  1  0.02442232  0.35294357  0.61646053  1
  Ti  Ti6  1  0.01854961  0.73492595  0.05062151  1
  Ti  Ti7  1  0.01370641  0.70268086  0.41135469  1
  Ti  Ti8  1  0.00214473  0.72324263  0.61565986  1
  Ti  Ti9  1  0.31585693  -0.03711652  0.06285412  1
  Ti  Ti10  1  0.34817566  0.06600935  0.37056469  1
  Ti  Ti11  1  0.34422415  0.03119382  0.60559711  1
  Ti  Ti12  1  0.29883342  0.32793021  0.02586963  1
  Ti  Ti13  1  0.34202520  0.42435149  0.28132410  1
  Ti  Ti14  1  0.29057387  0.36280292  0.62067498  1
  Ti  Ti15  1  0.33577637  0.57730534  -0.01240534  1
  Ti  Ti16  1  0.28577097  0.61748961  0.36904433  1
  Ti  Ti17  1  0.32838004  0.69447215  0.71421130  1
  Ti  Ti18  1  0.61416022  0.04481198  -0.02352538  1
  Ti  Ti19  1  0.64853285  0.05884760  0.34940608  1
  Ti  Ti20  1  0.64100178  -0.04841015  0.66186281  1
  Ti  Ti21  1  0.68095029  0.34073304  -0.06352623  1
  Ti  Ti22  1  0.65794461  0.42427827  0.31478107  1
  Ti  Ti23  1  0.68216386  0.31548486  0.66309324  1
  Ti  Ti24  1  0.62509251  0.60914047  0.01926606  1
  Ti  Ti25  1  0.66245966  0.72902376  0.40616317  1
  Ti  Ti26  1  0.69119041  0.70841420  0.66798968  1
  Ti  Ti27  1  -0.00216187  0.25776063  0.12343351  1
  Ti  Ti28  1  0.02539191  0.16457880  0.54572724  1
  Ti  Ti29  1  0.03194678  0.20318841  0.79683091  1
  Ti  Ti30  1  0.03585553  0.45960108  0.10001701  1
  Ti  Ti31  1  0.00471380  0.53906314  0.54941557  1
  Ti  Ti32  1  0.01020195  0.47833512  0.82187725  1
  Ti  Ti33  1  0.01320431  0.79461835  0.23412762  1
  Ti  Ti34  1  -0.05738523  0.86498121  0.50793388  1
  Ti  Ti35  1  0.07796664  0.85671591  0.89289681  1
  Ti  Ti36  1  0.36444254  0.15623744  0.13832119  1
  Ti  Ti37  1  0.31368081  0.20384352  0.49782147  1
  Ti  Ti38  1  0.32888186  0.13791026  0.78413394  1
  Ti  Ti39  1  0.31948213  0.61171019  0.18412871  1
  Ti  Ti40  1  0.30512790  0.50936402  0.51032872  1
  Ti  Ti41  1  0.47184002  0.53741433  0.85318695  1
  Ti  Ti42  1  0.33516820  0.81402457  0.17683241  1
  Ti  Ti43  1  0.38219085  0.80753321  0.47155378  1
  Ti  Ti44  1  0.29280885  0.88429386  0.84174284  1
  Ti  Ti45  1  0.63497735  0.12054204  0.16353152  1
  Ti  Ti46  1  0.64220298  0.20178934  0.47881262  1
  Ti  Ti47  1  0.62438361  0.17441188  0.82680298  1
  Ti  Ti48  1  0.61853276  0.59225997  0.22117804  1
  Ti  Ti49  1  0.62476376  0.46377059  0.53449612  1
  Ti  Ti50  1  0.77130770  0.57013805  0.83097844  1
  Ti  Ti51  1  0.65155604  0.81216545  0.20861997  1
  Ti  Ti52  1  0.74238815  0.87257332  0.49980108  1
  Ti  Ti53  1  0.75626831  0.80837667  0.83877808  1
  Ti  Ti54  1  0.18680956  -0.01476231  0.28180563  1
  Ti  Ti55  1  0.22298440  -0.05531421  0.48139221  1
  Ti  Ti56  1  0.15634009  0.03877533  0.82674835  1
  Ti  Ti57  1  0.18711697  0.32519015  0.21277918  1
  Ti  Ti58  1  0.15434595  0.39916419  0.39888280  1
  Ti  Ti59  1  0.18765669  0.27766600  0.87304611  1
  Ti  Ti60  1  0.16140203  0.59396051  0.07546110  1
  Ti  Ti61  1  0.18344647  0.74754373  0.49963007  1
  Ti  Ti62  1  0.14292048  0.65885145  0.85501382  1
  Ti  Ti63  1  0.50144723  -0.03775955  0.12643075  1
  Ti  Ti64  1  0.48980473  -0.02712384  0.47328311  1
  Ti  Ti65  1  0.49865249  -0.01968050  0.82749205  1
  Ti  Ti66  1  0.54478730  0.30054069  0.21301163  1
  Ti  Ti67  1  0.48380149  0.32138681  0.57988437  1
  Ti  Ti68  1  0.48811068  0.34157699  0.85457266  1
  Ti  Ti69  1  0.49641424  0.73949541  0.12054547  1
  Ti  Ti70  1  0.47915096  0.65235865  0.44874885  1
  Ti  Ti71  1  0.51276802  0.69565028  0.77053734  1
  Ti  Ti72  1  0.88066095  -0.05430476  0.16506515  1
  Ti  Ti73  1  0.85450546  0.02078266  0.42039719  1
  Ti  Ti74  1  0.81393498  0.03714545  0.85598775  1
  Ti  Ti75  1  0.77930820  0.30615158  0.19684191  1
  Ti  Ti76  1  0.88409586  0.28374416  0.49260670  1
  Ti  Ti77  1  0.80881433  0.24706977  0.83099189  1
  Ti  Ti78  1  0.81537886  0.64251142  0.15516757  1
  Ti  Ti79  1  0.77196101  0.60090330  0.50631268  1
  Ti  Ti80  1  0.92421716  0.69224610  0.89251967  1
  Ti  Ti81  1  0.22809149  0.12284747  -0.02170658  1
  Ti  Ti82  1  0.14152319  0.16188732  0.38970802  1
  Ti  Ti83  1  0.18751599  0.20989738  0.67328528  1
  Ti  Ti84  1  0.18010781  0.46484902  -0.07898910  1
  Ti  Ti85  1  0.01636391  0.50725982  0.29808506  1
  Ti  Ti86  1  0.18663273  0.51619210  0.71417212  1
  Ti  Ti87  1  0.22022117  0.77794679  0.01111656  1
  Ti  Ti88  1  0.20682530  0.78797453  0.31307387  1
  Ti  Ti89  1  0.17026039  0.79540600  0.70624183  1
  Ti  Ti90  1  0.51479354  0.22706005  0.01616630  1
  Ti  Ti91  1  0.48165364  0.19982094  0.37073916  1
  Ti  Ti92  1  0.58653197  0.13769983  0.63515880  1
  Ti  Ti93  1  0.52084377  0.42911522  0.04101409  1
  Ti  Ti94  1  0.47839293  0.48010064  0.39298025  1
  Ti  Ti95  1  0.46507542  0.54341419  0.63436304  1
  Ti  Ti96  1  0.57764833  0.82578837  -0.04798332  1
  Ti  Ti97  1  0.48125921  0.88238477  0.30015133  1
  Ti  Ti98  1  0.45659965  0.86825543  0.66314262  1
  Ti  Ti99  1  0.88809682  0.14859973  -0.00120417  1
  Ti  Ti100  1  0.83472293  0.12998272  0.24933894  1
  Ti  Ti101  1  0.89163848  0.12162778  0.68603241  1
  Ti  Ti102  1  0.78180298  0.46998182  0.04387258  1
  Ti  Ti103  1  0.83723947  0.43957232  0.35223905  1
  Ti  Ti104  1  0.86245243  0.46123231  0.69490342  1
  Ti  Ti105  1  0.78845403  0.90660508  -0.00725093  1
  Ti  Ti106  1  0.80739772  0.81064291  0.29694577  1
  Ti  Ti107  1  0.83525863  0.89467376  0.68039659  1
  Co  Co108  1  0.46652311  0.07158288  0.70304865  1
  Co  Co109  1  0.05090429  0.57050662  0.95585558  1
  Co  Co110  1  0.45172692  0.92613801  0.97340644  1
  Co  Co111  1  0.44700895  0.08292851  0.01522663  1
  Co  Co112  1  0.00920122  0.61858251  0.16000892  1
  Co  Co113  1  0.14083229  0.56383816  0.43348812  1
  Co  Co114  1  0.43710471  0.81787116  0.84207325  1
  Co  Co115  1  0.76363238  0.61174884  0.31988049  1
  Co  Co116  1  0.72063441  0.51879739  0.64859073  1
  Co  Co117  1  0.47053638  0.12707759  0.51972431  1
  Co  Co118  1  0.91614697  0.65237193  0.28438270  1
  Co  Co119  1  0.54168558  0.72581076  0.29829714  1
  Co  Co120  1  0.38510149  0.79102842  0.01155107  1
  Co  Co121  1  0.50481181  0.46012529  0.21020697  1
  Co  Co122  1  0.61620844  0.56508751  0.75367513  1
  Co  Co123  1  0.18075498  0.94844429  0.97908198  1
  Co  Co124  1  0.84854992  0.72664116  0.42456790  1
  Co  Co125  1  0.90589172  0.88011788  0.83789287  1
  Co  Co126  1  0.35853589  0.23084968  0.92050251  1
  Co  Co127  1  0.45202213  0.59368954  0.27551941  1
  Co  Co128  1  0.31115613  0.30636236  0.77252380  1
  Co  Co129  1  0.34608857  0.99683236  0.21763277  1
  Co  Co130  1  0.63380891  0.89190293  0.37321862  1
  Co  Co131  1  0.34809438  0.41820156  0.89880287  1
  Co  Co132  1  0.62337164  0.57010932  0.40149714  1
  Co  Co133  1  0.19225794  0.88699041  0.15457154  1
  Co  Co134  1  0.15744460  0.27511091  0.51859355  1
  Co  Co135  1  0.16456429  0.73001576  0.16033396  1
  Co  Co136  1  0.48340064  0.67778131  0.94848117  1
  Co  Co137  1  0.38046257  0.73762343  0.31130156  1
  Co  Co138  1  0.83356073  0.74744197  0.58286172  1
  Co  Co139  1  0.16351897  0.04386035  0.12917037  1
  Co  Co140  1  0.25457360  0.27673672  0.36595047  1
  Co  Co141  1  0.04219950  0.91323481  0.12518085  1
  Co  Co142  1  0.55625233  0.42017433  0.70949498  1
  Co  Co143  1  0.39147809  0.43717188  0.72956952  1
  Co  Co144  1  0.47808538  0.14058783  0.86562245  1
  Co  Co145  1  0.85437585  0.72241409  0.74018894  1
  Co  Co146  1  0.71211448  0.41207477  0.78566562  1
  Co  Co147  1  0.97245817  0.09243342  0.14116360  1
  Co  Co148  1  0.32454372  0.90014735  0.35139643  1
  Co  Co149  1  0.37388338  0.20458200  0.64367172  1
  Co  Co150  1  0.84252495  0.41518146  0.88240877  1
  Co  Co151  1  0.08059047  0.16492492  0.23970892  1
  Co  Co152  1  -0.01123285  0.41220515  0.44287422  1
  Co  Co153  1  0.90910775  0.56693376  0.42134488  1
  Co  Co154  1  0.37079284  0.25516664  0.26969326  1
  Co  Co155  1  0.96102762  0.14891300  0.38770267  1
  Co  Co156  1  0.65306733  0.43432314  0.13712091  1
  Co  Co157  1  0.49773883  0.25268344  0.73030880  1
  Co  Co158  1  0.93347566  0.88423440  0.34899849  1
  Co  Co159  1  0.94786370  0.00647925  0.58331992  1
  Co  Co160  1  0.94661222  0.87249008  0.99592264  1
  Co  Co161  1  0.63509015  0.01810130  0.50574464  1
  Ni  Ni162  1  0.84262599  0.44736165  0.53057085  1
  Ni  Ni163  1  0.77425996  0.19496402  0.58660760  1
  Ni  Ni164  1  0.78426565  0.66251758  0.97676914  1
  Ni  Ni165  1  0.48440835  0.71296960  0.60485255  1
  Ni  Ni166  1  0.06214104  0.18770525  0.96662704  1
  Ni  Ni167  1  0.93367921  0.32745977  0.76180676  1
  Ni  Ni168  1  0.31594205  0.71073297  0.88232139  1
  Ni  Ni169  1  0.66283556  0.27395809  0.08877292  1
  Ni  Ni170  1  0.97356767  0.59960760  0.72494555  1
  Ni  Ni171  1  0.17826848  0.20445528  0.10624674  1
  Ni  Ni172  1  0.18724946  0.50227211  0.26228965  1
  Ni  Ni173  1  0.72171316  0.17494729  0.96986898  1
  Ni  Ni174  1  0.20248232  0.96796457  0.68106191  1
  Ni  Ni175  1  0.32803408  0.66704259  0.55291292  1
  Ni  Ni176  1  0.24576695  0.14437355  0.25330755  1
  Ni  Ni177  1  0.83014528  0.30464026  0.02274684  1
  Ni  Ni178  1  0.91276952  0.56927799  0.03181680  1
  Ni  Ni179  1  0.59950269  0.83340348  0.77552135  1
  Ni  Ni180  1  0.85435039  0.79220277  0.10755039  1
  Ni  Ni181  1  0.05661244  0.01851815  0.45504062  1
  Ni  Ni182  1  0.69158015  0.76419784  0.05755224  1
  Ni  Ni183  1  0.12647849  0.33736369  0.02837109  1
  Ni  Ni184  1  0.66946759  0.97065353  0.83317154  1
  Ni  Ni185  1  0.46973371  0.57925382  0.09482841  1
  Ni  Ni186  1  0.24591104  0.45707122  0.11504256  1
  Ni  Ni187  1  0.79057409  0.17431452  0.41007082  1
  Ni  Ni188  1  0.64784267  0.68448521  0.86957895  1
  Ni  Ni189  1  0.34065123  0.02903240  0.90431567  1
  Ni  Ni190  1  0.56058076  0.33662908  0.41704931  1
  Ni  Ni191  1  0.07079792  0.07842105  0.68285574  1
  Ni  Ni192  1  0.11782884  0.64582350  0.28881133  1
  Ni  Ni193  1  0.78074126  1.02669206  0.58037223  1
  Ni  Ni194  1  0.13007884  0.36359881  0.74476290  1
  Ni  Ni195  1  0.29725026  0.84806336  0.61292110  1
  Ni  Ni196  1  0.37558984  0.35589532  0.44752086  1
  Ni  Ni197  1  0.09676352  0.88354241  0.57119658  1
  Ni  Ni198  1  0.49624376  0.05652866  0.27222436  1
  Ni  Ni199  1  0.01644171  0.75764695  0.77487740  1
  Ni  Ni200  1  0.57330786  0.83131740  0.52878195  1
  Ni  Ni201  1  0.91211650  0.39978978  0.19115082  1
  Ni  Ni202  1  0.40102373  0.34761060  0.14111458  1
  Ni  Ni203  1  0.66078729  0.93353847  0.09428185  1
  Ni  Ni204  1  0.16056956  0.62288031  0.59537382  1
  Ni  Ni205  1  0.72643768  0.34375396  0.47203210  1
  Ni  Ni206  1  0.97967367  0.05130398  0.84155662  1
  Ni  Ni207  1  0.77282746  0.05866804  0.09037604  1
  Ni  Ni208  1  0.73003834  0.96882438  0.24206092  1
  Ni  Ni209  1  0.72957682  0.09954120  0.72270159  1
  Ni  Ni210  1  0.15151187  0.44976034  0.55867498  1
  Ni  Ni211  1  0.18461219  0.09488444  0.54776077  1
  Ni  Ni212  1  0.08848225  0.86619692  0.40024277  1
  Ni  Ni213  1  0.67195112  0.23137369  0.30600774  1
  Ni  Ni214  1  0.62149308  0.48934821  0.90316637  1
  Ni  Ni215  1  0.30154990  0.55931965  0.82003709  1
