# generated using pymatgen
data_Ti2CoNi
_symmetry_space_group_name_H-M   'P 1'
_cell_length_a   14.44539879
_cell_length_b   14.53749012
_cell_length_c   14.44665943
_cell_angle_alpha   89.81725281
_cell_angle_beta   90.25462624
_cell_angle_gamma   90.02101028
_symmetry_Int_Tables_number   1
_chemical_formula_structural   Ti2CoNi
_chemical_formula_sum   'Ti108 Co54 Ni54'
_cell_volume   3033.75062030
_cell_formula_units_Z   54
loop_
 _symmetry_equiv_pos_site_id
 _symmetry_equiv_pos_as_xyz
  1  'x, y, z'
loop_
 _atom_site_type_symbol
 _atom_site_label
 _atom_site_symmetry_multiplicity
 _atom_site_fract_x
 _atom_site_fract_y
 _atom_site_fract_z
 _atom_site_occupancy
  Ti  Ti0  1  -0.04681219  -0.04434882  -0.02682020  1
  Ti  Ti1  1  -0.02910014  0.05821893  0.30472951  1
  Ti  Ti2  1  0.05671027  0.04188574  0.63166866  1
  Ti  Ti3  1  0.02708292  0.30735507  0.04233780  1
  Ti  Ti4  1  -0.03848741  0.38978110  0.34340254  1
  Ti  Ti5  1  -0.08405415  0.31406032  0.60300531  1
  Ti  Ti6  1  0.00158159  0.61600819  -0.11564599  1
  Ti  Ti7  1  -0.02913461  0.70176404  0.31759579  1
  Ti  Ti8  1  0.01986175  0.73612516  0.64903389  1
  Ti  Ti9  1  0.27597237  0.03234708  0.01570303  1
  Ti  Ti10  1  0.31233852  0.00443426  0.35039931  1
  Ti  Ti11  1  0.28251017  0.02260552  0.68410381  1
  Ti  Ti12  1  0.33225168  0.32644623  -0.04836401  1
  Ti  Ti13  1  0.27394549  0.40969114  0.43310480  1
  Ti  Ti14  1  0.33620674  0.24084599  0.65425831  1
  Ti  Ti15  1  0.37669462  0.70602646  -0.05614298  1
  Ti  Ti16  1  0.38243916  0.68571932  0.24109430  1
  Ti  Ti17  1  0.31813269  0.67289558  0.75224212  1
  Ti  Ti18  1  0.73256890  -0.00852245  -0.00044198  1
  Ti  Ti19  1  0.58328893  -0.04442540  0.29901785  1
  Ti  Ti20  1  0.69113041  -0.03401651  0.67343031  1
  Ti  Ti21  1  0.54358303  0.39844631  0.04088659  1
  Ti  Ti22  1  0.77823873  0.31569136  0.26999423  1
  Ti  Ti23  1  0.67595863  0.30745956  0.61626218  1
  Ti  Ti24  1  0.69169622  0.68729271  -0.00693658  1
  Ti  Ti25  1  0.58163859  0.58210422  0.36237792  1
  Ti  Ti26  1  0.64288160  0.70885838  0.67799314  1
  Ti  Ti27  1  0.06941180  0.18933268  0.20986951  1
  Ti  Ti28  1  -0.07222830  0.15887098  0.48156217  1
  Ti  Ti29  1  0.00813279  0.13749211  0.86634894  1
  Ti  Ti30  1  -0.03111896  0.54437717  0.17631206  1
  Ti  Ti31  1  0.06574232  0.59233089  0.53119708  1
  Ti  Ti32  1  -0.04861675  0.44237084  0.75629217  1
  Ti  Ti33  1  -0.00053052  0.76910042  0.12986202  1
  Ti  Ti34  1  0.04498672  0.89150685  0.52241034  1
  Ti  Ti35  1  -0.04119339  0.81652687  0.81213999  1
  Ti  Ti36  1  0.32461453  0.14004516  0.19456883  1
  Ti  Ti37  1  0.33968585  0.08129866  0.52221267  1
  Ti  Ti38  1  0.29315054  0.15684209  0.84490004  1
  Ti  Ti39  1  0.31920505  0.53722782  0.15090016  1
  Ti  Ti40  1  0.35554053  0.50020615  0.58445382  1
  Ti  Ti41  1  0.42134494  0.50577039  0.79720746  1
  Ti  Ti42  1  0.22183087  0.79971250  0.12284968  1
  Ti  Ti43  1  0.36070478  0.86315713  0.53128456  1
  Ti  Ti44  1  0.29012987  0.96240238  0.84219244  1
  Ti  Ti45  1  0.67259865  0.10895455  0.19296756  1
  Ti  Ti46  1  0.60983318  0.22192911  0.47157023  1
  Ti  Ti47  1  0.68100869  0.12726431  0.88050347  1
  Ti  Ti48  1  0.65438699  0.53632832  0.17482785  1
  Ti  Ti49  1  0.66552012  0.47695228  0.49837494  1
  Ti  Ti50  1  0.76241147  0.49773161  0.88318582  1
  Ti  Ti51  1  0.58818362  0.83510774  0.10542484  1
  Ti  Ti52  1  0.63424949  0.80669818  0.43914009  1
  Ti  Ti53  1  0.74144217  0.82554693  0.81879478  1
  Ti  Ti54  1  0.10888539  -0.01045131  0.10073809  1
  Ti  Ti55  1  0.11233226  0.03172815  0.42321852  1
  Ti  Ti56  1  0.12059817  -0.12217079  0.73395183  1
  Ti  Ti57  1  0.22991578  0.33058350  0.20945861  1
  Ti  Ti58  1  0.11016567  0.36044728  0.56281700  1
  Ti  Ti59  1  0.13741681  0.30804798  0.87610511  1
  Ti  Ti60  1  0.13536212  0.63692068  0.19365648  1
  Ti  Ti61  1  0.27313613  0.61598521  0.45172602  1
  Ti  Ti62  1  0.21278300  0.61180707  0.89164842  1
  Ti  Ti63  1  0.43476827  -0.09514811  0.19963409  1
  Ti  Ti64  1  0.57941427  -0.01129261  0.48428558  1
  Ti  Ti65  1  0.49629311  -0.02597632  0.78750427  1
  Ti  Ti66  1  0.48215338  0.30894367  0.19324504  1
  Ti  Ti67  1  0.42483934  0.26154786  0.49868133  1
  Ti  Ti68  1  0.49717002  0.28597798  0.83230992  1
  Ti  Ti69  1  0.49041211  0.61754644  0.08181754  1
  Ti  Ti70  1  0.48798378  0.69591272  0.50604113  1
  Ti  Ti71  1  0.54384072  0.76256104  0.88782502  1
  Ti  Ti72  1  0.80661144  -0.03268064  0.24029711  1
  Ti  Ti73  1  0.89083461  -0.02367480  0.45405346  1
  Ti  Ti74  1  0.82503545  0.00864789  0.80459810  1
  Ti  Ti75  1  0.87017714  0.36835434  0.13225869  1
  Ti  Ti76  1  0.79129784  0.34206090  0.45443102  1
  Ti  Ti77  1  0.81206332  0.29533689  0.80625298  1
  Ti  Ti78  1  0.78466720  0.69993172  0.18078979  1
  Ti  Ti79  1  0.86948735  0.62660090  0.55598811  1
  Ti  Ti80  1  0.83411932  0.67598449  0.85004138  1
  Ti  Ti81  1  0.17618192  0.21049343  0.05897646  1
  Ti  Ti82  1  0.23255306  0.20354381  0.37565599  1
  Ti  Ti83  1  0.15927787  0.19238298  0.71467703  1
  Ti  Ti84  1  0.16474485  0.45568106  0.04732931  1
  Ti  Ti85  1  0.17510175  0.49380326  0.27880847  1
  Ti  Ti86  1  0.10776130  0.55545929  0.72544266  1
  Ti  Ti87  1  0.12613874  0.80483710  -0.05030083  1
  Ti  Ti88  1  0.13562068  0.88716511  0.28265240  1
  Ti  Ti89  1  0.19095030  0.79617234  0.57749064  1
  Ti  Ti90  1  0.55933383  0.16768990  0.04191820  1
  Ti  Ti91  1  0.47682709  0.18671894  0.33421203  1
  Ti  Ti92  1  0.56626397  0.11141131  0.65596400  1
  Ti  Ti93  1  0.36916221  0.51453072  -0.02907773  1
  Ti  Ti94  1  0.53779382  0.37099867  0.35996551  1
  Ti  Ti95  1  0.57466895  0.47412218  0.68264242  1
  Ti  Ti96  1  0.43608871  0.90930969  -0.00570928  1
  Ti  Ti97  1  0.51171016  0.77645987  0.31164517  1
  Ti  Ti98  1  0.46210608  0.78825297  0.69341578  1
  Ti  Ti99  1  0.77942479  0.22770572  0.02397785  1
  Ti  Ti100  1  0.76545874  0.13921089  0.38632121  1
  Ti  Ti101  1  0.91071770  0.15167378  0.72111566  1
  Ti  Ti102  1  0.91498454  0.47793373  -0.00424020  1
  Ti  Ti103  1  0.80130814  0.56471197  0.37649894  1
  Ti  Ti104  1  0.80549034  0.45159559  0.63904119  1
  Ti  Ti105  1  0.82768330  0.80723035  -0.00152275  1
  Ti  Ti106  1  0.81854320  0.81364271  0.39667092  1
  Ti  Ti107  1  0.89336072  0.91179185  0.65544869  1
  Co  Co108  1  0.36161493  0.75154108  0.40287125  1
  Co  Co109  1  0.41402762  0.38288052  0.68073438  1
  Co  Co110  1  0.96935132  0.86379750  0.36200227  1
  Co  Co111  1  0.30872589  0.83633926  0.27371237  1
  Co  Co112  1  0.34811545  0.70408206  0.58596007  1
  Co  Co113  1  0.21836066  0.87030792  0.42053795  1
  Co  Co114  1  0.74251161  0.85810017  0.11457815  1
  Co  Co115  1  1.00344003  0.26762920  0.74872658  1
  Co  Co116  1  0.93873314  0.23199545  0.31038311  1
  Co  Co117  1  0.95650074  0.05625207  0.14046584  1
  Co  Co118  1  0.36785613  0.42990211  0.28541847  1
  Co  Co119  1  0.24545782  0.39377379  0.63576903  1
  Co  Co120  1  0.35931491  0.28886345  0.33220318  1
  Co  Co121  1  0.58729645  1.00323555  0.13240167  1
  Co  Co122  1  0.10640775  0.61843666  0.36098967  1
  Co  Co123  1  0.15083427  0.03953048  0.78465672  1
  Co  Co124  1  0.11143173  0.97254442  0.94354619  1
  Co  Co125  1  0.81429672  0.07216776  0.09175485  1
  Co  Co126  1  0.30983380  0.85384310  0.68035848  1
  Co  Co127  1  0.52289580  0.54895588  0.53288947  1
  Co  Co128  1  0.42679833  0.48361042  0.42551199  1
  Co  Co129  1  0.97836423  0.37459968  0.88358402  1
  Co  Co130  1  0.44104492  0.91015246  0.38199038  1
  Co  Co131  1  0.97011423  0.74744509  0.96499680  1
  Co  Co132  1  0.27153694  0.50694628  0.73187376  1
  Co  Co133  1  0.39121052  0.83893502  0.82886911  1
  Co  Co134  1  0.21711080  0.71323103  0.31986002  1
  Co  Co135  1  0.69013869  0.83968239  0.27190962  1
  Co  Co136  1  0.03390585  0.13065699  0.01435240  1
  Co  Co137  1  0.40163343  0.41507077  0.11010366  1
  Co  Co138  1  0.81965304  0.16280965  0.22604182  1
  Co  Co139  1  0.31393725  0.58061830  0.30999307  1
  Co  Co140  1  0.89359087  0.92111324  0.10003839  1
  Co  Co141  1  0.89996449  0.79559356  0.53902335  1
  Co  Co142  1  0.40746213  1.06006111  0.90604767  1
  Co  Co143  1  -0.09294204  0.24843274  0.92192740  1
  Co  Co144  1  0.16935807  0.12588761  0.54086315  1
  Co  Co145  1  0.06130027  0.18323317  0.40650911  1
  Co  Co146  1  0.92411778  0.20248742  0.09272997  1
  Co  Co147  1  0.48346202  0.52908797  0.22876808  1
  Co  Co148  1  0.09455198  0.48228681  0.90052304  1
  Co  Co149  1  0.65954837  0.24783636  0.76919642  1
  Co  Co150  1  0.83854545  0.73206618  0.69704635  1
  Co  Co151  1  0.16481399  0.14074882  0.91442469  1
  Co  Co152  1  0.25169051  0.26566383  0.52897241  1
  Co  Co153  1  -0.00403100  0.90584466  0.21084164  1
  Co  Co154  1  0.85746573  0.82304926  0.22796203  1
  Co  Co155  1  0.55159933  0.45053346  0.87109070  1
  Co  Co156  1  0.12348643  0.39125940  0.74329812  1
  Co  Co157  1  0.52401518  0.38085896  0.54482281  1
  Co  Co158  1  0.84576963  0.10142905  0.93033649  1
  Co  Co159  1  0.25002889  0.79785142  0.83377992  1
  Co  Co160  1  0.58796347  0.85051944  0.74956531  1
  Co  Co161  1  0.70733270  0.69548330  0.33841111  1
  Ni  Ni162  1  0.33643338  0.27997693  0.10417606  1
  Ni  Ni163  1  0.67318554  0.63556515  0.84543765  1
  Ni  Ni164  1  0.71565809  0.05875350  0.51447245  1
  Ni  Ni165  1  0.47520383  0.99348696  0.61548913  1
  Ni  Ni166  1  0.60645433  0.68939788  0.20616403  1
  Ni  Ni167  1  0.56746729  0.85809484  0.58813703  1
  Ni  Ni168  1  0.40144118  0.76534781  0.09403609  1
  Ni  Ni169  1  0.26479572  0.63866446  0.04977003  1
  Ni  Ni170  1  0.65645120  0.96262033  0.84474559  1
  Ni  Ni171  1  0.43491016  0.05179495  0.08806805  1
  Ni  Ni172  1  0.73790883  0.13963027  0.69096863  1
  Ni  Ni173  1  0.12453811  0.30876448  0.31988071  1
  Ni  Ni174  1  0.69293362  0.39803990  0.76358046  1
  Ni  Ni175  1  0.08781859  0.61907610  0.02683977  1
  Ni  Ni176  1  0.78902022  0.53705033  1.06656317  1
  Ni  Ni177  1  0.70467230  0.66183001  0.49765910  1
  Ni  Ni178  1  0.71868319  0.57644251  0.63488531  1
  Ni  Ni179  1  0.08586042  0.74980340  0.45702776  1
  Ni  Ni180  1  0.46418495  0.61855550  0.67508566  1
  Ni  Ni181  1  0.64080800  0.31429432  0.91646686  1
  Ni  Ni182  1  0.62605131  0.24301584  0.28541750  1
  Ni  Ni183  1  0.03272550  0.20459158  0.60037452  1
  Ni  Ni184  1  0.10680833  0.46878252  0.42200321  1
  Ni  Ni185  1  0.99358273  0.97514989  0.81028462  1
  Ni  Ni186  1  0.27881889  0.31226962  0.77956971  1
  Ni  Ni187  1  0.69129634  0.39108200  0.16854774  1
  Ni  Ni188  1  0.51933909  0.59806841  0.90706677  1
  Ni  Ni189  1  0.56251029  0.01043008  0.96971147  1
  Ni  Ni190  1  0.64597199  0.85817019  0.95950966  1
  Ni  Ni191  1  0.67495319  0.45132340  0.32370179  1
  Ni  Ni192  1  0.38764163  0.17550033  0.99807151  1
  Ni  Ni193  1  0.88037137  0.58021911  0.71935394  1
  Ni  Ni194  1  0.85090356  0.05902837  0.60791622  1
  Ni  Ni195  1  0.73952562  -0.04766412  0.38009022  1
  Ni  Ni196  1  0.27883209  0.97716384  0.16865349  1
  Ni  Ni197  1  0.46533617  0.06486873  0.42480012  1
  Ni  Ni198  1  0.96915211  0.55238328  0.37394950  1
  Ni  Ni199  1  0.42596800  0.12345160  0.75871575  1
  Ni  Ni200  1  0.20639502  0.96050539  0.55012951  1
  Ni  Ni201  1  0.17614898  0.07103441  0.25494299  1
  Ni  Ni202  1  0.94850542  0.46495872  0.52004041  1
  Ni  Ni203  1  0.73742324  0.39807697  0.01614515  1
  Ni  Ni204  1  0.79152434  0.21586906  0.55527208  1
  Ni  Ni205  1  0.47961621  0.06881490  0.23480987  1
  Ni  Ni206  1  0.74258521  0.89026124  0.54171497  1
  Ni  Ni207  1  0.12433967  0.72683551  0.78081013  1
  Ni  Ni208  1  0.20310294  0.61342120  0.61827373  1
  Ni  Ni209  1  0.80746600  0.49460945  0.22249728  1
  Ni  Ni210  1  0.05231693  0.38833611  0.17895124  1
  Ni  Ni211  1  0.63952192  0.52770446  -0.00835444  1
  Ni  Ni212  1  0.64663170  0.26666034  0.11405102  1
  Ni  Ni213  1  0.25412416  0.44176542  0.86804434  1
  Ni  Ni214  1  0.90086829  0.64352139  0.05855050  1
  Ni  Ni215  1  0.52909128  0.26544198  0.65966789  1
