# generated using pymatgen
data_Ti2CoNi
_symmetry_space_group_name_H-M   'P 1'
_cell_length_a   14.61551162
_cell_length_b   14.68255891
_cell_length_c   14.57307175
_cell_angle_alpha   89.82811765
_cell_angle_beta   89.88763192
_cell_angle_gamma   89.82232009
_symmetry_Int_Tables_number   1
_chemical_formula_structural   Ti2CoNi
_chemical_formula_sum   'Ti108 Co54 Ni54'
_cell_volume   3127.24572782
_cell_formula_units_Z   54
loop_
 _symmetry_equiv_pos_site_id
 _symmetry_equiv_pos_as_xyz
  1  'x, y, z'
loop_
 _atom_site_type_symbol
 _atom_site_label
 _atom_site_symmetry_multiplicity
 _atom_site_fract_x
 _atom_site_fract_y
 _atom_site_fract_z
 _atom_site_occupancy
  Ti  Ti0  1  -0.03825008  -0.00621938  0.05321696  1
  Ti  Ti1  1  0.05093239  0.05189326  0.37248991  1
  Ti  Ti2  1  -0.04542419  -0.03491655  0.58642427  1
  Ti  Ti3  1  0.01621534  0.28630373  0.03901244  1
  Ti  Ti4  1  0.05506453  0.31612037  0.25647070  1
  Ti  Ti5  1  0.00848055  0.34736348  0.73816947  1
  Ti  Ti6  1  -0.00084579  0.68302368  0.05946083  1
  Ti  Ti7  1  -0.05594889  0.65161576  0.32517784  1
  Ti  Ti8  1  -0.01916983  0.66979872  0.63350037  1
  Ti  Ti9  1  0.41134047  -0.06894905  0.00167242  1
  Ti  Ti10  1  0.36144436  0.03237993  0.32520839  1
  Ti  Ti11  1  0.22622606  -0.02130597  0.69759895  1
  Ti  Ti12  1  0.35347175  0.40526600  -0.03022000  1
  Ti  Ti13  1  0.38094287  0.33560742  0.37657451  1
  Ti  Ti14  1  0.38601601  0.35018782  0.60249123  1
  Ti  Ti15  1  0.31734055  0.74790515  0.00885619  1
  Ti  Ti16  1  0.32983858  0.68312495  0.31975353  1
  Ti  Ti17  1  0.31261364  0.68066067  0.67370287  1
  Ti  Ti18  1  0.63257462  -0.04393488  0.01288220  1
  Ti  Ti19  1  0.75587826  0.05663703  0.34133674  1
  Ti  Ti20  1  0.67356887  0.08208274  0.66674050  1
  Ti  Ti21  1  0.66679890  0.29679669  0.05094743  1
  Ti  Ti22  1  0.69216591  0.26920778  0.38896944  1
  Ti  Ti23  1  0.67639590  0.39405232  0.67716148  1
  Ti  Ti24  1  0.65744250  0.76903600  -0.06985193  1
  Ti  Ti25  1  0.64025266  0.64798990  0.36834599  1
  Ti  Ti26  1  0.65187246  0.66853594  0.65902494  1
  Ti  Ti27  1  0.01075626  0.12685866  0.19391673  1
  Ti  Ti28  1  -0.02876627  0.15898760  0.53537053  1
  Ti  Ti29  1  -0.00502463  0.13316718  0.74838943  1
  Ti  Ti30  1  0.03737946  0.47995535  0.12639560  1
  Ti  Ti31  1  0.02201593  0.54210875  0.48613409  1
  Ti  Ti32  1  -0.03284111  0.54067214  0.83971719  1
  Ti  Ti33  1  0.00675209  0.82473211  0.21473210  1
  Ti  Ti34  1  -0.01298321  0.81161438  0.44168540  1
  Ti  Ti35  1  0.05354989  0.78746065  0.79565444  1
  Ti  Ti36  1  0.31885991  0.15580998  0.16666753  1
  Ti  Ti37  1  0.31779989  0.05756922  0.51781869  1
  Ti  Ti38  1  0.32997136  0.11307225  0.83723306  1
  Ti  Ti39  1  0.34101217  0.49754706  0.22250109  1
  Ti  Ti40  1  0.39267318  0.56239421  0.53035868  1
  Ti  Ti41  1  0.35881620  0.56676287  0.86693398  1
  Ti  Ti42  1  0.30230780  0.89523208  0.20431559  1
  Ti  Ti43  1  0.30443285  0.85727240  0.55068505  1
  Ti  Ti44  1  0.33461488  0.89362725  0.83331837  1
  Ti  Ti45  1  0.71052075  0.18605162  0.19499334  1
  Ti  Ti46  1  0.60950988  0.12666599  0.49413573  1
  Ti  Ti47  1  0.62485251  0.12058300  0.86132832  1
  Ti  Ti48  1  0.63363920  0.45623595  0.12657344  1
  Ti  Ti49  1  0.68372838  0.46152649  0.47159983  1
  Ti  Ti50  1  0.65976003  0.39205001  0.87975148  1
  Ti  Ti51  1  0.71337205  0.82159206  0.13440430  1
  Ti  Ti52  1  0.68908314  0.80935087  0.46939643  1
  Ti  Ti53  1  0.68968680  0.93701075  0.79954210  1
  Ti  Ti54  1  0.16397392  0.01774838  0.09883376  1
  Ti  Ti55  1  0.12949622  -0.06192463  0.52535927  1
  Ti  Ti56  1  0.10916726  0.01371814  0.88932391  1
  Ti  Ti57  1  0.20424400  0.36436718  0.11335538  1
  Ti  Ti58  1  0.13065753  0.31247612  0.48060853  1
  Ti  Ti59  1  0.18847223  0.30976661  0.83436189  1
  Ti  Ti60  1  0.12838072  0.64638386  0.21656625  1
  Ti  Ti61  1  0.20098091  0.56042771  0.51822862  1
  Ti  Ti62  1  0.17579295  0.64238402  0.85738019  1
  Ti  Ti63  1  0.46604918  0.03535004  0.14671923  1
  Ti  Ti64  1  0.48888374  -0.06834433  0.49600833  1
  Ti  Ti65  1  0.48887593  0.01978086  0.77328065  1
  Ti  Ti66  1  0.45506944  0.34631305  0.15636536  1
  Ti  Ti67  1  0.55715314  0.32871597  0.52771193  1
  Ti  Ti68  1  0.48500908  0.35674485  0.81440168  1
  Ti  Ti69  1  0.48078330  0.62280484  0.18170133  1
  Ti  Ti70  1  0.46025068  0.73224976  0.48906137  1
  Ti  Ti71  1  0.51093122  0.66985510  0.81186120  1
  Ti  Ti72  1  0.78785023  0.01988936  0.14145618  1
  Ti  Ti73  1  0.77250838  -0.02079381  0.51936710  1
  Ti  Ti74  1  0.87761192  -0.00157688  0.79917087  1
  Ti  Ti75  1  0.84908373  0.41435605  0.11404633  1
  Ti  Ti76  1  0.84781327  0.35375552  0.53734359  1
  Ti  Ti77  1  0.83786165  0.37993457  0.81056727  1
  Ti  Ti78  1  0.77913909  0.61183505  0.16124044  1
  Ti  Ti79  1  0.81575501  0.62434450  0.49568364  1
  Ti  Ti80  1  0.83786017  0.67849623  0.85200339  1
  Ti  Ti81  1  0.20942126  0.18762386  -0.00846690  1
  Ti  Ti82  1  0.22356523  0.19220370  0.34716692  1
  Ti  Ti83  1  0.24040429  0.19857441  0.63611718  1
  Ti  Ti84  1  0.23298146  0.54768834  0.05109583  1
  Ti  Ti85  1  0.18412048  0.45205848  0.32585504  1
  Ti  Ti86  1  0.19683053  0.39764244  0.65071259  1
  Ti  Ti87  1  0.08071275  0.84837395  0.01438053  1
  Ti  Ti88  1  0.17733377  0.81810115  0.35408668  1
  Ti  Ti89  1  0.14675552  0.74122913  0.55340632  1
  Ti  Ti90  1  0.48969275  0.22852425  -0.02398856  1
  Ti  Ti91  1  0.56313169  0.10637504  0.30905812  1
  Ti  Ti92  1  0.51582341  0.20890012  0.68947485  1
  Ti  Ti93  1  0.56506516  0.55110763  -0.03849474  1
  Ti  Ti94  1  0.54751834  0.44788767  0.31700503  1
  Ti  Ti95  1  0.42889017  0.50601315  0.70668195  1
  Ti  Ti96  1  0.52650199  0.76962754  0.05334024  1
  Ti  Ti97  1  0.51764368  0.80204139  0.32016904  1
  Ti  Ti98  1  0.47171005  0.82116832  0.71166024  1
  Ti  Ti99  1  0.85001161  0.17888865  0.02255706  1
  Ti  Ti100  1  0.87348463  0.20541936  0.31255865  1
  Ti  Ti101  1  0.82879580  0.23068073  0.68992988  1
  Ti  Ti102  1  0.76631411  0.53074621  -0.04021390  1
  Ti  Ti103  1  0.76306036  0.49551530  0.30352544  1
  Ti  Ti104  1  0.89533243  0.49844946  0.65095736  1
  Ti  Ti105  1  0.82069625  0.87647032  -0.04488325  1
  Ti  Ti106  1  0.81930365  0.87000225  0.31122956  1
  Ti  Ti107  1  0.87459921  0.83077442  0.71589751  1
  Co  Co108  1  0.66630207  0.91321903  0.26936538  1
  Co  Co109  1  0.34206002  0.25978222  0.89975263  1
  Co  Co110  1  0.02702854  0.82395695  0.62091462  1
  Co  Co111  1  0.43952104  0.20354208  0.54222409  1
  Co  Co112  1  0.45949234  0.78794320  0.90371040  1
  Co  Co113  1  0.96072791  0.26910051  0.42678630  1
  Co  Co114  1  0.61290535  0.73375142  0.21101818  1
  Co  Co115  1  0.24676659  0.53561397  0.72267572  1
  Co  Co116  1  0.49692006  0.95476295  0.30600083  1
  Co  Co117  1  0.54305864  0.88941455  0.15974453  1
  Co  Co118  1  0.07200428  0.50777551  0.64483794  1
  Co  Co119  1  0.48900167  0.65504460  0.64293615  1
  Co  Co120  1  0.57575294  0.79145519  0.58392020  1
  Co  Co121  1  0.28688958  0.24579990  0.48966993  1
  Co  Co122  1  0.03738897  0.52293186  0.28950861  1
  Co  Co123  1  0.57291565  0.60435467  0.50437950  1
  Co  Co124  1  0.13301976  0.64814879  0.69121742  1
  Co  Co125  1  0.53655640  0.39043015  0.99391443  1
  Co  Co126  1  0.07535917  0.55255706  0.96638349  1
  Co  Co127  1  0.90739829  0.23410481  0.85353959  1
  Co  Co128  1  0.92303909  0.40799050  0.25942734  1
  Co  Co129  1  0.54102620  0.17957719  0.12915092  1
  Co  Co130  1  0.52791933  0.25421421  0.38966302  1
  Co  Co131  1  0.47343208  0.60272074  0.35465399  1
  Co  Co132  1  0.88569449  0.50387081  0.40998252  1
  Co  Co133  1  0.32984093  0.73136075  0.82633696  1
  Co  Co134  1  0.62679371  0.57487010  0.22868310  1
  Co  Co135  1  0.35288596  0.26007180  0.73738795  1
  Co  Co136  1  0.32362835  0.40264936  0.79249526  1
  Co  Co137  1  0.10369685  0.47029789  0.79909039  1
  Co  Co138  1  0.38966328  0.94779744  0.65361749  1
  Co  Co139  1  0.95740902  0.43093487  0.96463640  1
  Co  Co140  1  0.89972341  0.26400986  0.16505565  1
  Co  Co141  1  0.58010517  0.93732570  0.66182985  1
  Co  Co142  1  -0.02258999  0.91692272  0.89101108  1
  Co  Co143  1  0.44031561  0.20631302  0.25420934  1
  Co  Co144  1  0.12150317  0.39504753  -0.02177596  1
  Co  Co145  1  0.36557576  0.11815976  0.01376579  1
  Co  Co146  1  0.54334369  0.91540275  0.87838017  1
  Co  Co147  1  0.63089058  0.03374418  0.17325897  1
  Co  Co148  1  0.34426139  0.27281488  0.06442653  1
  Co  Co149  1  0.05629843  0.12480153  0.03554159  1
  Co  Co150  1  0.47811143  0.45452235  0.46018885  1
  Co  Co151  1  0.65333139  0.64433611  0.06560376  1
  Co  Co152  1  0.33105889  0.52268829  0.38227724  1
  Co  Co153  1  1.00696923  0.37298402  0.57157356  1
  Co  Co154  1  0.50449873  0.06014117  0.59658343  1
  Co  Co155  1  0.16304056  0.69268382  0.03196785  1
  Co  Co156  1  0.55455643  0.48369102  0.60571431  1
  Co  Co157  1  0.94528606  0.08710573  0.91927162  1
  Co  Co158  1  0.39489129  0.16066054  0.40013689  1
  Co  Co159  1  0.77647300  0.11790777  0.79659386  1
  Co  Co160  1  0.22335592  0.48449692  0.89576355  1
  Co  Co161  1  0.02627197  0.40605334  0.39721803  1
  Ni  Ni162  1  0.15436001  0.20304293  0.16232108  1
  Ni  Ni163  1  0.85452128  0.79667423  0.54595371  1
  Ni  Ni164  1  0.66566350  0.12841597  0.03176257  1
  Ni  Ni165  1  0.75264500  0.34237727  0.22772951  1
  Ni  Ni166  1  0.28525454  0.67033429  0.15869223  1
  Ni  Ni167  1  0.10555222  0.66624511  0.39319512  1
  Ni  Ni168  1  0.26321371  0.01231757  0.94634173  1
  Ni  Ni169  1  0.06943690  0.19574410  0.88726475  1
  Ni  Ni170  1  0.35522918  0.85794064  0.38405841  1
  Ni  Ni171  1  0.94803166  0.76691601  0.92757467  1
  Ni  Ni172  1  0.79195890  0.71391455  0.35554420  1
  Ni  Ni173  1  0.92453370  -0.00654323  0.25016113  1
  Ni  Ni174  1  0.16995202  0.80481389  0.16348649  1
  Ni  Ni175  1  0.29056961  0.70512020  0.47509470  1
  Ni  Ni176  1  0.43251446  0.64014622  0.99284846  1
  Ni  Ni177  1  0.77704094  1.03887761  0.94679223  1
  Ni  Ni178  1  0.41505060  0.78075028  0.18105046  1
  Ni  Ni179  1  0.59139922  0.30038094  0.24019584  1
  Ni  Ni180  1  0.37112415  0.10824486  0.67277650  1
  Ni  Ni181  1  0.63302347  0.96474367  0.41710221  1
  Ni  Ni182  1  0.27407701  0.41150743  0.48954833  1
  Ni  Ni183  1  0.91216481  0.97021012  0.41824297  1
  Ni  Ni184  1  1.04213840  0.94551145  0.73488215  1
  Ni  Ni185  1  0.21575065  0.97881256  0.38977002  1
  Ni  Ni186  1  0.09700242  0.06590508  0.63033921  1
  Ni  Ni187  1  0.77780898  0.52794375  0.77630799  1
  Ni  Ni188  1  0.82210224  0.66333298  0.67777629  1
  Ni  Ni189  1  0.90253651  0.56102247  0.04310010  1
  Ni  Ni190  1  0.73720279  0.23311806  0.90297476  1
  Ni  Ni191  1  0.66511817  0.25045010  0.75599703  1
  Ni  Ni192  1  0.84375434  0.07244673  0.64528468  1
  Ni  Ni193  1  0.81662142  0.35027948  -0.02999560  1
  Ni  Ni194  1  0.72558738  0.86242413  0.63234439  1
  Ni  Ni195  1  0.72941128  0.53368778  0.61070993  1
  Ni  Ni196  1  0.20499678  0.80990385  0.71846820  1
  Ni  Ni197  1  0.20665383  0.06262575  0.24986825  1
  Ni  Ni198  1  0.67331283  0.62915861  0.84558548  1
  Ni  Ni199  1  0.86570437  0.73833567  0.20209588  1
  Ni  Ni200  1  0.16927693  0.12860118  0.77043725  1
  Ni  Ni201  1  0.87316463  0.87641078  0.12549346  1
  Ni  Ni202  1  0.19467050  0.81300510  0.89189124  1
  Ni  Ni203  1  0.08241921  0.23686099  0.63952957  1
  Ni  Ni204  1  0.15105345  0.13020907  0.49089570  1
  Ni  Ni205  1  0.58969527  0.51168507  0.76998053  1
  Ni  Ni206  1  0.82700567  0.35814454  0.37865611  1
  Ni  Ni207  1  0.43471170  0.50038607  0.07680160  1
  Ni  Ni208  1  0.72521228  0.77498514  0.77385041  1
  Ni  Ni209  1  0.28587017  0.31253280  0.24265571  1
  Ni  Ni210  1  0.81323004  0.71396204  0.02578566  1
  Ni  Ni211  1  0.51015133  0.06040160  0.96574777  1
  Ni  Ni212  1  0.69540983  0.24859014  0.58389052  1
  Ni  Ni213  1  0.10166646  0.94660868  0.24744440  1
  Ni  Ni214  1  0.80386154  0.16459422  0.48886297  1
  Ni  Ni215  1  0.24413777  0.88671154  0.03711329  1
