# generated using pymatgen
data_Ti2CoNi
_symmetry_space_group_name_H-M   'P 1'
_cell_length_a   14.64598446
_cell_length_b   14.66657532
_cell_length_c   14.68637463
_cell_angle_alpha   89.99378114
_cell_angle_beta   89.90518876
_cell_angle_gamma   89.90769540
_symmetry_Int_Tables_number   1
_chemical_formula_structural   Ti2CoNi
_chemical_formula_sum   'Ti108 Co54 Ni54'
_cell_volume   3154.71933437
_cell_formula_units_Z   54
loop_
 _symmetry_equiv_pos_site_id
 _symmetry_equiv_pos_as_xyz
  1  'x, y, z'
loop_
 _atom_site_type_symbol
 _atom_site_label
 _atom_site_symmetry_multiplicity
 _atom_site_fract_x
 _atom_site_fract_y
 _atom_site_fract_z
 _atom_site_occupancy
  Ti  Ti0  1  0.09217214  0.00629233  -0.02100898  1
  Ti  Ti1  1  -0.04206065  -0.09721806  0.33950076  1
  Ti  Ti2  1  0.00501110  -0.03143190  0.71617867  1
  Ti  Ti3  1  0.00414182  0.39288098  -0.06994315  1
  Ti  Ti4  1  -0.09277022  0.31966368  0.30994950  1
  Ti  Ti5  1  -0.00968773  0.20030890  0.68710407  1
  Ti  Ti6  1  0.02998549  0.60942666  0.02860630  1
  Ti  Ti7  1  0.03043536  0.63688885  0.32707025  1
  Ti  Ti8  1  0.03463580  0.68173618  0.63621162  1
  Ti  Ti9  1  0.27085291  0.00307118  0.09960180  1
  Ti  Ti10  1  0.30738528  0.03435936  0.32769197  1
  Ti  Ti11  1  0.33476285  0.03188399  0.63464784  1
  Ti  Ti12  1  0.27351074  0.32532632  -0.00362524  1
  Ti  Ti13  1  0.36542387  0.36488963  0.28635818  1
  Ti  Ti14  1  0.28680945  0.34156754  0.67419073  1
  Ti  Ti15  1  0.42324391  0.67698746  0.07890649  1
  Ti  Ti16  1  0.30762749  0.67385871  0.28099315  1
  Ti  Ti17  1  0.28603071  0.65285214  0.62322158  1
  Ti  Ti18  1  0.62022243  0.02643976  -0.00494110  1
  Ti  Ti19  1  0.61182067  0.00686651  0.27158645  1
  Ti  Ti20  1  0.66122775  -0.04392235  0.68840505  1
  Ti  Ti21  1  0.64035452  0.29127307  0.08709413  1
  Ti  Ti22  1  0.66401753  0.31760742  0.35080919  1
  Ti  Ti23  1  0.65416521  0.28495215  0.65932769  1
  Ti  Ti24  1  0.70760539  0.69568995  -0.03875856  1
  Ti  Ti25  1  0.69920239  0.77158325  0.27408725  1
  Ti  Ti26  1  0.71600001  0.60200927  0.73358574  1
  Ti  Ti27  1  -0.03691533  0.19431118  0.17619635  1
  Ti  Ti28  1  -0.00679399  0.19102726  0.49872000  1
  Ti  Ti29  1  -0.05369452  0.19829646  0.87271714  1
  Ti  Ti30  1  0.01237982  0.42687263  0.13750613  1
  Ti  Ti31  1  0.01121991  0.47615288  0.47208554  1
  Ti  Ti32  1  -0.03879055  0.56906603  0.81074844  1
  Ti  Ti33  1  -0.05529210  0.77647008  0.12851886  1
  Ti  Ti34  1  0.07605340  0.90120421  0.54351365  1
  Ti  Ti35  1  -0.00131339  0.85537153  0.89951777  1
  Ti  Ti36  1  0.25879953  0.20060990  0.21634107  1
  Ti  Ti37  1  0.32940921  0.26007080  0.44930706  1
  Ti  Ti38  1  0.39022601  0.16543666  0.77238073  1
  Ti  Ti39  1  0.31712736  0.47895781  0.12867740  1
  Ti  Ti40  1  0.34734379  0.52019696  0.44556389  1
  Ti  Ti41  1  0.36695784  0.51872390  0.75203778  1
  Ti  Ti42  1  0.38954388  0.84225325  0.18595413  1
  Ti  Ti43  1  0.33918729  0.84044947  0.58798776  1
  Ti  Ti44  1  0.38082098  0.79846546  0.85056846  1
  Ti  Ti45  1  0.71643086  0.11684223  0.13750798  1
  Ti  Ti46  1  0.71482973  0.10240905  0.54886916  1
  Ti  Ti47  1  0.69928296  0.19525003  0.87427456  1
  Ti  Ti48  1  0.70296140  0.45512421  0.21247343  1
  Ti  Ti49  1  0.63485890  0.58046884  0.51634085  1
  Ti  Ti50  1  0.66173297  0.51441916  0.90903958  1
  Ti  Ti51  1  0.69188933  0.88942879  0.12454161  1
  Ti  Ti52  1  0.63575640  0.81371943  0.54500207  1
  Ti  Ti53  1  0.70327217  0.90345841  0.86363842  1
  Ti  Ti54  1  0.10545152  -0.08593880  0.16391002  1
  Ti  Ti55  1  0.20121010  0.09596982  0.49368704  1
  Ti  Ti56  1  0.25511769  0.03782821  0.83743926  1
  Ti  Ti57  1  0.12056585  0.27673749  0.09538031  1
  Ti  Ti58  1  0.14934919  0.32407775  0.53379825  1
  Ti  Ti59  1  0.16667469  0.40422028  0.82707701  1
  Ti  Ti60  1  0.13299632  0.71303549  0.16257639  1
  Ti  Ti61  1  0.14631646  0.60740727  0.50630846  1
  Ti  Ti62  1  0.13494131  0.70753445  0.88474952  1
  Ti  Ti63  1  0.44923068  0.03684322  0.16263286  1
  Ti  Ti64  1  0.45385272  -0.03131675  0.46773806  1
  Ti  Ti65  1  0.42593129  0.00397183  0.94535472  1
  Ti  Ti66  1  0.43882575  0.30595367  0.09386868  1
  Ti  Ti67  1  0.53199808  0.27600848  0.48678234  1
  Ti  Ti68  1  0.56657918  0.37679792  0.81771306  1
  Ti  Ti69  1  0.54241493  0.67025791  0.23783095  1
  Ti  Ti70  1  0.47322679  0.69573233  0.54587595  1
  Ti  Ti71  1  0.52167389  0.64627431  0.84805762  1
  Ti  Ti72  1  0.92078693  0.01300484  0.18475938  1
  Ti  Ti73  1  0.87681759  0.03372704  0.45749997  1
  Ti  Ti74  1  0.83550901  0.07003744  0.76461351  1
  Ti  Ti75  1  0.83468843  0.34233849  0.07627134  1
  Ti  Ti76  1  0.83351850  0.37790033  0.48136313  1
  Ti  Ti77  1  0.78974897  0.40660221  0.78651301  1
  Ti  Ti78  1  0.81097700  0.62670638  0.21471550  1
  Ti  Ti79  1  0.82412805  0.70888777  0.46564520  1
  Ti  Ti80  1  0.84286262  0.73742617  0.81441895  1
  Ti  Ti81  1  0.14370562  0.18752341  -0.07402285  1
  Ti  Ti82  1  0.09926542  0.18068212  0.34486846  1
  Ti  Ti83  1  0.17519364  0.14543363  0.70437576  1
  Ti  Ti84  1  0.25884410  0.54887144  -0.05309479  1
  Ti  Ti85  1  0.12926747  0.44042547  0.31661703  1
  Ti  Ti86  1  0.15915605  0.56900062  0.73671500  1
  Ti  Ti87  1  0.23099358  0.87341529  -0.06509825  1
  Ti  Ti88  1  0.15992157  0.90450953  0.37396005  1
  Ti  Ti89  1  0.18575007  0.79412685  0.71481445  1
  Ti  Ti90  1  0.51735684  0.18734277  -0.06003357  1
  Ti  Ti91  1  0.47374301  0.13539667  0.35019644  1
  Ti  Ti92  1  0.52911959  0.09723346  0.63839305  1
  Ti  Ti93  1  0.52836566  0.49697903  0.09724848  1
  Ti  Ti94  1  0.53984145  0.47855710  0.31568799  1
  Ti  Ti95  1  0.50239479  0.40776741  0.63025615  1
  Ti  Ti96  1  0.53422901  0.80605131  -0.02751961  1
  Ti  Ti97  1  0.45448338  0.78994676  0.37371024  1
  Ti  Ti98  1  0.51527915  0.82369105  0.72160461  1
  Ti  Ti99  1  0.85912802  0.13168027  0.01570789  1
  Ti  Ti100  1  0.76368985  0.14233656  0.31498562  1
  Ti  Ti101  1  0.83381684  0.24051979  0.61032678  1
  Ti  Ti102  1  0.83875531  0.56132534  0.04175680  1
  Ti  Ti103  1  0.85118614  0.53421998  0.36919757  1
  Ti  Ti104  1  0.89837116  0.48281894  0.64286535  1
  Ti  Ti105  1  0.83408310  0.86155242  -0.01862343  1
  Ti  Ti106  1  0.76714351  0.87244441  0.40692066  1
  Ti  Ti107  1  0.88352041  0.82610065  0.64103820  1
  Co  Co108  1  0.76188855  1.04766668  0.91352254  1
  Co  Co109  1  0.42015512  0.20556409  0.22286381  1
  Co  Co110  1  0.41908617  0.54690688  0.59067152  1
  Co  Co111  1  0.41595746  0.29643935  0.91416131  1
  Co  Co112  1  0.70262078  0.25751877  0.49642230  1
  Co  Co113  1  0.60760745  0.18877737  0.24539504  1
  Co  Co114  1  0.27187466  0.95057527  0.48821354  1
  Co  Co115  1  0.03225305  0.32957183  0.41635328  1
  Co  Co116  1  0.79115766  0.53862648  0.53125699  1
  Co  Co117  1  0.80995113  0.58213542  0.86836004  1
  Co  Co118  1  0.70810321  0.01376430  0.40789760  1
  Co  Co119  1  0.38496711  0.86612761  1.02220533  1
  Co  Co120  1  0.54419934  0.90986582  0.85411162  1
  Co  Co121  1  0.00283417  0.40681508  0.75605015  1
  Co  Co122  1  0.61451737  0.72536362  0.41201969  1
  Co  Co123  1  0.55543913  0.37739769  0.97813995  1
  Co  Co124  1  0.22840554  0.14935312  0.05421646  1
  Co  Co125  1  0.21344544  0.37260149  0.18924423  1
  Co  Co126  1  0.65949305  0.40450755  0.53529791  1
  Co  Co127  1  0.53281835  0.92109403  0.08725377  1
  Co  Co128  1  0.40408942  0.44197709  -0.00869538  1
  Co  Co129  1  0.20747910  0.30293336  0.35441470  1
  Co  Co130  1  0.48938966  0.93188347  0.61875862  1
  Co  Co131  1  0.07142398  0.30472356  0.24957900  1
  Co  Co132  1  0.07165495  0.49131649  0.62627961  1
  Co  Co133  1  0.05275812  0.79477367  0.27991780  1
  Co  Co134  1  0.70238661  0.47140133  0.39926766  1
  Co  Co135  1  0.69567126  0.45274637  0.04962637  1
  Co  Co136  1  0.59928496  0.75106458  0.10840115  1
  Co  Co137  1  0.92490978  0.01361977  0.90822732  1
  Co  Co138  1  0.42304361  0.32899636  0.75779230  1
  Co  Co139  1  0.45097936  0.95339490  0.30627409  1
  Co  Co140  1  0.62061057  0.14868676  0.40791425  1
  Co  Co141  1  0.89724394  0.69695102  0.96404154  1
  Co  Co142  1  0.80177827  -0.00870218  0.06640500  1
  Co  Co143  1  0.55188032  0.84723322  0.23058708  1
  Co  Co144  1  0.32790277  0.14958216  0.92706363  1
  Co  Co145  1  0.30207215  0.71832240  0.97269372  1
  Co  Co146  1  0.61138059  -0.02413160  0.52490649  1
  Co  Co147  1  0.98549990  0.34279158  0.58607001  1
  Co  Co148  1  0.67044537  0.45639885  0.68435376  1
  Co  Co149  1  0.77395112  0.93298237  0.56456283  1
  Co  Co150  1  0.54866342  0.14765229  0.09991065  1
  Co  Co151  1  0.91862272  0.87840086  0.49787828  1
  Co  Co152  1  0.41309011  0.59374007  0.94202142  1
  Co  Co153  1  0.28209951  0.19917089  0.59892892  1
  Co  Co154  1  0.26140008  0.25765833  0.82632435  1
  Co  Co155  1  0.30181769  0.90313744  0.75844187  1
  Co  Co156  1  0.32383160  0.41133512  0.85217597  1
  Co  Co157  1  0.96801256  0.93520454  0.05561752  1
  Co  Co158  1  0.54828024  0.21763414  0.76576108  1
  Co  Co159  1  0.38679240  0.15315597  0.06863794  1
  Co  Co160  1  0.08917296  0.80609897  0.02332043  1
  Co  Co161  1  0.59057167  0.88524662  0.38564921  1
  Ni  Ni162  1  0.05843214  0.08013727  0.82332411  1
  Ni  Ni163  1  0.47771110  0.61969956  0.39424127  1
  Ni  Ni164  1  0.44042310  0.24044230  0.62039087  1
  Ni  Ni165  1  0.41626110  0.55601285  0.23619642  1
  Ni  Ni166  1  0.15243274  0.04291107  0.27138152  1
  Ni  Ni167  1  0.14728575  0.44755180  0.03594673  1
  Ni  Ni168  1  0.14206793  0.54264388  0.17989111  1
  Ni  Ni169  1  0.29467837  0.66097808  0.81481839  1
  Ni  Ni170  1  0.06607480  0.06930746  0.59043441  1
  Ni  Ni171  1  0.94016581  0.11406663  0.32601555  1
  Ni  Ni172  1  0.86755422  0.45794371  0.21351306  1
  Ni  Ni173  1  1.02073392  0.75547069  0.45882330  1
  Ni  Ni174  1  0.42748213  0.67829431  0.70799037  1
  Ni  Ni175  1  0.84677164  0.43926412  0.93663969  1
  Ni  Ni176  1  0.89887925  0.05699065  0.61342127  1
  Ni  Ni177  1  0.31654049  0.69287347  0.45472272  1
  Ni  Ni178  1  0.01638815  0.78702468  0.75598941  1
  Ni  Ni179  1  0.69082621  0.13196899  0.71379421  1
  Ni  Ni180  1  0.26595683  0.63438669  0.10965211  1
  Ni  Ni181  1  0.51454338  0.46400352  0.47485727  1
  Ni  Ni182  1  0.76442520  0.27863523  0.21074903  1
  Ni  Ni183  1  0.88732757  0.74853959  0.30854978  1
  Ni  Ni184  1  0.24441256  0.82338073  0.09173990  1
  Ni  Ni185  1  0.77897010  0.97254305  0.25736283  1
  Ni  Ni186  1  0.72844104  0.79355772  0.69109901  1
  Ni  Ni187  1  0.23251874  0.82419160  0.25401662  1
  Ni  Ni188  1  0.20347083  0.57530669  0.35704265  1
  Ni  Ni189  1  0.53856187  0.54433840  0.72108849  1
  Ni  Ni190  1  0.94528158  0.61434046  0.51815902  1
  Ni  Ni191  1  0.97328795  0.26087492  0.02442025  1
  Ni  Ni192  1  0.58861954  0.06231001  0.82478921  1
  Ni  Ni193  1  0.71243566  0.34299042  0.93193388  1
  Ni  Ni194  1  0.84518761  0.20967520  0.43545738  1
  Ni  Ni195  1  0.16673612  0.73302511  0.37853430  1
  Ni  Ni196  1  0.18241674  0.77201543  0.54103515  1
  Ni  Ni197  1  0.67728253  0.60416262  0.31709062  1
  Ni  Ni198  1  0.59531345  0.68838087  0.66596659  1
  Ni  Ni199  1  0.64166109  0.75632066  0.82294967  1
  Ni  Ni200  1  0.18652647  0.96233688  0.65280564  1
  Ni  Ni201  1  0.82100844  0.24491524  0.77147163  1
  Ni  Ni202  1  0.53215642  0.33672395  0.23103862  1
  Ni  Ni203  1  0.13277691  0.92402024  0.80891469  1
  Ni  Ni204  1  0.43877886  -0.00204220  0.76670008  1
  Ni  Ni205  1  0.97317281  0.58768588  0.18324454  1
  Ni  Ni206  1  0.85763678  0.65275904  0.65772252  1
  Ni  Ni207  1  0.77705465  0.74139908  0.10161667  1
  Ni  Ni208  1  0.66977341  0.60385572  0.10900787  1
  Ni  Ni209  1  0.24891404  0.48859455  0.59841160  1
  Ni  Ni210  1  0.85901987  0.90492669  0.79755159  1
  Ni  Ni211  1  0.09294254  0.08723823  0.12435777  1
  Ni  Ni212  1  0.09086162  0.26537888  0.79501880  1
  Ni  Ni213  1  0.05221000  0.03062027  0.42104874  1
  Ni  Ni214  1  0.39713622  0.12080325  0.50393829  1
  Ni  Ni215  1  0.09609773  0.53729318  0.90004082  1
