# generated using pymatgen
data_Ti2CoNi
_symmetry_space_group_name_H-M   'P 1'
_cell_length_a   14.58098708
_cell_length_b   14.44808422
_cell_length_c   14.51281411
_cell_angle_alpha   89.84340488
_cell_angle_beta   89.83533326
_cell_angle_gamma   90.18262914
_symmetry_Int_Tables_number   1
_chemical_formula_structural   Ti2CoNi
_chemical_formula_sum   'Ti108 Co54 Ni54'
_cell_volume   3057.33613554
_cell_formula_units_Z   54
loop_
 _symmetry_equiv_pos_site_id
 _symmetry_equiv_pos_as_xyz
  1  'x, y, z'
loop_
 _atom_site_type_symbol
 _atom_site_label
 _atom_site_symmetry_multiplicity
 _atom_site_fract_x
 _atom_site_fract_y
 _atom_site_fract_z
 _atom_site_occupancy
  Ti  Ti0  1  -0.09031941  -0.06039521  0.01823876  1
  Ti  Ti1  1  0.00949480  0.02356746  0.32746543  1
  Ti  Ti2  1  -0.01249378  0.05799230  0.69331416  1
  Ti  Ti3  1  0.03157143  0.32027518  -0.04456426  1
  Ti  Ti4  1  -0.01648505  0.28051686  0.32606749  1
  Ti  Ti5  1  -0.00591870  0.29366621  0.61364098  1
  Ti  Ti6  1  0.01226616  0.61817360  0.06277889  1
  Ti  Ti7  1  0.02677170  0.60219190  0.25908302  1
  Ti  Ti8  1  -0.00447370  0.63883737  0.64942337  1
  Ti  Ti9  1  0.31968660  -0.00120939  -0.04053000  1
  Ti  Ti10  1  0.39659364  -0.10884461  0.27475443  1
  Ti  Ti11  1  0.34631044  -0.05047343  0.63291995  1
  Ti  Ti12  1  0.31098414  0.30546915  -0.06744786  1
  Ti  Ti13  1  0.34545624  0.33678886  0.35920500  1
  Ti  Ti14  1  0.28179254  0.36732376  0.65697144  1
  Ti  Ti15  1  0.27335569  0.67694227  -0.04421931  1
  Ti  Ti16  1  0.34160522  0.69323989  0.28784581  1
  Ti  Ti17  1  0.34549683  0.66883404  0.75186050  1
  Ti  Ti18  1  0.64092501  0.00642633  0.02654757  1
  Ti  Ti19  1  0.69632107  -0.00420232  0.40128685  1
  Ti  Ti20  1  0.66809997  0.04970946  0.70243368  1
  Ti  Ti21  1  0.66250965  0.28825523  0.01427370  1
  Ti  Ti22  1  0.70606488  0.38141302  0.44881446  1
  Ti  Ti23  1  0.60904434  0.40558623  0.62507513  1
  Ti  Ti24  1  0.65716960  0.78508879  -0.01909815  1
  Ti  Ti25  1  0.63789547  0.62523947  0.31740030  1
  Ti  Ti26  1  0.68408749  0.62059850  0.68721856  1
  Ti  Ti27  1  0.01768190  0.21712720  0.13713009  1
  Ti  Ti28  1  0.04266318  0.16947479  0.46356242  1
  Ti  Ti29  1  -0.02557251  0.19313416  0.83964827  1
  Ti  Ti30  1  -0.03277279  0.41903752  0.21217639  1
  Ti  Ti31  1  -0.01479301  0.52514468  0.51234852  1
  Ti  Ti32  1  -0.09665171  0.50051604  0.80115865  1
  Ti  Ti33  1  0.01711839  0.81033965  0.11899038  1
  Ti  Ti34  1  0.01582428  0.88012444  0.55256779  1
  Ti  Ti35  1  -0.08057874  0.79137159  0.79728676  1
  Ti  Ti36  1  0.36734787  0.10832952  0.21127454  1
  Ti  Ti37  1  0.33035457  0.15143408  0.38374740  1
  Ti  Ti38  1  0.43288259  0.18465439  0.84514436  1
  Ti  Ti39  1  0.34038063  0.51665272  0.16867572  1
  Ti  Ti40  1  0.30150425  0.55355449  0.59124983  1
  Ti  Ti41  1  0.27024008  0.50341647  0.85249621  1
  Ti  Ti42  1  0.27740983  0.85055228  0.08413422  1
  Ti  Ti43  1  0.32723933  0.82329107  0.44523450  1
  Ti  Ti44  1  0.36528748  0.83016184  0.84876298  1
  Ti  Ti45  1  0.71116490  0.19263083  0.15934977  1
  Ti  Ti46  1  0.61338806  0.18956935  0.58144731  1
  Ti  Ti47  1  0.64061221  0.16574809  0.87621099  1
  Ti  Ti48  1  0.65906804  0.52619800  0.16847278  1
  Ti  Ti49  1  0.67647735  0.55893560  0.51615575  1
  Ti  Ti50  1  0.71233948  0.50292299  0.83033946  1
  Ti  Ti51  1  0.61697415  0.75657194  0.18431510  1
  Ti  Ti52  1  0.73305299  0.78809498  0.56257094  1
  Ti  Ti53  1  0.68474952  0.86771021  0.77258180  1
  Ti  Ti54  1  0.14555584  -0.05125668  0.20218788  1
  Ti  Ti55  1  0.16991509  0.03884812  0.52908657  1
  Ti  Ti56  1  0.10619433  -0.06081849  0.81024327  1
  Ti  Ti57  1  0.28144054  0.33513144  0.16473052  1
  Ti  Ti58  1  0.08744499  0.35628973  0.47754419  1
  Ti  Ti59  1  0.13289189  0.35050697  0.77588734  1
  Ti  Ti60  1  0.18046364  0.70110179  0.18685516  1
  Ti  Ti61  1  0.13774522  0.69342664  0.51302719  1
  Ti  Ti62  1  0.11610571  0.68870150  0.83756446  1
  Ti  Ti63  1  0.56050609  0.00129288  0.19966670  1
  Ti  Ti64  1  0.44341233  0.10942519  0.55118915  1
  Ti  Ti65  1  0.47297856  -0.03218455  0.79483084  1
  Ti  Ti66  1  0.46449912  0.38328692  0.10324523  1
  Ti  Ti67  1  0.50273223  0.30317988  0.47273641  1
  Ti  Ti68  1  0.49345546  0.38798558  0.77159092  1
  Ti  Ti69  1  0.50614604  0.61010095  0.13239877  1
  Ti  Ti70  1  0.45380333  0.57504505  0.42241767  1
  Ti  Ti71  1  0.54678714  0.72349465  0.78177989  1
  Ti  Ti72  1  0.79051590  0.02377198  0.15167918  1
  Ti  Ti73  1  0.85463228  -0.06586386  0.46004202  1
  Ti  Ti74  1  0.81519689  0.03088360  0.87728136  1
  Ti  Ti75  1  0.78742917  0.39001033  0.11138995  1
  Ti  Ti76  1  0.79855067  0.29118456  0.57908045  1
  Ti  Ti77  1  0.82976774  0.34723652  0.87820084  1
  Ti  Ti78  1  0.77898308  0.71696950  0.17704844  1
  Ti  Ti79  1  0.92179129  0.72088322  0.44011242  1
  Ti  Ti80  1  0.76575154  0.67227665  0.88045877  1
  Ti  Ti81  1  0.13525803  0.13052682  0.02501040  1
  Ti  Ti82  1  0.17010952  0.20026734  0.27959522  1
  Ti  Ti83  1  0.16970020  0.12290776  0.73462596  1
  Ti  Ti84  1  0.09917767  0.45105657  0.10103571  1
  Ti  Ti85  1  0.27622918  0.53145166  0.37530082  1
  Ti  Ti86  1  0.10052922  0.46718899  0.64425669  1
  Ti  Ti87  1  0.12221646  0.95403544  0.01245711  1
  Ti  Ti88  1  0.15370047  0.88730980  0.40396667  1
  Ti  Ti89  1  0.22120018  0.81348621  0.72226013  1
  Ti  Ti90  1  0.48831924  0.18201720  0.06425056  1
  Ti  Ti91  1  0.52801134  0.15948933  0.34820928  1
  Ti  Ti92  1  0.44277736  0.25763053  0.65648120  1
  Ti  Ti93  1  0.49203750  0.48323849  -0.04964547  1
  Ti  Ti94  1  0.54431956  0.36657082  0.29529849  1
  Ti  Ti95  1  0.49944743  0.55959496  0.62523670  1
  Ti  Ti96  1  0.46833820  0.73965879  -0.00448403  1
  Ti  Ti97  1  0.56782307  0.84743452  0.36566312  1
  Ti  Ti98  1  0.57268143  0.85846044  0.62343400  1
  Ti  Ti99  1  0.86320038  0.22806240  0.03428946  1
  Ti  Ti100  1  0.81133465  0.16916158  0.35470821  1
  Ti  Ti101  1  0.83076428  0.11953842  0.58639024  1
  Ti  Ti102  1  0.84030308  0.52000540  -0.01138327  1
  Ti  Ti103  1  0.80109511  0.44382748  0.31100920  1
  Ti  Ti104  1  0.80913321  0.48001588  0.63140059  1
  Ti  Ti105  1  0.86348765  0.76289569  0.01522696  1
  Ti  Ti106  1  0.78512076  0.81095973  0.31819312  1
  Ti  Ti107  1  0.85014134  0.93341578  0.67597697  1
  Co  Co108  1  0.96454356  0.85667178  0.35993846  1
  Co  Co109  1  0.07683112  0.73295043  0.36399830  1
  Co  Co110  1  0.42742430  0.79693676  0.15541897  1
  Co  Co111  1  0.07532189  0.06856698  0.89619185  1
  Co  Co112  1  0.52531987  0.11724587  0.71328870  1
  Co  Co113  1  0.54118772  0.85832016  0.88628077  1
  Co  Co114  1  0.56587619  0.20642355  0.19641815  1
  Co  Co115  1  0.29775414  0.65399634  0.46215890  1
  Co  Co116  1  0.94689047  0.95233040  0.82992888  1
  Co  Co117  1  0.20365364  0.23475754  0.44833299  1
  Co  Co118  1  0.72734454  0.20039066  0.73270149  1
  Co  Co119  1  0.47844143  0.74527203  0.44468113  1
  Co  Co120  1  0.55005574  0.87382860  0.08613322  1
  Co  Co121  1  0.88841888  0.78040548  0.61445966  1
  Co  Co122  1  0.09747029  0.32843802  0.20599590  1
  Co  Co123  1  0.40879935  -0.00821721  0.10831308  1
  Co  Co124  1  0.85843742  0.87075570  0.18553572  1
  Co  Co125  1  0.84540531  0.08792598  0.74748033  1
  Co  Co126  1  0.17675533  0.39691585  0.95268264  1
  Co  Co127  1  0.83701987  0.63363244  0.58180830  1
  Co  Co128  1  0.94360183  0.38903853  0.05389668  1
  Co  Co129  1  0.67944702  0.10104533  0.28426573  1
  Co  Co130  1  0.62037501  0.37677735  0.15492686  1
  Co  Co131  1  0.27147714  0.73523073  0.59948071  1
  Co  Co132  1  0.24969333  0.82968465  0.28187449  1
  Co  Co133  1  0.87424446  0.28699837  0.19529331  1
  Co  Co134  1  0.63854885  0.35666031  0.86391793  1
  Co  Co135  1  0.72193536  0.30649338  0.27984773  1
  Co  Co136  1  0.76470586  0.75775194  0.71628703  1
  Co  Co137  1  0.06688695  0.77334584  0.67742024  1
  Co  Co138  1  0.41255713  0.41935659  0.54739863  1
  Co  Co139  1  0.72222637  0.88956258  0.10251336  1
  Co  Co140  1  0.17614345  0.61612356  0.70129433  1
  Co  Co141  1  0.42532735  0.82132704  0.69149909  1
  Co  Co142  1  0.45886289  0.90055770  0.50374796  1
  Co  Co143  1  0.93081076  0.73045451  0.24009883  1
  Co  Co144  1  0.15998085  0.53469043  0.49971971  1
  Co  Co145  1  0.63583005  0.47075491  0.33738207  1
  Co  Co146  1  0.15498794  0.07221154  0.38421718  1
  Co  Co147  1  0.59639608  0.62699943  -0.02781458  1
  Co  Co148  1  0.25054736  1.02631914  0.11989422  1
  Co  Co149  1  0.25661436  0.12402583  0.86749012  1
  Co  Co150  1  0.78733591  0.18918565  0.87464201  1
  Co  Co151  1  0.86936421  0.25456212  0.71048053  1
  Co  Co152  1  0.49166505  0.69058885  0.28784224  1
  Co  Co153  1  0.34949208  0.28900149  0.52048736  1
  Co  Co154  1  0.14829171  0.22604758  0.86678439  1
  Co  Co155  1  0.86979608  0.62991419  0.74622204  1
  Co  Co156  1  0.84186099  -0.01486397  0.29595972  1
  Co  Co157  1  0.42120826  0.69409530  0.58234117  1
  Co  Co158  1  0.07176087  0.83867812  0.25298220  1
  Co  Co159  1  0.58230799  0.26661388  0.74576441  1
  Co  Co160  1  0.58695178  0.69148751  0.57740359  1
  Co  Co161  1  0.82453249  0.54010026  0.45729127  1
  Ni  Ni162  1  0.48759239  0.04681970  0.95691054  1
  Ni  Ni163  1  0.33793413  0.46867556  0.00946703  1
  Ni  Ni164  1  0.90949849  0.12135021  0.22397329  1
  Ni  Ni165  1  0.32989548  0.66582908  0.11018438  1
  Ni  Ni166  1  0.73548872  0.36374272  0.72673305  1
  Ni  Ni167  1  0.83413848  0.62919337  0.31039103  1
  Ni  Ni168  1  0.65568839  0.48024712  0.01271325  1
  Ni  Ni169  1  0.13204925  0.73864254  0.02329087  1
  Ni  Ni170  1  0.86293664  0.55953658  0.15618657  1
  Ni  Ni171  1  0.47699473  0.50482678  0.27764971  1
  Ni  Ni172  1  0.29919041  0.26260350  0.78005567  1
  Ni  Ni173  1  0.13658694  0.56263627  0.93927849  1
  Ni  Ni174  1  0.95653989  0.09697428  1.00641277  1
  Ni  Ni175  1  0.43978224  0.62230581  0.89047200  1
  Ni  Ni176  1  0.31392723  0.15594262  0.04085691  1
  Ni  Ni177  1  0.71810522  0.96750812  0.57217446  1
  Ni  Ni178  1  0.20205774  0.84416888  0.90967094  1
  Ni  Ni179  1  0.13711668  0.94394107  0.65865627  1
  Ni  Ni180  1  0.19486899  0.37752657  0.31616283  1
  Ni  Ni181  1  0.96290443  0.64913092  0.91125204  1
  Ni  Ni182  1  0.26281485  0.00736403  0.30860523  1
  Ni  Ni183  1  0.97655972  0.02736376  0.51828833  1
  Ni  Ni184  1  0.76827298  0.89029643  0.93774465  1
  Ni  Ni185  1  0.61346052  1.00627648  0.85595567  1
  Ni  Ni186  1  0.76123254  0.11670708  0.02079630  1
  Ni  Ni187  1  0.56270332  0.45313109  0.47601343  1
  Ni  Ni188  1  0.94330328  0.49620501  0.36579019  1
  Ni  Ni189  1  0.13665175  0.23126345  0.60484960  1
  Ni  Ni190  1  0.65632206  0.22127737  0.41173964  1
  Ni  Ni191  1  0.18904347  0.26794029  0.06935590  1
  Ni  Ni192  1  0.43067455  0.88794680  0.99063215  1
  Ni  Ni193  1  0.89945337  0.22336465  0.47097474  1
  Ni  Ni194  1  0.55286276  0.54902328  0.79785796  1
  Ni  Ni195  1  0.24019034  0.40171615  0.49636080  1
  Ni  Ni196  1  0.27469800  0.13500140  0.59203326  1
  Ni  Ni197  1  0.45992771  0.00775138  0.37256421  1
  Ni  Ni198  1  1.00255551  0.48863367  0.93250064  1
  Ni  Ni199  1  0.26015687  0.97285352  0.78611755  1
  Ni  Ni200  1  0.32351976  1.00033280  0.46689820  1
  Ni  Ni201  1  0.72106625  0.69195797  0.43820033  1
  Ni  Ni202  1  0.36101378  0.09355941  0.73025390  1
  Ni  Ni203  1  0.20955705  0.57861046  0.08584387  1
  Ni  Ni204  1  -0.02102473  0.36422268  0.77367869  1
  Ni  Ni205  1  0.90193627  0.38500125  0.46768292  1
  Ni  Ni206  1  0.18727003  0.51790322  0.23283334  1
  Ni  Ni207  1  0.01649150  0.81756600  0.93301449  1
  Ni  Ni208  1  0.00503181  0.01907422  0.13471126  1
  Ni  Ni209  1  0.49145924  0.31083880  0.93114740  1
  Ni  Ni210  1  0.42081506  0.26516549  0.23173794  1
  Ni  Ni211  1  0.67811524  0.92175145  0.25129414  1
  Ni  Ni212  1  0.39852978  0.51231535  0.73802832  1
  Ni  Ni213  1  0.09881494  0.48211665  0.36533333  1
  Ni  Ni214  1  0.74455277  0.62857946  1.04092868  1
  Ni  Ni215  1  0.57159495  1.01809125  0.51430842  1
