# generated using pymatgen
data_Ti2CoNi
_symmetry_space_group_name_H-M   'P 1'
_cell_length_a   14.65061222
_cell_length_b   14.63168612
_cell_length_c   14.63821069
_cell_angle_alpha   89.86519785
_cell_angle_beta   89.92165798
_cell_angle_gamma   89.97298751
_symmetry_Int_Tables_number   1
_chemical_formula_structural   Ti2CoNi
_chemical_formula_sum   'Ti108 Co54 Ni54'
_cell_volume   3137.88113315
_cell_formula_units_Z   54
loop_
 _symmetry_equiv_pos_site_id
 _symmetry_equiv_pos_as_xyz
  1  'x, y, z'
loop_
 _atom_site_type_symbol
 _atom_site_label
 _atom_site_symmetry_multiplicity
 _atom_site_fract_x
 _atom_site_fract_y
 _atom_site_fract_z
 _atom_site_occupancy
  Ti  Ti0  1  -0.04730334  0.00930023  0.00031367  1
  Ti  Ti1  1  -0.09797686  -0.00893469  0.31297192  1
  Ti  Ti2  1  -0.01533518  -0.06292991  0.69326551  1
  Ti  Ti3  1  -0.03709155  0.32556386  0.04795849  1
  Ti  Ti4  1  -0.06270236  0.37369361  0.32463770  1
  Ti  Ti5  1  0.02714421  0.36437339  0.77398811  1
  Ti  Ti6  1  -0.04103103  0.67429596  -0.02335540  1
  Ti  Ti7  1  -0.03883685  0.68980378  0.37189877  1
  Ti  Ti8  1  0.07589825  0.65507847  0.66851853  1
  Ti  Ti9  1  0.25877898  0.05234744  0.04760855  1
  Ti  Ti10  1  0.35205799  -0.00312684  0.28071574  1
  Ti  Ti11  1  0.40123620  0.01108935  0.63234152  1
  Ti  Ti12  1  0.36470674  0.38968500  -0.03374777  1
  Ti  Ti13  1  0.27899734  0.31340511  0.22327280  1
  Ti  Ti14  1  0.38468861  0.35985793  0.66843735  1
  Ti  Ti15  1  0.39189953  0.72344494  -0.03871456  1
  Ti  Ti16  1  0.25896356  0.68670639  0.32108813  1
  Ti  Ti17  1  0.33085206  0.68755988  0.67875331  1
  Ti  Ti18  1  0.64431260  -0.06195781  -0.03338997  1
  Ti  Ti19  1  0.68975775  0.10664602  0.40754991  1
  Ti  Ti20  1  0.64383959  -0.00817825  0.73087946  1
  Ti  Ti21  1  0.65816877  0.36730480  0.04914705  1
  Ti  Ti22  1  0.70726547  0.37911363  0.33239585  1
  Ti  Ti23  1  0.60526110  0.37803057  0.68102789  1
  Ti  Ti24  1  0.65008938  0.74638274  0.01099917  1
  Ti  Ti25  1  0.64172640  0.61479605  0.33553779  1
  Ti  Ti26  1  0.62315330  0.65626000  0.68238818  1
  Ti  Ti27  1  0.00274120  0.11716586  0.20133356  1
  Ti  Ti28  1  -0.00656056  0.16077865  0.57528621  1
  Ti  Ti29  1  0.01839434  0.17289737  0.90552941  1
  Ti  Ti30  1  0.04054143  0.52510377  0.21874229  1
  Ti  Ti31  1  -0.04072168  0.45109411  0.50222816  1
  Ti  Ti32  1  0.01734411  0.55534875  0.83318586  1
  Ti  Ti33  1  0.02939948  0.83141401  0.09469435  1
  Ti  Ti34  1  0.07555470  0.82730345  0.55067411  1
  Ti  Ti35  1  -0.02490914  0.85607452  0.87997639  1
  Ti  Ti36  1  0.37957048  0.15586858  0.18306898  1
  Ti  Ti37  1  0.30817856  0.10558527  0.45922116  1
  Ti  Ti38  1  0.36902723  0.10085880  0.79644052  1
  Ti  Ti39  1  0.35980440  0.52841217  0.10008865  1
  Ti  Ti40  1  0.30307243  0.42725016  0.51388062  1
  Ti  Ti41  1  0.40074539  0.53672104  0.79817404  1
  Ti  Ti42  1  0.30889003  0.86913680  0.13578595  1
  Ti  Ti43  1  0.27088588  0.79516645  0.49129316  1
  Ti  Ti44  1  0.35926886  0.89160733  0.80324475  1
  Ti  Ti45  1  0.59683480  0.21246319  0.17013074  1
  Ti  Ti46  1  0.63123116  0.27953973  0.51307568  1
  Ti  Ti47  1  0.70531845  0.17656874  0.83742861  1
  Ti  Ti48  1  0.64994187  0.56212163  0.07624839  1
  Ti  Ti49  1  0.64711413  0.51088614  0.51741026  1
  Ti  Ti50  1  0.71935440  0.49353089  0.83683559  1
  Ti  Ti51  1  0.75869970  0.77914754  0.23200695  1
  Ti  Ti52  1  0.66458203  0.80297499  0.43531755  1
  Ti  Ti53  1  0.65203372  0.81012443  0.80045400  1
  Ti  Ti54  1  0.17345050  0.04762427  0.23546601  1
  Ti  Ti55  1  0.13027699  -0.00127906  0.44440292  1
  Ti  Ti56  1  0.11711536  0.01168636  0.82653846  1
  Ti  Ti57  1  0.14019854  0.22883036  0.09701099  1
  Ti  Ti58  1  0.14376640  0.27791821  0.53819112  1
  Ti  Ti59  1  0.22245900  0.36125885  0.82458910  1
  Ti  Ti60  1  0.20383527  0.61618181  0.13951476  1
  Ti  Ti61  1  0.21225260  0.61534275  0.51973314  1
  Ti  Ti62  1  0.20498316  0.62486532  0.81717231  1
  Ti  Ti63  1  0.53868343  -0.04749281  0.21525847  1
  Ti  Ti64  1  0.57390689  -0.03751070  0.53737676  1
  Ti  Ti65  1  0.45486535  -0.00865861  0.94333914  1
  Ti  Ti66  1  0.45983105  0.32585557  0.10716701  1
  Ti  Ti67  1  0.42601762  0.28723395  0.44093173  1
  Ti  Ti68  1  0.52055543  0.23286747  0.84172196  1
  Ti  Ti69  1  0.49339176  0.67748962  0.21634725  1
  Ti  Ti70  1  0.53116762  0.71310939  0.51761637  1
  Ti  Ti71  1  0.56983587  0.63810615  0.88518871  1
  Ti  Ti72  1  0.75031694  -0.01883551  0.16959885  1
  Ti  Ti73  1  0.93713929  -0.00683342  0.50025747  1
  Ti  Ti74  1  0.82453672  0.01610361  0.82279166  1
  Ti  Ti75  1  0.80381842  0.29533893  0.16802922  1
  Ti  Ti76  1  0.82651031  0.29619152  0.48810639  1
  Ti  Ti77  1  0.83542428  0.33323984  0.89059915  1
  Ti  Ti78  1  0.91107783  0.66458756  0.16559433  1
  Ti  Ti79  1  0.89408461  0.74486181  0.56164565  1
  Ti  Ti80  1  0.86067044  0.61373901  0.71366694  1
  Ti  Ti81  1  0.21271417  0.17708420  -0.09551469  1
  Ti  Ti82  1  0.10827857  0.26219062  0.31597757  1
  Ti  Ti83  1  0.20248636  0.11889560  0.64211371  1
  Ti  Ti84  1  0.14925217  0.45820300  0.01224331  1
  Ti  Ti85  1  0.19392863  0.49931006  0.33680660  1
  Ti  Ti86  1  0.12304634  0.46987525  0.59134319  1
  Ti  Ti87  1  0.17678978  0.77648195  -0.01781686  1
  Ti  Ti88  1  0.15465945  0.85734177  0.30147859  1
  Ti  Ti89  1  0.15466717  0.83386983  0.73209328  1
  Ti  Ti90  1  0.44755624  0.16191396  0.00569722  1
  Ti  Ti91  1  0.49687248  0.12275891  0.33767000  1
  Ti  Ti92  1  0.48362451  0.19569014  0.61259934  1
  Ti  Ti93  1  0.54944131  0.44831638  -0.07506989  1
  Ti  Ti94  1  0.48975783  0.47552138  0.31354999  1
  Ti  Ti95  1  0.46440862  0.53490813  0.61633949  1
  Ti  Ti96  1  0.49200004  0.83184883  0.08069648  1
  Ti  Ti97  1  0.46650506  0.85066863  0.38229981  1
  Ti  Ti98  1  0.49573600  0.82861271  0.67310264  1
  Ti  Ti99  1  0.73256234  0.10718875  0.03095147  1
  Ti  Ti100  1  0.88365116  0.17786190  0.35988461  1
  Ti  Ti101  1  0.89466883  0.21223496  0.74275360  1
  Ti  Ti102  1  0.83387752  0.49044738  0.04044910  1
  Ti  Ti103  1  0.84004859  0.53935248  0.30990951  1
  Ti  Ti104  1  0.80171439  0.44779816  0.62782573  1
  Ti  Ti105  1  0.82678326  0.81092006  0.03621749  1
  Ti  Ti106  1  0.84127474  0.84479418  0.40576283  1
  Ti  Ti107  1  0.78296764  0.92822322  0.61159032  1
  Co  Co108  1  0.50822487  0.95122511  0.79133893  1
  Co  Co109  1  0.64017078  0.10637536  0.57516616  1
  Co  Co110  1  0.27252316  0.62423510  -0.00848422  1
  Co  Co111  1  0.11521210  0.61190116  0.96301773  1
  Co  Co112  1  0.59571062  0.79475707  0.27768603  1
  Co  Co113  1  0.91214759  0.43924469  0.17480864  1
  Co  Co114  1  0.38065306  0.65742941  0.53151493  1
  Co  Co115  1  0.74343352  0.96654660  0.46523401  1
  Co  Co116  1  0.25093284  -0.04219465  0.55518288  1
  Co  Co117  1  0.28262812  0.92823542  0.39822122  1
  Co  Co118  1  0.97121727  0.77077894  0.70500390  1
  Co  Co119  1  0.21639287  0.36041868  0.66057747  1
  Co  Co120  1  0.10066915  0.24625758  0.70226631  1
  Co  Co121  1  0.78750303  0.65048008  0.01926298  1
  Co  Co122  1  0.93710371  0.33456201  0.63335137  1
  Co  Co123  1  0.57876611  0.05140875  0.07539599  1
  Co  Co124  1  0.75259568  0.10054970  0.68516906  1
  Co  Co125  1  0.89651397  0.06236562  0.65909267  1
  Co  Co126  1  0.98145656  0.50708356  0.66128038  1
  Co  Co127  1  0.50755384  0.65549266  0.05607722  1
  Co  Co128  1  0.09371627  0.08022007  0.05297011  1
  Co  Co129  1  0.71512938  0.92207410  0.31103873  1
  Co  Co130  1  0.16060590  0.92932319  0.11642785  1
  Co  Co131  1  0.52735607  0.10151302  0.73743912  1
  Co  Co132  1  0.65497917  0.33046985  0.86955926  1
  Co  Co133  1  0.43648234  0.01017730  0.44286924  1
  Co  Co134  1  0.18163831  0.77482970  0.16654734  1
  Co  Co135  1  0.14582211  0.49023928  0.75021316  1
  Co  Co136  1  1.00270578  0.52317829  0.05649012  1
  Co  Co137  1  0.34897578  0.70459823  0.13890609  1
  Co  Co138  1  0.60467867  0.21538022  -0.00127020  1
  Co  Co139  1  0.42442168  0.55887402  0.95396962  1
  Co  Co140  1  0.24556782  0.98321878  0.72253540  1
  Co  Co141  1  0.77038515  0.26046063  1.01185799  1
  Co  Co142  1  0.50535757  0.39512594  0.53394134  1
  Co  Co143  1  0.03028882  0.11106523  0.73823950  1
  Co  Co144  1  0.06118054  0.67193303  0.10586080  1
  Co  Co145  1  0.77487397  0.24526697  0.62231105  1
  Co  Co146  1  0.11229077  0.93219638  0.96445967  1
  Co  Co147  1  0.65255355  0.86269968  0.12815469  1
  Co  Co148  1  0.63245686  0.22030632  0.69631116  1
  Co  Co149  1  0.59300967  0.07620448  0.90037690  1
  Co  Co150  1  0.64927512  0.82564833  0.61004199  1
  Co  Co151  1  -0.03857089  0.26837001  0.20261605  1
  Co  Co152  1  0.75870220  0.33947642  0.74550093  1
  Co  Co153  1  0.30227042  0.84178520  0.65839513  1
  Co  Co154  1  0.26913162  0.01296826  0.89014901  1
  Co  Co155  1  0.64167605  0.08037104  0.24410567  1
  Co  Co156  1  0.87968865  0.44704991  0.77469286  1
  Co  Co157  1  0.81495424  0.11087275  0.51779577  1
  Co  Co158  1  0.10353696  0.99389221  0.61295086  1
  Co  Co159  1  0.29189032  0.51862272  0.66551701  1
  Co  Co160  1  0.58366381  0.97343679  0.37179181  1
  Co  Co161  1  0.26838046  0.50128536  0.89613433  1
  Ni  Ni162  1  0.35771831  0.25615799  0.87972640  1
  Ni  Ni163  1  0.41552464  0.00497628  0.10489696  1
  Ni  Ni164  1  0.91459556  0.16691090  0.06406921  1
  Ni  Ni165  1  0.74114474  0.45799929  0.18765480  1
  Ni  Ni166  1  0.45923639  0.71399689  0.78824389  1
  Ni  Ni167  1  0.45001255  0.30056625  0.27012077  1
  Ni  Ni168  1  0.25352761  0.28800183  0.41271364  1
  Ni  Ni169  1  0.83155545  0.12697320  0.20278042  1
  Ni  Ni170  1  0.03766998  0.12438145  0.38713578  1
  Ni  Ni171  1  0.50253335  0.55752805  0.45375628  1
  Ni  Ni172  1  0.84820970  0.86760271  0.75454770  1
  Ni  Ni173  1  0.27940060  0.76218160  0.84343878  1
  Ni  Ni174  1  0.73687623  0.65282352  0.56099591  1
  Ni  Ni175  1  0.51755013  0.82790118  0.90573821  1
  Ni  Ni176  1  0.86112050  0.72712016  0.84590058  1
  Ni  Ni177  1  0.47499114  0.38350388  0.79755116  1
  Ni  Ni178  1  0.51047259  0.48093510  0.08549629  1
  Ni  Ni179  1  0.87238975  0.58989164  0.49424001  1
  Ni  Ni180  1  0.34084932  0.41107637  0.34209317  1
  Ni  Ni181  1  0.92994254  0.82064111  0.25384837  1
  Ni  Ni182  1  0.28531704  0.23114509  0.73265941  1
  Ni  Ni183  1  0.03178545  0.61846698  0.51437550  1
  Ni  Ni184  1  0.32954110  0.88556564  0.97605521  1
  Ni  Ni185  1  0.96511086  0.43177968  0.92461493  1
  Ni  Ni186  1  0.35136029  0.80988631  0.27963037  1
  Ni  Ni187  1  0.99618493  0.27986222  0.45542418  1
  Ni  Ni188  1  0.75139652  0.62175418  0.18891703  1
  Ni  Ni189  1  0.07825985  0.37200442  0.16692614  1
  Ni  Ni190  1  0.58873382  0.38594073  0.20971853  1
  Ni  Ni191  1  0.10364059  0.40195156  0.42664688  1
  Ni  Ni192  1  0.77647004  0.86867150  0.89568769  1
  Ni  Ni193  1  0.72581212  0.21835267  0.29187516  1
  Ni  Ni194  1  0.30341254  0.24487815  0.05350728  1
  Ni  Ni195  1  0.78944682  0.45597030  0.45066905  1
  Ni  Ni196  1  0.78155003  0.68307121  0.39742658  1
  Ni  Ni197  1  0.12068903  0.72815952  0.42285604  1
  Ni  Ni198  1  0.40871342  0.87518754  0.53554205  1
  Ni  Ni199  1  0.31302745  0.24110716  0.56675928  1
  Ni  Ni200  1  1.01089378  0.86451905  0.39726297  1
  Ni  Ni201  1  0.06111071  0.72134974  0.83853377  1
  Ni  Ni202  1  0.10099118  0.31143718  0.93958197  1
  Ni  Ni203  1  0.26329437  0.16132233  0.30754992  1
  Ni  Ni204  1  0.33583353  0.55716969  0.41633257  1
  Ni  Ni205  1  0.85482864  0.56560205  0.89086258  1
  Ni  Ni206  1  0.57153711  0.52080537  0.75672229  1
  Ni  Ni207  1  0.09215577  0.67535646  0.26980620  1
  Ni  Ni208  1  0.03323858  0.94946534  0.21594131  1
  Ni  Ni209  1  0.85657063  0.15036374  0.91332670  1
  Ni  Ni210  1  0.34834059  0.56138934  0.25618618  1
  Ni  Ni211  1  0.21816829  0.45448828  0.17301581  1
  Ni  Ni212  1  0.43326002  0.68076476  0.36769322  1
  Ni  Ni213  1  0.77110577  0.74757439  0.69096158  1
  Ni  Ni214  1  0.58285563  0.26693699  0.35386895  1
  Ni  Ni215  1  0.89525556  0.92735363  0.13099620  1
