# generated using pymatgen
data_Ti2CoNi
_symmetry_space_group_name_H-M   'P 1'
_cell_length_a   14.63239110
_cell_length_b   14.63065343
_cell_length_c   14.56825678
_cell_angle_alpha   89.96488289
_cell_angle_beta   89.88819909
_cell_angle_gamma   89.97126279
_symmetry_Int_Tables_number   1
_chemical_formula_structural   Ti2CoNi
_chemical_formula_sum   'Ti108 Co54 Ni54'
_cell_volume   3118.78651976
_cell_formula_units_Z   54
loop_
 _symmetry_equiv_pos_site_id
 _symmetry_equiv_pos_as_xyz
  1  'x, y, z'
loop_
 _atom_site_type_symbol
 _atom_site_label
 _atom_site_symmetry_multiplicity
 _atom_site_fract_x
 _atom_site_fract_y
 _atom_site_fract_z
 _atom_site_occupancy
  Ti  Ti0  1  -0.03100129  -0.06618679  0.06928919  1
  Ti  Ti1  1  0.07130530  -0.00098152  0.27000028  1
  Ti  Ti2  1  -0.05669809  -0.00674274  0.62981807  1
  Ti  Ti3  1  0.02516730  0.35021845  0.04011022  1
  Ti  Ti4  1  0.01862805  0.28648161  0.36747389  1
  Ti  Ti5  1  0.00842681  0.32663859  0.66140780  1
  Ti  Ti6  1  -0.01352755  0.62062505  -0.02650458  1
  Ti  Ti7  1  -0.02430068  0.58585837  0.29314365  1
  Ti  Ti8  1  -0.07824230  0.68992626  0.73130391  1
  Ti  Ti9  1  0.29211083  -0.03349375  0.01983602  1
  Ti  Ti10  1  0.33058595  -0.00737431  0.32899002  1
  Ti  Ti11  1  0.33438595  -0.05029261  0.62032743  1
  Ti  Ti12  1  0.36374907  0.44461604  0.04913527  1
  Ti  Ti13  1  0.34188619  0.40745156  0.29679099  1
  Ti  Ti14  1  0.32978634  0.35609825  0.72003098  1
  Ti  Ti15  1  0.26796641  0.70962331  0.05949237  1
  Ti  Ti16  1  0.32231915  0.70108260  0.35590647  1
  Ti  Ti17  1  0.43615175  0.66059418  0.64357053  1
  Ti  Ti18  1  0.58594363  0.03297288  -0.05645952  1
  Ti  Ti19  1  0.63439591  -0.05805646  0.38476596  1
  Ti  Ti20  1  0.71196882  0.01147653  0.78824964  1
  Ti  Ti21  1  0.63130763  0.32166835  -0.05746064  1
  Ti  Ti22  1  0.75501264  0.29064720  0.31626785  1
  Ti  Ti23  1  0.64171112  0.33625256  0.66575980  1
  Ti  Ti24  1  0.56903276  0.67978867  -0.06984415  1
  Ti  Ti25  1  0.73693879  0.67990254  0.38495169  1
  Ti  Ti26  1  0.67628684  0.65779477  0.58480072  1
  Ti  Ti27  1  -0.02654751  0.15342075  0.12295948  1
  Ti  Ti28  1  0.01919828  0.09290515  0.44312224  1
  Ti  Ti29  1  -0.01263853  0.17801567  0.84118311  1
  Ti  Ti30  1  0.04243511  0.42617382  0.21149491  1
  Ti  Ti31  1  0.04830632  0.53002583  0.46283189  1
  Ti  Ti32  1  -0.01844794  0.48892657  0.79713248  1
  Ti  Ti33  1  0.06095817  0.80627900  0.19865175  1
  Ti  Ti34  1  0.02713581  0.86071025  0.48278776  1
  Ti  Ti35  1  0.02656194  0.80371416  0.87421858  1
  Ti  Ti36  1  0.36128052  0.18610143  0.24429082  1
  Ti  Ti37  1  0.31484941  0.14713954  0.56076054  1
  Ti  Ti38  1  0.34550621  0.12252730  0.76261688  1
  Ti  Ti39  1  0.35623199  0.59890877  0.19680973  1
  Ti  Ti40  1  0.31985004  0.49553627  0.56113425  1
  Ti  Ti41  1  0.31378282  0.57584178  0.89954722  1
  Ti  Ti42  1  0.32558130  0.83812369  0.19067113  1
  Ti  Ti43  1  0.33903132  0.85742257  0.44849169  1
  Ti  Ti44  1  0.38970473  0.78317214  0.93089404  1
  Ti  Ti45  1  0.63664287  0.19841471  0.19974504  1
  Ti  Ti46  1  0.65470680  0.12484633  0.49414528  1
  Ti  Ti47  1  0.68968780  0.19946355  0.77803978  1
  Ti  Ti48  1  0.69189381  0.38108693  0.12132175  1
  Ti  Ti49  1  0.60989415  0.44298485  0.51898218  1
  Ti  Ti50  1  0.68117120  0.57273270  0.77646411  1
  Ti  Ti51  1  0.69307140  0.83050811  0.22130645  1
  Ti  Ti52  1  0.61914285  0.92260900  0.60659683  1
  Ti  Ti53  1  0.66881390  0.82872018  0.83402767  1
  Ti  Ti54  1  0.15465233  0.08233589  0.07952414  1
  Ti  Ti55  1  0.15211399  0.03071265  0.55209806  1
  Ti  Ti56  1  0.13694097  -0.00309018  0.83716146  1
  Ti  Ti57  1  0.18776512  0.28823006  0.24241198  1
  Ti  Ti58  1  0.17953735  0.33460366  0.48186589  1
  Ti  Ti59  1  0.11470075  0.32227193  0.83757850  1
  Ti  Ti60  1  0.11490632  0.60209438  0.13797830  1
  Ti  Ti61  1  0.18437006  0.69153458  0.53224494  1
  Ti  Ti62  1  0.11961795  0.64576220  0.78875742  1
  Ti  Ti63  1  0.49522886  0.08119160  0.11451799  1
  Ti  Ti64  1  0.47877983  0.02108921  0.50299942  1
  Ti  Ti65  1  0.42673650  -0.01497993  0.86809991  1
  Ti  Ti66  1  0.48722478  0.32107545  0.13675729  1
  Ti  Ti67  1  0.47423204  0.25386598  0.47381699  1
  Ti  Ti68  1  0.42947267  0.36576621  0.89396241  1
  Ti  Ti69  1  0.54892435  0.66159913  0.15742893  1
  Ti  Ti70  1  0.49124234  0.70763287  0.45361816  1
  Ti  Ti71  1  0.49903441  0.52975853  0.86619351  1
  Ti  Ti72  1  0.77312052  0.00278239  0.14375416  1
  Ti  Ti73  1  0.79075337  -0.03745197  0.49100717  1
  Ti  Ti74  1  0.86186909  -0.10281824  0.87544037  1
  Ti  Ti75  1  0.86409025  0.31162910  0.14720892  1
  Ti  Ti76  1  0.81125853  0.36754178  0.51058576  1
  Ti  Ti77  1  0.78306136  0.39581373  0.82807088  1
  Ti  Ti78  1  0.81867175  0.68496198  0.17496258  1
  Ti  Ti79  1  0.89569729  0.67133482  0.48374588  1
  Ti  Ti80  1  0.78593691  0.69410705  0.92307713  1
  Ti  Ti81  1  0.23998224  0.26785074  -0.01154475  1
  Ti  Ti82  1  0.19838276  0.14839168  0.38494828  1
  Ti  Ti83  1  0.18461520  0.21549789  0.68185793  1
  Ti  Ti84  1  0.13278532  0.47962149  -0.04895606  1
  Ti  Ti85  1  0.18409132  0.58379368  0.34833268  1
  Ti  Ti86  1  0.11841652  0.53280325  0.63086418  1
  Ti  Ti87  1  0.20079577  0.82172319  -0.08273557  1
  Ti  Ti88  1  0.17119044  0.81505968  0.35231729  1
  Ti  Ti89  1  0.21252339  0.81901780  0.70723744  1
  Ti  Ti90  1  0.43142592  0.18186378  -0.05808585  1
  Ti  Ti91  1  0.52194812  0.10386482  0.32820172  1
  Ti  Ti92  1  0.49013137  0.19723951  0.65328487  1
  Ti  Ti93  1  0.56604924  0.49583462  0.03594024  1
  Ti  Ti94  1  0.52076979  0.46943724  0.35093411  1
  Ti  Ti95  1  0.52693959  0.50536820  0.68158280  1
  Ti  Ti96  1  0.58989506  0.82369453  0.03976432  1
  Ti  Ti97  1  0.50904288  0.91214223  0.22210258  1
  Ti  Ti98  1  0.44846318  0.83483334  0.72974986  1
  Ti  Ti99  1  0.84545533  0.08287476  -0.01544997  1
  Ti  Ti100  1  0.87069025  0.13992163  0.34058853  1
  Ti  Ti101  1  0.87746542  0.17564278  0.67506394  1
  Ti  Ti102  1  0.83024216  0.49522468  0.00165344  1
  Ti  Ti103  1  0.79021146  0.50238344  0.26585088  1
  Ti  Ti104  1  0.89482429  0.51038542  0.61481461  1
  Ti  Ti105  1  0.77717972  0.83897915  0.04913966  1
  Ti  Ti106  1  0.83273949  0.83407328  0.37160029  1
  Ti  Ti107  1  0.79578803  0.86167333  0.67477326  1
  Co  Co108  1  0.61357735  0.58998298  0.42194097  1
  Co  Co109  1  0.06633143  0.76274214  0.68411099  1
  Co  Co110  1  0.01629753  0.65242791  0.58566690  1
  Co  Co111  1  0.20745380  0.71494361  0.22034571  1
  Co  Co112  1  0.32517626  0.14592309  0.07817366  1
  Co  Co113  1  0.24935709  0.54745536  0.05768047  1
  Co  Co114  1  0.22441545  0.10339772  0.22341482  1
  Co  Co115  1  0.46545189  0.28888652  0.31427441  1
  Co  Co116  1  0.59679854  0.76143081  0.32117574  1
  Co  Co117  1  0.31815717  0.30598742  0.56566506  1
  Co  Co118  1  0.68845482  0.68792407  0.05809236  1
  Co  Co119  1  0.36182515  1.01045964  0.16944804  1
  Co  Co120  1  0.47673411  0.84924256  0.56427601  1
  Co  Co121  1  0.44430232  0.76837353  0.27489495  1
  Co  Co122  1  0.44185925  0.66979116  0.81029336  1
  Co  Co123  1  0.48695509  0.88157465  0.38916239  1
  Co  Co124  1  0.01245502  0.07092426  -0.02837736  1
  Co  Co125  1  0.20884968  0.94492572  0.22568467  1
  Co  Co126  1  0.29983683  0.25455555  0.84075034  1
  Co  Co127  1  0.47992661  0.54493977  0.51916637  1
  Co  Co128  1  0.42455281  0.60002665  1.03245153  1
  Co  Co129  1  0.16470033  0.15749425  0.83472659  1
  Co  Co130  1  0.63586336  0.02443716  0.23596884  1
  Co  Co131  1  0.27161136  0.41561660  0.87604759  1
  Co  Co132  1  0.95229114  0.86412270  0.73849118  1
  Co  Co133  1  0.68516059  0.53614717  0.93474640  1
  Co  Co134  1  0.92545665  0.80417188  0.59052361  1
  Co  Co135  1  0.46313077  0.02441569  0.66645570  1
  Co  Co136  1  0.49178795  0.62077253  0.30618393  1
  Co  Co137  1  0.16497183  -0.03109154  0.40224085  1
  Co  Co138  1  0.80272532  0.33713187  -0.00825077  1
  Co  Co139  1  0.62132165  0.96241138  0.09332513  1
  Co  Co140  1  0.75994832  0.20391262  0.91969884  1
  Co  Co141  1  0.76179852  0.54600353  0.49817493  1
  Co  Co142  1  0.92212329  0.23004528  -0.01589445  1
  Co  Co143  1  0.52318981  0.85452862  0.89190710  1
  Co  Co144  1  0.77686949  0.79429868  0.52630840  1
  Co  Co145  1  0.56414644  0.95070149  0.76606501  1
  Co  Co146  1  0.68574051  0.11178712  0.05391457  1
  Co  Co147  1  0.28520129  0.09829731  0.92340872  1
  Co  Co148  1  0.41027167  0.40093035  0.45608033  1
  Co  Co149  1  0.08802145  0.21118904  0.97928599  1
  Co  Co150  1  0.84036694  0.08989736  0.81787624  1
  Co  Co151  1  0.08650834  0.92781615  0.66908952  1
  Co  Co152  1  0.79975824  0.15984092  0.19145604  1
  Co  Co153  1  -0.02883124  0.68173176  0.13695481  1
  Co  Co154  1  0.07750742  0.75835578  0.03671807  1
  Co  Co155  1  0.67410148  0.63114219  0.24702485  1
  Co  Co156  1  0.97778177  0.00004313  0.82127833  1
  Co  Co157  1  0.60941937  0.25183649  0.38440874  1
  Co  Co158  1  0.09977002  0.93448159  0.98134120  1
  Co  Co159  1  0.30725929  0.27566170  0.39477096  1
  Co  Co160  1  0.71758786  0.54335474  0.11551881  1
  Co  Co161  1  0.70637768  0.12305270  0.34181440  1
  Ni  Ni162  1  0.92960197  0.97219914  0.38194985  1
  Ni  Ni163  1  0.32681451  0.76796282  0.58676900  1
  Ni  Ni164  1  0.48283904  0.48903645  0.18124412  1
  Ni  Ni165  1  0.46868178  0.36718786  0.60961643  1
  Ni  Ni166  1  0.18532611  0.85745188  0.09501519  1
  Ni  Ni167  1  0.73116878  0.96600433  0.95878305  1
  Ni  Ni168  1  0.84137818  0.56779429  0.83426694  1
  Ni  Ni169  1  0.31870091  0.30500624  0.13327230  1
  Ni  Ni170  1  0.87946834  0.85932418  0.19847993  1
  Ni  Ni171  1  0.78425295  0.98074531  0.30797996  1
  Ni  Ni172  1  0.94354401  0.37564681  0.90119072  1
  Ni  Ni173  1  0.60675852  0.36355225  0.25965295  1
  Ni  Ni174  1  0.05601912  0.10175579  0.69815118  1
  Ni  Ni175  1  0.69834473  0.43627772  0.38363766  1
  Ni  Ni176  1  0.18058066  0.39495044  0.09475845  1
  Ni  Ni177  1  0.91444330  0.51790764  0.14241715  1
  Ni  Ni178  1  0.56431741  0.21325620  0.03744355  1
  Ni  Ni179  1  0.83450514  0.34199118  0.68053758  1
  Ni  Ni180  1  0.36859059  0.51776925  0.74842808  1
  Ni  Ni181  1  0.21782833  0.04111080  0.70001557  1
  Ni  Ni182  1  0.37474919  0.12636327  0.41176974  1
  Ni  Ni183  1  0.88908159  0.49423375  0.41734958  1
  Ni  Ni184  1  0.73963415  0.22012627  0.59534265  1
  Ni  Ni185  1  0.26221891  0.63309435  0.67579059  1
  Ni  Ni186  1  0.75687955  0.71402814  0.74637086  1
  Ni  Ni187  1  0.13458276  0.42456247  0.35109392  1
  Ni  Ni188  1  0.21992682  0.48527412  0.21830019  1
  Ni  Ni189  1  0.91845704  0.77612710  1.00678880  1
  Ni  Ni190  1  0.61772930  0.09105179  0.65985113  1
  Ni  Ni191  1  0.17957960  0.37895599  0.64161607  1
  Ni  Ni192  1  0.72941172  0.47786712  0.64602065  1
  Ni  Ni193  1  0.28158110  0.71558250  0.81992755  1
  Ni  Ni194  1  0.06806207  0.16694203  0.25653392  1
  Ni  Ni195  1  0.52603631  0.11023097  0.80101559  1
  Ni  Ni196  1  0.91847446  0.02903831  0.22056187  1
  Ni  Ni197  1  0.77109179  1.04432586  0.63682515  1
  Ni  Ni198  1  0.15337117  0.47207246  0.77865072  1
  Ni  Ni199  1  0.90062683  0.37589641  0.29973753  1
  Ni  Ni200  1  0.94238831  0.74278387  0.30433380  1
  Ni  Ni201  1  0.09056211  0.20404015  0.54318636  1
  Ni  Ni202  1  0.35983692  0.54830018  0.39852226  1
  Ni  Ni203  1  0.62454067  0.80269884  0.48292781  1
  Ni  Ni204  1  0.43583264  0.75998905  0.09289734  1
  Ni  Ni205  1  0.85900754  0.10561668  0.51516178  1
  Ni  Ni206  1  0.61386124  0.41830924  0.81293717  1
  Ni  Ni207  1  0.45410029  0.92489823  1.03930034  1
  Ni  Ni208  1  0.05617489  0.69564778  0.41290112  1
  Ni  Ni209  1  0.15757316  0.64514636  0.95180672  1
  Ni  Ni210  1  0.52631466  0.27465394  0.79521536  1
  Ni  Ni211  1  0.58356452  0.70570637  0.73182373  1
  Ni  Ni212  1  0.19006766  0.86236142  0.53786117  1
  Ni  Ni213  1  0.29606809  0.92462951  0.80329547  1
  Ni  Ni214  1  0.93029048  0.24250753  0.50416393  1
  Ni  Ni215  1  0.99136491  0.38810239  0.51047743  1
