# generated using pymatgen
data_Ti2CoNi
_symmetry_space_group_name_H-M   'P 1'
_cell_length_a   14.69416051
_cell_length_b   14.69093768
_cell_length_c   14.63048594
_cell_angle_alpha   89.98910012
_cell_angle_beta   90.02954558
_cell_angle_gamma   89.99633735
_symmetry_Int_Tables_number   1
_chemical_formula_structural   Ti2CoNi
_chemical_formula_sum   'Ti108 Co54 Ni54'
_cell_volume   3158.29709387
_cell_formula_units_Z   54
loop_
 _symmetry_equiv_pos_site_id
 _symmetry_equiv_pos_as_xyz
  1  'x, y, z'
loop_
 _atom_site_type_symbol
 _atom_site_label
 _atom_site_symmetry_multiplicity
 _atom_site_fract_x
 _atom_site_fract_y
 _atom_site_fract_z
 _atom_site_occupancy
  Ti  Ti0  1  -0.04352940  -0.06669336  -0.01294319  1
  Ti  Ti1  1  0.08318574  0.00567657  0.34930468  1
  Ti  Ti2  1  -0.04171001  0.02886165  0.62532915  1
  Ti  Ti3  1  0.08700791  0.31675920  -0.04399562  1
  Ti  Ti4  1  -0.01007883  0.36223174  0.39121728  1
  Ti  Ti5  1  0.04291326  0.31857060  0.72958688  1
  Ti  Ti6  1  0.01475918  0.63154642  0.02082105  1
  Ti  Ti7  1  0.04391616  0.61112419  0.36689566  1
  Ti  Ti8  1  -0.01426954  0.67283714  0.61843161  1
  Ti  Ti9  1  0.37571506  0.02452103  0.08051571  1
  Ti  Ti10  1  0.31782529  0.03924370  0.32825111  1
  Ti  Ti11  1  0.31709745  0.03186543  0.62277119  1
  Ti  Ti12  1  0.40747459  0.29649161  0.05420785  1
  Ti  Ti13  1  0.27918615  0.35570150  0.33814158  1
  Ti  Ti14  1  0.29246590  0.31780310  0.63557406  1
  Ti  Ti15  1  0.32154514  0.62150130  0.00580064  1
  Ti  Ti16  1  0.28020098  0.68430178  0.34231174  1
  Ti  Ti17  1  0.30208684  0.62693880  0.64289118  1
  Ti  Ti18  1  0.67239585  0.00628062  0.04290333  1
  Ti  Ti19  1  0.56720101  0.00779637  0.32628771  1
  Ti  Ti20  1  0.66187054  -0.04178895  0.67396451  1
  Ti  Ti21  1  0.61244357  0.35351896  0.03947407  1
  Ti  Ti22  1  0.65513401  0.38104129  0.29857885  1
  Ti  Ti23  1  0.70514504  0.31585749  0.73558706  1
  Ti  Ti24  1  0.70673733  0.75039863  -0.10701306  1
  Ti  Ti25  1  0.75626547  0.65293197  0.34202995  1
  Ti  Ti26  1  0.63808886  0.65741047  0.67999024  1
  Ti  Ti27  1  0.01623622  0.10359909  0.15744093  1
  Ti  Ti28  1  -0.00950441  0.20646690  0.53524969  1
  Ti  Ti29  1  -0.05006633  0.20980752  0.86038239  1
  Ti  Ti30  1  -0.02662429  0.46114078  0.22184129  1
  Ti  Ti31  1  0.00932188  0.48869732  0.54236037  1
  Ti  Ti32  1  0.00077162  0.46947089  0.85918682  1
  Ti  Ti33  1  0.02614471  0.90423206  0.18099509  1
  Ti  Ti34  1  0.01631285  0.89018103  0.51318069  1
  Ti  Ti35  1  0.02353610  0.85440565  0.69750600  1
  Ti  Ti36  1  0.29928852  0.18937786  0.18891047  1
  Ti  Ti37  1  0.37368789  0.19571475  0.50282198  1
  Ti  Ti38  1  0.28841878  0.16937227  0.91813878  1
  Ti  Ti39  1  0.35995746  0.52970060  0.18529151  1
  Ti  Ti40  1  0.34265056  0.50212266  0.46836946  1
  Ti  Ti41  1  0.32949944  0.46372382  0.80804819  1
  Ti  Ti42  1  0.33735775  0.84003984  0.20924300  1
  Ti  Ti43  1  0.40916765  0.81214607  0.47988696  1
  Ti  Ti44  1  0.37546901  0.79718152  0.81584655  1
  Ti  Ti45  1  0.72840833  0.18349773  0.08461302  1
  Ti  Ti46  1  0.66282031  0.09506123  0.51763694  1
  Ti  Ti47  1  0.58961618  0.12756392  0.78712003  1
  Ti  Ti48  1  0.66529987  0.54493892  0.17912029  1
  Ti  Ti49  1  0.52866426  0.47824185  0.51165219  1
  Ti  Ti50  1  0.62995453  0.45908607  0.87025515  1
  Ti  Ti51  1  0.69191810  0.74338873  0.16773198  1
  Ti  Ti52  1  0.80336154  0.90928239  0.52190868  1
  Ti  Ti53  1  0.64499381  0.93940513  0.85850192  1
  Ti  Ti54  1  0.19400503  0.01160518  0.11752254  1
  Ti  Ti55  1  0.20547110  -0.07194346  0.50181235  1
  Ti  Ti56  1  0.14810023  0.02812112  0.80180536  1
  Ti  Ti57  1  0.13054880  0.29197509  0.19388759  1
  Ti  Ti58  1  0.18092536  0.27157409  0.47392641  1
  Ti  Ti59  1  0.21505295  0.30961851  0.79630270  1
  Ti  Ti60  1  0.14425713  0.73406776  0.18684179  1
  Ti  Ti61  1  0.14789492  0.73078020  0.50846567  1
  Ti  Ti62  1  0.10328242  0.70989273  0.82788076  1
  Ti  Ti63  1  0.51290966  -0.07642381  0.15145583  1
  Ti  Ti64  1  0.58319971  -0.08838942  0.48997746  1
  Ti  Ti65  1  0.45134999  0.03695296  0.90103539  1
  Ti  Ti66  1  0.44469914  0.32522515  0.24859543  1
  Ti  Ti67  1  0.55959859  0.27419331  0.48052205  1
  Ti  Ti68  1  0.49288608  0.32282541  0.74741913  1
  Ti  Ti69  1  0.49307650  0.70981550  0.14033432  1
  Ti  Ti70  1  0.58890739  0.67951381  0.47659401  1
  Ti  Ti71  1  0.56285388  0.64330357  0.85975771  1
  Ti  Ti72  1  0.74618917  0.02827963  0.23005039  1
  Ti  Ti73  1  0.89763438  0.05021353  0.41646155  1
  Ti  Ti74  1  0.78853375  0.08634354  0.83776041  1
  Ti  Ti75  1  0.81096401  0.36817497  0.13738345  1
  Ti  Ti76  1  0.82987058  0.32157980  0.50607948  1
  Ti  Ti77  1  0.77233447  0.30451634  0.92181589  1
  Ti  Ti78  1  0.86776572  0.64731908  0.17669620  1
  Ti  Ti79  1  0.79211993  0.68333809  0.53850325  1
  Ti  Ti80  1  0.87417049  0.71651685  0.77906266  1
  Ti  Ti81  1  0.09456971  0.12550277  -0.01656416  1
  Ti  Ti82  1  0.05914532  0.18548877  0.35069267  1
  Ti  Ti83  1  0.15754471  0.15952956  0.63342238  1
  Ti  Ti84  1  0.21034072  0.44191166  0.04607067  1
  Ti  Ti85  1  0.17498947  0.51008977  0.25111994  1
  Ti  Ti86  1  0.15586184  0.50501613  0.71219846  1
  Ti  Ti87  1  0.11759343  0.79987121  0.00153082  1
  Ti  Ti88  1  0.11055330  0.81282090  0.35164843  1
  Ti  Ti89  1  0.21244045  0.86380706  0.71348881  1
  Ti  Ti90  1  0.53129800  0.15547358  0.03347027  1
  Ti  Ti91  1  0.57593378  0.18578007  0.31420998  1
  Ti  Ti92  1  0.41655697  0.14875330  0.72480656  1
  Ti  Ti93  1  0.53006619  0.53807317  0.02895803  1
  Ti  Ti94  1  0.49747758  0.52248424  0.31764349  1
  Ti  Ti95  1  0.49691063  0.50973407  0.71134216  1
  Ti  Ti96  1  0.52050482  0.83418504  -0.03357314  1
  Ti  Ti97  1  0.55568561  0.80571138  0.31680902  1
  Ti  Ti98  1  0.52051031  0.81267315  0.64907601  1
  Ti  Ti99  1  0.91524260  0.22318347  0.04857284  1
  Ti  Ti100  1  0.85641210  0.17485190  0.24265896  1
  Ti  Ti101  1  0.85842746  0.20572783  0.68160939  1
  Ti  Ti102  1  0.84927109  0.57699643  -0.07176797  1
  Ti  Ti103  1  0.81318045  0.48215343  0.41212536  1
  Ti  Ti104  1  0.81132314  0.49773766  0.65164786  1
  Ti  Ti105  1  0.83348862  0.77476231  0.01860458  1
  Ti  Ti106  1  0.82235371  0.83778231  0.28628571  1
  Ti  Ti107  1  0.84906899  0.90827832  0.79614587  1
  Co  Co108  1  0.70360744  0.14323280  0.68040242  1
  Co  Co109  1  0.03113685  0.60884461  0.18722519  1
  Co  Co110  1  0.90768956  0.08370798  0.95584799  1
  Co  Co111  1  0.11822840  0.18918199  0.83087405  1
  Co  Co112  1  0.88430255  0.34339926  0.79265107  1
  Co  Co113  1  0.79265008  0.94089210  0.95350250  1
  Co  Co114  1  0.65917951  0.89724452  0.20665649  1
  Co  Co115  1  1.00024705  0.35045729  0.09538978  1
  Co  Co116  1  0.82916854  0.35057730  0.30890810  1
  Co  Co117  1  0.69924565  0.25830668  0.57319094  1
  Co  Co118  1  0.35849032  0.46861769  0.63303754  1
  Co  Co119  1  0.26560616  0.02262754  0.95518738  1
  Co  Co120  1  0.05168189  0.48298900  0.03096735  1
  Co  Co121  1  0.95933762  1.02228893  0.80473735  1
  Co  Co122  1  0.74339154  0.61124209  0.79853825  1
  Co  Co123  1  0.05383091  0.88082662  0.84809364  1
  Co  Co124  1  0.42690770  0.67097185  0.27270637  1
  Co  Co125  1  0.74289163  0.10966998  0.37317774  1
  Co  Co126  1  0.17647594  0.59265351  0.10697711  1
  Co  Co127  1  0.59391756  0.65501413  0.29040601  1
  Co  Co128  1  0.12959194  0.58654932  0.57566132  1
  Co  Co129  1  0.55759274  0.79836331  0.80378580  1
  Co  Co130  1  0.26420585  0.15070425  0.75051852  1
  Co  Co131  1  0.54604736  0.20067752  0.62842517  1
  Co  Co132  1  0.56467079  0.25974956  0.15835585  1
  Co  Co133  1  0.81944784  0.14339895  0.52915602  1
  Co  Co134  1  0.82305559  0.89425446  0.13031711  1
  Co  Co135  1  0.80624158  1.02632128  0.66029534  1
  Co  Co136  1  0.24508266  0.19417363  0.34710288  1
  Co  Co137  1  0.65231006  0.53368824  0.38196820  1
  Co  Co138  1  0.70974546  0.23503322  0.23563650  1
  Co  Co139  1  0.66141578  0.49299500  0.71864990  1
  Co  Co140  1  0.30152720  0.68086339  0.16632946  1
  Co  Co141  1  0.44513304  0.33981068  0.58436535  1
  Co  Co142  1  0.88648031  0.51048060  0.08929542  1
  Co  Co143  1  0.06808150  0.06660006  0.49872013  1
  Co  Co144  1  0.16117057  0.10996248  0.24072354  1
  Co  Co145  1  0.25427383  0.74405450  0.92942933  1
  Co  Co146  1  0.21683330  0.88512563  0.87684904  1
  Co  Co147  1  0.32656038  -0.01226884  0.79404855  1
  Co  Co148  1  0.89063957  0.21833022  0.39354880  1
  Co  Co149  1  0.25185503  0.87777466  0.05101889  1
  Co  Co150  1  0.37010097  0.90252744  0.93913683  1
  Co  Co151  1  0.90401689  0.39110121  0.96262425  1
  Co  Co152  1  0.80144455  0.49806226  0.24797939  1
  Co  Co153  1  0.59891886  0.37693466  0.62583196  1
  Co  Co154  1  0.01701934  0.14598705  0.71421733  1
  Co  Co155  1  0.71625747  0.25804751  0.40139760  1
  Co  Co156  1  0.12456121  0.98290685  0.63365444  1
  Co  Co157  1  0.85288162  0.05661744  0.10051546  1
  Co  Co158  1  0.79277794  0.45942130  0.83452610  1
  Co  Co159  1  0.60430527  0.08524364  0.17524158  1
  Co  Co160  1  0.11679988  -0.03420098  -0.01968463  1
  Co  Co161  1  0.40979123  0.19922198  0.34768981  1
  Ni  Ni162  1  0.91427818  0.00409796  0.24818128  1
  Ni  Ni163  1  0.43153387  0.91398861  0.34158310  1
  Ni  Ni164  1  0.30762247  0.34657761  0.92978716  1
  Ni  Ni165  1  0.67951715  0.54826780  0.55190836  1
  Ni  Ni166  1  0.67881203  0.39964039  0.47869777  1
  Ni  Ni167  1  0.91864760  0.36920247  0.63301740  1
  Ni  Ni168  1  0.19548888  0.92638501  0.25722723  1
  Ni  Ni169  1  0.28579831  0.78577268  0.58481039  1
  Ni  Ni170  1  0.67408530  0.84651737  0.03799645  1
  Ni  Ni171  1  0.49947535  0.09207460  0.46054284  1
  Ni  Ni172  1  0.20758839  0.44539890  0.55388814  1
  Ni  Ni173  1  0.97638424  0.74661487  0.27311759  1
  Ni  Ni174  1  0.19561123  0.57386662  0.43102153  1
  Ni  Ni175  1  0.42687406  0.64741899  0.42870117  1
  Ni  Ni176  1  -0.02941931  0.28489374  0.23937641  1
  Ni  Ni177  1  0.45490845  0.67279212  0.73411838  1
  Ni  Ni178  1  0.67928020  0.80335845  0.58340536  1
  Ni  Ni179  1  0.38018486  0.89082208  0.66267946  1
  Ni  Ni180  1  0.52793113  0.43589339  0.16284724  1
  Ni  Ni181  1  0.96271925  0.76431122  0.91583116  1
  Ni  Ni182  1  0.46181761  0.61719389  0.58081974  1
  Ni  Ni183  1  0.29090699  0.36769354  0.17001362  1
  Ni  Ni184  1  0.70951468  0.79201103  0.42256061  1
  Ni  Ni185  1  0.71725959  0.94810527  0.38135244  1
  Ni  Ni186  1  0.95529788  0.89009799  0.35972621  1
  Ni  Ni187  1  0.60069776  0.28598725  0.88046181  1
  Ni  Ni188  1  0.66731436  0.14576846  0.93252334  1
  Ni  Ni189  1  0.50790711  0.02115666  0.61192035  1
  Ni  Ni190  1  0.44552112  0.22537194  0.88801477  1
  Ni  Ni191  1  0.16771108  0.45128123  0.87967609  1
  Ni  Ni192  1  0.07701297  0.34569061  0.57131875  1
  Ni  Ni193  1  0.45167011  0.13337861  0.19349810  1
  Ni  Ni194  1  0.16228309  0.60157379  0.94142472  1
  Ni  Ni195  1  0.60741829  0.69044771  0.02240522  1
  Ni  Ni196  1  0.37976748  0.78277700  0.04683777  1
  Ni  Ni197  1  0.86790455  0.80568647  0.63461539  1
  Ni  Ni198  1  0.47517382  0.39413336  0.91099133  1
  Ni  Ni199  1  0.71618850  0.80913838  0.73968472  1
  Ni  Ni200  1  0.74262584  0.46119855  0.00814645  1
  Ni  Ni201  1  0.13479748  0.42885401  0.40104432  1
  Ni  Ni202  1  -0.03413177  0.74629314  0.44569370  1
  Ni  Ni203  1  0.28068039  0.84953148  0.37717475  1
  Ni  Ni204  1  0.43183115  0.36561660  0.41217024  1
  Ni  Ni205  1  0.23566972  0.09382790  0.48107306  1
  Ni  Ni206  1  0.22431766  0.26065994  0.05029726  1
  Ni  Ni207  1  0.91006296  0.59760483  0.46850020  1
  Ni  Ni208  1  0.91977467  0.56411631  0.75139701  1
  Ni  Ni209  1  -0.02739955  0.77246164  0.10730754  1
  Ni  Ni210  1  0.49588975  0.95829436  0.76538582  1
  Ni  Ni211  1  0.27099337  0.62955336  0.81088362  1
  Ni  Ni212  1  0.15428352  0.70908805  0.67667629  1
  Ni  Ni213  1  0.38370978  0.45895470  0.03159289  1
  Ni  Ni214  1  0.42810474  0.55878209  0.88820592  1
  Ni  Ni215  1  0.74818860  0.62057184  0.05172065  1
