# generated using pymatgen
data_Ti2CoNi
_symmetry_space_group_name_H-M   'P 1'
_cell_length_a   14.47052424
_cell_length_b   14.50077069
_cell_length_c   14.46721134
_cell_angle_alpha   90.19070788
_cell_angle_beta   90.14412391
_cell_angle_gamma   89.82169398
_symmetry_Int_Tables_number   1
_chemical_formula_structural   Ti2CoNi
_chemical_formula_sum   'Ti108 Co54 Ni54'
_cell_volume   3035.66822010
_cell_formula_units_Z   54
loop_
 _symmetry_equiv_pos_site_id
 _symmetry_equiv_pos_as_xyz
  1  'x, y, z'
loop_
 _atom_site_type_symbol
 _atom_site_label
 _atom_site_symmetry_multiplicity
 _atom_site_fract_x
 _atom_site_fract_y
 _atom_site_fract_z
 _atom_site_occupancy
  Ti  Ti0  1  0.07381818  -0.01234434  0.03719619  1
  Ti  Ti1  1  0.02959611  0.04458369  0.26685190  1
  Ti  Ti2  1  0.09709140  0.03795012  0.73425121  1
  Ti  Ti3  1  -0.01262985  0.28412283  0.01822482  1
  Ti  Ti4  1  -0.03146808  0.27910563  0.39373405  1
  Ti  Ti5  1  0.00629337  0.37204666  0.70062065  1
  Ti  Ti6  1  -0.04689061  0.73933269  0.00277293  1
  Ti  Ti7  1  0.00604080  0.64739911  0.33310252  1
  Ti  Ti8  1  -0.05297700  0.72253176  0.68226499  1
  Ti  Ti9  1  0.29940994  -0.07233285  0.00991213  1
  Ti  Ti10  1  0.32846672  -0.01159243  0.43790858  1
  Ti  Ti11  1  0.30749038  0.04372216  0.60546204  1
  Ti  Ti12  1  0.42385416  0.29672635  -0.01743244  1
  Ti  Ti13  1  0.39186593  0.40599177  0.34745496  1
  Ti  Ti14  1  0.29377120  0.32169635  0.72707647  1
  Ti  Ti15  1  0.33112185  0.70065622  -0.00686697  1
  Ti  Ti16  1  0.33422755  0.69816696  0.31980569  1
  Ti  Ti17  1  0.35482057  0.61910503  0.73294568  1
  Ti  Ti18  1  0.65002995  0.02327991  0.10163341  1
  Ti  Ti19  1  0.64612315  0.05128543  0.29364254  1
  Ti  Ti20  1  0.74431635  0.00171952  0.58572019  1
  Ti  Ti21  1  0.65078841  0.39002507  0.05282041  1
  Ti  Ti22  1  0.70777925  0.36246071  0.30198171  1
  Ti  Ti23  1  0.62035183  0.37848901  0.68405039  1
  Ti  Ti24  1  0.65245414  0.75523819  -0.03252013  1
  Ti  Ti25  1  0.66500419  0.59614389  0.29891953  1
  Ti  Ti26  1  0.69257400  0.71007228  0.64998405  1
  Ti  Ti27  1  -0.00692757  0.22029315  0.20653203  1
  Ti  Ti28  1  0.04608846  0.12608912  0.45164482  1
  Ti  Ti29  1  -0.00859262  0.12126187  0.91253996  1
  Ti  Ti30  1  0.00370828  0.58776260  0.08757741  1
  Ti  Ti31  1  -0.02573770  0.52712075  0.56447891  1
  Ti  Ti32  1  -0.02264157  0.45375546  0.90926393  1
  Ti  Ti33  1  0.05103488  0.75270113  0.17568897  1
  Ti  Ti34  1  -0.00425119  0.84094898  0.54630497  1
  Ti  Ti35  1  -0.12310937  0.83939043  0.85512653  1
  Ti  Ti36  1  0.30294149  0.19544674  0.14489223  1
  Ti  Ti37  1  0.23108740  0.17679858  0.46323530  1
  Ti  Ti38  1  0.39970377  0.17074261  0.83154203  1
  Ti  Ti39  1  0.35700704  0.48766905  0.05983433  1
  Ti  Ti40  1  0.30364486  0.46502426  0.52602535  1
  Ti  Ti41  1  0.26145063  0.48681147  0.86060358  1
  Ti  Ti42  1  0.25866014  0.84889655  0.23291242  1
  Ti  Ti43  1  0.31873896  0.82714312  0.55090188  1
  Ti  Ti44  1  0.30503473  0.80618577  0.83646163  1
  Ti  Ti45  1  0.66851313  0.21588604  0.15292276  1
  Ti  Ti46  1  0.64756346  0.23532170  0.44042912  1
  Ti  Ti47  1  0.69004146  0.23040014  0.82175239  1
  Ti  Ti48  1  0.59995877  0.60858037  0.12326298  1
  Ti  Ti49  1  0.65997939  0.43211457  0.50548382  1
  Ti  Ti50  1  0.71605367  0.43974765  0.83308525  1
  Ti  Ti51  1  0.70802645  0.76256536  0.22564427  1
  Ti  Ti52  1  0.67286251  0.83309913  0.50332814  1
  Ti  Ti53  1  0.70295605  0.90695629  0.72992794  1
  Ti  Ti54  1  0.20231629  0.03693216  0.16795426  1
  Ti  Ti55  1  0.13358839  -0.06569317  0.48877419  1
  Ti  Ti56  1  0.25085459  -0.02450071  0.81994556  1
  Ti  Ti57  1  0.24001639  0.38958060  0.21932412  1
  Ti  Ti58  1  0.09250328  0.30761748  0.51495510  1
  Ti  Ti59  1  0.10334153  0.32137672  0.83941257  1
  Ti  Ti60  1  0.17814477  0.59948617  0.16374218  1
  Ti  Ti61  1  0.15607519  0.66112504  0.48653124  1
  Ti  Ti62  1  0.01802385  0.66028485  0.83120248  1
  Ti  Ti63  1  0.48556565  -0.04409109  0.16549985  1
  Ti  Ti64  1  0.56752377  -0.00018541  0.44992632  1
  Ti  Ti65  1  0.56325867  0.03835726  0.82783120  1
  Ti  Ti66  1  0.44220042  0.30840208  0.18252993  1
  Ti  Ti67  1  0.43146827  0.25795219  0.49014502  1
  Ti  Ti68  1  0.43597472  0.39223271  0.82441191  1
  Ti  Ti69  1  0.50293301  0.76808705  0.21064520  1
  Ti  Ti70  1  0.52506364  0.61150674  0.43358091  1
  Ti  Ti71  1  0.52110655  0.69531006  0.80103180  1
  Ti  Ti72  1  0.85347612  -0.00471899  0.16616760  1
  Ti  Ti73  1  0.90427746  0.05033637  0.50025371  1
  Ti  Ti74  1  0.77931005  0.00482241  0.86643324  1
  Ti  Ti75  1  0.83366632  0.33438065  0.10199080  1
  Ti  Ti76  1  0.81877413  0.34804837  0.47174601  1
  Ti  Ti77  1  0.87706263  0.28133391  0.86159668  1
  Ti  Ti78  1  0.85838395  0.61848464  0.23133211  1
  Ti  Ti79  1  0.85821070  0.61501073  0.42984557  1
  Ti  Ti80  1  0.81618530  0.61281682  0.79186766  1
  Ti  Ti81  1  0.27073554  0.14395242  -0.04167232  1
  Ti  Ti82  1  0.15248367  0.22738233  0.28843869  1
  Ti  Ti83  1  0.14134502  0.22606961  0.66658276  1
  Ti  Ti84  1  0.15497080  0.43556086  0.01875312  1
  Ti  Ti85  1  0.17427355  0.52350800  0.36178783  1
  Ti  Ti86  1  0.18145834  0.46800569  0.67523327  1
  Ti  Ti87  1  0.12382924  0.81781260  -0.09449944  1
  Ti  Ti88  1  0.09450455  0.81176419  0.36395599  1
  Ti  Ti89  1  0.15776785  0.76408752  0.71261816  1
  Ti  Ti90  1  0.50091353  0.11098721  0.01878655  1
  Ti  Ti91  1  0.44590345  0.13003481  0.34448060  1
  Ti  Ti92  1  0.51406202  0.18026852  0.65610124  1
  Ti  Ti93  1  0.54626907  0.52637047  -0.04788716  1
  Ti  Ti94  1  0.47126228  0.55374768  0.23573526  1
  Ti  Ti95  1  0.52516038  0.53259794  0.62541154  1
  Ti  Ti96  1  0.49442731  0.89429593  -0.03551902  1
  Ti  Ti97  1  0.45840312  0.85454418  0.41213060  1
  Ti  Ti98  1  0.53577133  0.84889338  0.66432012  1
  Ti  Ti99  1  0.82166175  0.15048233  0.01665673  1
  Ti  Ti100  1  0.83457133  0.14318934  0.33732321  1
  Ti  Ti101  1  0.83550051  0.15705631  0.70428911  1
  Ti  Ti102  1  0.75257737  0.55903874  0.01587950  1
  Ti  Ti103  1  0.89966493  0.44843968  0.28875250  1
  Ti  Ti104  1  0.82946853  0.41654339  0.65621323  1
  Ti  Ti105  1  0.79870311  0.86214866  0.03678984  1
  Ti  Ti106  1  0.90927840  0.82453094  0.32753253  1
  Ti  Ti107  1  0.88133765  0.92153886  0.68233254  1
  Co  Co108  1  0.11614732  0.13819727  0.11674500  1
  Co  Co109  1  0.88287669  0.48861495  0.09626937  1
  Co  Co110  1  0.91283165  0.57868908  -0.06586792  1
  Co  Co111  1  0.82785634  0.76324236  0.55922211  1
  Co  Co112  1  0.72619643  0.91924163  0.20899618  1
  Co  Co113  1  0.25683664  0.82690899  0.40720667  1
  Co  Co114  1  0.59083007  0.36914186  0.89559515  1
  Co  Co115  1  0.13976888  0.25857550  0.98715563  1
  Co  Co116  1  0.22619350  0.58827027  0.01514057  1
  Co  Co117  1  0.18797110  0.60249681  0.74030645  1
  Co  Co118  1  0.83882065  0.89812272  0.47406847  1
  Co  Co119  1  -0.03616187  0.25061770  0.61109388  1
  Co  Co120  1  0.75376319  0.49354854  0.36940410  1
  Co  Co121  1  0.17927866  0.68124442  0.32852803  1
  Co  Co122  1  0.34796178  0.20470691  0.61864196  1
  Co  Co123  1  0.54336720  0.21101418  0.90932515  1
  Co  Co124  1  0.14444591  0.71349103  0.04553342  1
  Co  Co125  1  0.58506683  0.39907505  0.20982250  1
  Co  Co126  1  0.45382466  0.10413055  0.51494876  1
  Co  Co127  1  0.79891433  0.14612113  0.17546418  1
  Co  Co128  1  0.09105737  0.91439725  0.20405858  1
  Co  Co129  1  0.56806112  0.46319125  0.34942277  1
  Co  Co130  1  0.39511909  0.57435139  0.55673178  1
  Co  Co131  1  0.85770171  -0.01669771  0.33320416  1
  Co  Co132  1  0.63410130  0.12882788  0.54644044  1
  Co  Co133  1  0.27701116  0.32606477  0.06389304  1
  Co  Co134  1  0.57702594  1.00461876  0.63358357  1
  Co  Co135  1  0.74542000  0.06555462  0.43618264  1
  Co  Co136  1  0.20598407  0.67235374  0.86892986  1
  Co  Co137  1  0.37010055  0.70384669  0.47172047  1
  Co  Co138  1  0.49809766  0.41758805  0.48974469  1
  Co  Co139  1  0.58342267  0.85724321  0.83175606  1
  Co  Co140  1  0.50211442  0.44137714  0.08054174  1
  Co  Co141  1  0.13263145  0.29284059  0.13936849  1
  Co  Co142  1  0.14547871  0.13481227  0.87014503  1
  Co  Co143  1  0.09066150  0.58115514  0.94073539  1
  Co  Co144  1  0.55917616  0.27068000  0.06731762  1
  Co  Co145  1  0.27699126  0.33476153  0.90204249  1
  Co  Co146  1  0.38332854  0.01890522  0.91141203  1
  Co  Co147  1  0.38639887  0.55922325  0.39724790  1
  Co  Co148  1  0.85684419  0.18903226  0.51660457  1
  Co  Co149  1  0.41413432  0.04458725  0.72775104  1
  Co  Co150  1  0.72537873  0.46712591  0.17855146  1
  Co  Co151  1  0.77125879  0.69218240  0.08898466  1
  Co  Co152  1  0.68694414  0.10567281  0.72422932  1
  Co  Co153  1  0.08383123  0.63715445  0.64028471  1
  Co  Co154  1  0.95461260  0.38173966  0.54219477  1
  Co  Co155  1  0.32038878  0.91096438  0.69844470  1
  Co  Co156  1  0.77811484  0.72643389  0.39316361  1
  Co  Co157  1  0.96094389  0.10582162  0.08920046  1
  Co  Co158  1  0.53521137  0.27691350  0.76471906  1
  Co  Co159  1  0.16768147  0.86594806  0.07844398  1
  Co  Co160  1  0.25247576  0.65934482  0.60212350  1
  Co  Co161  1  0.45584467  0.93649621  0.55384126  1
  Ni  Ni162  1  0.43544525  0.89558523  0.80234589  1
  Ni  Ni163  1  0.41740668  0.58641558  0.88790828  1
  Ni  Ni164  1  1.00185426  0.39013637  0.16128027  1
  Ni  Ni165  1  0.70661396  0.90457871  0.35619156  1
  Ni  Ni166  1  0.08445979  0.39130851  0.31378427  1
  Ni  Ni167  1  0.87570171  0.76744925  0.16972917  1
  Ni  Ni168  1  0.49994198  0.12945681  0.17641099  1
  Ni  Ni169  1  0.45395540  0.33582493  0.64106500  1
  Ni  Ni170  1  0.64440539  0.94213286  0.96698252  1
  Ni  Ni171  1  0.22400316  0.36562737  0.40029942  1
  Ni  Ni172  1  0.06428809  0.97087119  0.87637682  1
  Ni  Ni173  1  0.15856199  0.08331061  0.57596638  1
  Ni  Ni174  1  0.37229663  0.46555293  0.69079403  1
  Ni  Ni175  1  0.02672568  0.52174043  0.24860497  1
  Ni  Ni176  1  0.58389179  0.22987339  0.28935222  1
  Ni  Ni177  1  0.28741248  0.10828810  0.29756508  1
  Ni  Ni178  1  0.93396903  1.02833288  0.79768836  1
  Ni  Ni179  1  0.13579816  0.45832536  0.50185378  1
  Ni  Ni180  1  0.73174275  0.27487708  0.61621281  1
  Ni  Ni181  1  0.99216307  0.94587770  0.40359813  1
  Ni  Ni182  1  1.00099431  0.47972606  0.41000968  1
  Ni  Ni183  1  0.17751736  -0.01515492  0.33824866  1
  Ni  Ni184  1  0.55534277  0.50936437  0.79873351  1
  Ni  Ni185  1  0.25592138  0.30837653  0.56137696  1
  Ni  Ni186  1  0.61765314  0.85168844  0.11147392  1
  Ni  Ni187  1  0.50267270  0.69615665  0.61070410  1
  Ni  Ni188  1  0.90294369  -0.01677172  0.96453842  1
  Ni  Ni189  1  0.70418706  0.75240823  0.80112088  1
  Ni  Ni190  1  0.85953637  0.28786652  0.25712735  1
  Ni  Ni191  1  0.65520273  0.62247773  0.86247670  1
  Ni  Ni192  1  0.30275952  0.54477958  0.24317124  1
  Ni  Ni193  1  0.58792873  0.75864826  0.36439222  1
  Ni  Ni194  1  0.83471986  0.41654333  0.95969509  1
  Ni  Ni195  1  0.82683902  0.59830469  0.63450632  1
  Ni  Ni196  1  0.36152865  0.06086854  0.09198728  1
  Ni  Ni197  1  0.37787036  0.81940533  0.09427671  1
  Ni  Ni198  1  0.03194266  0.84753457  0.76956749  1
  Ni  Ni199  1  0.10472028  0.49779170  0.82286758  1
  Ni  Ni200  1  0.49760744  0.72337707  0.02250386  1
  Ni  Ni201  1  0.68896006  0.54246709  0.69419240  1
  Ni  Ni202  1  0.38446562  0.66851127  0.15323074  1
  Ni  Ni203  1  0.26275464  0.13810809  0.74527868  1
  Ni  Ni204  1  0.80071766  0.72610799  0.92437017  1
  Ni  Ni205  1  0.36882661  0.97390642  0.28228575  1
  Ni  Ni206  1  0.98907784  0.18898070  0.77399683  1
  Ni  Ni207  1  0.32142588  0.25909364  0.31615005  1
  Ni  Ni208  1  0.95508584  0.52152219  0.73188564  1
  Ni  Ni209  1  0.97405069  0.09011315  0.64161371  1
  Ni  Ni210  1  0.38826314  0.77397524  0.68881172  1
  Ni  Ni211  1  -0.00818137  0.68757343  0.51012394  1
  Ni  Ni212  1  0.66478277  0.11170417  0.96561303  1
  Ni  Ni213  1  0.17444480  0.92767658  0.64503623  1
  Ni  Ni214  1  0.73371216  0.27725701  0.96690098  1
  Ni  Ni215  1  0.96002040  0.90264171  0.11498213  1
