# generated using pymatgen
data_Ti2CoNi
_symmetry_space_group_name_H-M   'P 1'
_cell_length_a   14.69125874
_cell_length_b   14.65245167
_cell_length_c   14.67650860
_cell_angle_alpha   90.24600839
_cell_angle_beta   90.03382754
_cell_angle_gamma   89.89129013
_symmetry_Int_Tables_number   1
_chemical_formula_structural   Ti2CoNi
_chemical_formula_sum   'Ti108 Co54 Ni54'
_cell_volume   3159.27331995
_cell_formula_units_Z   54
loop_
 _symmetry_equiv_pos_site_id
 _symmetry_equiv_pos_as_xyz
  1  'x, y, z'
loop_
 _atom_site_type_symbol
 _atom_site_label
 _atom_site_symmetry_multiplicity
 _atom_site_fract_x
 _atom_site_fract_y
 _atom_site_fract_z
 _atom_site_occupancy
  Ti  Ti0  1  0.02945905  0.05116433  -0.05526149  1
  Ti  Ti1  1  0.02543262  -0.02487927  0.27283408  1
  Ti  Ti2  1  -0.02295156  0.00926788  0.58231400  1
  Ti  Ti3  1  0.02768505  0.33890750  0.02909986  1
  Ti  Ti4  1  -0.05901688  0.32923492  0.40910968  1
  Ti  Ti5  1  -0.08869411  0.26193183  0.60617107  1
  Ti  Ti6  1  0.03825846  0.67399730  -0.04244098  1
  Ti  Ti7  1  0.02784480  0.64829773  0.42298707  1
  Ti  Ti8  1  -0.05582892  0.60049019  0.64142673  1
  Ti  Ti9  1  0.24849243  -0.02622400  0.00795722  1
  Ti  Ti10  1  0.33398315  -0.00487238  0.36626072  1
  Ti  Ti11  1  0.29975771  -0.06038896  0.68382287  1
  Ti  Ti12  1  0.31529841  0.37141224  0.07788816  1
  Ti  Ti13  1  0.38243523  0.29369485  0.29058319  1
  Ti  Ti14  1  0.31773359  0.41023332  0.65916301  1
  Ti  Ti15  1  0.42937328  0.65091926  -0.00411819  1
  Ti  Ti16  1  0.34945567  0.61035231  0.32244837  1
  Ti  Ti17  1  0.34207447  0.69219371  0.73713683  1
  Ti  Ti18  1  0.64847415  -0.05415383  -0.00205402  1
  Ti  Ti19  1  0.65477921  -0.01853682  0.39650478  1
  Ti  Ti20  1  0.67447361  0.02079508  0.69761060  1
  Ti  Ti21  1  0.72931930  0.28916131  0.05689813  1
  Ti  Ti22  1  0.65586298  0.39005807  0.38661966  1
  Ti  Ti23  1  0.74110521  0.30327386  0.69583321  1
  Ti  Ti24  1  0.67232794  0.68555997  0.03364141  1
  Ti  Ti25  1  0.67808440  0.56315174  0.27218927  1
  Ti  Ti26  1  0.73768100  0.71966467  0.65580660  1
  Ti  Ti27  1  0.03402315  0.17853744  0.18323644  1
  Ti  Ti28  1  0.01298570  0.12582424  0.42903646  1
  Ti  Ti29  1  0.01405194  0.14736689  0.76964656  1
  Ti  Ti30  1  -0.01347172  0.48875058  0.14995030  1
  Ti  Ti31  1  0.04807887  0.46824902  0.50850341  1
  Ti  Ti32  1  -0.04176189  0.39763499  0.76226463  1
  Ti  Ti33  1  -0.02355876  0.79897101  0.20385301  1
  Ti  Ti34  1  -0.06921121  0.85054870  0.45462446  1
  Ti  Ti35  1  -0.08941547  0.75172422  0.82237100  1
  Ti  Ti36  1  0.28188649  0.17569161  0.11739008  1
  Ti  Ti37  1  0.32118846  0.16756274  0.44229520  1
  Ti  Ti38  1  0.35380043  0.20198749  0.83329391  1
  Ti  Ti39  1  0.28760048  0.55962456  0.15395767  1
  Ti  Ti40  1  0.26852201  0.59114076  0.58434717  1
  Ti  Ti41  1  0.31790464  0.44733367  0.87258561  1
  Ti  Ti42  1  0.36202906  0.88260839  0.19410112  1
  Ti  Ti43  1  0.39130983  0.86334940  0.48861361  1
  Ti  Ti44  1  0.38869008  0.81168657  0.90812764  1
  Ti  Ti45  1  0.60779428  0.16330763  0.11633847  1
  Ti  Ti46  1  0.69609468  0.17436997  0.55890877  1
  Ti  Ti47  1  0.71588320  0.17811093  0.84568619  1
  Ti  Ti48  1  0.69115839  0.47572695  0.10931164  1
  Ti  Ti49  1  0.59910720  0.53028843  0.54670622  1
  Ti  Ti50  1  0.62870010  0.53568549  0.84673694  1
  Ti  Ti51  1  0.63994548  0.90275421  0.22718176  1
  Ti  Ti52  1  0.70088194  0.81176046  0.47297633  1
  Ti  Ti53  1  0.60318082  0.88672821  0.81588368  1
  Ti  Ti54  1  0.20820802  0.00532520  0.19609525  1
  Ti  Ti55  1  0.17530841  0.03314195  0.52342228  1
  Ti  Ti56  1  0.13991170  -0.04859196  0.82510218  1
  Ti  Ti57  1  0.20970180  0.35025858  0.23484665  1
  Ti  Ti58  1  0.19026619  0.25477076  0.55552704  1
  Ti  Ti59  1  0.17471646  0.32997854  0.76037625  1
  Ti  Ti60  1  0.12066272  0.67549009  0.14575802  1
  Ti  Ti61  1  0.23492946  0.70938676  0.43881933  1
  Ti  Ti62  1  0.15724660  0.63759129  0.82151400  1
  Ti  Ti63  1  0.42904327  0.07502934  0.17856390  1
  Ti  Ti64  1  0.50823840  0.05270243  0.46734951  1
  Ti  Ti65  1  0.41737030  -0.01573485  0.85092605  1
  Ti  Ti66  1  0.52149582  0.36745925  0.10653579  1
  Ti  Ti67  1  0.41806205  0.33114022  0.52590526  1
  Ti  Ti68  1  0.55418683  0.25621129  0.91905442  1
  Ti  Ti69  1  0.50566300  0.58914832  0.17786972  1
  Ti  Ti70  1  0.43700399  0.66529190  0.48101600  1
  Ti  Ti71  1  0.52394751  0.71005087  0.80411125  1
  Ti  Ti72  1  0.85208541  -0.04665601  0.15608632  1
  Ti  Ti73  1  0.79618906  -0.01483276  0.52506351  1
  Ti  Ti74  1  0.87072126  -0.05208126  0.90982512  1
  Ti  Ti75  1  0.83692870  0.37444801  0.22966096  1
  Ti  Ti76  1  0.76500123  0.41279603  0.53462689  1
  Ti  Ti77  1  0.76859406  0.38674672  0.87083038  1
  Ti  Ti78  1  0.81261389  0.70109685  0.18673392  1
  Ti  Ti79  1  0.83601283  0.67667687  0.49224782  1
  Ti  Ti80  1  0.71324172  0.70689168  0.84229857  1
  Ti  Ti81  1  0.18185039  0.16873741  -0.07037385  1
  Ti  Ti82  1  0.14544202  0.22353924  0.34756884  1
  Ti  Ti83  1  0.20447889  0.13603561  0.72193306  1
  Ti  Ti84  1  0.17890101  0.51120478  -0.01423248  1
  Ti  Ti85  1  0.13935075  0.53715169  0.28717448  1
  Ti  Ti86  1  0.11148652  0.50534070  0.69181627  1
  Ti  Ti87  1  0.19500219  0.79781804  -0.05634692  1
  Ti  Ti88  1  0.19296730  0.87113799  0.35242210  1
  Ti  Ti89  1  0.16405797  0.78061741  0.63422818  1
  Ti  Ti90  1  0.51004403  0.08283203  -0.02062489  1
  Ti  Ti91  1  0.63458897  0.19393884  0.35329797  1
  Ti  Ti92  1  0.52598155  0.23336516  0.69352621  1
  Ti  Ti93  1  0.49181937  0.44541417  -0.07505193  1
  Ti  Ti94  1  0.45974358  0.45975578  0.38041612  1
  Ti  Ti95  1  0.50658675  0.46287603  0.70241844  1
  Ti  Ti96  1  0.51655209  0.80892064  0.09648118  1
  Ti  Ti97  1  0.53191048  0.74335347  0.31860423  1
  Ti  Ti98  1  0.55084789  0.85037369  0.60874918  1
  Ti  Ti99  1  0.86488000  0.11287296  0.05028728  1
  Ti  Ti100  1  0.78065518  0.18037122  0.22385106  1
  Ti  Ti101  1  0.84590733  0.09031850  0.70503023  1
  Ti  Ti102  1  0.91966117  0.52174203  -0.04404549  1
  Ti  Ti103  1  0.85199827  0.55859787  0.32505645  1
  Ti  Ti104  1  0.81674928  0.55542448  0.77715637  1
  Ti  Ti105  1  0.89643862  0.79871817  0.02821091  1
  Ti  Ti106  1  0.80779170  0.86765660  0.31564798  1
  Ti  Ti107  1  0.89571211  0.86239772  0.66670202  1
  Co  Co108  1  0.74587670  0.54054281  0.95636547  1
  Co  Co109  1  0.32883230  0.75959219  0.59030979  1
  Co  Co110  1  0.78098265  0.56649920  0.60731779  1
  Co  Co111  1  0.41235539  0.50012331  0.05748037  1
  Co  Co112  1  0.83085550  0.54026969  0.15729749  1
  Co  Co113  1  0.12286082  0.38326422  0.38634912  1
  Co  Co114  1  0.96650004  0.97926872  0.77740355  1
  Co  Co115  1  0.10611960  0.63206383  0.56751090  1
  Co  Co116  1  0.88086626  0.19011605  0.35636033  1
  Co  Co117  1  0.19924530  0.41604673  0.54924541  1
  Co  Co118  1  0.42908050  0.17181203  0.56803544  1
  Co  Co119  1  0.54340984  0.85331208  0.43377214  1
  Co  Co120  1  0.92544844  0.35829525  0.91166030  1
  Co  Co121  1  0.98437217  0.57779052  0.80870283  1
  Co  Co122  1  0.30734370  0.63902481  0.88890742  1
  Co  Co123  1  0.29433783  0.10246390  0.59497952  1
  Co  Co124  1  0.77858458  0.27335189  0.45339855  1
  Co  Co125  1  0.23503888  0.71883497  0.25958460  1
  Co  Co126  1  0.84319860  0.66823913  0.94143114  1
  Co  Co127  1  0.14434359  0.45023742  0.12803388  1
  Co  Co128  1  0.71931301  0.56083526  0.44463660  1
  Co  Co129  1  0.27023873  0.04774186  0.84269587  1
  Co  Co130  1  0.54098402  0.97752273  0.12537030  1
  Co  Co131  1  0.28490292  0.45914224  0.32834893  1
  Co  Co132  1  0.60132681  0.69466614  0.51218450  1
  Co  Co133  1  0.42703951  0.83493186  0.72928965  1
  Co  Co134  1  0.41490040  0.99521996  0.58363362  1
  Co  Co135  1  0.39885088  0.45060677  0.21596052  1
  Co  Co136  1  0.33093012  0.25073358  0.67288356  1
  Co  Co137  1  0.27488214  0.32837881  0.42270157  1
  Co  Co138  1  0.94704109  0.64943218  0.08735752  1
  Co  Co139  1  0.40348711  0.09976511  0.71892342  1
  Co  Co140  1  0.89532908  1.01126914  0.39427493  1
  Co  Co141  1  0.87067278  0.25049735  0.78530562  1
  Co  Co142  1  0.87771967  0.13510637  0.52418473  1
  Co  Co143  1  0.25241523  0.80795579  0.10208025  1
  Co  Co144  1  0.57035834  0.78369807  0.94483877  1
  Co  Co145  1  0.57583252  0.55235721  0.02340427  1
  Co  Co146  1  0.83674240  0.23930512  0.95292044  1
  Co  Co147  1  0.07352850  0.80419981  0.05392415  1
  Co  Co148  1  0.64204748  0.40258831  0.96810673  1
  Co  Co149  1  0.90343095  0.27058976  0.11375427  1
  Co  Co150  1  0.75931808  1.02963995  0.28142592  1
  Co  Co151  1  0.55320615  0.09038550  0.62203724  1
  Co  Co152  1  0.50488310  0.97275099  0.71476330  1
  Co  Co153  1  0.87811982  0.10485702  0.86866721  1
  Co  Co154  1  0.56494560  0.08826404  0.82145197  1
  Co  Co155  1  0.23376174  0.88289795  0.51854030  1
  Co  Co156  1  0.33857049  0.48677729  0.48291830  1
  Co  Co157  1  0.84410808  0.40956244  0.04963773  1
  Co  Co158  1  0.91625257  0.08724710  0.23820258  1
  Co  Co159  1  0.59316051  0.07345582  0.25510183  1
  Co  Co160  1  0.75864925  0.11327052  0.41804339  1
  Co  Co161  1  0.18859441  0.54544313  0.43953075  1
  Ni  Ni162  1  0.05649492  0.95454512  0.43495793  1
  Ni  Ni163  1  0.52389856  0.24160662  0.23289901  1
  Ni  Ni164  1  0.68437302  0.46356448  0.69417232  1
  Ni  Ni165  1  0.48760850  0.94825512  0.30632583  1
  Ni  Ni166  1  0.39253567  0.30323587  0.95361801  1
  Ni  Ni167  1  0.99008143  0.47362830  0.33453508  1
  Ni  Ni168  1  0.10661202  0.00767495  0.67751527  1
  Ni  Ni169  1  0.77543261  0.86495484  0.78281478  1
  Ni  Ni170  1  0.02004778  0.86334723  0.90793837  1
  Ni  Ni171  1  0.23283778  0.66334119  0.02451126  1
  Ni  Ni172  1  0.72320430  0.87967398  0.62892698  1
  Ni  Ni173  1  0.56369218  0.43849841  0.24999401  1
  Ni  Ni174  1  -0.01101365  0.62777056  0.24781879  1
  Ni  Ni175  1  0.90783256  0.43373553  0.61513542  1
  Ni  Ni176  1  0.73728281  0.83785108  0.10766177  1
  Ni  Ni177  1  0.06188635  0.34408290  0.62820272  1
  Ni  Ni178  1  0.20738041  0.33612805  0.93333412  1
  Ni  Ni179  1  0.89017387  0.51312413  0.47531083  1
  Ni  Ni180  1  0.02948072  0.34084173  0.23493400  1
  Ni  Ni181  1  0.16225075  0.27713170  0.08748520  1
  Ni  Ni182  1  0.07659545  0.44850754  0.87276180  1
  Ni  Ni183  1  0.56298119  0.58726025  0.38523632  1
  Ni  Ni184  1  0.34937022  0.10859769  -0.01881800  1
  Ni  Ni185  1  0.16379887  0.05395355  0.35276688  1
  Ni  Ni186  1  0.98173115  0.74893665  0.57795155  1
  Ni  Ni187  1  0.61977612  0.61637204  0.69474966  1
  Ni  Ni188  1  0.72556567  0.01227363  0.85753310  1
  Ni  Ni189  1  0.48455743  0.69414910  0.63560375  1
  Ni  Ni190  1  0.13322247  0.84965442  0.20107810  1
  Ni  Ni191  1  0.73013888  0.70259348  0.34892452  1
  Ni  Ni192  1  0.06142067  0.27451231  0.86948243  1
  Ni  Ni193  1  0.43642451  0.34149054  0.79236758  1
  Ni  Ni194  1  0.67170577  0.31915661  0.22261743  1
  Ni  Ni195  1  0.28875250  0.13699364  0.27802832  1
  Ni  Ni196  1  0.60138291  0.35787149  0.59030383  1
  Ni  Ni197  1  0.60943349  0.35719653  0.79747811  1
  Ni  Ni198  1  0.99083077  0.94837837  0.06791905  1
  Ni  Ni199  1  0.41279616  0.94219831  1.02864665  1
  Ni  Ni200  1  0.36913994  0.79178666  0.33827721  1
  Ni  Ni201  1  0.70853089  0.03539926  0.12345477  1
  Ni  Ni202  1  0.45168374  0.13093296  0.33367289  1
  Ni  Ni203  1  0.89715312  0.72764244  0.33972521  1
  Ni  Ni204  1  0.64559744  0.72918993  0.19769040  1
  Ni  Ni205  1  0.75024044  0.82830825  0.94094522  1
  Ni  Ni206  1  0.27263638  0.54036943  0.75021760  1
  Ni  Ni207  1  0.13063206  0.09555550  0.07440395  1
  Ni  Ni208  1  0.09713119  0.79832722  0.47648465  1
  Ni  Ni209  1  0.55354207  0.23517531  0.49117012  1
  Ni  Ni210  1  0.44017497  0.56843334  0.81480009  1
  Ni  Ni211  1  0.04099255  0.70741725  0.72457828  1
  Ni  Ni212  1  0.44507044  0.21868034  0.08045815  1
  Ni  Ni213  1  0.38622691  0.71341441  0.17733000  1
  Ni  Ni214  1  0.24963290  0.81468373  0.78846014  1
  Ni  Ni215  1  0.05478735  0.16307248  0.60593214  1
