# generated using pymatgen
data_Ti2CoNi
_symmetry_space_group_name_H-M   'P 1'
_cell_length_a   14.61007677
_cell_length_b   14.58368032
_cell_length_c   14.62386011
_cell_angle_alpha   89.74279696
_cell_angle_beta   89.97371495
_cell_angle_gamma   89.97613964
_symmetry_Int_Tables_number   1
_chemical_formula_structural   Ti2CoNi
_chemical_formula_sum   'Ti108 Co54 Ni54'
_cell_volume   3115.85471424
_cell_formula_units_Z   54
loop_
 _symmetry_equiv_pos_site_id
 _symmetry_equiv_pos_as_xyz
  1  'x, y, z'
loop_
 _atom_site_type_symbol
 _atom_site_label
 _atom_site_symmetry_multiplicity
 _atom_site_fract_x
 _atom_site_fract_y
 _atom_site_fract_z
 _atom_site_occupancy
  Ti  Ti0  1  0.05194721  0.00378054  0.02326560  1
  Ti  Ti1  1  0.04177014  0.09911736  0.34599789  1
  Ti  Ti2  1  0.01582721  -0.00852193  0.65743898  1
  Ti  Ti3  1  0.00595535  0.29499155  -0.02506009  1
  Ti  Ti4  1  0.05837063  0.39575506  0.27972605  1
  Ti  Ti5  1  -0.02852977  0.28890121  0.67060449  1
  Ti  Ti6  1  -0.01676656  0.57564022  -0.04981095  1
  Ti  Ti7  1  -0.02014283  0.75155708  0.28694697  1
  Ti  Ti8  1  -0.03224890  0.63859457  0.75038094  1
  Ti  Ti9  1  0.26946192  0.01863986  -0.01413780  1
  Ti  Ti10  1  0.33970159  -0.06718817  0.38678669  1
  Ti  Ti11  1  0.31439826  -0.01971376  0.57792328  1
  Ti  Ti12  1  0.28968330  0.37692269  0.05052855  1
  Ti  Ti13  1  0.36678903  0.39598254  0.31839850  1
  Ti  Ti14  1  0.31951811  0.40052854  0.72055926  1
  Ti  Ti15  1  0.38204269  0.57855884  0.03889582  1
  Ti  Ti16  1  0.29328644  0.70452125  0.30784914  1
  Ti  Ti17  1  0.34320027  0.58948763  0.64489939  1
  Ti  Ti18  1  0.67858756  0.03383434  0.00808284  1
  Ti  Ti19  1  0.74668806  -0.05439728  0.36258691  1
  Ti  Ti20  1  0.69431533  -0.05250134  0.69391897  1
  Ti  Ti21  1  0.69975538  0.37038830  -0.01453057  1
  Ti  Ti22  1  0.57034225  0.36982639  0.30602480  1
  Ti  Ti23  1  0.69630235  0.31148466  0.70790846  1
  Ti  Ti24  1  0.75109864  0.65978179  0.02209992  1
  Ti  Ti25  1  0.68075028  0.65691880  0.37856960  1
  Ti  Ti26  1  0.67202164  0.62727857  0.63876262  1
  Ti  Ti27  1  -0.04083171  0.13574247  0.14146987  1
  Ti  Ti28  1  0.05979033  0.16453851  0.54829913  1
  Ti  Ti29  1  -0.04673260  0.12095685  0.88914058  1
  Ti  Ti30  1  0.04547941  0.48081463  0.12248195  1
  Ti  Ti31  1  -0.01285086  0.56881605  0.52914188  1
  Ti  Ti32  1  0.03648294  0.44903683  0.78259343  1
  Ti  Ti33  1  0.01071070  0.94441308  0.22807392  1
  Ti  Ti34  1  -0.05167643  0.88251398  0.49129060  1
  Ti  Ti35  1  -0.01193262  0.80775241  0.83960501  1
  Ti  Ti36  1  0.33678305  0.14481490  0.11947433  1
  Ti  Ti37  1  0.32624378  0.17050658  0.56468116  1
  Ti  Ti38  1  0.34931763  0.17992894  0.85575436  1
  Ti  Ti39  1  0.23153492  0.53410745  0.22156291  1
  Ti  Ti40  1  0.32767299  0.45027955  0.49691735  1
  Ti  Ti41  1  0.33788474  0.60076190  0.84858649  1
  Ti  Ti42  1  0.42485534  0.77867555  0.11566320  1
  Ti  Ti43  1  0.33306238  0.73173362  0.50947801  1
  Ti  Ti44  1  0.36716310  0.79501423  0.80950430  1
  Ti  Ti45  1  0.61805050  0.16006412  0.14751110  1
  Ti  Ti46  1  0.68273893  0.08899664  0.48102743  1
  Ti  Ti47  1  0.56663533  0.22055920  0.86934391  1
  Ti  Ti48  1  0.67464107  0.51394383  0.17451703  1
  Ti  Ti49  1  0.65564905  0.44733588  0.45770134  1
  Ti  Ti50  1  0.71957053  0.47832408  0.81860609  1
  Ti  Ti51  1  0.66191990  0.81473564  0.14401952  1
  Ti  Ti52  1  0.60923336  0.90707898  0.51217663  1
  Ti  Ti53  1  0.68413368  0.78756913  0.81625424  1
  Ti  Ti54  1  0.20743128  -0.02366015  0.17491723  1
  Ti  Ti55  1  0.12892496  -0.00565390  0.49877562  1
  Ti  Ti56  1  0.09781382  -0.03153250  0.83929737  1
  Ti  Ti57  1  0.13611912  0.28890638  0.10406459  1
  Ti  Ti58  1  0.17860943  0.31832675  0.41420986  1
  Ti  Ti59  1  0.18911985  0.33090838  0.87209986  1
  Ti  Ti60  1  0.08622303  0.68124676  0.13536049  1
  Ti  Ti61  1  0.15192359  0.69031169  0.54562123  1
  Ti  Ti62  1  0.17238051  0.70652190  0.83501780  1
  Ti  Ti63  1  0.48541583  0.02763894  0.23120862  1
  Ti  Ti64  1  0.47748474  0.05482674  0.49737124  1
  Ti  Ti65  1  0.41043974  -0.00566968  0.83542035  1
  Ti  Ti66  1  0.45702803  0.30016390  0.15578694  1
  Ti  Ti67  1  0.49783873  0.25386514  0.47895535  1
  Ti  Ti68  1  0.41797777  0.37553517  0.89014956  1
  Ti  Ti69  1  0.55731900  0.64419715  0.07133089  1
  Ti  Ti70  1  0.52680314  0.73123093  0.51100615  1
  Ti  Ti71  1  0.51899702  0.67016264  0.77816500  1
  Ti  Ti72  1  0.78681351  -0.02043589  0.17075635  1
  Ti  Ti73  1  0.89793755  0.06155216  0.46402153  1
  Ti  Ti74  1  0.77709944  0.05856114  0.83775640  1
  Ti  Ti75  1  0.78636139  0.31324102  0.15971264  1
  Ti  Ti76  1  0.78949116  0.33472306  0.52364876  1
  Ti  Ti77  1  0.86800141  0.33906570  0.83901312  1
  Ti  Ti78  1  0.80743652  0.67308037  0.21774232  1
  Ti  Ti79  1  0.83823113  0.68297757  0.55120378  1
  Ti  Ti80  1  0.80236467  0.65508498  0.82759459  1
  Ti  Ti81  1  0.13770315  0.14805860  -0.09290501  1
  Ti  Ti82  1  0.22945323  0.17950353  0.28605193  1
  Ti  Ti83  1  0.19148570  0.21681096  0.71224521  1
  Ti  Ti84  1  0.19435292  0.58213500  0.02053806  1
  Ti  Ti85  1  0.08822618  0.59280916  0.35510357  1
  Ti  Ti86  1  0.15670108  0.48115564  0.56893559  1
  Ti  Ti87  1  0.18097923  0.83769665  -0.02314247  1
  Ti  Ti88  1  0.11932166  0.84991177  0.38112355  1
  Ti  Ti89  1  0.20510882  0.87603303  0.69093434  1
  Ti  Ti90  1  0.48482767  0.08108898  0.00564749  1
  Ti  Ti91  1  0.55216153  0.17043579  0.33190614  1
  Ti  Ti92  1  0.51679736  0.19167088  0.68315634  1
  Ti  Ti93  1  0.52128669  0.43923747  0.04236275  1
  Ti  Ti94  1  0.48058603  0.57527489  0.33679286  1
  Ti  Ti95  1  0.50498392  0.49070364  0.61180177  1
  Ti  Ti96  1  0.54164671  0.86097769  -0.03592961  1
  Ti  Ti97  1  0.55893060  0.84161007  0.31068838  1
  Ti  Ti98  1  0.47447835  0.92067916  0.65803647  1
  Ti  Ti99  1  0.80173684  0.20347276  -0.00517778  1
  Ti  Ti100  1  0.90807743  0.25160247  0.31466637  1
  Ti  Ti101  1  0.82673677  0.17079713  0.59524533  1
  Ti  Ti102  1  0.84878789  0.49517790  0.10507122  1
  Ti  Ti103  1  0.90240705  0.45680746  0.39816033  1
  Ti  Ti104  1  0.84989131  0.49429898  0.66163951  1
  Ti  Ti105  1  0.83635126  0.89573974  -0.05478699  1
  Ti  Ti106  1  0.82389003  0.78330041  0.39448748  1
  Ti  Ti107  1  0.89640996  0.84589990  0.67817523  1
  Co  Co108  1  0.37388957  0.87488259  0.96716710  1
  Co  Co109  1  0.57881494  0.40699862  0.87499719  1
  Co  Co110  1  0.26514143  0.68368728  0.13966729  1
  Co  Co111  1  0.50386461  0.55492503  0.91335605  1
  Co  Co112  1  0.03980480  0.27363023  0.81492273  1
  Co  Co113  1  0.48404185  0.42967316  0.45132085  1
  Co  Co114  1  0.92479006  0.93237777  0.09370354  1
  Co  Co115  1  0.83111879  0.83760885  0.23480958  1
  Co  Co116  1  0.36276318  0.24836515  0.71489055  1
  Co  Co117  1  0.08610800  0.32199997  0.55440655  1
  Co  Co118  1  0.33708333  0.27570548  0.42903252  1
  Co  Co119  1  0.80719132  0.80382932  0.07736994  1
  Co  Co120  1  0.69415916  0.46546820  0.62687211  1
  Co  Co121  1  0.43640426  0.87152081  0.50290119  1
  Co  Co122  1  0.93846901  0.25495669  0.47787964  1
  Co  Co123  1  0.58879530  0.35011132  0.58136250  1
  Co  Co124  1  0.92391110  0.63418255  0.09146844  1
  Co  Co125  1  0.88934086  0.50489146  0.81785534  1
  Co  Co126  1  0.41168633  0.62958199  0.19654405  1
  Co  Co127  1  0.08794451  0.76963698  0.71615455  1
  Co  Co128  1  0.10034681  0.60394233  0.67331538  1
  Co  Co129  1  0.38602700  -0.02628755  0.09721077  1
  Co  Co130  1  0.79387938  0.18420921  0.40885958  1
  Co  Co131  1  0.09726628  0.85721245  0.12094610  1
  Co  Co132  1  0.45874342  0.71745499  -0.05838571  1
  Co  Co133  1  0.27288001  0.84396228  0.10992434  1
  Co  Co134  1  0.87100821  0.08286171  0.28840352  1
  Co  Co135  1  0.01469240  0.83960844  0.98749741  1
  Co  Co136  1  0.70405433  0.13302538  0.71280317  1
  Co  Co137  1  0.68348748  0.93229744  0.88096014  1
  Co  Co138  1  0.62478284  0.34996071  0.15600177  1
  Co  Co139  1  0.88099238  0.62971659  0.38525340  1
  Co  Co140  1  0.25357041  0.70654646  0.69293382  1
  Co  Co141  1  0.89663416  0.72051478  0.95070872  1
  Co  Co142  1  0.85853069  0.05608763  1.01472365  1
  Co  Co143  1  0.52020338  0.49504293  0.19846951  1
  Co  Co144  1  0.64829069  0.20460829  0.58071463  1
  Co  Co145  1  0.06183736  0.43646106  0.43965512  1
  Co  Co146  1  0.65631191  0.27293423  0.43372578  1
  Co  Co147  1  0.38967365  0.07735338  0.69373288  1
  Co  Co148  1  0.65266616  0.52808217  -0.01966565  1
  Co  Co149  1  0.25742553  0.90844906  0.84824591  1
  Co  Co150  1  0.36610803  0.10658788  0.40265475  1
  Co  Co151  1  0.81285866  0.51641932  0.95287637  1
  Co  Co152  1  0.69439638  0.08010825  0.28631385  1
  Co  Co153  1  0.43758220  0.50202272  0.77431657  1
  Co  Co154  1  0.95266685  0.78273165  0.13104927  1
  Co  Co155  1  0.69929676  0.23753945  0.27621920  1
  Co  Co156  1  0.58899034  0.52350322  0.74932200  1
  Co  Co157  1  0.40652239  0.59193011  0.47943711  1
  Co  Co158  1  0.61956316  0.68263697  0.91842094  1
  Co  Co159  1  0.86682134  0.36492766  1.00507266  1
  Co  Co160  1  0.32962749  0.04404185  0.25158410  1
  Co  Co161  1  0.91467640  0.93487553  0.34629404  1
  Ni  Ni162  1  0.75293267  0.78017167  0.66227841  1
  Ni  Ni163  1  0.50721085  0.35115092  0.73933764  1
  Ni  Ni164  1  0.79333347  0.53026979  0.50058211  1
  Ni  Ni165  1  0.43279000  0.75922784  0.36497460  1
  Ni  Ni166  1  0.24974175  0.56773843  0.40044172  1
  Ni  Ni167  1  0.05362223  0.12470229  0.74331110  1
  Ni  Ni168  1  0.14919250  0.12103518  0.10166427  1
  Ni  Ni169  1  0.78697820  0.14379648  0.15548525  1
  Ni  Ni170  1  0.36908954  0.45857113  0.16346494  1
  Ni  Ni171  1  0.73150544  0.22705286  0.84937379  1
  Ni  Ni172  1  0.57605708  0.99883770  0.37093398  1
  Ni  Ni173  1  0.56933614  0.95366521  0.11073941  1
  Ni  Ni174  1  0.58563657  0.68221425  0.23359579  1
  Ni  Ni175  1  0.57078195  0.57880993  0.48406400  1
  Ni  Ni176  1  0.41897878  0.33968236  0.58988514  1
  Ni  Ni177  1  0.25153177  0.31621010  0.57716671  1
  Ni  Ni178  1  0.54699728  0.88484800  0.79779619  1
  Ni  Ni179  1  0.75917916  0.36770829  0.34427929  1
  Ni  Ni180  1  0.22977104  0.85277746  0.50641148  1
  Ni  Ni181  1  0.21751140  0.52434869  0.73855631  1
  Ni  Ni182  1  0.58899614  0.78758649  0.66188228  1
  Ni  Ni183  1  0.58476184  0.05168328  0.62762520  1
  Ni  Ni184  1  0.07235163  0.22977268  0.24728187  1
  Ni  Ni185  1  0.98644960  0.71960492  0.60651146  1
  Ni  Ni186  1  0.16549865  0.78493058  0.24174194  1
  Ni  Ni187  1  0.38829686  0.87937742  0.23997879  1
  Ni  Ni188  1  0.41423908  0.24438482  1.00117880  1
  Ni  Ni189  1  0.69481971  0.76970770  0.51002058  1
  Ni  Ni190  1  0.88788973  0.41777747  0.24285819  1
  Ni  Ni191  1  0.96534433  0.31577968  0.14087610  1
  Ni  Ni192  1  0.76642468  0.53013545  0.31527988  1
  Ni  Ni193  1  0.12812204  0.55320188  0.86591623  1
  Ni  Ni194  1  0.92742784  0.96881033  0.80494339  1
  Ni  Ni195  1  0.41975383  0.75381368  0.65158045  1
  Ni  Ni196  1  0.78511670  0.91740424  0.54326049  1
  Ni  Ni197  1  0.19097605  1.01372047  0.34328868  1
  Ni  Ni198  1  0.25223320  0.21495788  -0.00415617  1
  Ni  Ni199  1  0.39570131  0.20746104  0.27595782  1
  Ni  Ni200  1  0.11282355  0.43277469  -0.02091473  1
  Ni  Ni201  1  0.24158626  0.06395726  0.79483506  1
  Ni  Ni202  1  0.57514005  0.04920784  0.85654491  1
  Ni  Ni203  1  0.29831520  0.71834578  0.97519371  1
  Ni  Ni204  1  0.08151560  0.84571942  0.57214027  1
  Ni  Ni205  1  0.84619835  0.02126913  0.66709205  1
  Ni  Ni206  1  0.26907099  0.46924766  0.91352446  1
  Ni  Ni207  1  0.94435885  0.40657705  0.55537476  1
  Ni  Ni208  1  0.22473004  0.36198321  0.22618246  1
  Ni  Ni209  1  0.00839794  0.72301913  0.44841110  1
  Ni  Ni210  1  0.20366116  0.14445562  0.44884182  1
  Ni  Ni211  1  0.86672815  0.18361371  0.75643521  1
  Ni  Ni212  1  0.57277044  0.26222988  0.02547337  1
  Ni  Ni213  1  0.14741593  0.37120624  0.69903686  1
  Ni  Ni214  1  0.17864822  0.06788718  0.64032430  1
  Ni  Ni215  1  -0.04023937  0.57292531  0.24433186  1
