# generated using pymatgen
data_Ti2CoNi
_symmetry_space_group_name_H-M   'P 1'
_cell_length_a   14.65283201
_cell_length_b   14.64102955
_cell_length_c   14.63692298
_cell_angle_alpha   90.30934576
_cell_angle_beta   90.14560621
_cell_angle_gamma   90.06942906
_symmetry_Int_Tables_number   1
_chemical_formula_structural   Ti2CoNi
_chemical_formula_sum   'Ti108 Co54 Ni54'
_cell_volume   3140.03809323
_cell_formula_units_Z   54
loop_
 _symmetry_equiv_pos_site_id
 _symmetry_equiv_pos_as_xyz
  1  'x, y, z'
loop_
 _atom_site_type_symbol
 _atom_site_label
 _atom_site_symmetry_multiplicity
 _atom_site_fract_x
 _atom_site_fract_y
 _atom_site_fract_z
 _atom_site_occupancy
  Ti  Ti0  1  0.03998378  -0.00857078  -0.03064179  1
  Ti  Ti1  1  0.01190048  0.00363305  0.41153156  1
  Ti  Ti2  1  0.03620297  -0.04559300  0.71449348  1
  Ti  Ti3  1  -0.00905364  0.44155626  0.03309683  1
  Ti  Ti4  1  -0.00886432  0.37876229  0.37621467  1
  Ti  Ti5  1  0.01479869  0.34378469  0.62999491  1
  Ti  Ti6  1  0.01310261  0.66160371  0.02663979  1
  Ti  Ti7  1  -0.02880785  0.69303521  0.26502277  1
  Ti  Ti8  1  0.06722185  0.59202338  0.70525055  1
  Ti  Ti9  1  0.32908500  -0.08243259  0.00485457  1
  Ti  Ti10  1  0.31585981  -0.02778668  0.31160062  1
  Ti  Ti11  1  0.30724531  -0.03666093  0.70648015  1
  Ti  Ti12  1  0.30677965  0.37341260  0.04309461  1
  Ti  Ti13  1  0.33159154  0.36139876  0.39606107  1
  Ti  Ti14  1  0.41108586  0.32309097  0.65287426  1
  Ti  Ti15  1  0.30299666  0.61942337  -0.05582403  1
  Ti  Ti16  1  0.41772450  0.68417957  0.27029354  1
  Ti  Ti17  1  0.26347308  0.65253848  0.67479665  1
  Ti  Ti18  1  0.64843973  -0.05714629  -0.03435709  1
  Ti  Ti19  1  0.67424936  0.04243325  0.41533334  1
  Ti  Ti20  1  0.69638157  0.03735598  0.63837821  1
  Ti  Ti21  1  0.71117329  0.34444146  -0.04194549  1
  Ti  Ti22  1  0.70604251  0.28531474  0.26098272  1
  Ti  Ti23  1  0.67616853  0.35097513  0.65515601  1
  Ti  Ti24  1  0.66546524  0.73746745  -0.00062507  1
  Ti  Ti25  1  0.62957122  0.70868571  0.33779110  1
  Ti  Ti26  1  0.62614591  0.73508658  0.64583658  1
  Ti  Ti27  1  -0.00465023  0.25184222  0.14713915  1
  Ti  Ti28  1  -0.01313739  0.18647860  0.45589542  1
  Ti  Ti29  1  -0.02994877  0.30060688  0.90508264  1
  Ti  Ti30  1  0.06462084  0.53573006  0.18740060  1
  Ti  Ti31  1  -0.00738323  0.51266502  0.52588665  1
  Ti  Ti32  1  -0.06671120  0.46839820  0.76391450  1
  Ti  Ti33  1  -0.01137862  0.86434029  0.11653476  1
  Ti  Ti34  1  -0.02158933  0.74441914  0.47288364  1
  Ti  Ti35  1  -0.08013786  0.87845201  0.85277847  1
  Ti  Ti36  1  0.41067161  0.21427282  0.14996189  1
  Ti  Ti37  1  0.32102506  0.17395530  0.52973039  1
  Ti  Ti38  1  0.30969912  0.14156091  0.87002259  1
  Ti  Ti39  1  0.31328659  0.51970086  0.19136164  1
  Ti  Ti40  1  0.28858618  0.55189482  0.49981664  1
  Ti  Ti41  1  0.29819432  0.41508992  0.80433736  1
  Ti  Ti42  1  0.29819394  0.73406846  0.11000764  1
  Ti  Ti43  1  0.35946149  0.86676340  0.48297113  1
  Ti  Ti44  1  0.35031540  0.79059115  0.80291410  1
  Ti  Ti45  1  0.60141261  0.13826054  0.19934232  1
  Ti  Ti46  1  0.66030396  0.21242883  0.50141118  1
  Ti  Ti47  1  0.65843862  0.22277230  0.81622948  1
  Ti  Ti48  1  0.69710969  0.50948218  0.22952622  1
  Ti  Ti49  1  0.67628725  0.49882768  0.53495007  1
  Ti  Ti50  1  0.63783084  0.46112383  0.83430234  1
  Ti  Ti51  1  0.69046411  0.86794146  0.17970314  1
  Ti  Ti52  1  0.70593374  0.82733463  0.48581376  1
  Ti  Ti53  1  0.70587761  0.83043648  0.80705548  1
  Ti  Ti54  1  0.17764004  0.03609221  0.12135228  1
  Ti  Ti55  1  0.16136477  -0.06690075  0.56447838  1
  Ti  Ti56  1  0.17916275  -0.07273354  0.85096348  1
  Ti  Ti57  1  0.18630718  0.24847013  0.16822106  1
  Ti  Ti58  1  0.15593329  0.28094354  0.47037618  1
  Ti  Ti59  1  0.14289209  0.27820965  0.79912353  1
  Ti  Ti60  1  0.20653272  0.65800622  0.27105255  1
  Ti  Ti61  1  0.21746775  0.74473909  0.45594479  1
  Ti  Ti62  1  0.12252227  0.68237999  0.86405427  1
  Ti  Ti63  1  0.42858397  0.01011282  0.15906704  1
  Ti  Ti64  1  0.55480719  -0.05770543  0.51300979  1
  Ti  Ti65  1  0.48346542  0.01805749  0.77628111  1
  Ti  Ti66  1  0.50206098  0.38706682  0.14434931  1
  Ti  Ti67  1  0.54794199  0.37640338  0.44997077  1
  Ti  Ti68  1  0.49930374  0.34257519  0.92335141  1
  Ti  Ti69  1  0.48172013  0.66049613  0.07459903  1
  Ti  Ti70  1  0.48499602  0.60070217  0.52612124  1
  Ti  Ti71  1  0.52622131  0.70995316  0.84024923  1
  Ti  Ti72  1  0.86775803  0.01654309  0.17870723  1
  Ti  Ti73  1  0.85877743  -0.03633490  0.53798895  1
  Ti  Ti74  1  0.92164485  0.09265798  0.85377421  1
  Ti  Ti75  1  0.86771496  0.39612343  0.19478444  1
  Ti  Ti76  1  0.83883118  0.29490818  0.52153671  1
  Ti  Ti77  1  0.84665364  0.27675553  0.74531965  1
  Ti  Ti78  1  0.78434295  0.68034357  0.18970315  1
  Ti  Ti79  1  0.80230705  0.66178537  0.52046508  1
  Ti  Ti80  1  0.81673769  0.60080413  0.88129740  1
  Ti  Ti81  1  0.09933717  0.17734845  -0.02276175  1
  Ti  Ti82  1  0.15013370  0.10234452  0.32139283  1
  Ti  Ti83  1  0.17659132  0.10548127  0.67739000  1
  Ti  Ti84  1  0.15843222  0.47417424  -0.05555659  1
  Ti  Ti85  1  0.16723895  0.39725938  0.29370279  1
  Ti  Ti86  1  0.18083576  0.45158365  0.64158493  1
  Ti  Ti87  1  0.15620187  0.84552011  0.05159661  1
  Ti  Ti88  1  0.13780091  0.84511389  0.26843497  1
  Ti  Ti89  1  0.10313260  0.75989252  0.62095790  1
  Ti  Ti90  1  0.54293841  0.11670879  0.00422859  1
  Ti  Ti91  1  0.41842573  0.15287103  0.34505437  1
  Ti  Ti92  1  0.53278348  0.16555948  0.64487442  1
  Ti  Ti93  1  0.48692543  0.54080731  -0.07822353  1
  Ti  Ti94  1  0.43570922  0.50835278  0.35047030  1
  Ti  Ti95  1  0.55232300  0.56533337  0.70824528  1
  Ti  Ti96  1  0.51160781  0.85363380  0.05978955  1
  Ti  Ti97  1  0.48760210  0.86219485  0.32850813  1
  Ti  Ti98  1  0.45854163  0.84041228  0.64634217  1
  Ti  Ti99  1  0.74605389  0.17307697  0.05893120  1
  Ti  Ti100  1  0.82337947  0.12652863  0.34352596  1
  Ti  Ti101  1  0.90655177  0.12699244  0.64244821  1
  Ti  Ti102  1  0.76291240  0.51138530  0.04584406  1
  Ti  Ti103  1  0.81654261  0.46689409  0.39707529  1
  Ti  Ti104  1  0.76637447  0.55995319  0.69226364  1
  Ti  Ti105  1  0.82409802  0.85063754  0.02006227  1
  Ti  Ti106  1  0.82004050  0.91564021  0.34687735  1
  Ti  Ti107  1  0.90861188  0.80647681  0.65583633  1
  Co  Co108  1  0.73338993  0.19868034  0.64751149  1
  Co  Co109  1  0.92937771  0.64646339  0.77070048  1
  Co  Co110  1  0.23566302  0.52829270  0.35746535  1
  Co  Co111  1  0.84351781  0.20415956  0.18773452  1
  Co  Co112  1  0.64141756  0.61431653  0.11038049  1
  Co  Co113  1  0.76174243  0.61430677  0.35264938  1
  Co  Co114  1  0.93292704  0.72528404  0.90605132  1
  Co  Co115  1  0.40672751  0.23716012  0.98883151  1
  Co  Co116  1  0.21890250  0.55421600  0.79741267  1
  Co  Co117  1  0.14125958  0.44305491  0.47488402  1
  Co  Co118  1  0.13693930  0.60726853  0.54729221  1
  Co  Co119  1  0.92456119  0.16515478  1.01522554  1
  Co  Co120  1  0.58299760  0.98881725  0.13313860  1
  Co  Co121  1  0.80984100  0.11846209  0.50715325  1
  Co  Co122  1  0.59539976  0.45544770  1.03001968  1
  Co  Co123  1  0.08379709  0.20735664  0.59907713  1
  Co  Co124  1  0.00627650  0.54551526  0.89080155  1
  Co  Co125  1  0.46031850  0.25599340  0.49719866  1
  Co  Co126  1  0.44924565  1.01731297  0.60940546  1
  Co  Co127  1  0.05635682  0.52452210  0.34410902  1
  Co  Co128  1  0.09281880  0.66826911  0.38799111  1
  Co  Co129  1  0.78852387  0.71728507  0.70825120  1
  Co  Co130  1  0.08278523  0.25403177  0.31352129  1
  Co  Co131  1  0.82778647  0.68898761  0.02646398  1
  Co  Co132  1  0.30248949  0.80482913  0.31799666  1
  Co  Co133  1  0.83853838  0.75398170  0.36823688  1
  Co  Co134  1  0.53037518  0.11182223  0.48667789  1
  Co  Co135  1  1.02883214  0.04924515  0.57868903  1
  Co  Co136  1  0.52820304  0.78473516  0.48018429  1
  Co  Co137  1  0.70705458  0.36439465  0.12377958  1
  Co  Co138  1  0.53754327  0.43393419  0.62615400  1
  Co  Co139  1  0.00565474  0.88931438  0.53326893  1
  Co  Co140  1  0.67244264  0.65624686  0.80520586  1
  Co  Co141  1  0.06130924  0.82489360  0.92771814  1
  Co  Co142  1  0.42052251  0.44274589  0.51525935  1
  Co  Co143  1  0.36842559  0.08146852  0.02658428  1
  Co  Co144  1  0.73030663  0.01377145  0.08376818  1
  Co  Co145  1  0.88883264  0.53612219  0.26457803  1
  Co  Co146  1  0.25856820  0.29386195  0.91163488  1
  Co  Co147  1  0.17135160  0.42167494  0.12877646  1
  Co  Co148  1  0.93096473  0.63758573  0.61296246  1
  Co  Co149  1  0.70507350  1.02052775  0.25136243  1
  Co  Co150  1  0.64648250  0.89056310  0.34638665  1
  Co  Co151  1  0.29583358  0.01924724  0.55074455  1
  Co  Co152  1  0.41514928  0.82808005  0.18216723  1
  Co  Co153  1  0.54707440  0.31662040  0.75208494  1
  Co  Co154  1  0.25601627  0.18940251  0.04212121  1
  Co  Co155  1  0.24380065  0.77902737  0.92987376  1
  Co  Co156  1  0.03013022  0.77872437  0.76871601  1
  Co  Co157  1  0.19058042  0.80538406  0.75511127  1
  Co  Co158  1  0.15462151  0.09202019  0.48404513  1
  Co  Co159  1  0.63941161  0.59144745  0.94723218  1
  Co  Co160  1  0.12036752  0.32826669  1.00873348  1
  Co  Co161  1  0.77716053  0.41357860  0.78431652  1
  Ni  Ni162  1  0.41458432  0.01425221  0.43825706  1
  Ni  Ni163  1  0.27045342  0.89580803  0.17044204  1
  Ni  Ni164  1  0.03925927  0.97774800  0.24241674  1
  Ni  Ni165  1  0.45956355  0.44398563  0.78514724  1
  Ni  Ni166  1  1.00677571  0.20160040  0.75429377  1
  Ni  Ni167  1  0.63987570  0.65755338  0.49551849  1
  Ni  Ni168  1  0.51684816  0.55101085  0.20747721  1
  Ni  Ni169  1  0.36128280  0.13290828  0.69636714  1
  Ni  Ni170  1  0.85886535  0.97335872  0.71798862  1
  Ni  Ni171  1  0.19746956  0.58689624  0.08277137  1
  Ni  Ni172  1  0.56944228  0.74629033  0.18881728  1
  Ni  Ni173  1  0.59839190  0.91254552  0.69570632  1
  Ni  Ni174  1  0.97700862  0.13175226  0.27721864  1
  Ni  Ni175  1  0.18981431  0.93251250  0.40484955  1
  Ni  Ni176  1  0.45784188  0.30900331  0.29668946  1
  Ni  Ni177  1  0.47041920  0.98391579  0.94309064  1
  Ni  Ni178  1  0.77148643  0.10590834  0.77695834  1
  Ni  Ni179  1  0.24749556  0.26352850  0.67498519  1
  Ni  Ni180  1  0.97836898  0.84993773  0.33822800  1
  Ni  Ni181  1  0.81384430  0.21690937  0.90443583  1
  Ni  Ni182  1  0.10574998  0.71828639  0.15263118  1
  Ni  Ni183  1  0.58393434  0.40883494  0.28741774  1
  Ni  Ni184  1  0.86282242  0.42995877  0.92069760  1
  Ni  Ni185  1  0.61609344  0.53712148  0.38219471  1
  Ni  Ni186  1  0.38230036  0.69716904  0.43089802  1
  Ni  Ni187  1  0.21152815  0.04224349  0.96548269  1
  Ni  Ni188  1  0.85632104  0.29134037  0.34043800  1
  Ni  Ni189  1  0.70706717  0.35057240  0.41730676  1
  Ni  Ni190  1  0.78235470  0.97298835  0.87288020  1
  Ni  Ni191  1  0.36559972  0.50661059  0.65616909  1
  Ni  Ni192  1  0.28486663  0.81280328  0.62159111  1
  Ni  Ni193  1  0.40955084  0.76717210  -0.04193456  1
  Ni  Ni194  1  0.28304622  0.36578991  0.55195134  1
  Ni  Ni195  1  0.92046963  0.60395843  0.40596601  1
  Ni  Ni196  1  0.74849585  0.86744545  0.64147403  1
  Ni  Ni197  1  0.10539770  0.08608662  0.83249897  1
  Ni  Ni198  1  0.86108952  0.82582485  0.21047380  1
  Ni  Ni199  1  0.90691328  0.57035979  0.11417590  1
  Ni  Ni200  1  0.57882428  0.20777235  0.35462274  1
  Ni  Ni201  1  0.29521240  0.10931778  0.20543733  1
  Ni  Ni202  1  0.84587836  0.42844908  0.61744375  1
  Ni  Ni203  1  0.43541279  0.68002162  0.67086219  1
  Ni  Ni204  1  0.32080124  0.35357022  0.21387979  1
  Ni  Ni205  1  0.53305793  0.86950250  0.84822189  1
  Ni  Ni206  1  0.38234384  0.59432581  0.79812357  1
  Ni  Ni207  1  0.88074428  1.00816997  0.00643923  1
  Ni  Ni208  1  0.01226902  0.07665275  0.11550614  1
  Ni  Ni209  1  0.58639732  0.26774778  0.05725726  1
  Ni  Ni210  1  0.85682486  0.31334771  0.04617916  1
  Ni  Ni211  1  0.41342872  0.50787875  0.06213113  1
  Ni  Ni212  1  0.26096065  0.23117071  0.32098244  1
  Ni  Ni213  1  0.09674592  0.43656229  0.78906977  1
  Ni  Ni214  1  0.62365092  0.06050588  0.85088909  1
  Ni  Ni215  1  0.53550832  0.02505516  0.31694763  1
