# generated using pymatgen
data_Ti2CoNi
_symmetry_space_group_name_H-M   'P 1'
_cell_length_a   14.60265054
_cell_length_b   14.54517677
_cell_length_c   14.59372972
_cell_angle_alpha   89.76671066
_cell_angle_beta   89.91562495
_cell_angle_gamma   90.16046756
_symmetry_Int_Tables_number   1
_chemical_formula_structural   Ti2CoNi
_chemical_formula_sum   'Ti108 Co54 Ni54'
_cell_volume   3099.63968856
_cell_formula_units_Z   54
loop_
 _symmetry_equiv_pos_site_id
 _symmetry_equiv_pos_as_xyz
  1  'x, y, z'
loop_
 _atom_site_type_symbol
 _atom_site_label
 _atom_site_symmetry_multiplicity
 _atom_site_fract_x
 _atom_site_fract_y
 _atom_site_fract_z
 _atom_site_occupancy
  Ti  Ti0  1  -0.00410566  -0.02030834  -0.04722589  1
  Ti  Ti1  1  0.06554407  0.03652396  0.36548549  1
  Ti  Ti2  1  -0.06431075  0.01585602  0.65144860  1
  Ti  Ti3  1  -0.01991778  0.36369066  -0.05544811  1
  Ti  Ti4  1  -0.02388388  0.41163638  0.35624295  1
  Ti  Ti5  1  0.01406219  0.30679116  0.61325161  1
  Ti  Ti6  1  -0.05727093  0.70611319  0.01817842  1
  Ti  Ti7  1  -0.02220785  0.62087403  0.32210758  1
  Ti  Ti8  1  -0.01472848  0.66425652  0.67398938  1
  Ti  Ti9  1  0.29833114  0.05148923  -0.05788589  1
  Ti  Ti10  1  0.35069752  -0.01763276  0.36356213  1
  Ti  Ti11  1  0.28051900  0.05292214  0.73315661  1
  Ti  Ti12  1  0.28603365  0.26784805  -0.05121042  1
  Ti  Ti13  1  0.33613107  0.31006704  0.23104711  1
  Ti  Ti14  1  0.31534159  0.43255262  0.62622038  1
  Ti  Ti15  1  0.32951460  0.70118172  0.02085984  1
  Ti  Ti16  1  0.27514233  0.68948188  0.36226083  1
  Ti  Ti17  1  0.41191688  0.65447315  0.64782335  1
  Ti  Ti18  1  0.69438175  0.01699827  0.05218297  1
  Ti  Ti19  1  0.74556647  0.03899541  0.34925309  1
  Ti  Ti20  1  0.70568866  0.02156824  0.63430013  1
  Ti  Ti21  1  0.69048145  0.36531878  -0.01768176  1
  Ti  Ti22  1  0.59931188  0.29389139  0.28582851  1
  Ti  Ti23  1  0.69933755  0.37427237  0.65437725  1
  Ti  Ti24  1  0.72632242  0.68187566  0.05913168  1
  Ti  Ti25  1  0.75370527  0.72425921  0.26647714  1
  Ti  Ti26  1  0.69129383  0.71756109  0.69527467  1
  Ti  Ti27  1  -0.00955781  0.22342686  0.09917135  1
  Ti  Ti28  1  0.09737420  0.17023748  0.50784752  1
  Ti  Ti29  1  0.01873213  0.19664188  0.87003815  1
  Ti  Ti30  1  0.05535622  0.52672792  0.16753752  1
  Ti  Ti31  1  0.03850569  0.52549886  0.53603095  1
  Ti  Ti32  1  -0.03311872  0.52187475  0.83377006  1
  Ti  Ti33  1  0.04060974  0.76315884  0.18165237  1
  Ti  Ti34  1  -0.02301381  0.72389316  0.47886502  1
  Ti  Ti35  1  -0.00862314  0.86023909  0.76215287  1
  Ti  Ti36  1  0.35807671  0.10873122  0.19504522  1
  Ti  Ti37  1  0.30857740  0.16038071  0.51590834  1
  Ti  Ti38  1  0.39502688  0.19900258  0.78986595  1
  Ti  Ti39  1  0.38294888  0.51341639  0.22803258  1
  Ti  Ti40  1  0.32556134  0.51237670  0.41677876  1
  Ti  Ti41  1  0.34476782  0.50096965  0.79954969  1
  Ti  Ti42  1  0.39281114  0.84489421  0.12550590  1
  Ti  Ti43  1  0.30006002  0.95085915  0.55644184  1
  Ti  Ti44  1  0.40818913  0.84503085  0.91870695  1
  Ti  Ti45  1  0.70730133  0.21757127  0.12180199  1
  Ti  Ti46  1  0.59341227  0.09560085  0.49782582  1
  Ti  Ti47  1  0.59446152  0.09395464  0.87867252  1
  Ti  Ti48  1  0.68305325  0.44026856  0.23088272  1
  Ti  Ti49  1  0.65180856  0.56597857  0.51446675  1
  Ti  Ti50  1  0.63688411  0.50229378  0.82339056  1
  Ti  Ti51  1  0.60269234  0.83650454  0.18884141  1
  Ti  Ti52  1  0.65770620  0.77362178  0.46927275  1
  Ti  Ti53  1  0.68804183  0.81853144  0.85335768  1
  Ti  Ti54  1  0.08018956  -0.02952699  0.14820011  1
  Ti  Ti55  1  0.08877742  -0.05100845  0.54947495  1
  Ti  Ti56  1  0.11002824  0.03563925  0.81842508  1
  Ti  Ti57  1  0.13941378  0.33701286  0.17421163  1
  Ti  Ti58  1  0.20822457  0.31970211  0.38511267  1
  Ti  Ti59  1  0.13597917  0.35958186  0.83966735  1
  Ti  Ti60  1  0.15851040  0.66048012  0.07647406  1
  Ti  Ti61  1  0.16945643  0.77927212  0.50019326  1
  Ti  Ti62  1  0.12591557  0.65900251  0.80798633  1
  Ti  Ti63  1  0.60769846  0.05299467  0.22231206  1
  Ti  Ti64  1  0.48749046  -0.12779344  0.51710532  1
  Ti  Ti65  1  0.46130385  0.00370245  0.78537163  1
  Ti  Ti66  1  0.43561039  0.28623250  0.06003442  1
  Ti  Ti67  1  0.40398547  0.34271013  0.48462228  1
  Ti  Ti68  1  0.55016960  0.30714342  0.85331897  1
  Ti  Ti69  1  0.58261681  0.61692893  0.19535257  1
  Ti  Ti70  1  0.46458871  0.67524868  0.45814252  1
  Ti  Ti71  1  0.45957946  0.63882129  0.87273008  1
  Ti  Ti72  1  0.91274671  -0.03793410  0.25861042  1
  Ti  Ti73  1  0.88939094  -0.00054452  0.47853950  1
  Ti  Ti74  1  0.89027890  0.05859968  0.81883974  1
  Ti  Ti75  1  0.86706274  0.32192338  0.21776154  1
  Ti  Ti76  1  0.78245825  0.28938595  0.44705149  1
  Ti  Ti77  1  0.81674119  0.29240228  0.82116468  1
  Ti  Ti78  1  0.84910270  0.83075031  0.13319802  1
  Ti  Ti79  1  0.82143609  0.66244766  0.58179161  1
  Ti  Ti80  1  0.79947952  0.64146516  0.88378105  1
  Ti  Ti81  1  0.12722640  0.12074718  0.01341711  1
  Ti  Ti82  1  0.15334209  0.15135399  0.22816980  1
  Ti  Ti83  1  0.18370806  0.23191648  0.68985864  1
  Ti  Ti84  1  0.18344098  0.46947713  -0.00864596  1
  Ti  Ti85  1  0.13691804  0.49789705  0.35826352  1
  Ti  Ti86  1  0.12831466  0.47563524  0.69156441  1
  Ti  Ti87  1  0.20433484  0.87533238  0.01849013  1
  Ti  Ti88  1  0.22222082  0.83657740  0.23179096  1
  Ti  Ti89  1  0.25039620  0.78703296  0.67939779  1
  Ti  Ti90  1  0.50872642  0.08425648  0.06721341  1
  Ti  Ti91  1  0.44871150  0.17518920  0.36268691  1
  Ti  Ti92  1  0.51877510  0.25825414  0.62895782  1
  Ti  Ti93  1  0.43299588  0.51839509  0.04711604  1
  Ti  Ti94  1  0.53047096  0.48753248  0.37568122  1
  Ti  Ti95  1  0.51982726  0.47746475  0.67018553  1
  Ti  Ti96  1  0.55009950  0.76044837  0.00631010  1
  Ti  Ti97  1  0.42682479  0.81363359  0.30814596  1
  Ti  Ti98  1  0.52062769  0.82047404  0.74102479  1
  Ti  Ti99  1  0.84580011  0.13636284  -0.01745623  1
  Ti  Ti100  1  0.90055162  0.16124439  0.35977424  1
  Ti  Ti101  1  0.79470583  0.19111234  0.64937625  1
  Ti  Ti102  1  0.88274924  0.53632224  0.05166346  1
  Ti  Ti103  1  0.80460851  0.51819127  0.35246064  1
  Ti  Ti104  1  0.88761468  0.45904315  0.66267457  1
  Ti  Ti105  1  0.85726057  0.85061114  -0.08245109  1
  Ti  Ti106  1  0.81971133  0.85136054  0.39744054  1
  Ti  Ti107  1  0.79109247  0.85648273  0.59860125  1
  Co  Co108  1  0.75095860  0.57924436  0.18023761  1
  Co  Co109  1  0.14160737  0.63895475  0.61675517  1
  Co  Co110  1  0.29887247  0.56840487  0.93766573  1
  Co  Co111  1  0.50988055  0.20567642  0.18928197  1
  Co  Co112  1  -0.03829103  0.06553096  0.08374335  1
  Co  Co113  1  0.61905022  0.50070622  0.09159665  1
  Co  Co114  1  0.99619002  0.88016573  0.42644626  1
  Co  Co115  1  0.27379027  0.55164126  0.10584621  1
  Co  Co116  1  1.00983700  0.85727829  0.04559522  1
  Co  Co117  1  0.21722404  0.31480598  0.54946454  1
  Co  Co118  1  0.44183364  0.36159386  0.74951528  1
  Co  Co119  1  0.97820506  0.26965771  0.44219057  1
  Co  Co120  1  0.07548954  0.89272019  0.28985080  1
  Co  Co121  1  0.09557793  0.74810467  0.35099032  1
  Co  Co122  1  0.69808700  0.94729011  0.48294651  1
  Co  Co123  1  0.44575453  0.36050066  0.32880344  1
  Co  Co124  1  0.89045075  0.66502193  0.17783835  1
  Co  Co125  1  0.43970427  0.16011107  0.93323574  1
  Co  Co126  1  0.53132964  -0.02397713  0.62829027  1
  Co  Co127  1  0.75181123  0.98154258  0.90675468  1
  Co  Co128  1  0.53789431  0.92066989  0.06962084  1
  Co  Co129  1  0.66565496  0.23832614  0.56127558  1
  Co  Co130  1  0.44930236  0.99422881  0.94521717  1
  Co  Co131  1  0.57863567  0.40551759  0.53699853  1
  Co  Co132  1  0.84695448  0.29072955  0.03692774  1
  Co  Co133  1  0.55692271  0.27978180  0.44222264  1
  Co  Co134  1  0.08609098  0.78881335  0.64860186  1
  Co  Co135  1  0.13960122  0.62779582  0.44866344  1
  Co  Co136  1  0.18742494  0.07007180  0.60524745  1
  Co  Co137  1  0.29418545  0.65179827  0.53195265  1
  Co  Co138  1  0.06056574  0.11606950  0.69084056  1
  Co  Co139  1  0.93058156  0.78175955  0.30105626  1
  Co  Co140  1  0.36917521  -0.01236453  0.08075250  1
  Co  Co141  1  0.20388664  0.48637189  0.52318745  1
  Co  Co142  1  0.58761637  -0.07727363  0.91701679  1
  Co  Co143  1  0.78097847  0.42154536  0.10422497  1
  Co  Co144  1  0.08801489  0.37642701  0.48407700  1
  Co  Co145  1  0.37013988  0.75152594  0.78398606  1
  Co  Co146  1  0.84808972  -0.03625844  1.04496177  1
  Co  Co147  1  0.77010924  0.11633495  0.49437337  1
  Co  Co148  1  0.78810445  0.45498660  0.79389049  1
  Co  Co149  1  0.29720492  0.38644643  0.08679619  1
  Co  Co150  1  0.89437057  0.49143905  0.21621681  1
  Co  Co151  1  0.21782355  0.00702731  0.27308129  1
  Co  Co152  1  0.20297299  0.89639696  0.39581470  1
  Co  Co153  1  0.61555841  0.14684673  0.34847123  1
  Co  Co154  1  0.83552421  0.42972856  0.93712825  1
  Co  Co155  1  0.71612166  0.53269425  0.97494991  1
  Co  Co156  1  0.20792464  0.05513501  0.43582046  1
  Co  Co157  1  0.33945589  0.81318493  0.45828966  1
  Co  Co158  1  0.38121333  0.89838555  0.68985219  1
  Co  Co159  1  0.22521966  1.03669083  0.10832975  1
  Co  Co160  1  0.63008512  0.95143481  0.76275609  1
  Co  Co161  1  0.94366075  0.83827843  0.58827559  1
  Ni  Ni162  1  0.93592891  0.20488512  0.72480655  1
  Ni  Ni163  1  0.80767714  0.08035188  0.17781103  1
  Ni  Ni164  1  0.75643984  0.20986126  0.28198093  1
  Ni  Ni165  1  0.49912076  0.40622639  0.17037955  1
  Ni  Ni166  1  0.12608829  0.29682611  1.00767700  1
  Ni  Ni167  1  0.70684071  0.85324449  0.02547395  1
  Ni  Ni168  1  0.41828286  0.09964826  0.64430776  1
  Ni  Ni169  1  0.44581497  0.64613469  0.29813973  1
  Ni  Ni170  1  0.34825601  0.26292862  0.64178470  1
  Ni  Ni171  1  0.09034705  0.73971892  -0.04499085  1
  Ni  Ni172  1  0.90185640  0.39398510  0.51125520  1
  Ni  Ni173  1  0.55740865  0.72836270  0.59536108  1
  Ni  Ni174  1  0.62916153  0.65795286  0.89588475  1
  Ni  Ni175  1  0.64658537  0.22505171  0.73779048  1
  Ni  Ni176  1  0.71065479  0.20510278  0.91778242  1
  Ni  Ni177  1  0.26315427  0.61858236  0.71992323  1
  Ni  Ni178  1  0.73898186  0.92122661  0.23017826  1
  Ni  Ni179  1  0.22696782  0.45957931  0.23339290  1
  Ni  Ni180  1  0.79623680  0.67894160  0.42130550  1
  Ni  Ni181  1  0.59262580  0.92144378  0.34754316  1
  Ni  Ni182  1  -0.01814747  0.39558242  0.10262187  1
  Ni  Ni183  1  0.84736505  0.76715448  0.74618735  1
  Ni  Ni184  1  0.56073465  0.63205504  0.73686113  1
  Ni  Ni185  1  0.38348743  0.40260867  0.92867984  1
  Ni  Ni186  1  0.27712984  0.17052111  0.34036321  1
  Ni  Ni187  1  0.84169076  0.60159270  0.73779637  1
  Ni  Ni188  1  0.30983032  0.69488484  0.19544152  1
  Ni  Ni189  1  0.28098598  0.90846849  0.83101601  1
  Ni  Ni190  1  0.96336807  0.70337515  0.84587428  1
  Ni  Ni191  1  0.43791977  0.04391335  0.49277863  1
  Ni  Ni192  1  0.73525282  0.09474560  0.78544567  1
  Ni  Ni193  1  0.24355706  0.74950544  0.88640719  1
  Ni  Ni194  1  0.70582372  0.54438728  0.66980657  1
  Ni  Ni195  1  0.19769692  0.17651730  0.84554487  1
  Ni  Ni196  1  0.68315144  0.41408390  0.41011127  1
  Ni  Ni197  1  0.45732441  0.68537434  0.12968321  1
  Ni  Ni198  1  0.16012758  0.92731349  0.70570933  1
  Ni  Ni199  1  0.12291896  0.87196000  0.87065587  1
  Ni  Ni200  1  -0.01629665  0.36325731  0.76898329  1
  Ni  Ni201  1  0.57934420  0.22765612  0.01152752  1
  Ni  Ni202  1  0.04183001  0.56328322  0.97741414  1
  Ni  Ni203  1  0.92845249  0.15636519  0.55284367  1
  Ni  Ni204  1  0.80167929  0.92573083  0.75301894  1
  Ni  Ni205  1  0.57856101  0.74616421  0.33150831  1
  Ni  Ni206  1  0.89607586  0.56017320  0.47855272  1
  Ni  Ni207  1  0.98416967  0.11674154  0.23059153  1
  Ni  Ni208  1  0.28535881  0.33686093  0.78365845  1
  Ni  Ni209  1  0.44767526  0.52102008  0.52921757  1
  Ni  Ni210  1  0.54155723  0.45061470  0.94888599  1
  Ni  Ni211  1  0.03241350  0.26581336  0.28614765  1
  Ni  Ni212  1  0.15771490  0.63691409  0.24830822  1
  Ni  Ni213  1  0.46714717  0.96383137  0.22665395  1
  Ni  Ni214  1  0.65837788  0.59744505  0.34622206  1
  Ni  Ni215  1  0.25303000  0.21727889  0.10416252  1
