# generated using pymatgen
data_Ti2CoNi
_symmetry_space_group_name_H-M   'P 1'
_cell_length_a   14.66452732
_cell_length_b   14.64477607
_cell_length_c   14.64748851
_cell_angle_alpha   89.83789547
_cell_angle_beta   89.96587246
_cell_angle_gamma   90.02556376
_symmetry_Int_Tables_number   1
_chemical_formula_structural   Ti2CoNi
_chemical_formula_sum   'Ti108 Co54 Ni54'
_cell_volume   3145.66240275
_cell_formula_units_Z   54
loop_
 _symmetry_equiv_pos_site_id
 _symmetry_equiv_pos_as_xyz
  1  'x, y, z'
loop_
 _atom_site_type_symbol
 _atom_site_label
 _atom_site_symmetry_multiplicity
 _atom_site_fract_x
 _atom_site_fract_y
 _atom_site_fract_z
 _atom_site_occupancy
  Ti  Ti0  1  0.05134812  -0.01687955  0.03227522  1
  Ti  Ti1  1  0.01945050  0.05095463  0.39601424  1
  Ti  Ti2  1  -0.03047592  -0.08946504  0.67591453  1
  Ti  Ti3  1  -0.04784276  0.34574911  -0.07996106  1
  Ti  Ti4  1  -0.01203374  0.25570487  0.34423462  1
  Ti  Ti5  1  -0.04526467  0.41074774  0.72312123  1
  Ti  Ti6  1  -0.03657214  0.61991277  -0.05593715  1
  Ti  Ti7  1  0.03938991  0.70500521  0.32805304  1
  Ti  Ti8  1  0.04789137  0.67609622  0.65307493  1
  Ti  Ti9  1  0.25864608  0.02062152  0.09765755  1
  Ti  Ti10  1  0.29726073  -0.00744275  0.29525891  1
  Ti  Ti11  1  0.34726646  -0.01385219  0.63356865  1
  Ti  Ti12  1  0.28823905  0.29236716  -0.04174440  1
  Ti  Ti13  1  0.32067493  0.45631162  0.30518177  1
  Ti  Ti14  1  0.38667488  0.26620303  0.66758698  1
  Ti  Ti15  1  0.29129177  0.59608353  -0.00315696  1
  Ti  Ti16  1  0.37015814  0.64599323  0.37859280  1
  Ti  Ti17  1  0.32933955  0.59802649  0.66743315  1
  Ti  Ti18  1  0.63738223  0.01415759  0.04477719  1
  Ti  Ti19  1  0.59895188  -0.03796100  0.25918003  1
  Ti  Ti20  1  0.64519679  -0.02766282  0.60861420  1
  Ti  Ti21  1  0.61119252  0.40260157  0.00520284  1
  Ti  Ti22  1  0.63327172  0.32544467  0.28315295  1
  Ti  Ti23  1  0.68737333  0.32027084  0.61381807  1
  Ti  Ti24  1  0.63220856  0.63573597  -0.06246522  1
  Ti  Ti25  1  0.64958597  0.66904024  0.22288728  1
  Ti  Ti26  1  0.62796309  0.66390702  0.61409664  1
  Ti  Ti27  1  -0.04572115  0.14195375  0.16006143  1
  Ti  Ti28  1  0.00071559  0.14952982  0.63306118  1
  Ti  Ti29  1  0.03722306  0.12300369  0.83657553  1
  Ti  Ti30  1  -0.04258780  0.56157001  0.17163985  1
  Ti  Ti31  1  -0.00524385  0.51106950  0.42451529  1
  Ti  Ti32  1  0.07888708  0.49928316  0.84470731  1
  Ti  Ti33  1  0.04039969  0.82475093  0.16618604  1
  Ti  Ti34  1  0.09512165  0.80870222  0.49735129  1
  Ti  Ti35  1  -0.03544918  0.78120979  0.82619996  1
  Ti  Ti36  1  0.36012974  0.18018658  0.19205513  1
  Ti  Ti37  1  0.36410657  0.16781621  0.40166164  1
  Ti  Ti38  1  0.35753915  0.11883076  0.84473223  1
  Ti  Ti39  1  0.31888599  0.40377386  0.11313980  1
  Ti  Ti40  1  0.36838154  0.45325806  0.53023656  1
  Ti  Ti41  1  0.26816990  0.46291586  0.83104578  1
  Ti  Ti42  1  0.42294371  0.86479127  0.18859233  1
  Ti  Ti43  1  0.33217728  0.79375626  0.55552425  1
  Ti  Ti44  1  0.27627248  0.85925694  0.78719537  1
  Ti  Ti45  1  0.69208845  0.12756343  0.21778710  1
  Ti  Ti46  1  0.71974854  0.07772998  0.42257211  1
  Ti  Ti47  1  0.67492672  0.12350510  0.76512191  1
  Ti  Ti48  1  0.75562231  0.52965410  0.10510657  1
  Ti  Ti49  1  0.59558120  0.47522453  0.53040142  1
  Ti  Ti50  1  0.72994652  0.48364744  0.87375087  1
  Ti  Ti51  1  0.73707004  0.85878046  0.15040287  1
  Ti  Ti52  1  0.65853228  0.79437854  0.47110802  1
  Ti  Ti53  1  0.68305012  0.82912468  0.92011327  1
  Ti  Ti54  1  0.09590396  0.00227989  0.22300361  1
  Ti  Ti55  1  0.20898753  0.05792427  0.47277405  1
  Ti  Ti56  1  0.10626645  -0.06974979  0.85899617  1
  Ti  Ti57  1  0.10478424  0.31841023  0.07612971  1
  Ti  Ti58  1  0.21251396  0.30702962  0.56269111  1
  Ti  Ti59  1  0.12131645  0.29799913  0.85364409  1
  Ti  Ti60  1  0.20159765  0.68993692  0.18488863  1
  Ti  Ti61  1  0.19378391  0.61543745  0.51622375  1
  Ti  Ti62  1  0.17609034  0.68238545  0.82231712  1
  Ti  Ti63  1  0.46573927  0.03856499  0.13201519  1
  Ti  Ti64  1  0.50799901  0.05540751  0.50542573  1
  Ti  Ti65  1  0.54616703  -0.04056283  0.87656625  1
  Ti  Ti66  1  0.51021318  0.36607047  0.15153393  1
  Ti  Ti67  1  0.49031773  0.34713565  0.42577690  1
  Ti  Ti68  1  0.56449867  0.32454224  0.80371661  1
  Ti  Ti69  1  0.49097556  0.71279321  0.08576041  1
  Ti  Ti70  1  0.57625475  0.63109937  0.39200957  1
  Ti  Ti71  1  0.51856910  0.68204892  0.79789107  1
  Ti  Ti72  1  0.88259216  -0.03629346  0.24717323  1
  Ti  Ti73  1  0.85867884  0.02203425  0.56756836  1
  Ti  Ti74  1  0.84456914  0.14925987  0.85979577  1
  Ti  Ti75  1  0.91815847  0.35809512  0.15229193  1
  Ti  Ti76  1  0.90677408  0.35480463  0.53280761  1
  Ti  Ti77  1  0.78660963  0.32444588  0.79410841  1
  Ti  Ti78  1  0.88167516  0.73126725  0.08835966  1
  Ti  Ti79  1  0.84886899  0.64431767  0.51586317  1
  Ti  Ti80  1  0.80569133  0.66764797  0.80055533  1
  Ti  Ti81  1  0.19083157  0.11727530  -0.05779658  1
  Ti  Ti82  1  0.18002428  0.23327573  0.37432065  1
  Ti  Ti83  1  0.19705594  0.14726349  0.68366144  1
  Ti  Ti84  1  0.16259407  0.51100460  0.12930400  1
  Ti  Ti85  1  0.13215663  0.40115135  0.30033264  1
  Ti  Ti86  1  0.09712926  0.47363036  0.59226119  1
  Ti  Ti87  1  0.17788973  0.81263936  0.01039458  1
  Ti  Ti88  1  0.17962806  0.85171969  0.31370084  1
  Ti  Ti89  1  0.17779849  0.92237878  0.62441626  1
  Ti  Ti90  1  0.51056148  0.20691566  0.01568636  1
  Ti  Ti91  1  0.54888228  0.16251946  0.35694734  1
  Ti  Ti92  1  0.49462925  0.07791622  0.70342689  1
  Ti  Ti93  1  0.45941926  0.52677207  -0.00234371  1
  Ti  Ti94  1  0.47796822  0.55074174  0.22111289  1
  Ti  Ti95  1  0.50183160  0.52288809  0.68913166  1
  Ti  Ti96  1  0.38705500  0.88132398  -0.01083243  1
  Ti  Ti97  1  0.42333462  0.86207103  0.38139947  1
  Ti  Ti98  1  0.49750747  0.86573590  0.71515095  1
  Ti  Ti99  1  0.75600517  0.15023551  0.02232111  1
  Ti  Ti100  1  0.80514574  0.29053952  0.33977793  1
  Ti  Ti101  1  0.82260510  0.18958755  0.66112724  1
  Ti  Ti102  1  0.78320660  0.34358513  0.00852368  1
  Ti  Ti103  1  0.78703075  0.49935891  0.31314668  1
  Ti  Ti104  1  0.78607769  0.50808734  0.65708566  1
  Ti  Ti105  1  0.83930557  0.94261657  -0.04263008  1
  Ti  Ti106  1  0.86986564  0.81386744  0.41582581  1
  Ti  Ti107  1  0.78349699  0.82886739  0.64344904  1
  Co  Co108  1  0.97514977  0.91818985  0.49838746  1
  Co  Co109  1  0.81393848  0.86017777  0.79937794  1
  Co  Co110  1  0.01706335  0.65487603  0.49284230  1
  Co  Co111  1  0.19649328  0.43465937  0.97953830  1
  Co  Co112  1  0.11419916  0.11710362  0.11118183  1
  Co  Co113  1  0.17650877  0.55967436  0.70729378  1
  Co  Co114  1  0.64910860  0.25824491  0.09832818  1
  Co  Co115  1  0.79429187  0.02626043  0.12322020  1
  Co  Co116  1  0.88415703  0.79300720  0.24923227  1
  Co  Co117  1  0.78089882  0.00703975  0.71559652  1
  Co  Co118  1  0.45133725  1.03834120  0.97353229  1
  Co  Co119  1  0.33176002  0.57936003  0.15814839  1
  Co  Co120  1  0.47654951  0.71535399  0.26581650  1
  Co  Co121  1  0.80648666  0.22832422  0.16878670  1
  Co  Co122  1  0.94971493  0.25227630  0.76164665  1
  Co  Co123  1  0.32179379  0.76147957  0.26432492  1
  Co  Co124  1  0.55858252  0.22059843  0.67932366  1
  Co  Co125  1  0.90575202  0.89885100  0.10212005  1
  Co  Co126  1  0.22975071  0.22135986  0.10138083  1
  Co  Co127  1  0.80252367  0.61189431  0.96332614  1
  Co  Co128  1  0.65521991  0.92266005  0.76112141  1
  Co  Co129  1  0.22949101  1.02725266  0.78420511  1
  Co  Co130  1  0.14331261  0.39160499  0.72754618  1
  Co  Co131  1  0.26197111  -0.03114751  0.93666196  1
  Co  Co132  1  0.07261648  1.02785434  0.55606350  1
  Co  Co133  1  0.08280711  0.02021036  0.72033088  1
  Co  Co134  1  0.59937675  0.94621574  0.42038313  1
  Co  Co135  1  0.39284663  -0.03413562  0.80842822  1
  Co  Co136  1  0.74295272  0.37585691  0.17483485  1
  Co  Co137  1  0.90095733  0.23609112  0.03036370  1
  Co  Co138  1  0.62833691  0.47228186  0.36759786  1
  Co  Co139  1  0.34300522  0.14013672  0.02149113  1
  Co  Co140  1  0.74409663  0.88236727  0.32673805  1
  Co  Co141  1  0.33186427  0.73746504  0.08717775  1
  Co  Co142  1  0.70988151  1.01438887  0.88663481  1
  Co  Co143  1  0.93778312  0.52588682  0.59219949  1
  Co  Co144  1  0.92108058  0.05985723  0.74350284  1
  Co  Co145  1  0.74955661  0.92267365  0.49248264  1
  Co  Co146  1  0.24721262  0.89508878  0.45828240  1
  Co  Co147  1  0.88506033  0.48743870  0.85430755  1
  Co  Co148  1  0.66351019  0.59595996  0.75891099  1
  Co  Co149  1  0.81427187  0.64840469  0.21400145  1
  Co  Co150  1  0.88253393  0.48118376  0.02032806  1
  Co  Co151  1  0.36822784  -0.00185423  0.45853431  1
  Co  Co152  1  0.28144499  0.42516789  0.65864570  1
  Co  Co153  1  0.74487433  0.70574350  0.35446201  1
  Co  Co154  1  0.25904619  0.30484658  0.23928233  1
  Co  Co155  1  0.09161701  0.24413850  0.22090477  1
  Co  Co156  1  0.83326397  0.76892660  0.93964652  1
  Co  Co157  1  0.89852801  0.63764537  0.35267294  1
  Co  Co158  1  0.27109073  0.28691056  0.78215986  1
  Co  Co159  1  0.63122750  0.48266210  0.21210963  1
  Co  Co160  1  0.51445907  0.36816880  0.62266956  1
  Co  Co161  1  0.86092498  -0.00609747  0.40175742  1
  Ni  Ni162  1  0.04517746  0.19039058  0.98600343  1
  Ni  Ni163  1  0.66559150  0.14059156  0.58022314  1
  Ni  Ni164  1  0.74653281  0.40280359  0.46347994  1
  Ni  Ni165  1  0.21557132  0.72664831  0.65520065  1
  Ni  Ni166  1  0.42456229  0.30377437  0.28138356  1
  Ni  Ni167  1  0.23329149  0.73132729  0.40683294  1
  Ni  Ni168  1  0.90942257  0.15515298  0.46397735  1
  Ni  Ni169  1  0.59119464  0.57103556  0.08675700  1
  Ni  Ni170  1  0.20892927  0.12776520  0.25232966  1
  Ni  Ni171  1  0.46517082  0.59253110  0.53390687  1
  Ni  Ni172  1  0.63277497  0.26876538  0.46108038  1
  Ni  Ni173  1  0.24509028  0.86742658  0.15718969  1
  Ni  Ni174  1  0.67067599  0.76148083  0.75717299  1
  Ni  Ni175  1  0.33679895  0.13741789  0.56756304  1
  Ni  Ni176  1  0.92132543  0.07779803  0.99917216  1
  Ni  Ni177  1  0.20694372  0.45340834  0.45398443  1
  Ni  Ni178  1  0.46530049  0.50505650  0.39186878  1
  Ni  Ni179  1  0.53174686  0.19447971  0.19530179  1
  Ni  Ni180  1  0.13431258  0.60150305  0.96948611  1
  Ni  Ni181  1  0.05567049  0.67526676  0.09111580  1
  Ni  Ni182  1  0.42250175  0.26731415  0.85402667  1
  Ni  Ni183  1  0.39542653  0.57248856  0.84238460  1
  Ni  Ni184  1  0.09811994  0.56197467  0.27511919  1
  Ni  Ni185  1  0.07500761  0.18894836  0.49322711  1
  Ni  Ni186  1  0.10785793  0.81844489  0.73728860  1
  Ni  Ni187  1  0.78289137  0.23812291  0.50144257  1
  Ni  Ni188  1  0.54399527  0.14019820  0.86775726  1
  Ni  Ni189  1  0.70754128  0.70625137  0.06914189  1
  Ni  Ni190  1  0.30700322  0.74493654  0.92043065  1
  Ni  Ni191  1  0.07128471  0.35328139  0.46030832  1
  Ni  Ni192  1  0.01052326  0.88010569  0.33380230  1
  Ni  Ni193  1  0.46621933  0.71756045  0.63853993  1
  Ni  Ni194  1  0.93269835  0.77712320  0.57787205  1
  Ni  Ni195  1  0.05188360  0.30350176  0.62293519  1
  Ni  Ni196  1  0.44095058  0.36333515  -0.01121486  1
  Ni  Ni197  1  0.55122635  0.50065821  0.85267398  1
  Ni  Ni198  1  0.41047719  0.41014110  0.76551342  1
  Ni  Ni199  1  0.71070246  0.58055952  0.47489515  1
  Ni  Ni200  1  0.85839560  0.13290145  0.30142654  1
  Ni  Ni201  1  0.67439434  0.25370136  0.91088543  1
  Ni  Ni202  1  0.31393818  0.33038351  0.41365387  1
  Ni  Ni203  1  0.48332392  0.21921630  0.53118779  1
  Ni  Ni204  1  0.45248868  1.03496600  0.31311679  1
  Ni  Ni205  1  0.59711527  0.80551896  0.31701574  1
  Ni  Ni206  1  0.48893464  0.74559974  0.47623662  1
  Ni  Ni207  1  0.95972811  0.59934738  0.76413089  1
  Ni  Ni208  1  0.03989091  0.47192657  0.01891275  1
  Ni  Ni209  1  0.51356454  0.78300463  0.92761026  1
  Ni  Ni210  1  0.64629210  0.44062356  0.71761367  1
  Ni  Ni211  1  0.54843021  0.88150141  0.05852156  1
  Ni  Ni212  1  0.96286190  0.42783415  0.29071480  1
  Ni  Ni213  1  0.35916302  0.72318181  0.76652457  1
  Ni  Ni214  1  0.00272499  0.81891691  0.98578970  1
  Ni  Ni215  1  0.48412969  0.89164106  0.55057527  1
