# generated using pymatgen
data_Ti2CoNi
_symmetry_space_group_name_H-M   'P 1'
_cell_length_a   14.65702558
_cell_length_b   14.63895940
_cell_length_c   14.62125845
_cell_angle_alpha   90.15491258
_cell_angle_beta   90.16571222
_cell_angle_gamma   89.66784789
_symmetry_Int_Tables_number   1
_chemical_formula_structural   Ti2CoNi
_chemical_formula_sum   'Ti108 Co54 Ni54'
_cell_volume   3137.11272293
_cell_formula_units_Z   54
loop_
 _symmetry_equiv_pos_site_id
 _symmetry_equiv_pos_as_xyz
  1  'x, y, z'
loop_
 _atom_site_type_symbol
 _atom_site_label
 _atom_site_symmetry_multiplicity
 _atom_site_fract_x
 _atom_site_fract_y
 _atom_site_fract_z
 _atom_site_occupancy
  Ti  Ti0  1  -0.02553097  -0.02768582  0.04763998  1
  Ti  Ti1  1  0.05185943  0.00864113  0.34029314  1
  Ti  Ti2  1  0.05087016  -0.05835552  0.62246351  1
  Ti  Ti3  1  -0.08762617  0.37070865  -0.03433333  1
  Ti  Ti4  1  -0.00123518  0.36588522  0.34763803  1
  Ti  Ti5  1  -0.02565724  0.39243121  0.75093554  1
  Ti  Ti6  1  -0.00433432  0.63863790  0.03951370  1
  Ti  Ti7  1  -0.03197135  0.64442529  0.36797640  1
  Ti  Ti8  1  -0.05433164  0.67041685  0.69335558  1
  Ti  Ti9  1  0.30441492  -0.01697801  0.02402547  1
  Ti  Ti10  1  0.30439607  -0.03733428  0.38497392  1
  Ti  Ti11  1  0.37273205  0.09942130  0.68158634  1
  Ti  Ti12  1  0.42442984  0.28615373  0.01996868  1
  Ti  Ti13  1  0.34275126  0.28369520  0.28937309  1
  Ti  Ti14  1  0.32093870  0.35177723  0.65472165  1
  Ti  Ti15  1  0.27965075  0.63570207  0.04945553  1
  Ti  Ti16  1  0.39824339  0.68175827  0.37587197  1
  Ti  Ti17  1  0.28249180  0.70206979  0.70313362  1
  Ti  Ti18  1  0.67804724  -0.02108975  -0.01874808  1
  Ti  Ti19  1  0.63938669  0.04445913  0.41435710  1
  Ti  Ti20  1  0.62124912  0.01516783  0.62038074  1
  Ti  Ti21  1  0.71444190  0.33556647  -0.04034728  1
  Ti  Ti22  1  0.70839342  0.22551531  0.31170942  1
  Ti  Ti23  1  0.69227704  0.32493057  0.73352074  1
  Ti  Ti24  1  0.65583512  0.66629232  0.05553257  1
  Ti  Ti25  1  0.63373962  0.61057234  0.33234917  1
  Ti  Ti26  1  0.62407780  0.67687942  0.69758833  1
  Ti  Ti27  1  -0.03158809  0.12079260  0.19122556  1
  Ti  Ti28  1  0.00077875  0.10816784  0.50321152  1
  Ti  Ti29  1  0.00252283  0.16588880  0.76344019  1
  Ti  Ti30  1  0.01286299  0.44267994  0.13286205  1
  Ti  Ti31  1  0.07630341  0.48198833  0.48719797  1
  Ti  Ti32  1  -0.00408766  0.52140950  0.89223140  1
  Ti  Ti33  1  -0.05884439  0.80113245  0.11888420  1
  Ti  Ti34  1  -0.04584297  0.79352194  0.52850462  1
  Ti  Ti35  1  0.07098103  0.86625307  0.83651289  1
  Ti  Ti36  1  0.31732624  0.14317642  0.12012020  1
  Ti  Ti37  1  0.34011001  0.15039558  0.44270929  1
  Ti  Ti38  1  0.24005483  0.21368626  0.83978883  1
  Ti  Ti39  1  0.29817515  0.46792327  0.12177217  1
  Ti  Ti40  1  0.31734030  0.50086794  0.45468367  1
  Ti  Ti41  1  0.37912021  0.44460560  0.93043060  1
  Ti  Ti42  1  0.35091339  0.82452945  0.14120267  1
  Ti  Ti43  1  0.33604489  0.85252320  0.59309768  1
  Ti  Ti44  1  0.33515450  0.87521922  0.79756775  1
  Ti  Ti45  1  0.65998539  0.14487656  0.09519683  1
  Ti  Ti46  1  0.65128684  0.22890302  0.52469050  1
  Ti  Ti47  1  0.68520455  0.09088345  0.79252448  1
  Ti  Ti48  1  0.73513279  0.49092307  0.16399398  1
  Ti  Ti49  1  0.63479755  0.55844085  0.53986940  1
  Ti  Ti50  1  0.60669454  0.54315005  0.89769762  1
  Ti  Ti51  1  0.70227111  0.81000351  0.20302805  1
  Ti  Ti52  1  0.70458398  0.77933601  0.49173799  1
  Ti  Ti53  1  0.62491221  0.77855088  0.86000660  1
  Ti  Ti54  1  0.15526319  0.03871927  0.15669548  1
  Ti  Ti55  1  0.22640818  0.01796639  0.57917232  1
  Ti  Ti56  1  0.16398387  0.03373499  0.78845527  1
  Ti  Ti57  1  0.16624328  0.36670158  0.21811340  1
  Ti  Ti58  1  0.11702525  0.26971362  0.49180797  1
  Ti  Ti59  1  0.09816052  0.34288572  0.88790020  1
  Ti  Ti60  1  0.14497505  0.71736306  0.16368403  1
  Ti  Ti61  1  0.17011825  0.67717565  0.38817424  1
  Ti  Ti62  1  0.11957994  0.65834471  0.81639644  1
  Ti  Ti63  1  0.45267979  0.00300574  0.17999073  1
  Ti  Ti64  1  0.44884530  -0.01198469  0.51380268  1
  Ti  Ti65  1  0.52221082  -0.03938646  0.84926455  1
  Ti  Ti66  1  0.54625706  0.28615018  0.18186969  1
  Ti  Ti67  1  0.47940535  0.35482481  0.49406137  1
  Ti  Ti68  1  0.53803550  0.37943744  0.85520521  1
  Ti  Ti69  1  0.52711823  0.72111791  0.19672993  1
  Ti  Ti70  1  0.43948259  0.65474819  0.57423301  1
  Ti  Ti71  1  0.44944348  0.60443237  0.77357331  1
  Ti  Ti72  1  0.73449423  0.00697715  0.23399332  1
  Ti  Ti73  1  0.81152728  -0.04405275  0.53245748  1
  Ti  Ti74  1  0.85738008  0.02190720  0.87755197  1
  Ti  Ti75  1  0.86457595  0.32519898  0.18130815  1
  Ti  Ti76  1  0.87593482  0.25734113  0.45941023  1
  Ti  Ti77  1  0.84559730  0.23809861  0.83461601  1
  Ti  Ti78  1  0.84223841  0.65668493  0.21594735  1
  Ti  Ti79  1  0.83400279  0.63814774  0.49472172  1
  Ti  Ti80  1  0.91073621  0.70245272  0.88376353  1
  Ti  Ti81  1  0.15762107  0.23665987  0.06198666  1
  Ti  Ti82  1  0.16398045  0.19081140  0.29829502  1
  Ti  Ti83  1  0.13135379  0.30866584  0.68036577  1
  Ti  Ti84  1  0.20127534  0.50945943  -0.07478125  1
  Ti  Ti85  1  0.12368917  0.52383438  0.29820885  1
  Ti  Ti86  1  0.15895831  0.56901722  0.63425176  1
  Ti  Ti87  1  0.23084859  0.81168904  -0.03458476  1
  Ti  Ti88  1  0.16634881  0.86352568  0.29459719  1
  Ti  Ti89  1  0.15612523  0.78616639  0.55089996  1
  Ti  Ti90  1  0.42047952  0.13010680  -0.09879475  1
  Ti  Ti91  1  0.52569343  0.21872096  0.37123846  1
  Ti  Ti92  1  0.50882169  0.26234910  0.68707773  1
  Ti  Ti93  1  0.47259130  0.57398407  0.05514386  1
  Ti  Ti94  1  0.44226849  0.52759552  0.26984769  1
  Ti  Ti95  1  0.48276340  0.47755725  0.62717792  1
  Ti  Ti96  1  0.54216648  0.83772753  0.03887555  1
  Ti  Ti97  1  0.48213913  0.87290484  0.32128846  1
  Ti  Ti98  1  0.53928354  0.82020794  0.58306384  1
  Ti  Ti99  1  0.89141378  0.16947610  0.01247778  1
  Ti  Ti100  1  0.86192416  0.06521670  0.35701324  1
  Ti  Ti101  1  0.80356342  0.16644098  0.64297922  1
  Ti  Ti102  1  0.79759507  0.52410174  -0.04264486  1
  Ti  Ti103  1  0.77377245  0.40657393  0.35057710  1
  Ti  Ti104  1  0.90203948  0.49763085  0.60657293  1
  Ti  Ti105  1  0.78090195  0.82033715  -0.04849384  1
  Ti  Ti106  1  0.89305839  0.85971636  0.32807965  1
  Ti  Ti107  1  0.87625469  0.86151132  0.74415193  1
  Co  Co108  1  0.77590964  0.73284009  0.76813218  1
  Co  Co109  1  0.24976480  0.37905068  0.80303218  1
  Co  Co110  1  0.57888616  0.09828880  0.93336997  1
  Co  Co111  1  0.58690480  0.89813883  0.45064705  1
  Co  Co112  1  0.63410202  0.36595692  0.42708966  1
  Co  Co113  1  0.21031557  0.41441911  0.55331622  1
  Co  Co114  1  0.76739343  0.33712555  0.54480707  1
  Co  Co115  1  0.26250429  0.33400667  0.96024368  1
  Co  Co116  1  0.17512727  0.38041646  0.38645894  1
  Co  Co117  1  0.27389083  0.69644890  0.86527324  1
  Co  Co118  1  0.26427959  0.81178396  0.43050468  1
  Co  Co119  1  1.02355268  0.04974281  0.89724530  1
  Co  Co120  1  0.10042544  0.11762935  0.64107394  1
  Co  Co121  1  -0.01856546  0.23341048  0.61715582  1
  Co  Co122  1  0.89407586  -0.02206550  0.20555941  1
  Co  Co123  1  0.73567147  0.65775392  0.90094694  1
  Co  Co124  1  0.31919672  0.32627319  0.45334118  1
  Co  Co125  1  0.96155663  0.95073598  0.46802037  1
  Co  Co126  1  0.32409246  0.54015354  0.62659871  1
  Co  Co127  1  0.18193251  0.87707538  0.11106062  1
  Co  Co128  1  0.76026218  0.48379742  0.49872976  1
  Co  Co129  1  0.06298002  0.80537842  0.00390905  1
  Co  Co130  1  0.78713335  0.57179509  0.34957030  1
  Co  Co131  1  0.58218632  0.25363944  -0.00118204  1
  Co  Co132  1  0.82686606  0.76805969  0.61376796  1
  Co  Co133  1  0.46702832  0.38228485  0.33411625  1
  Co  Co134  1  0.73557992  0.90366210  0.36697150  1
  Co  Co135  1  1.02354757  0.75650948  0.26494428  1
  Co  Co136  1  0.76731342  0.62118466  0.64346111  1
  Co  Co137  1  0.13332888  0.40465383  0.03465701  1
  Co  Co138  1  0.38971663  0.28658922  0.84100491  1
  Co  Co139  1  0.96718702  0.36754469  0.54064220  1
  Co  Co140  1  0.92852004  0.06893837  0.63181346  1
  Co  Co141  1  0.97843327  0.99197402  0.76038654  1
  Co  Co142  1  0.40734335  0.43574337  0.76361776  1
  Co  Co143  1  0.29774132  0.10141851  0.28502130  1
  Co  Co144  1  0.75808396  0.46445558  0.66821874  1
  Co  Co145  1  0.51935578  0.09331104  0.75001198  1
  Co  Co146  1  0.78500780  0.73865351  0.35119610  1
  Co  Co147  1  0.93311307  0.87072105  0.92758167  1
  Co  Co148  1  0.26280841  0.58789313  0.26128196  1
  Co  Co149  1  0.05688169  0.11222904  0.04127876  1
  Co  Co150  1  0.14600463  0.93928682  0.45879922  1
  Co  Co151  1  0.01765377  0.21346479  0.91528934  1
  Co  Co152  1  0.62207836  0.38571155  0.59766140  1
  Co  Co153  1  0.27928910  0.54850663  0.78268150  1
  Co  Co154  1  0.30424198  0.43789150  0.30456116  1
  Co  Co155  1  0.05876179  0.81173238  0.41113229  1
  Co  Co156  1  0.38394441  0.59796658  0.91596109  1
  Co  Co157  1  0.13703958  0.66214122  0.97636233  1
  Co  Co158  1  0.42592863  0.81640902  0.46030232  1
  Co  Co159  1  0.61740439  0.77891439  0.33803447  1
  Co  Co160  1  0.80152346  0.00928586  0.70695006  1
  Co  Co161  1  0.55303360  0.69634663  0.46115480  1
  Ni  Ni162  1  0.44333918  0.16291668  0.22869771  1
  Ni  Ni163  1  0.07851324  0.76518165  0.69247403  1
  Ni  Ni164  1  0.29448415  0.30762475  0.12651646  1
  Ni  Ni165  1  0.40805385  0.88707056  0.94833706  1
  Ni  Ni166  1  0.28826026  0.75095231  0.27514241  1
  Ni  Ni167  1  0.60785782  0.96562222  0.13484656  1
  Ni  Ni168  1  0.51416206  0.13436561  0.52571741  1
  Ni  Ni169  1  0.79854864  0.88831125  0.09992017  1
  Ni  Ni170  1  0.58367366  0.86658330  0.73088038  1
  Ni  Ni171  1  0.88177192  0.52707965  0.09741574  1
  Ni  Ni172  1  0.40088785  0.73736675  0.01001791  1
  Ni  Ni173  1  0.71766070  0.91837646  0.81905810  1
  Ni  Ni174  1  0.49693589  0.53462177  0.43498125  1
  Ni  Ni175  1  0.58387642  0.22365383  0.83273949  1
  Ni  Ni176  1  0.03157614  0.27193875  0.21710019  1
  Ni  Ni177  1  0.28032211  0.67168882  0.52349891  1
  Ni  Ni178  1  0.59374286  0.10680109  0.25419258  1
  Ni  Ni179  1  0.91295376  0.48914851  0.43152488  1
  Ni  Ni180  1  0.81471657  0.40976315  0.82656524  1
  Ni  Ni181  1  0.02582142  0.63844321  0.53895577  1
  Ni  Ni182  1  0.77291380  0.11770693  0.48403271  1
  Ni  Ni183  1  0.11749829  0.48186394  0.77112973  1
  Ni  Ni184  1  0.46655518  0.05393708  0.35441277  1
  Ni  Ni185  1  0.80616161  0.04709405  0.07334003  1
  Ni  Ni186  1  0.61868366  0.41494353  0.26677329  1
  Ni  Ni187  1  0.58344796  0.55111063  0.17196633  1
  Ni  Ni188  1  0.14597592  0.54844666  0.11931171  1
  Ni  Ni189  1  0.38054492  0.65857691  0.17775105  1
  Ni  Ni190  1  0.04015765  0.91312856  0.19916326  1
  Ni  Ni191  1  0.80321104  0.17133878  0.18826514  1
  Ni  Ni192  1  0.48573638  0.12808907  0.06789359  1
  Ni  Ni193  1  0.82083816  0.68621055  0.05052447  1
  Ni  Ni194  1  0.20915698  0.10511997  0.96309313  1
  Ni  Ni195  1  0.85382715  0.32417503  0.67698774  1
  Ni  Ni196  1  0.44893852  0.94554092  0.68505780  1
  Ni  Ni197  1  0.44937858  0.76725021  0.71951446  1
  Ni  Ni198  1  0.85117223  0.56515163  0.78590318  1
  Ni  Ni199  1  0.71823421  0.87405547  0.65013397  1
  Ni  Ni200  1  0.69990630  0.32464380  0.13215042  1
  Ni  Ni201  1  0.39499302  0.23031214  0.57087776  1
  Ni  Ni202  1  0.13812292  0.95893856  0.97160596  1
  Ni  Ni203  1  0.00811122  0.60602491  0.20203198  1
  Ni  Ni204  1  0.16928440  0.10731222  0.44615135  1
  Ni  Ni205  1  0.52645540  0.68167261  0.93190200  1
  Ni  Ni206  1  1.00088648  0.18431231  0.35245893  1
  Ni  Ni207  1  0.60878541  0.49850738  0.73300312  1
  Ni  Ni208  1  0.45849084  0.41858474  0.14429776  1
  Ni  Ni209  1  0.73542974  0.15637160  0.93980735  1
  Ni  Ni210  1  0.20020644  0.88570429  0.69687067  1
  Ni  Ni211  1  0.57881533  0.42535043  1.02772535  1
  Ni  Ni212  1  0.23654899  0.19592929  0.59082203  1
  Ni  Ni213  1  1.00164400  0.28166968  0.06481690  1
  Ni  Ni214  1  0.29203069  0.95878329  0.20989524  1
  Ni  Ni215  1  0.90197154  0.48816623  0.26108387  1
