# generated using pymatgen
data_Ti2CoNi
_symmetry_space_group_name_H-M   'P 1'
_cell_length_a   14.40898800
_cell_length_b   14.55975986
_cell_length_c   14.48016329
_cell_angle_alpha   90.04336453
_cell_angle_beta   89.82795873
_cell_angle_gamma   90.05482532
_symmetry_Int_Tables_number   1
_chemical_formula_structural   Ti2CoNi
_chemical_formula_sum   'Ti108 Co54 Ni54'
_cell_volume   3037.79785210
_cell_formula_units_Z   54
loop_
 _symmetry_equiv_pos_site_id
 _symmetry_equiv_pos_as_xyz
  1  'x, y, z'
loop_
 _atom_site_type_symbol
 _atom_site_label
 _atom_site_symmetry_multiplicity
 _atom_site_fract_x
 _atom_site_fract_y
 _atom_site_fract_z
 _atom_site_occupancy
  Ti  Ti0  1  0.03394799  0.01838410  -0.04841758  1
  Ti  Ti1  1  0.06418851  -0.07723361  0.30960910  1
  Ti  Ti2  1  -0.03221573  0.09221604  0.66445862  1
  Ti  Ti3  1  0.02152181  0.34983786  0.02849495  1
  Ti  Ti4  1  -0.06125385  0.29729643  0.33885178  1
  Ti  Ti5  1  0.08749447  0.26265545  0.69816631  1
  Ti  Ti6  1  -0.05556849  0.67815397  0.01635792  1
  Ti  Ti7  1  0.04008993  0.71336863  0.27761105  1
  Ti  Ti8  1  0.07375684  0.67870686  0.72688787  1
  Ti  Ti9  1  0.31406122  0.09239515  0.00449715  1
  Ti  Ti10  1  0.32378937  0.08032597  0.30481619  1
  Ti  Ti11  1  0.34838080  -0.02957889  0.67312405  1
  Ti  Ti12  1  0.35830539  0.40428446  -0.03030185  1
  Ti  Ti13  1  0.27752278  0.31423976  0.32534637  1
  Ti  Ti14  1  0.38164722  0.31724146  0.59081089  1
  Ti  Ti15  1  0.30801758  0.59870405  0.03537309  1
  Ti  Ti16  1  0.22600380  0.64434814  0.31693628  1
  Ti  Ti17  1  0.43509718  0.68532995  0.69094668  1
  Ti  Ti18  1  0.61309602  0.04852913  0.00353577  1
  Ti  Ti19  1  0.63757630  0.04358601  0.33867110  1
  Ti  Ti20  1  0.66454793  -0.00246089  0.66983532  1
  Ti  Ti21  1  0.68686075  0.36354112  -0.03975988  1
  Ti  Ti22  1  0.73756264  0.35840448  0.27607063  1
  Ti  Ti23  1  0.61831867  0.34113114  0.64692758  1
  Ti  Ti24  1  0.70501854  0.60253042  -0.07628023  1
  Ti  Ti25  1  0.66391751  0.56499873  0.33388055  1
  Ti  Ti26  1  0.64847453  0.65676752  0.69123824  1
  Ti  Ti27  1  0.00594701  0.09271211  0.21175890  1
  Ti  Ti28  1  -0.00466620  0.08360401  0.41878869  1
  Ti  Ti29  1  -0.09327181  0.16414467  0.84710796  1
  Ti  Ti30  1  -0.06358166  0.60198084  0.18558067  1
  Ti  Ti31  1  0.00816455  0.47919633  0.44376464  1
  Ti  Ti32  1  0.00047184  0.52357167  0.82035947  1
  Ti  Ti33  1  0.07757439  0.87137586  0.10803206  1
  Ti  Ti34  1  0.01453780  0.81555259  0.48250576  1
  Ti  Ti35  1  -0.03561995  0.91871348  0.78948435  1
  Ti  Ti36  1  0.35334212  0.25605650  0.16305156  1
  Ti  Ti37  1  0.40601221  0.12570892  0.50431333  1
  Ti  Ti38  1  0.31267918  0.23664832  0.86376615  1
  Ti  Ti39  1  0.32869978  0.45074069  0.16328076  1
  Ti  Ti40  1  0.35320418  0.51357092  0.55968038  1
  Ti  Ti41  1  0.30310288  0.45877935  0.76549263  1
  Ti  Ti42  1  0.33600233  0.76079147  0.19801863  1
  Ti  Ti43  1  0.29392140  0.82434287  0.52604706  1
  Ti  Ti44  1  0.39225971  0.82657503  0.83555403  1
  Ti  Ti45  1  0.63369436  0.17460295  0.20935256  1
  Ti  Ti46  1  0.61944574  0.14764834  0.54190134  1
  Ti  Ti47  1  0.74061370  0.17083753  0.91528837  1
  Ti  Ti48  1  0.68317738  0.47783386  0.11956070  1
  Ti  Ti49  1  0.65911577  0.53571466  0.54219106  1
  Ti  Ti50  1  0.68528270  0.46038285  0.77659790  1
  Ti  Ti51  1  0.70814563  0.83988962  0.22896477  1
  Ti  Ti52  1  0.71794767  0.76024585  0.47278769  1
  Ti  Ti53  1  0.70147029  0.78275015  0.86926067  1
  Ti  Ti54  1  0.17805529  0.04049549  0.12613083  1
  Ti  Ti55  1  0.12425512  -0.03611228  0.52701870  1
  Ti  Ti56  1  0.16302174  -0.04876006  0.78634267  1
  Ti  Ti57  1  0.13611975  0.31496469  0.17368606  1
  Ti  Ti58  1  0.08302551  0.28047432  0.46830292  1
  Ti  Ti59  1  0.16277742  0.36624433  0.90353053  1
  Ti  Ti60  1  0.17145702  0.57933795  0.15881202  1
  Ti  Ti61  1  0.15265105  0.64575399  0.54382531  1
  Ti  Ti62  1  0.23565947  0.68715935  0.81825510  1
  Ti  Ti63  1  0.56528319  -0.02818588  0.21089890  1
  Ti  Ti64  1  0.57415935  -0.07475119  0.50654535  1
  Ti  Ti65  1  0.48679382  -0.01345521  0.81607539  1
  Ti  Ti66  1  0.51763205  0.35396649  0.10625963  1
  Ti  Ti67  1  0.60042726  0.37540321  0.42609545  1
  Ti  Ti68  1  0.50446593  0.25160341  0.87548024  1
  Ti  Ti69  1  0.52189836  0.76059644  0.15882605  1
  Ti  Ti70  1  0.47152755  0.69298305  0.43520254  1
  Ti  Ti71  1  0.52106682  0.69246939  0.96612694  1
  Ti  Ti72  1  0.78344160  -0.03011303  0.13662316  1
  Ti  Ti73  1  0.84007290  0.05889057  0.51279707  1
  Ti  Ti74  1  0.78221751  -0.01802167  0.83059003  1
  Ti  Ti75  1  0.88519599  0.40286094  0.13507774  1
  Ti  Ti76  1  0.91285932  0.34061886  0.56497663  1
  Ti  Ti77  1  0.83889281  0.33937856  0.80220782  1
  Ti  Ti78  1  0.71946689  0.66133159  0.17997048  1
  Ti  Ti79  1  0.91664966  0.66756248  0.48085272  1
  Ti  Ti80  1  0.88218177  0.69633626  0.83606880  1
  Ti  Ti81  1  0.07685784  0.20534632  -0.09326764  1
  Ti  Ti82  1  0.19661970  0.15994629  0.42716303  1
  Ti  Ti83  1  0.20825130  0.11680046  0.70500133  1
  Ti  Ti84  1  0.10893733  0.56989599  -0.03330847  1
  Ti  Ti85  1  0.19027294  0.49134839  0.41983650  1
  Ti  Ti86  1  0.16011291  0.41890396  0.59999466  1
  Ti  Ti87  1  0.22018815  0.76914908  -0.02220390  1
  Ti  Ti88  1  0.16900200  0.80430792  0.40523079  1
  Ti  Ti89  1  0.13968327  0.81859663  0.64496717  1
  Ti  Ti90  1  0.48782919  0.11893231  0.09647378  1
  Ti  Ti91  1  0.47691300  0.23221100  0.35862943  1
  Ti  Ti92  1  0.40939079  0.16660805  0.69223062  1
  Ti  Ti93  1  0.56147287  0.48631476  -0.03340217  1
  Ti  Ti94  1  0.38183174  0.52211513  0.33222872  1
  Ti  Ti95  1  0.49388604  0.50827917  0.71008176  1
  Ti  Ti96  1  0.43951554  0.94117898  0.03525139  1
  Ti  Ti97  1  0.47310354  0.87214142  0.34806705  1
  Ti  Ti98  1  0.49532997  0.86573402  0.66308545  1
  Ti  Ti99  1  0.90591738  0.15196794  0.05231200  1
  Ti  Ti100  1  0.82443868  0.12960708  0.28620725  1
  Ti  Ti101  1  0.76475720  0.17221657  0.70637091  1
  Ti  Ti102  1  0.84293642  0.46453350  -0.04085182  1
  Ti  Ti103  1  0.80587674  0.47485864  0.40867019  1
  Ti  Ti104  1  0.82441060  0.47891721  0.63555047  1
  Ti  Ti105  1  0.80004703  0.81659343  0.03181293  1
  Ti  Ti106  1  0.87633212  0.82273989  0.32037864  1
  Ti  Ti107  1  0.84761361  0.84761315  0.58561879  1
  Co  Co108  1  0.91537776  0.58974264  0.33714124  1
  Co  Co109  1  0.94912348  0.44574144  0.28125658  1
  Co  Co110  1  0.57663479  0.44688720  0.27045081  1
  Co  Co111  1  0.06847029  0.63330311  0.41862540  1
  Co  Co112  1  0.80027352  0.61885825  0.05492184  1
  Co  Co113  1  0.09932748  0.37178003  0.32759398  1
  Co  Co114  1  0.50870656  0.43782818  0.56195149  1
  Co  Co115  1  0.51475683  0.26114815  0.51985709  1
  Co  Co116  1  0.06072307  0.45988498  0.16249876  1
  Co  Co117  1  0.54162039  0.41243275  0.82551687  1
  Co  Co118  1  0.99969217  0.26898988  0.17808714  1
  Co  Co119  1  0.59927746  0.73252570  0.31465481  1
  Co  Co120  1  0.22076360  0.46035719  0.26493926  1
  Co  Co121  1  0.62226408  0.92231682  0.81158736  1
  Co  Co122  1  0.42073599  0.24787483  1.02562827  1
  Co  Co123  1  0.51776294  0.60605270  0.56397937  1
  Co  Co124  1  0.48031142  0.13317591  0.24416610  1
  Co  Co125  1  0.11074693  0.82698385  0.82685315  1
  Co  Co126  1  0.34890442  0.07096643  0.15707365  1
  Co  Co127  1  0.77641556  0.21816969  0.56570493  1
  Co  Co128  1  0.55032821  0.84744525  0.95565070  1
  Co  Co129  1  0.65744436  0.30154612  0.79407838  1
  Co  Co130  1  0.44451250  0.52703958  0.06960380  1
  Co  Co131  1  0.07235402  0.15961296  0.06593121  1
  Co  Co132  1  0.96383468  0.73943551  0.62987294  1
  Co  Co133  1  0.21374942  0.22799494  0.59254507  1
  Co  Co134  1  0.43283023  0.38766391  0.42821614  1
  Co  Co135  1  0.65204231  0.74430663  0.03693050  1
  Co  Co136  1  0.43448331  0.34227604  0.74395755  1
  Co  Co137  1  0.55645612  0.77564976  0.79098337  1
  Co  Co138  1  0.57848034  0.16325000  0.69894603  1
  Co  Co139  1  0.39098406  0.78303641  0.03049270  1
  Co  Co140  1  0.91264297  0.60040086  0.68857285  1
  Co  Co141  1  0.07269655  0.54246166  0.29942188  1
  Co  Co142  1  0.73690592  0.12053226  0.42660314  1
  Co  Co143  1  0.07815267  0.19850358  0.31228043  1
  Co  Co144  1  0.30490202  0.81951017  0.69425011  1
  Co  Co145  1  0.23684264  0.91995309  0.25407711  1
  Co  Co146  1  0.15675350  0.04318441  0.31017720  1
  Co  Co147  1  0.78863598  0.69432171  0.34595145  1
  Co  Co148  1  0.92110145  0.25371515  0.69500283  1
  Co  Co149  1  0.20119540  0.42187308  0.05393459  1
  Co  Co150  1  0.21044327  0.17161994  0.21145730  1
  Co  Co151  1  0.52131002  0.52842658  0.42289007  1
  Co  Co152  1  0.23878828  0.52814217  0.90154256  1
  Co  Co153  1  0.94865971  0.19981305  0.54200199  1
  Co  Co154  1  0.27481775  0.88672039  0.10027190  1
  Co  Co155  1  0.43071006  0.36118233  0.27193989  1
  Co  Co156  1  0.65893453  0.23378199  0.34699166  1
  Co  Co157  1  0.79928518  0.52033032  0.25024122  1
  Co  Co158  1  0.09682255  0.11717250  0.56954237  1
  Co  Co159  1  0.65062570  0.88310329  0.36366231  1
  Co  Co160  1  0.69346823  0.93244318  0.95978422  1
  Co  Co161  1  0.60746349  0.89416212  0.08550321  1
  Ni  Ni162  1  0.83029801  0.04704331  0.97143904  1
  Ni  Ni163  1  0.32181809  0.06992749  0.81232313  1
  Ni  Ni164  1  0.01698158  0.56434347  0.58002275  1
  Ni  Ni165  1  0.26600868  0.06964058  0.56098922  1
  Ni  Ni166  1  0.83096960  0.98398951  0.67115749  1
  Ni  Ni167  1  0.36866064  0.67382971  0.91303329  1
  Ni  Ni168  1  0.84689950  0.29518015  0.98568398  1
  Ni  Ni169  1  0.51294618  0.03496405  0.62024849  1
  Ni  Ni170  1  0.17434917  0.92905946  0.97726590  1
  Ni  Ni171  1  0.41278923  0.53151716  0.88703476  1
  Ni  Ni172  1  0.55883384  0.60693264  0.83819286  1
  Ni  Ni173  1  0.91737888  0.77127545  0.16326448  1
  Ni  Ni174  1  0.74472198  0.38168353  0.52941130  1
  Ni  Ni175  1  0.80154578  0.97921401  0.34216183  1
  Ni  Ni176  1  0.33453546  0.93460913  0.91718170  1
  Ni  Ni177  1  0.93474008  0.94097279  0.42927202  1
  Ni  Ni178  1  0.60054776  0.22488341  0.00572465  1
  Ni  Ni179  1  0.25552921  0.95850676  0.41895090  1
  Ni  Ni180  1  0.47987925  0.03575262  0.38340712  1
  Ni  Ni181  1  0.58660563  0.75313419  0.56826991  1
  Ni  Ni182  1  0.82398580  0.54081032  0.80473819  1
  Ni  Ni183  1  0.09160594  0.70293507  0.08936916  1
  Ni  Ni184  1  0.00947454  0.33156700  0.83422476  1
  Ni  Ni185  1  0.05507486  0.07825346  0.79271808  1
  Ni  Ni186  1  0.82797749  0.24795049  0.42216596  1
  Ni  Ni187  1  0.99116074  0.82688927  0.94396850  1
  Ni  Ni188  1  0.78630494  0.76161963  0.71319594  1
  Ni  Ni189  1  0.78929777  0.63876775  0.58668168  1
  Ni  Ni190  1  0.92739154  0.94222476  0.05061786  1
  Ni  Ni191  1  0.22342924  0.23710956  0.03058287  1
  Ni  Ni192  1  0.73350173  0.93859771  0.51775718  1
  Ni  Ni193  1  0.27327830  0.68459030  0.64218483  1
  Ni  Ni194  1  0.63203869  0.08953040  0.83596384  1
  Ni  Ni195  1  0.17040891  0.78475361  0.20253454  1
  Ni  Ni196  1  0.17830079  0.56858027  0.71476724  1
  Ni  Ni197  1  -0.00601023  0.89539488  0.63556533  1
  Ni  Ni198  1  0.05797386  0.69467286  0.89343917  1
  Ni  Ni199  1  0.19202252  0.07566463  0.91044192  1
  Ni  Ni200  1  0.46793472  0.11234964  0.92469929  1
  Ni  Ni201  1  0.57002939  0.60282710  0.11038373  1
  Ni  Ni202  1  0.24000068  0.29447617  0.73379589  1
  Ni  Ni203  1  0.38572400  0.61359864  0.19936476  1
  Ni  Ni204  1  0.93190144  -0.05034730  0.22218141  1
  Ni  Ni205  1  0.70345348  0.30762540  0.11708343  1
  Ni  Ni206  1  0.33239538  0.78022070  0.37205334  1
  Ni  Ni207  1  0.13890395  0.43144396  0.75882219  1
  Ni  Ni208  1  0.29917137  0.64538406  0.46620021  1
  Ni  Ni209  1  0.98011235  0.43474144  0.68413137  1
  Ni  Ni210  1  0.40572027  0.93519845  0.22111607  1
  Ni  Ni211  1  0.96907200  0.52924580  1.03254880  1
  Ni  Ni212  1  0.26646039  0.33838984  0.48584986  1
  Ni  Ni213  1  0.40086008  0.94282967  0.50895074  1
  Ni  Ni214  1  0.83592119  0.24151216  0.17614051  1
  Ni  Ni215  1  0.72792138  0.14093794  0.07604182  1
