# generated using pymatgen
data_Ti2CoNi
_symmetry_space_group_name_H-M   'P 1'
_cell_length_a   14.48510727
_cell_length_b   14.56620425
_cell_length_c   14.54419077
_cell_angle_alpha   89.89388638
_cell_angle_beta   89.97977762
_cell_angle_gamma   89.96024920
_symmetry_Int_Tables_number   1
_chemical_formula_structural   Ti2CoNi
_chemical_formula_sum   'Ti108 Co54 Ni54'
_cell_volume   3068.71670342
_cell_formula_units_Z   54
loop_
 _symmetry_equiv_pos_site_id
 _symmetry_equiv_pos_as_xyz
  1  'x, y, z'
loop_
 _atom_site_type_symbol
 _atom_site_label
 _atom_site_symmetry_multiplicity
 _atom_site_fract_x
 _atom_site_fract_y
 _atom_site_fract_z
 _atom_site_occupancy
  Ti  Ti0  1  -0.01146942  -0.02559092  0.01627455  1
  Ti  Ti1  1  -0.03463560  0.00355552  0.23161267  1
  Ti  Ti2  1  -0.03850504  0.03800257  0.73511303  1
  Ti  Ti3  1  -0.09911683  0.34854970  0.04482749  1
  Ti  Ti4  1  -0.02781891  0.36361092  0.28661986  1
  Ti  Ti5  1  0.06599780  0.32480295  0.63899081  1
  Ti  Ti6  1  -0.01671320  0.76440235  -0.01985279  1
  Ti  Ti7  1  0.05609217  0.65719063  0.31894408  1
  Ti  Ti8  1  -0.03017979  0.56109739  0.67481496  1
  Ti  Ti9  1  0.31193511  0.00583844  -0.08346969  1
  Ti  Ti10  1  0.33570680  -0.04358153  0.27598293  1
  Ti  Ti11  1  0.39520713  -0.01384771  0.68007533  1
  Ti  Ti12  1  0.30916862  0.35722794  0.06430422  1
  Ti  Ti13  1  0.31479781  0.24135791  0.32347426  1
  Ti  Ti14  1  0.34183204  0.38555587  0.65907094  1
  Ti  Ti15  1  0.39401950  0.68585576  0.04321673  1
  Ti  Ti16  1  0.36628188  0.68034170  0.26551543  1
  Ti  Ti17  1  0.38792829  0.62404684  0.69726796  1
  Ti  Ti18  1  0.65437929  0.05778076  0.05259239  1
  Ti  Ti19  1  0.68312455  0.00757684  0.35604317  1
  Ti  Ti20  1  0.68049914  0.01710770  0.62524286  1
  Ti  Ti21  1  0.69874042  0.36442526  -0.02968541  1
  Ti  Ti22  1  0.64806114  0.35095348  0.32954485  1
  Ti  Ti23  1  0.63624998  0.33688939  0.68980616  1
  Ti  Ti24  1  0.68301075  0.63080372  0.01206721  1
  Ti  Ti25  1  0.68672379  0.68400337  0.34086847  1
  Ti  Ti26  1  0.72278319  0.68672027  0.71267990  1
  Ti  Ti27  1  -0.04620188  0.19116705  0.18010315  1
  Ti  Ti28  1  0.06501589  0.16709074  0.49733530  1
  Ti  Ti29  1  0.06023421  0.19466194  0.80036113  1
  Ti  Ti30  1  -0.01979108  0.50683746  0.14629801  1
  Ti  Ti31  1  -0.02711941  0.46019039  0.48007733  1
  Ti  Ti32  1  -0.07511062  0.42780078  0.82655791  1
  Ti  Ti33  1  -0.05408602  0.81889590  0.17540468  1
  Ti  Ti34  1  0.05423270  0.85917122  0.48778036  1
  Ti  Ti35  1  0.02590682  0.85733995  0.79103435  1
  Ti  Ti36  1  0.38389983  0.19602073  0.14705934  1
  Ti  Ti37  1  0.41922599  0.20358300  0.49170812  1
  Ti  Ti38  1  0.34546751  0.19947593  0.94077492  1
  Ti  Ti39  1  0.29904396  0.54410949  0.14549869  1
  Ti  Ti40  1  0.34503816  0.54373076  0.52296080  1
  Ti  Ti41  1  0.27419681  0.55705897  0.85053698  1
  Ti  Ti42  1  0.43923070  0.83582068  0.16683979  1
  Ti  Ti43  1  0.29042159  0.82942889  0.56873903  1
  Ti  Ti44  1  0.27764367  0.85354641  0.79025322  1
  Ti  Ti45  1  0.67578937  0.23380791  0.18349243  1
  Ti  Ti46  1  0.62558342  0.23474594  0.50086432  1
  Ti  Ti47  1  0.61968851  0.10991685  0.79737193  1
  Ti  Ti48  1  0.64124722  0.46892057  0.13708193  1
  Ti  Ti49  1  0.64251827  0.47549243  0.48547407  1
  Ti  Ti50  1  0.66070567  0.54682880  0.82483206  1
  Ti  Ti51  1  0.72314675  0.77067839  0.16768760  1
  Ti  Ti52  1  0.69553053  0.84002417  0.49685444  1
  Ti  Ti53  1  0.61313566  0.77728172  0.83306695  1
  Ti  Ti54  1  0.14901840  -0.06646009  0.20731412  1
  Ti  Ti55  1  0.19719162  0.02999410  0.52827568  1
  Ti  Ti56  1  0.13239708  0.01028982  0.82643352  1
  Ti  Ti57  1  0.09847338  0.35710973  0.12872000  1
  Ti  Ti58  1  0.15103596  0.33699904  0.43967136  1
  Ti  Ti59  1  0.14082730  0.35422598  0.86356095  1
  Ti  Ti60  1  0.15961784  0.69726005  0.14751409  1
  Ti  Ti61  1  0.16623284  0.54257542  0.46312418  1
  Ti  Ti62  1  0.13457790  0.69911879  0.86766371  1
  Ti  Ti63  1  0.44822448  0.02565026  0.12848726  1
  Ti  Ti64  1  0.41056061  0.00447758  0.48484683  1
  Ti  Ti65  1  0.48746203  -0.05613433  0.84069611  1
  Ti  Ti66  1  0.51635869  0.33078163  0.11421999  1
  Ti  Ti67  1  0.46585396  0.35203312  0.38695545  1
  Ti  Ti68  1  0.46317869  0.27448289  0.76861809  1
  Ti  Ti69  1  0.53286042  0.60376160  0.20851878  1
  Ti  Ti70  1  0.53225905  0.73678960  0.45072509  1
  Ti  Ti71  1  0.48351143  0.59048218  0.87066282  1
  Ti  Ti72  1  0.78671354  -0.02878200  0.14260245  1
  Ti  Ti73  1  0.85526189  -0.05139998  0.55705141  1
  Ti  Ti74  1  0.78612393  -0.00363279  0.88024865  1
  Ti  Ti75  1  0.80258818  0.38980779  0.21337099  1
  Ti  Ti76  1  0.81045138  0.31220297  0.42568274  1
  Ti  Ti77  1  0.85014202  0.27563518  0.73016344  1
  Ti  Ti78  1  0.79569375  0.58799159  0.20824702  1
  Ti  Ti79  1  0.82998285  0.65960598  0.57651240  1
  Ti  Ti80  1  0.82831476  0.70725298  0.88455622  1
  Ti  Ti81  1  0.08902008  0.19605580  0.02131949  1
  Ti  Ti82  1  0.14444390  0.12238850  0.30960847  1
  Ti  Ti83  1  0.28248100  0.14014465  0.74918580  1
  Ti  Ti84  1  0.17283373  0.49115435  0.02122697  1
  Ti  Ti85  1  0.22708207  0.41571740  0.26786308  1
  Ti  Ti86  1  0.19625940  0.54247162  0.67758281  1
  Ti  Ti87  1  0.24329123  0.82263302  0.01979703  1
  Ti  Ti88  1  0.21250535  0.78109769  0.34292347  1
  Ti  Ti89  1  0.13025987  0.78568059  0.64826168  1
  Ti  Ti90  1  0.55583160  0.22947582  -0.06051100  1
  Ti  Ti91  1  0.48982535  0.09823472  0.32545412  1
  Ti  Ti92  1  0.51474458  0.13009649  0.63848874  1
  Ti  Ti93  1  0.50991119  0.44352917  -0.02825078  1
  Ti  Ti94  1  0.48325454  0.56154904  0.38924689  1
  Ti  Ti95  1  0.51757801  0.48032112  0.68286902  1
  Ti  Ti96  1  0.53678945  0.89872074  0.02328276  1
  Ti  Ti97  1  0.39425693  0.83650322  0.39078947  1
  Ti  Ti98  1  0.47460712  0.81165997  0.69779036  1
  Ti  Ti99  1  0.77950744  0.16583312  -0.05269133  1
  Ti  Ti100  1  0.88724439  0.10052529  0.37905518  1
  Ti  Ti101  1  0.84791350  0.16295938  0.56344168  1
  Ti  Ti102  1  0.90736196  0.56550959  -0.02530368  1
  Ti  Ti103  1  0.82856967  0.58686635  0.41697540  1
  Ti  Ti104  1  0.81921836  0.45988079  0.62761904  1
  Ti  Ti105  1  0.70488130  0.84051767  -0.01281343  1
  Ti  Ti106  1  0.81351548  0.87678526  0.31056967  1
  Ti  Ti107  1  0.88256358  0.78504820  0.70872811  1
  Co  Co108  1  0.65050208  0.52563929  0.30877038  1
  Co  Co109  1  0.73650592  0.09049750  0.48676859  1
  Co  Co110  1  0.55692559  0.92701085  0.43882534  1
  Co  Co111  1  0.83509265  0.24746739  0.27632967  1
  Co  Co112  1  0.63288105  0.93947939  0.76450270  1
  Co  Co113  1  0.56936521  0.74070726  0.12637918  1
  Co  Co114  1  0.27350255  0.10164939  0.05043215  1
  Co  Co115  1  0.57953904  0.39838070  0.83554334  1
  Co  Co116  1  0.23498391  0.96371677  0.68256982  1
  Co  Co117  1  0.25560273  0.66742109  0.57870767  1
  Co  Co118  1  0.25018672  0.69955152  0.73491320  1
  Co  Co119  1  0.24554441  0.58467811  0.32842384  1
  Co  Co120  1  0.93185767  0.52992771  0.30169580  1
  Co  Co121  1  0.91166356  0.89682378  0.88177972  1
  Co  Co122  1  0.31604368  0.42064728  0.41450076  1
  Co  Co123  1  0.51901853  0.24367139  0.26287269  1
  Co  Co124  1  0.32712770  0.11521940  0.59074195  1
  Co  Co125  1  0.31852413  0.08583014  0.37790588  1
  Co  Co126  1  0.98945068  0.62466372  0.46053666  1
  Co  Co127  1  0.75373636  0.41416672  0.78640714  1
  Co  Co128  1  0.07924010  0.47839323  0.34122194  1
  Co  Co129  1  0.38094436  0.50206644  0.28231026  1
  Co  Co130  1  0.52892281  0.59029665  0.04231554  1
  Co  Co131  1  0.76197402  0.83980405  0.82379067  1
  Co  Co132  1  0.68363775  0.25785429  0.82751742  1
  Co  Co133  1  0.08616414  0.83141723  0.08135424  1
  Co  Co134  1  0.28089383  0.40481331  0.91164441  1
  Co  Co135  1  0.83360755  0.57286573  0.77719121  1
  Co  Co136  1  0.89113091  0.09706368  0.06507222  1
  Co  Co137  1  0.77493989  0.50214089  0.92297756  1
  Co  Co138  1  0.82992067  0.30597458  0.89037657  1
  Co  Co139  1  0.37917447  0.35256620  0.21791291  1
  Co  Co140  1  0.52576710  0.43030849  0.25764163  1
  Co  Co141  1  0.64950747  0.84376114  0.32888796  1
  Co  Co142  1  0.79607130  0.23489554  0.08983630  1
  Co  Co143  1  0.69573953  0.18443207  0.65749420  1
  Co  Co144  1  0.79113143  0.10365538  0.22047045  1
  Co  Co145  1  0.42218291  0.33497360  0.91463021  1
  Co  Co146  1  0.08930321  0.62267811  0.59119584  1
  Co  Co147  1  0.23265326  0.19331862  0.46199235  1
  Co  Co148  1  0.62824474  0.90670837  0.16342151  1
  Co  Co149  1  0.39993774  0.45616556  0.80480601  1
  Co  Co150  1  0.78871580  0.45347111  0.35874106  1
  Co  Co151  1  0.07564684  0.94281622  0.64897582  1
  Co  Co152  1  0.33815595  0.68743002  0.43767358  1
  Co  Co153  1  0.62593718  0.99296799  0.91526588  1
  Co  Co154  1  0.36191435  0.52917857  0.98414004  1
  Co  Co155  1  0.29202774  0.30018944  0.79258530  1
  Co  Co156  1  0.99534613  0.03266338  0.54347732  1
  Co  Co157  1  0.97606880  0.73641175  0.58133134  1
  Co  Co158  1  0.52152147  0.75224136  0.28660946  1
  Co  Co159  1  0.51239424  0.93446756  0.28340629  1
  Co  Co160  1  0.56846744  0.08361528  0.48338181  1
  Co  Co161  1  0.44479674  0.48069171  0.12373729  1
  Ni  Ni162  1  0.67588557  0.53762948  0.64356748  1
  Ni  Ni163  1  0.27558097  0.08979292  0.21179358  1
  Ni  Ni164  1  0.13236969  0.54276526  0.20363673  1
  Ni  Ni165  1  0.84200370  0.69505814  0.07223326  1
  Ni  Ni166  1  0.71536526  0.84802911  0.66331382  1
  Ni  Ni167  1  0.11851289  0.28012850  0.28983541  1
  Ni  Ni168  1  0.80828844  0.12126259  0.75982103  1
  Ni  Ni169  1  0.99773841  0.66710197  0.13471785  1
  Ni  Ni170  1  0.12917739  0.87110616  0.91654976  1
  Ni  Ni171  1  0.29995407  0.95177458  0.10586370  1
  Ni  Ni172  1  0.02609060  0.43849193  -0.03044389  1
  Ni  Ni173  1  0.45637742  0.85446937  0.54747840  1
  Ni  Ni174  1  0.74778069  0.32483574  0.57517221  1
  Ni  Ni175  1  0.07878895  0.44860770  0.74204712  1
  Ni  Ni176  1  0.82823633  0.94802757  0.72298503  1
  Ni  Ni177  1  0.51720505  0.60320036  0.56162821  1
  Ni  Ni178  1  0.47814854  0.07375000  0.96916497  1
  Ni  Ni179  1  -0.01268893  0.28501206  0.91809410  1
  Ni  Ni180  1  0.67648426  0.64350462  0.50257460  1
  Ni  Ni181  1  0.04438903  0.84275773  0.31018085  1
  Ni  Ni182  1  0.61619570  0.07020172  0.21509626  1
  Ni  Ni183  1  0.85242216  0.86050976  0.03617270  1
  Ni  Ni184  1  0.59495883  0.74955805  0.60569640  1
  Ni  Ni185  1  0.20155459  0.40685796  0.57792971  1
  Ni  Ni186  1  0.23029576  0.64316813  0.00672261  1
  Ni  Ni187  1  0.53702448  0.73924743  0.97146342  1
  Ni  Ni188  1  0.21288325  0.23311148  0.15459672  1
  Ni  Ni189  1  0.03017138  0.68834018  0.74394719  1
  Ni  Ni190  1  0.91501421  0.32314892  0.56867295  1
  Ni  Ni191  1  0.69377414  0.17864157  0.35054084  1
  Ni  Ni192  1  0.24025065  0.92850641  0.41023920  1
  Ni  Ni193  1  0.94053201  0.10090264  0.89886831  1
  Ni  Ni194  1  0.98290276  0.17759667  0.65042213  1
  Ni  Ni195  1  0.21360555  0.23915505  0.62011689  1
  Ni  Ni196  1  0.06326526  0.60833738  0.98974815  1
  Ni  Ni197  1  0.83603674  0.76688078  0.43524546  1
  Ni  Ni198  1  0.44400082  0.74258349  0.83565472  1
  Ni  Ni199  1  0.54071051  0.16954053  0.09958177  1
  Ni  Ni200  1  0.97004591  0.26453720  0.41617858  1
  Ni  Ni201  1  0.30083877  0.72337370  0.89048732  1
  Ni  Ni202  1  0.79974129  0.48749341  0.07849014  1
  Ni  Ni203  1  0.19133760  0.14851593  0.90492124  1
  Ni  Ni204  1  0.07834166  -0.00837145  0.38144663  1
  Ni  Ni205  1  0.12889853  0.10050125  0.67018370  1
  Ni  Ni206  1  0.92844746  0.93579000  0.40888456  1
  Ni  Ni207  1  0.47232131  0.44224875  0.52402793  1
  Ni  Ni208  1  0.44141451  0.11013677  0.81205512  1
  Ni  Ni209  1  0.38969863  0.85266731  0.95148478  1
  Ni  Ni210  1  0.09914226  0.07829364  0.13766763  1
  Ni  Ni211  1  0.14353812  0.71690551  0.47157910  1
  Ni  Ni212  1  0.27735155  0.80794044  0.18966707  1
  Ni  Ni213  1  0.48897895  0.30605061  0.60243338  1
  Ni  Ni214  1  0.89224986  0.70125768  0.28804289  1
  Ni  Ni215  1  0.55687055  0.64783546  0.72458372  1
