# generated using pymatgen
data_Ti2CoNi
_symmetry_space_group_name_H-M   'P 1'
_cell_length_a   14.61075832
_cell_length_b   14.67584601
_cell_length_c   14.68951675
_cell_angle_alpha   89.66872222
_cell_angle_beta   90.05299890
_cell_angle_gamma   90.30272904
_symmetry_Int_Tables_number   1
_chemical_formula_structural   Ti2CoNi
_chemical_formula_sum   'Ti108 Co54 Ni54'
_cell_volume   3149.70526661
_cell_formula_units_Z   54
loop_
 _symmetry_equiv_pos_site_id
 _symmetry_equiv_pos_as_xyz
  1  'x, y, z'
loop_
 _atom_site_type_symbol
 _atom_site_label
 _atom_site_symmetry_multiplicity
 _atom_site_fract_x
 _atom_site_fract_y
 _atom_site_fract_z
 _atom_site_occupancy
  Ti  Ti0  1  0.00507169  -0.08783040  -0.05147151  1
  Ti  Ti1  1  0.04462784  0.01466478  0.38528946  1
  Ti  Ti2  1  0.04347759  0.05137821  0.67017643  1
  Ti  Ti3  1  -0.00183247  0.39295625  0.06615730  1
  Ti  Ti4  1  -0.01780096  0.38894689  0.33812170  1
  Ti  Ti5  1  -0.02451873  0.33193661  0.60701965  1
  Ti  Ti6  1  -0.02937737  0.71621768  0.01067289  1
  Ti  Ti7  1  0.01513325  0.59230319  0.27948901  1
  Ti  Ti8  1  0.06780696  0.66355123  0.68641117  1
  Ti  Ti9  1  0.23937891  -0.04802487  -0.05493860  1
  Ti  Ti10  1  0.27826880  -0.00721927  0.33247580  1
  Ti  Ti11  1  0.35522421  0.01090871  0.62867858  1
  Ti  Ti12  1  0.31757604  0.24280436  -0.06487868  1
  Ti  Ti13  1  0.30514588  0.31874611  0.22304547  1
  Ti  Ti14  1  0.35019106  0.38302649  0.67438255  1
  Ti  Ti15  1  0.35302906  0.70199035  0.05511446  1
  Ti  Ti16  1  0.42216318  0.69215083  0.36410166  1
  Ti  Ti17  1  0.33479455  0.66824999  0.71377486  1
  Ti  Ti18  1  0.60836173  -0.07443347  0.01462050  1
  Ti  Ti19  1  0.69029630  0.07491908  0.34606840  1
  Ti  Ti20  1  0.63403982  -0.01671905  0.66728991  1
  Ti  Ti21  1  0.75067699  0.34896176  0.01377527  1
  Ti  Ti22  1  0.69812164  0.30420431  0.35684059  1
  Ti  Ti23  1  0.66889994  0.34367368  0.65083125  1
  Ti  Ti24  1  0.65336690  0.71339493  0.00844846  1
  Ti  Ti25  1  0.64107977  0.58881760  0.32941467  1
  Ti  Ti26  1  0.71055469  0.66710798  0.64282678  1
  Ti  Ti27  1  -0.04971812  0.10144317  0.13736409  1
  Ti  Ti28  1  -0.03486435  0.15652269  0.49985147  1
  Ti  Ti29  1  -0.01759114  0.19296229  0.78960527  1
  Ti  Ti30  1  0.12125582  0.46131579  0.20613473  1
  Ti  Ti31  1  -0.12191066  0.48569407  0.55432250  1
  Ti  Ti32  1  -0.03066711  0.50222084  0.74421921  1
  Ti  Ti33  1  -0.06199066  0.89836340  0.13313443  1
  Ti  Ti34  1  0.03052760  0.83381891  0.45156164  1
  Ti  Ti35  1  0.02557937  0.76754865  0.82795438  1
  Ti  Ti36  1  0.36512382  0.15535818  0.10609986  1
  Ti  Ti37  1  0.31381469  0.25495574  0.40890197  1
  Ti  Ti38  1  0.31937266  0.08430632  0.81538685  1
  Ti  Ti39  1  0.39179367  0.50304366  0.12495324  1
  Ti  Ti40  1  0.36691881  0.52307365  0.50180550  1
  Ti  Ti41  1  0.28463328  0.43458147  0.94731712  1
  Ti  Ti42  1  0.33206408  0.82700661  0.22225533  1
  Ti  Ti43  1  0.36545456  0.79789397  0.55738033  1
  Ti  Ti44  1  0.30179060  0.86442448  0.76760039  1
  Ti  Ti45  1  0.69521340  0.18038179  0.08175414  1
  Ti  Ti46  1  0.60634680  0.20535857  0.51705966  1
  Ti  Ti47  1  0.63863629  0.09243091  0.81806332  1
  Ti  Ti48  1  0.60576494  0.48422551  0.13954029  1
  Ti  Ti49  1  0.64776951  0.49061714  0.53139126  1
  Ti  Ti50  1  0.69316169  0.52339358  0.92425918  1
  Ti  Ti51  1  0.69869819  0.81073304  0.19395139  1
  Ti  Ti52  1  0.69027842  0.83715368  0.42012905  1
  Ti  Ti53  1  0.59736507  0.81152608  0.82591036  1
  Ti  Ti54  1  0.22609333  -0.00150073  0.13139101  1
  Ti  Ti55  1  0.20119778  -0.04681370  0.50865788  1
  Ti  Ti56  1  0.11313727  0.05465786  0.85930422  1
  Ti  Ti57  1  0.09382132  0.25996160  0.19677366  1
  Ti  Ti58  1  0.12387950  0.29163900  0.48437328  1
  Ti  Ti59  1  0.16671872  0.35274738  0.80856246  1
  Ti  Ti60  1  0.16347879  0.69859520  0.16263345  1
  Ti  Ti61  1  0.11746486  0.64702120  0.47036924  1
  Ti  Ti62  1  0.16263283  0.58144605  0.83094151  1
  Ti  Ti63  1  0.54204646  0.08391121  0.13297178  1
  Ti  Ti64  1  0.59044521  -0.01790569  0.47293447  1
  Ti  Ti65  1  0.46586959  -0.04442949  0.87134990  1
  Ti  Ti66  1  0.51762076  0.28308226  0.19211591  1
  Ti  Ti67  1  0.49580211  0.36121756  0.45415556  1
  Ti  Ti68  1  0.48148327  0.33343357  0.81626249  1
  Ti  Ti69  1  0.50587244  0.76297328  0.15375442  1
  Ti  Ti70  1  0.50659890  0.64798338  0.57362816  1
  Ti  Ti71  1  0.50191546  0.63059574  0.86978311  1
  Ti  Ti72  1  0.76053945  0.00899435  0.16256311  1
  Ti  Ti73  1  0.81410613  0.02374278  0.54316383  1
  Ti  Ti74  1  0.86561740  0.01804178  0.84305659  1
  Ti  Ti75  1  0.83659393  0.31877217  0.20931680  1
  Ti  Ti76  1  0.80534516  0.28579574  0.54430594  1
  Ti  Ti77  1  0.87341787  0.38161894  0.86817093  1
  Ti  Ti78  1  0.82525319  0.62594248  0.16693954  1
  Ti  Ti79  1  0.82996393  0.74424143  0.49663931  1
  Ti  Ti80  1  0.84871561  0.66182975  0.81010993  1
  Ti  Ti81  1  0.09909661  0.19610124  0.01766675  1
  Ti  Ti82  1  0.16945442  0.14683870  0.36016011  1
  Ti  Ti83  1  0.24456823  0.19370157  0.61706181  1
  Ti  Ti84  1  0.11867540  0.54139346  0.01352960  1
  Ti  Ti85  1  0.18562667  0.47457475  0.41266759  1
  Ti  Ti86  1  0.21225518  0.53881667  0.61564887  1
  Ti  Ti87  1  0.17684349  0.75936593  -0.05583818  1
  Ti  Ti88  1  0.12266675  0.87687183  0.25353715  1
  Ti  Ti89  1  0.10728066  0.85824371  0.65412959  1
  Ti  Ti90  1  0.52121339  0.24021425  -0.00674275  1
  Ti  Ti91  1  0.44208792  0.10755722  0.42200736  1
  Ti  Ti92  1  0.45958672  0.19576880  0.68976166  1
  Ti  Ti93  1  0.49253132  0.44963967  -0.02440516  1
  Ti  Ti94  1  0.43876393  0.49937172  0.30468954  1
  Ti  Ti95  1  0.57109894  0.49556704  0.73972683  1
  Ti  Ti96  1  0.40690886  0.93457709  0.06015512  1
  Ti  Ti97  1  0.46949514  0.89778158  0.33478094  1
  Ti  Ti98  1  0.59868327  0.80870566  0.60898620  1
  Ti  Ti99  1  0.84154460  0.18467540  -0.04718125  1
  Ti  Ti100  1  0.87444721  0.12476858  0.32110191  1
  Ti  Ti101  1  0.78708367  0.22281418  0.76220135  1
  Ti  Ti102  1  0.88862398  0.53198187  -0.00557600  1
  Ti  Ti103  1  0.84157350  0.56279094  0.35179720  1
  Ti  Ti104  1  0.76348886  0.50808193  0.72226844  1
  Ti  Ti105  1  0.78933660  0.87675231  -0.01634322  1
  Ti  Ti106  1  0.89678095  0.78696172  0.30341314  1
  Ti  Ti107  1  0.89391424  0.81640098  0.67358622  1
  Co  Co108  1  0.71227984  0.15893520  0.63170666  1
  Co  Co109  1  0.23188925  0.41142029  0.10262370  1
  Co  Co110  1  0.13705191  0.89618514  0.82154183  1
  Co  Co111  1  0.60682475  0.24672400  0.76202653  1
  Co  Co112  1  0.23627246  0.25697613  0.07955000  1
  Co  Co113  1  0.18811756  0.74559695  0.76816040  1
  Co  Co114  1  0.23316669  0.10669443  0.98501230  1
  Co  Co115  1  1.00059695  0.58169466  0.11398263  1
  Co  Co116  1  0.75044583  0.71460660  0.32664834  1
  Co  Co117  1  0.23801595  0.74275925  0.31895952  1
  Co  Co118  1  0.95135070  0.66624864  0.41757374  1
  Co  Co119  1  0.32482769  0.83578480  0.40482861  1
  Co  Co120  1  0.04026782  0.53460143  0.60160423  1
  Co  Co121  1  0.38197011  -0.03560910  0.47155220  1
  Co  Co122  1  0.71351053  0.37599292  0.80816944  1
  Co  Co123  1  0.72719740  0.18269664  0.23696935  1
  Co  Co124  1  0.18510693  0.59847667  0.30482310  1
  Co  Co125  1  0.61403287  0.37053757  0.92203708  1
  Co  Co126  1  0.51337486  0.35222822  0.62187343  1
  Co  Co127  1  0.30044009  0.68183416  0.87198721  1
  Co  Co128  1  0.47248207  0.87279735  0.72218285  1
  Co  Co129  1  0.42545167  0.48799844  0.82606841  1
  Co  Co130  1  0.33107764  0.40677184  0.38370001  1
  Co  Co131  1  0.27977982  0.50467382  0.76842811  1
  Co  Co132  1  0.78266432  0.04023684  0.71105781  1
  Co  Co133  1  0.58039481  0.75310405  0.31087825  1
  Co  Co134  1  0.12580966  0.10085086  0.52277926  1
  Co  Co135  1  0.39771922  0.07383207  -0.02633510  1
  Co  Co136  1  0.28634694  0.10132907  0.48567303  1
  Co  Co137  1  0.34683194  0.64712855  0.22241437  1
  Co  Co138  1  0.16459330  0.33038683  0.32681160  1
  Co  Co139  1  -0.00452945  0.28722050  0.92382225  1
  Co  Co140  1  0.87548529  1.01163961  0.02505261  1
  Co  Co141  1  0.14204300  0.35452650  0.98093166  1
  Co  Co142  1  0.77060761  0.59186679  0.49578378  1
  Co  Co143  1  0.43247313  0.76636455  0.82535170  1
  Co  Co144  1  0.67408780  0.33341759  0.17118769  1
  Co  Co145  1  0.07499899  0.21342475  0.63686809  1
  Co  Co146  1  0.76926179  0.15479422  0.46393426  1
  Co  Co147  1  0.89424557  0.15462288  0.64601470  1
  Co  Co148  1  0.28358677  0.66036294  0.46999140  1
  Co  Co149  1  0.63300941  0.68032691  0.47250937  1
  Co  Co150  1  0.24636989  0.57230812  0.10515220  1
  Co  Co151  1  1.03817863  0.44730834  0.89809765  1
  Co  Co152  1  0.79068555  0.91391592  0.29225075  1
  Co  Co153  1  0.84805659  0.37077147  0.70210960  1
  Co  Co154  1  0.46859245  0.15899988  0.85196117  1
  Co  Co155  1  0.56463340  0.08415684  0.96982718  1
  Co  Co156  1  0.67963599  0.21902559  0.91489555  1
  Co  Co157  1  1.01485831  0.34779530  0.76464823  1
  Co  Co158  1  0.27779683  0.48275893  0.24934255  1
  Co  Co159  1  0.51212800  0.80494266  0.46395334  1
  Co  Co160  1  0.48717838  0.92292573  0.57913631  1
  Co  Co161  1  0.48348187  0.03372258  0.73261036  1
  Ni  Ni162  1  0.51812246  0.61470402  0.21080720  1
  Ni  Ni163  1  0.99050360  0.72730884  0.56446409  1
  Ni  Ni164  1  -0.00227745  0.97106302  0.54016455  1
  Ni  Ni165  1  0.78100600  0.42817616  0.42988306  1
  Ni  Ni166  1  0.31923922  0.25107471  0.77255700  1
  Ni  Ni167  1  0.36808718  0.57012279  0.96283810  1
  Ni  Ni168  1  0.87046934  0.27820129  0.39005454  1
  Ni  Ni169  1  0.82925658  0.77391042  0.10391656  1
  Ni  Ni170  1  0.99331926  0.73890987  0.17382304  1
  Ni  Ni171  1  0.41857922  0.53337596  0.66724312  1
  Ni  Ni172  1  0.98166253  0.92485122  0.77214731  1
  Ni  Ni173  1  0.71169095  0.93804694  0.83775609  1
  Ni  Ni174  1  0.07678513  0.73531540  0.32399560  1
  Ni  Ni175  1  0.08909147  1.04656768  0.22170796  1
  Ni  Ni176  1  0.39822233  0.17092977  0.27156578  1
  Ni  Ni177  1  0.20819946  0.73129761  0.60148426  1
  Ni  Ni178  1  0.73596929  0.45808372  0.26544911  1
  Ni  Ni179  1  0.03311284  0.43947635  0.48155646  1
  Ni  Ni180  1  0.01900372  0.22165572  0.34385118  1
  Ni  Ni181  1  0.16648504  0.17903037  0.76917202  1
  Ni  Ni182  1  0.00090827  0.60814072  0.87872858  1
  Ni  Ni183  1  0.09150099  0.84866653  0.08002023  1
  Ni  Ni184  1  0.91919021  0.25283097  0.08027945  1
  Ni  Ni185  1  0.50769320  0.08472736  0.57625901  1
  Ni  Ni186  1  0.90493158  0.47694737  0.20483183  1
  Ni  Ni187  1  0.80610512  0.67847966  0.96834413  1
  Ni  Ni188  1  0.98142157  0.10585043  0.94469801  1
  Ni  Ni189  1  0.93599643  -0.02300560  0.27017868  1
  Ni  Ni190  1  0.52364443  0.54474990  0.44160510  1
  Ni  Ni191  1  0.08308873  0.02049995  0.04791426  1
  Ni  Ni192  1  0.52028929  0.61215206  0.04015166  1
  Ni  Ni193  1  0.53402609  0.92251011  0.17007264  1
  Ni  Ni194  1  0.57658015  0.40469363  0.29930117  1
  Ni  Ni195  1  0.63231568  0.92762442  0.29221435  1
  Ni  Ni196  1  0.53182851  0.05706747  0.29387749  1
  Ni  Ni197  1  0.76833018  0.47893477  0.10608599  1
  Ni  Ni198  1  0.25113801  0.83651384  0.08119256  1
  Ni  Ni199  1  0.73891460  0.79955679  0.74463163  1
  Ni  Ni200  1  0.72564515  0.04798366  -0.03118654  1
  Ni  Ni201  1  0.22971381  0.14486071  0.20794565  1
  Ni  Ni202  1  0.20418598  1.00759158  0.70468080  1
  Ni  Ni203  1  0.86666221  0.82896670  0.84816913  1
  Ni  Ni204  1  0.39010149  1.01150178  0.21069845  1
  Ni  Ni205  1  0.75452092  0.87291299  0.59147884  1
  Ni  Ni206  1  0.13349068  0.39106564  0.64136134  1
  Ni  Ni207  1  0.87984842  0.62914889  0.64207615  1
  Ni  Ni208  1  0.55040951  0.22017634  0.34268752  1
  Ni  Ni209  1  0.66744129  0.64657657  0.80962704  1
  Ni  Ni210  1  0.39168346  0.33569132  0.06884423  1
  Ni  Ni211  1  0.34399886  0.82943648  0.94078012  1
  Ni  Ni212  1  0.41552826  0.23282773  0.53948366  1
  Ni  Ni213  1  0.88663745  0.92181216  0.42530992  1
  Ni  Ni214  1  0.26655890  0.37391014  0.53627742  1
  Ni  Ni215  1  0.50454478  0.79085017  0.97755687  1
