# generated using pymatgen
data_Ti2CoNi
_symmetry_space_group_name_H-M   'P 1'
_cell_length_a   14.65786849
_cell_length_b   14.61949936
_cell_length_c   14.64775137
_cell_angle_alpha   90.00828700
_cell_angle_beta   89.84002051
_cell_angle_gamma   89.84108916
_symmetry_Int_Tables_number   1
_chemical_formula_structural   Ti2CoNi
_chemical_formula_sum   'Ti108 Co54 Ni54'
_cell_volume   3138.85253724
_cell_formula_units_Z   54
loop_
 _symmetry_equiv_pos_site_id
 _symmetry_equiv_pos_as_xyz
  1  'x, y, z'
loop_
 _atom_site_type_symbol
 _atom_site_label
 _atom_site_symmetry_multiplicity
 _atom_site_fract_x
 _atom_site_fract_y
 _atom_site_fract_z
 _atom_site_occupancy
  Ti  Ti0  1  0.00629823  -0.05352833  -0.07788636  1
  Ti  Ti1  1  0.02812961  -0.01512466  0.32825141  1
  Ti  Ti2  1  -0.02451194  0.06141756  0.62378579  1
  Ti  Ti3  1  -0.03957699  0.28502483  -0.01665269  1
  Ti  Ti4  1  0.00057296  0.33488840  0.28378916  1
  Ti  Ti5  1  0.01224996  0.37091876  0.65506051  1
  Ti  Ti6  1  -0.04288735  0.74281079  0.03394997  1
  Ti  Ti7  1  0.03252586  0.64897470  0.32319073  1
  Ti  Ti8  1  0.01248104  0.73873992  0.64029371  1
  Ti  Ti9  1  0.31478796  -0.05339979  -0.01736328  1
  Ti  Ti10  1  0.33808891  -0.08612842  0.28290720  1
  Ti  Ti11  1  0.31981243  -0.03693823  0.71777856  1
  Ti  Ti12  1  0.42772425  0.32563213  -0.02491448  1
  Ti  Ti13  1  0.30033964  0.32617497  0.44991942  1
  Ti  Ti14  1  0.30023404  0.32581265  0.68245297  1
  Ti  Ti15  1  0.33631335  0.71809486  0.01878558  1
  Ti  Ti16  1  0.40083877  0.64977512  0.34829724  1
  Ti  Ti17  1  0.40916369  0.64159893  0.64678427  1
  Ti  Ti18  1  0.59593634  0.00246562  0.03103449  1
  Ti  Ti19  1  0.71347908  -0.00733359  0.34363748  1
  Ti  Ti20  1  0.66138142  0.00318636  0.65551029  1
  Ti  Ti21  1  0.62840541  0.35989720  0.01012533  1
  Ti  Ti22  1  0.69919391  0.31031711  0.37101789  1
  Ti  Ti23  1  0.61232283  0.34611707  0.64880184  1
  Ti  Ti24  1  0.67299611  0.58357931  0.04953527  1
  Ti  Ti25  1  0.67451476  0.63388891  0.28995224  1
  Ti  Ti26  1  0.71626118  0.67255820  0.68343313  1
  Ti  Ti27  1  0.03410785  0.09030643  0.14764644  1
  Ti  Ti28  1  0.00523579  0.17553620  0.43736314  1
  Ti  Ti29  1  -0.06104134  0.13903765  0.84018283  1
  Ti  Ti30  1  -0.07221458  0.43799247  0.14385826  1
  Ti  Ti31  1  0.09540846  0.55588284  0.51073602  1
  Ti  Ti32  1  0.02521864  0.46237656  0.84254762  1
  Ti  Ti33  1  0.04024218  0.89697928  0.11443995  1
  Ti  Ti34  1  -0.08557459  0.78075287  0.47084003  1
  Ti  Ti35  1  0.06090751  0.77460203  0.85119969  1
  Ti  Ti36  1  0.35005360  0.21802944  0.14246216  1
  Ti  Ti37  1  0.33822292  0.10593154  0.44092090  1
  Ti  Ti38  1  0.33897928  0.18337170  0.89313971  1
  Ti  Ti39  1  0.37802495  0.55732173  0.16396684  1
  Ti  Ti40  1  0.29610718  0.52776682  0.47853089  1
  Ti  Ti41  1  0.30185352  0.50967773  0.81994961  1
  Ti  Ti42  1  0.22260339  0.84056404  0.12846727  1
  Ti  Ti43  1  0.28060176  0.90074254  0.50901875  1
  Ti  Ti44  1  0.27809372  0.80131369  0.84459217  1
  Ti  Ti45  1  0.69869551  0.14229456  0.20288736  1
  Ti  Ti46  1  0.67111771  0.18005411  0.54767857  1
  Ti  Ti47  1  0.67818345  0.25732154  0.83314422  1
  Ti  Ti48  1  0.65924184  0.45034656  0.23309159  1
  Ti  Ti49  1  0.61721656  0.54350436  0.57452988  1
  Ti  Ti50  1  0.64266448  0.51238099  0.83287726  1
  Ti  Ti51  1  0.64626148  0.82921870  0.20832244  1
  Ti  Ti52  1  0.64730596  0.83799469  0.53048671  1
  Ti  Ti53  1  0.67672691  0.79656689  0.84447230  1
  Ti  Ti54  1  0.22746143  0.04192452  0.16955087  1
  Ti  Ti55  1  0.13440484  0.05300134  0.49031361  1
  Ti  Ti56  1  0.17421378  0.06801998  0.87784133  1
  Ti  Ti57  1  0.18390895  0.39753121  0.13143299  1
  Ti  Ti58  1  0.06586820  0.35388758  0.47059073  1
  Ti  Ti59  1  0.20775292  0.33019461  0.86924628  1
  Ti  Ti60  1  0.19326298  0.62748574  0.21586069  1
  Ti  Ti61  1  0.20559027  0.71500066  0.58258329  1
  Ti  Ti62  1  0.12892161  0.61580768  0.77695624  1
  Ti  Ti63  1  0.42659100  0.01510410  0.13371211  1
  Ti  Ti64  1  0.46427038  -0.06666665  0.52626221  1
  Ti  Ti65  1  0.57552596  0.05012131  0.83712160  1
  Ti  Ti66  1  0.47066749  0.37370621  0.16930062  1
  Ti  Ti67  1  0.49489015  0.26318793  0.48102912  1
  Ti  Ti68  1  0.47623198  0.24774811  0.74828914  1
  Ti  Ti69  1  0.51270041  0.69728920  0.09767037  1
  Ti  Ti70  1  0.51020262  0.71142173  0.49664749  1
  Ti  Ti71  1  0.43855166  0.64003125  0.85847075  1
  Ti  Ti72  1  0.86742986  0.05536395  0.24102888  1
  Ti  Ti73  1  0.90711302  0.00147372  0.45676035  1
  Ti  Ti74  1  0.82120983  -0.05888918  0.79876138  1
  Ti  Ti75  1  0.77967512  0.31984447  0.13419464  1
  Ti  Ti76  1  0.80342057  0.36446045  0.54967264  1
  Ti  Ti77  1  0.86416193  0.34557681  0.81024272  1
  Ti  Ti78  1  0.79521510  0.71120909  0.15767853  1
  Ti  Ti79  1  0.74475731  0.66708237  0.47125169  1
  Ti  Ti80  1  0.82071210  0.65676287  0.86404943  1
  Ti  Ti81  1  0.13386975  0.19365174  0.01975316  1
  Ti  Ti82  1  0.17715272  0.23809457  0.34564173  1
  Ti  Ti83  1  0.15733554  0.15617129  0.69240603  1
  Ti  Ti84  1  0.06355855  0.53388111  0.04680239  1
  Ti  Ti85  1  0.17903592  0.45980663  0.33829873  1
  Ti  Ti86  1  0.24443778  0.52577448  0.64730965  1
  Ti  Ti87  1  0.13727762  0.70930755  0.02058206  1
  Ti  Ti88  1  0.19357824  0.80384709  0.36037986  1
  Ti  Ti89  1  0.13829480  0.93455469  0.65093127  1
  Ti  Ti90  1  0.53953146  0.18168328  0.07545199  1
  Ti  Ti91  1  0.51660598  0.17879511  0.28378567  1
  Ti  Ti92  1  0.47547640  0.09857166  0.62432602  1
  Ti  Ti93  1  0.50155407  0.50222073  -0.02201460  1
  Ti  Ti94  1  0.44003314  0.45631947  0.36679643  1
  Ti  Ti95  1  0.46485809  0.45950071  0.69245737  1
  Ti  Ti96  1  0.51302015  0.82867866  -0.05248439  1
  Ti  Ti97  1  0.53677943  0.91414515  0.35378795  1
  Ti  Ti98  1  0.51712070  0.90212404  0.71329601  1
  Ti  Ti99  1  0.84455379  0.15087627  0.05641650  1
  Ti  Ti100  1  0.81647109  0.16495440  0.40466722  1
  Ti  Ti101  1  0.80798039  0.11443538  0.69001351  1
  Ti  Ti102  1  0.86633126  0.58088123  0.02870472  1
  Ti  Ti103  1  0.85666956  0.55144817  0.33075387  1
  Ti  Ti104  1  0.87813670  0.52489454  0.69402064  1
  Ti  Ti105  1  0.80013630  0.86813744  0.01544320  1
  Ti  Ti106  1  0.85174132  0.85312305  0.31584964  1
  Ti  Ti107  1  0.84511073  0.89108131  0.61562004  1
  Co  Co108  1  0.23789283  0.64564905  0.90534427  1
  Co  Co109  1  0.26005059  0.28833958  0.02702334  1
  Co  Co110  1  0.86008897  0.68372068  0.60403787  1
  Co  Co111  1  0.44404256  0.06981635  -0.02510560  1
  Co  Co112  1  0.21943733  0.98551461  0.36881538  1
  Co  Co113  1  0.95500974  0.64703782  0.75937032  1
  Co  Co114  1  0.62537247  1.00051566  0.49373978  1
  Co  Co115  1  0.08468349  0.74747127  0.18870595  1
  Co  Co116  1  0.93764264  0.45841543  0.53216232  1
  Co  Co117  1  0.04754259  0.53414720  0.66142659  1
  Co  Co118  1  -0.00236039  0.09463837  -0.01585948  1
  Co  Co119  1  0.78216614  0.53898778  0.56408436  1
  Co  Co120  1  0.14341920  0.91575544  0.24631809  1
  Co  Co121  1  0.33842517  0.42304424  0.07544845  1
  Co  Co122  1  0.76942126  0.44529510  0.03333716  1
  Co  Co123  1  0.28761490  0.67293496  0.74401903  1
  Co  Co124  1  0.73224167  0.08485165  0.82596613  1
  Co  Co125  1  0.13480797  0.09702904  0.29372615  1
  Co  Co126  1  0.16378844  0.78737929  0.71754721  1
  Co  Co127  1  0.40018730  0.81840738  0.39776530  1
  Co  Co128  1  0.98927862  0.16620817  0.28631938  1
  Co  Co129  1  0.92918531  0.44188529  0.96869983  1
  Co  Co130  1  0.57517387  0.57170203  0.40631742  1
  Co  Co131  1  0.56000779  0.73943320  0.35417720  1
  Co  Co132  1  0.87037134  0.20260273  0.55051985  1
  Co  Co133  1  0.36688239  0.22050514  0.57498378  1
  Co  Co134  1  0.77798277  0.90013213  0.46581714  1
  Co  Co135  1  0.62387520  0.16701605  0.70431639  1
  Co  Co136  1  0.55695452  0.37327551  0.84434748  1
  Co  Co137  1  0.14585599  1.01515329  0.03127288  1
  Co  Co138  1  0.54856396  0.51564773  0.13289917  1
  Co  Co139  1  0.77958802  0.05193684  0.53787650  1
  Co  Co140  1  0.19605485  0.20860232  0.51696042  1
  Co  Co141  1  0.47099894  0.79443327  0.23970616  1
  Co  Co142  1  0.69256255  0.84566106  0.69481343  1
  Co  Co143  1  0.88911520  0.33035742  0.41347502  1
  Co  Co144  1  0.50237525  0.09482969  0.45565324  1
  Co  Co145  1  0.74054899  0.03015329  0.08977877  1
  Co  Co146  1  0.40111571  0.39357080  0.55639421  1
  Co  Co147  1  0.79329309  0.53795569  0.17804357  1
  Co  Co148  1  0.28976525  0.10928042  1.02858529  1
  Co  Co149  1  0.38145164  0.84342441  0.11365875  1
  Co  Co150  1  0.81866453  0.40219895  0.28308733  1
  Co  Co151  1  0.96219585  0.24849148  0.14105275  1
  Co  Co152  1  0.52135594  0.62310065  0.24512861  1
  Co  Co153  1  0.92930350  0.79285987  0.18657929  1
  Co  Co154  1  0.15973607  0.86422359  0.97262381  1
  Co  Co155  1  0.45073047  0.54848302  0.51315716  1
  Co  Co156  1  0.69039388  0.94559069  0.91550677  1
  Co  Co157  1  0.95414307  0.62158525  0.17401117  1
  Co  Co158  1  0.35536154  0.55280854  0.97530404  1
  Co  Co159  1  0.23507349  0.57882572  0.07412736  1
  Co  Co160  1  0.53333975  0.87519440  0.10866050  1
  Co  Co161  1  0.09427220  0.36885564  -0.01591210  1
  Ni  Ni162  1  0.04886731  0.03457708  0.76928881  1
  Ni  Ni163  1  0.84466442  0.23682210  0.26114467  1
  Ni  Ni164  1  0.30300599  0.13331014  0.28230428  1
  Ni  Ni165  1  0.19072372  0.39083126  0.56627906  1
  Ni  Ni166  1  0.33700878  0.70352484  0.49464844  1
  Ni  Ni167  1  0.00401614  0.48599430  0.38104343  1
  Ni  Ni168  1  0.68521242  0.15433935  0.97902631  1
  Ni  Ni169  1  0.04774658  0.21859726  0.58722683  1
  Ni  Ni170  1  0.55335075  0.75143697  0.65235006  1
  Ni  Ni171  1  0.53219463  0.20346071  0.90902906  1
  Ni  Ni172  1  0.93327618  0.23137962  0.70222954  1
  Ni  Ni173  1  1.02168313  0.81698356  0.32873934  1
  Ni  Ni174  1  0.79329292  0.90866574  0.17899155  1
  Ni  Ni175  1  0.58708571  0.01327611  0.20790731  1
  Ni  Ni176  1  0.15316460  0.41523683  0.73501972  1
  Ni  Ni177  1  0.56705398  0.41560727  0.48331145  1
  Ni  Ni178  1  0.78875769  0.29325158  0.95799805  1
  Ni  Ni179  1  0.15683710  0.91804625  0.81549606  1
  Ni  Ni180  1  0.90512840  0.98730389  0.08374572  1
  Ni  Ni181  1  0.72358054  0.47632442  0.41488165  1
  Ni  Ni182  1  0.31446414  0.74214955  0.24548983  1
  Ni  Ni183  1  0.41801341  0.91977544  0.85379936  1
  Ni  Ni184  1  0.38178813  0.81351088  0.61842507  1
  Ni  Ni185  1  0.93885005  0.61452420  0.47317630  1
  Ni  Ni186  1  0.76657756  0.27258831  0.68365842  1
  Ni  Ni187  1  0.43359170  0.77366733  0.77244661  1
  Ni  Ni188  1  0.01365718  0.90262851  0.55015590  1
  Ni  Ni189  1  0.38644961  0.28085765  0.31076382  1
  Ni  Ni190  1  0.80261357  0.48786080  0.87200566  1
  Ni  Ni191  1  0.83902731  0.02952950  0.93955336  1
  Ni  Ni192  1  0.31986979  0.15747631  0.72000790  1
  Ni  Ni193  1  0.04541973  0.28831397  0.82168249  1
  Ni  Ni194  1  0.06522189  0.50093207  0.22261774  1
  Ni  Ni195  1  0.41931742  0.07016297  0.80529259  1
  Ni  Ni196  1  -0.00140865  0.62213567  0.91587047  1
  Ni  Ni197  1  0.59270260  0.66443047  0.92120648  1
  Ni  Ni198  1  0.54552233  0.34099154  0.32602935  1
  Ni  Ni199  1  0.70615559  0.79547760  0.36675465  1
  Ni  Ni200  1  0.39204850  0.37449948  0.82366964  1
  Ni  Ni201  1  0.64496939  0.14065849  0.38663358  1
  Ni  Ni202  1  0.89881311  0.81122160  0.88421060  1
  Ni  Ni203  1  0.61798540  0.28907313  0.18262880  1
  Ni  Ni204  1  0.12485140  0.23320293  0.18537230  1
  Ni  Ni205  1  0.07832467  0.73330534  0.47099151  1
  Ni  Ni206  1  0.98193052  0.88626399  0.73574360  1
  Ni  Ni207  1  0.73667277  0.43615858  0.71709299  1
  Ni  Ni208  1  0.65981309  0.77286588  0.03400651  1
  Ni  Ni209  1  0.27333812  0.06464871  0.59026140  1
  Ni  Ni210  1  0.20563126  0.63917964  0.39253361  1
  Ni  Ni211  1  0.43976818  0.04106703  0.30649611  1
  Ni  Ni212  1  0.31236383  0.41434920  0.24700428  1
  Ni  Ni213  1  0.84245700  0.77513646  0.73872564  1
  Ni  Ni214  1  0.20111629  0.48307581  0.95050277  1
  Ni  Ni215  1  0.55570332  0.61244745  0.73436756  1
