# generated using pymatgen
data_Ti2CoNi
_symmetry_space_group_name_H-M   'P 1'
_cell_length_a   14.64884630
_cell_length_b   14.66445583
_cell_length_c   14.64903890
_cell_angle_alpha   90.30587013
_cell_angle_beta   89.97057121
_cell_angle_gamma   89.91016654
_symmetry_Int_Tables_number   1
_chemical_formula_structural   Ti2CoNi
_chemical_formula_sum   'Ti108 Co54 Ni54'
_cell_volume   3146.81871632
_cell_formula_units_Z   54
loop_
 _symmetry_equiv_pos_site_id
 _symmetry_equiv_pos_as_xyz
  1  'x, y, z'
loop_
 _atom_site_type_symbol
 _atom_site_label
 _atom_site_symmetry_multiplicity
 _atom_site_fract_x
 _atom_site_fract_y
 _atom_site_fract_z
 _atom_site_occupancy
  Ti  Ti0  1  -0.05204310  0.02124562  0.06743629  1
  Ti  Ti1  1  -0.00560882  -0.09593993  0.30874547  1
  Ti  Ti2  1  -0.00196565  0.01954340  0.73297319  1
  Ti  Ti3  1  -0.06294867  0.28920430  0.04505774  1
  Ti  Ti4  1  -0.02334809  0.38609453  0.34561244  1
  Ti  Ti5  1  -0.02894634  0.29452129  0.72230903  1
  Ti  Ti6  1  -0.03944820  0.59277280  -0.04094139  1
  Ti  Ti7  1  0.03884933  0.69338544  0.37861841  1
  Ti  Ti8  1  0.03858841  0.68909354  0.70104712  1
  Ti  Ti9  1  0.38865673  -0.00082461  -0.06151904  1
  Ti  Ti10  1  0.30935982  -0.02423370  0.27147130  1
  Ti  Ti11  1  0.33270795  -0.01545240  0.61973828  1
  Ti  Ti12  1  0.28999190  0.32203576  0.07550425  1
  Ti  Ti13  1  0.40755315  0.32804685  0.28335662  1
  Ti  Ti14  1  0.42221553  0.34157995  0.62333349  1
  Ti  Ti15  1  0.36077481  0.65989344  0.04146799  1
  Ti  Ti16  1  0.33123662  0.65069649  0.27625647  1
  Ti  Ti17  1  0.43233426  0.67778627  0.59265083  1
  Ti  Ti18  1  0.67386910  -0.01482999  -0.06882455  1
  Ti  Ti19  1  0.60080913  0.00812714  0.27083650  1
  Ti  Ti20  1  0.69627305  0.00331271  0.63286830  1
  Ti  Ti21  1  0.65486214  0.39605351  0.04148601  1
  Ti  Ti22  1  0.69433324  0.35674346  0.39427546  1
  Ti  Ti23  1  0.72690599  0.36272438  0.60234060  1
  Ti  Ti24  1  0.61278974  0.63467645  -0.00075431  1
  Ti  Ti25  1  0.67983048  0.67617605  0.36037197  1
  Ti  Ti26  1  0.63338399  0.66525299  0.65155238  1
  Ti  Ti27  1  0.02363535  0.09655323  0.24417909  1
  Ti  Ti28  1  -0.04048397  0.12022257  0.45622015  1
  Ti  Ti29  1  -0.01371571  0.15294135  0.89623500  1
  Ti  Ti30  1  0.04882202  0.55677269  0.14728401  1
  Ti  Ti31  1  -0.01965079  0.53810440  0.49209905  1
  Ti  Ti32  1  0.03865626  0.50604284  0.78842612  1
  Ti  Ti33  1  -0.00108506  0.82449402  0.10050201  1
  Ti  Ti34  1  -0.01957010  0.87276121  0.59436565  1
  Ti  Ti35  1  0.04195217  0.77554548  0.89115834  1
  Ti  Ti36  1  0.31125908  0.17516930  0.23722479  1
  Ti  Ti37  1  0.26609908  0.15490704  0.48700814  1
  Ti  Ti38  1  0.30183594  0.11387784  0.81693558  1
  Ti  Ti39  1  0.29536570  0.49533165  0.18667171  1
  Ti  Ti40  1  0.29581958  0.41512902  0.49437666  1
  Ti  Ti41  1  0.28056827  0.55799682  0.86747616  1
  Ti  Ti42  1  0.35727615  0.81039305  0.14332301  1
  Ti  Ti43  1  0.27724335  0.87620379  0.45119575  1
  Ti  Ti44  1  0.35703992  0.80694063  0.90463642  1
  Ti  Ti45  1  0.60290125  0.23372863  0.12561094  1
  Ti  Ti46  1  0.64300507  0.13702517  0.42185998  1
  Ti  Ti47  1  0.64717494  0.21970107  0.90061689  1
  Ti  Ti48  1  0.61347188  0.56452462  0.18606725  1
  Ti  Ti49  1  0.67430434  0.53943367  0.50047426  1
  Ti  Ti50  1  0.73061308  0.47268239  0.85290442  1
  Ti  Ti51  1  0.67434335  0.79866516  0.18276703  1
  Ti  Ti52  1  0.68023993  0.83605663  0.53128509  1
  Ti  Ti53  1  0.59319407  0.77526555  0.82648763  1
  Ti  Ti54  1  0.16972813  0.05299793  0.10703914  1
  Ti  Ti55  1  0.12664269  0.03217049  0.57833794  1
  Ti  Ti56  1  0.18617470  -0.10404448  0.86874990  1
  Ti  Ti57  1  0.09424977  0.37862188  0.17097616  1
  Ti  Ti58  1  0.16527358  0.30104919  0.60213110  1
  Ti  Ti59  1  0.25393357  0.33815841  0.81184239  1
  Ti  Ti60  1  0.19345912  0.68837727  0.13821601  1
  Ti  Ti61  1  0.24467914  0.67502591  0.45347665  1
  Ti  Ti62  1  0.23153174  0.72434341  0.76384145  1
  Ti  Ti63  1  0.45650762  0.05422963  0.14648351  1
  Ti  Ti64  1  0.52466419  0.03364904  0.55460229  1
  Ti  Ti65  1  0.46271572  -0.01823573  0.74976286  1
  Ti  Ti66  1  0.47610268  0.40733155  0.12465761  1
  Ti  Ti67  1  0.55468976  0.25770705  0.52930080  1
  Ti  Ti68  1  0.45565155  0.29500719  0.81125128  1
  Ti  Ti69  1  0.50214297  0.71009745  0.26682696  1
  Ti  Ti70  1  0.49605721  0.59846248  0.42463060  1
  Ti  Ti71  1  0.43703521  0.65818852  0.77531254  1
  Ti  Ti72  1  0.76266627  0.03405129  0.15450602  1
  Ti  Ti73  1  0.82440718  -0.02540386  0.43956780  1
  Ti  Ti74  1  0.81616784  -0.03796037  0.77878901  1
  Ti  Ti75  1  0.79253388  0.30563415  0.17703488  1
  Ti  Ti76  1  0.92567931  0.32178985  0.52603587  1
  Ti  Ti77  1  0.91307368  0.38126845  0.87516734  1
  Ti  Ti78  1  0.82979242  0.71448997  0.08740795  1
  Ti  Ti79  1  0.82882115  0.67574456  0.48063748  1
  Ti  Ti80  1  0.75343454  0.66574058  0.82408542  1
  Ti  Ti81  1  0.17640228  0.18851971  -0.04754786  1
  Ti  Ti82  1  0.10974286  0.24053898  0.31920689  1
  Ti  Ti83  1  0.12982037  0.18386076  0.74776677  1
  Ti  Ti84  1  0.14384571  0.43969962  -0.05211959  1
  Ti  Ti85  1  0.17242541  0.47467504  0.34788508  1
  Ti  Ti86  1  0.15871247  0.52033755  0.60904818  1
  Ti  Ti87  1  0.19094208  0.85406663  0.05272549  1
  Ti  Ti88  1  0.18040022  0.80878070  0.28443698  1
  Ti  Ti89  1  0.16089622  0.81376981  0.59557015  1
  Ti  Ti90  1  0.46988018  0.16042384  -0.01841118  1
  Ti  Ti91  1  0.44422126  0.13208961  0.38129339  1
  Ti  Ti92  1  0.58668766  0.15665027  0.71600393  1
  Ti  Ti93  1  0.51839567  0.46728405  -0.07250218  1
  Ti  Ti94  1  0.49585597  0.42011932  0.41797519  1
  Ti  Ti95  1  0.54343275  0.48479148  0.72272915  1
  Ti  Ti96  1  0.49666222  0.88182250  0.04712396  1
  Ti  Ti97  1  0.48009982  0.90506252  0.39075716  1
  Ti  Ti98  1  0.53654464  0.84010217  0.65682848  1
  Ti  Ti99  1  0.78468629  0.16052348  0.00883985  1
  Ti  Ti100  1  0.85518877  0.21537664  0.33555058  1
  Ti  Ti101  1  0.82115576  0.17904775  0.67507388  1
  Ti  Ti102  1  0.83342061  0.46086723  0.04133803  1
  Ti  Ti103  1  0.81346835  0.49544816  0.33049739  1
  Ti  Ti104  1  0.86623143  0.46434966  0.69243035  1
  Ti  Ti105  1  0.82429577  0.89147536  -0.00171534  1
  Ti  Ti106  1  0.85623995  0.77737893  0.27522187  1
  Ti  Ti107  1  0.84329137  0.73728925  0.67186345  1
  Co  Co108  1  0.97131815  0.71614825  0.54785130  1
  Co  Co109  1  0.53199569  0.73299737  0.11113437  1
  Co  Co110  1  0.24993320  0.11810754  0.65080828  1
  Co  Co111  1  0.46924548  0.57202943  0.11450972  1
  Co  Co112  1  0.30596892  0.25590681  0.68474185  1
  Co  Co113  1  0.74712177  0.92657637  0.28489145  1
  Co  Co114  1  0.12142856  0.38237167  0.74007425  1
  Co  Co115  1  0.22074435  0.72885493  0.94851636  1
  Co  Co116  1  0.50244453  0.31474983  -0.01219843  1
  Co  Co117  1  0.54657236  0.27492532  0.36374069  1
  Co  Co118  1  0.99994230  0.70028003  0.20040585  1
  Co  Co119  1  0.71651478  0.09850482  0.80490463  1
  Co  Co120  1  0.43599989  0.59072380  0.91744624  1
  Co  Co121  1  0.42547379  0.13849132  0.71886290  1
  Co  Co122  1  -0.02414056  0.26867444  0.21895324  1
  Co  Co123  1  0.88964814  0.02820632  0.28385761  1
  Co  Co124  1  0.10238650  0.30587074  0.02762310  1
  Co  Co125  1  0.70415535  0.81648995  0.70255689  1
  Co  Co126  1  0.34585188  0.49257283  0.03558255  1
  Co  Co127  1  0.61575407  0.36068878  0.85007864  1
  Co  Co128  1  0.52541319  0.16185011  0.25107110  1
  Co  Co129  1  0.75554186  0.63891662  0.22480736  1
  Co  Co130  1  0.15817733  0.95359812  0.36379711  1
  Co  Co131  1  0.20111928  0.56872145  0.02853241  1
  Co  Co132  1  0.06257280  0.30590831  0.86884328  1
  Co  Co133  1  0.36455056  0.40332212  0.91462060  1
  Co  Co134  1  0.49520366  0.74037023  0.95133778  1
  Co  Co135  1  0.07211783  0.69009297  0.03274528  1
  Co  Co136  1  0.39365073  0.46966215  0.77096578  1
  Co  Co137  1  0.40447329  0.81525584  0.74982552  1
  Co  Co138  1  0.11275028  0.65648591  0.54014592  1
  Co  Co139  1  0.92289414  0.42124580  0.18880015  1
  Co  Co140  1  0.11809296  0.09795265  0.41770103  1
  Co  Co141  1  0.43220018  0.23503256  0.13230864  1
  Co  Co142  1  0.65723488  0.97241462  0.43081386  1
  Co  Co143  1  0.75044680  0.08577455  0.32011861  1
  Co  Co144  1  0.76601251  0.82076878  0.40341983  1
  Co  Co145  1  0.41618978  0.15512559  0.56494445  1
  Co  Co146  1  0.88387490  0.57758211  0.15303542  1
  Co  Co147  1  0.76945769  0.33561932  0.76421610  1
  Co  Co148  1  0.99987028  0.44182990  1.02803412  1
  Co  Co149  1  0.62776560  0.51174633  0.33773342  1
  Co  Co150  1  0.39617775  0.27754068  0.45245878  1
  Co  Co151  1  0.10519125  0.81938678  0.44633446  1
  Co  Co152  1  0.18355058  0.08227965  0.27234513  1
  Co  Co153  1  0.77196904  0.32334897  0.95284226  1
  Co  Co154  1  0.63188846  0.95349017  0.77105782  1
  Co  Co155  1  0.86000132  0.89753156  0.16278566  1
  Co  Co156  1  0.27885605  0.42395644  0.66645791  1
  Co  Co157  1  0.85218633  0.04727200  0.91629999  1
  Co  Co158  1  0.44370422  0.87569144  0.54131237  1
  Co  Co159  1  0.59979905  0.38222411  0.23516038  1
  Co  Co160  1  0.45736700  0.51621218  0.27425932  1
  Co  Co161  1  0.92342415  0.82656183  0.44060086  1
  Ni  Ni162  1  0.11655194  0.05124564  0.84902779  1
  Ni  Ni163  1  0.02071428  0.96485616  0.46441062  1
  Ni  Ni164  1  0.24001531  0.34227757  0.25132929  1
  Ni  Ni165  1  0.33729937  0.24633018  0.93278771  1
  Ni  Ni166  1  0.78334433  0.24475145  0.48917717  1
  Ni  Ni167  1  0.59571980  0.32318626  0.69338477  1
  Ni  Ni168  1  0.74776842  0.46687675  0.18557758  1
  Ni  Ni169  1  0.30591407  0.59136517  0.68464198  1
  Ni  Ni170  1  1.06886402  0.24374770  0.48142188  1
  Ni  Ni171  1  0.83783019  0.20916197  0.84740055  1
  Ni  Ni172  1  1.01538477  0.43031117  0.62229862  1
  Ni  Ni173  1  0.35684298  0.81818806  0.30494744  1
  Ni  Ni174  1  0.92953578  0.83680882  0.77224352  1
  Ni  Ni175  1  0.31451738  0.13639995  0.06032620  1
  Ni  Ni176  1  0.36971007  0.01528222  0.46216451  1
  Ni  Ni177  1  0.87915107  0.15458291  0.15665894  1
  Ni  Ni178  1  0.77967928  0.58421032  0.62849484  1
  Ni  Ni179  1  0.15562351  0.62428594  0.28295354  1
  Ni  Ni180  1  0.06753514  0.94560270  0.98362983  1
  Ni  Ni181  1  0.89799112  0.62757256  0.32538683  1
  Ni  Ni182  1  0.08825414  0.86259825  0.73762286  1
  Ni  Ni183  1  0.90588014  0.61203455  0.78527203  1
  Ni  Ni184  1  0.68337724  0.16138512  0.58212236  1
  Ni  Ni185  1  0.34340822  0.54041106  0.40274628  1
  Ni  Ni186  1  0.11707499  0.62158098  0.87996273  1
  Ni  Ni187  1  0.87976094  0.74454650  0.91630498  1
  Ni  Ni188  1  0.65199358  0.81021513  0.00177176  1
  Ni  Ni189  1  0.32143973  0.79135027  0.60576807  1
  Ni  Ni190  1  0.40969704  0.51160843  0.57885599  1
  Ni  Ni191  1  0.50332039  0.87590326  0.21762138  1
  Ni  Ni192  1  0.61630570  0.83184211  0.34078357  1
  Ni  Ni193  1  0.68098724  0.23117097  0.27778074  1
  Ni  Ni194  1  0.11003072  0.93274812  0.19271624  1
  Ni  Ni195  1  0.78348142  0.60232778  0.97554279  1
  Ni  Ni196  1  0.55987500  0.73630293  0.49281513  1
  Ni  Ni197  1  0.59359320  0.60342047  0.82863419  1
  Ni  Ni198  1  0.61498857  0.09169921  0.04215240  1
  Ni  Ni199  1  0.82125489  0.89523619  0.61110304  1
  Ni  Ni200  1  0.22567637  0.29729040  0.41385018  1
  Ni  Ni201  1  0.54878150  0.07441239  0.86181095  1
  Ni  Ni202  1  0.40159245  0.74275846  0.43805413  1
  Ni  Ni203  1  0.89168617  0.04230231  0.59888464  1
  Ni  Ni204  1  0.16904027  0.21737779  0.15424062  1
  Ni  Ni205  1  0.00458820  0.16218240  0.62317238  1
  Ni  Ni206  1  0.51891565  0.90310964  0.88483979  1
  Ni  Ni207  1  0.63215969  0.94236686  0.11161902  1
  Ni  Ni208  1  0.22967787  0.02291137  0.96067670  1
  Ni  Ni209  1  0.56764941  0.43352107  0.56672089  1
  Ni  Ni210  1  0.32363472  0.96483188  0.08919869  1
  Ni  Ni211  1  0.74868577  0.83248758  0.86014857  1
  Ni  Ni212  1  0.03393155  0.16064488  0.07435281  1
  Ni  Ni213  1  0.25939134  0.89134992  0.72809913  1
  Ni  Ni214  1  0.09806882  0.40751612  0.47780748  1
  Ni  Ni215  1  0.82762607  0.46657118  0.50140673  1
