# generated using pymatgen
data_Ti2CoNi
_symmetry_space_group_name_H-M   'P 1'
_cell_length_a   14.68583380
_cell_length_b   14.70288119
_cell_length_c   14.60869995
_cell_angle_alpha   90.04342411
_cell_angle_beta   89.85478322
_cell_angle_gamma   90.03232062
_symmetry_Int_Tables_number   1
_chemical_formula_structural   Ti2CoNi
_chemical_formula_sum   'Ti108 Co54 Ni54'
_cell_volume   3154.35840869
_cell_formula_units_Z   54
loop_
 _symmetry_equiv_pos_site_id
 _symmetry_equiv_pos_as_xyz
  1  'x, y, z'
loop_
 _atom_site_type_symbol
 _atom_site_label
 _atom_site_symmetry_multiplicity
 _atom_site_fract_x
 _atom_site_fract_y
 _atom_site_fract_z
 _atom_site_occupancy
  Ti  Ti0  1  -0.01779616  0.03505892  0.02143678  1
  Ti  Ti1  1  0.03798741  0.09511878  0.36939317  1
  Ti  Ti2  1  0.10166128  0.05316126  0.66656859  1
  Ti  Ti3  1  0.04901862  0.24510321  -0.00159365  1
  Ti  Ti4  1  -0.05319787  0.39412919  0.33096580  1
  Ti  Ti5  1  0.00085962  0.34957093  0.67252539  1
  Ti  Ti6  1  -0.08438998  0.68066874  0.00035905  1
  Ti  Ti7  1  -0.00786535  0.70185848  0.33186912  1
  Ti  Ti8  1  0.09586592  0.71630100  0.66924018  1
  Ti  Ti9  1  0.28009546  -0.05836341  0.01734749  1
  Ti  Ti10  1  0.24831259  -0.01533316  0.30050648  1
  Ti  Ti11  1  0.34445254  -0.06550771  0.63408091  1
  Ti  Ti12  1  0.24434389  0.32287530  0.05329485  1
  Ti  Ti13  1  0.29156700  0.34180481  0.39458526  1
  Ti  Ti14  1  0.34784369  0.35381084  0.62744357  1
  Ti  Ti15  1  0.28532287  0.62557496  0.03089866  1
  Ti  Ti16  1  0.29404058  0.69160874  0.35235365  1
  Ti  Ti17  1  0.39703710  0.67848947  0.63113451  1
  Ti  Ti18  1  0.71469705  0.04803413  0.02836385  1
  Ti  Ti19  1  0.65258039  -0.00562629  0.27452535  1
  Ti  Ti20  1  0.65211963  0.08261833  0.72013012  1
  Ti  Ti21  1  0.72814912  0.31112551  -0.02864258  1
  Ti  Ti22  1  0.75970707  0.35359377  0.35825867  1
  Ti  Ti23  1  0.68473269  0.26548337  0.66169968  1
  Ti  Ti24  1  0.64178409  0.59531199  0.00843348  1
  Ti  Ti25  1  0.66698968  0.74684633  0.29958090  1
  Ti  Ti26  1  0.61966845  0.64307571  0.70296313  1
  Ti  Ti27  1  0.08217252  0.09047103  0.18301086  1
  Ti  Ti28  1  -0.02303355  0.16814710  0.54232123  1
  Ti  Ti29  1  0.05443382  0.10869470  0.85331157  1
  Ti  Ti30  1  -0.06541377  0.56025883  0.17586416  1
  Ti  Ti31  1  -0.02343813  0.49084664  0.52684604  1
  Ti  Ti32  1  -0.05900780  0.53703868  0.80043718  1
  Ti  Ti33  1  0.02264131  0.74441008  0.15151654  1
  Ti  Ti34  1  -0.01285920  0.83099625  0.47159161  1
  Ti  Ti35  1  -0.01334317  0.75023016  0.82370806  1
  Ti  Ti36  1  0.36781948  0.16190413  0.15360091  1
  Ti  Ti37  1  0.36298416  0.09659875  0.47880130  1
  Ti  Ti38  1  0.40845997  0.19676476  0.82146002  1
  Ti  Ti39  1  0.38456256  0.52290287  0.18022216  1
  Ti  Ti40  1  0.34297090  0.52519069  0.47091813  1
  Ti  Ti41  1  0.29314207  0.47548762  0.78862582  1
  Ti  Ti42  1  0.42532036  0.81310899  0.09686448  1
  Ti  Ti43  1  0.28954491  0.84706594  0.46897139  1
  Ti  Ti44  1  0.32278591  0.89462943  0.83890822  1
  Ti  Ti45  1  0.70100706  0.25062216  0.18430599  1
  Ti  Ti46  1  0.67802963  0.19969019  0.44258149  1
  Ti  Ti47  1  0.60605205  0.18867615  0.86841627  1
  Ti  Ti48  1  0.63191078  0.47328873  0.21833000  1
  Ti  Ti49  1  0.64100906  0.47871183  0.44796419  1
  Ti  Ti50  1  0.71929264  0.50337651  0.82567431  1
  Ti  Ti51  1  0.65374337  0.83224985  0.10996073  1
  Ti  Ti52  1  0.68561390  0.89829535  0.55975486  1
  Ti  Ti53  1  0.65683313  0.87777778  0.76090575  1
  Ti  Ti54  1  0.13292765  -0.08486001  0.11527652  1
  Ti  Ti55  1  0.18070626  0.08114481  0.48218725  1
  Ti  Ti56  1  0.11221907  -0.08395269  0.89400390  1
  Ti  Ti57  1  0.12097467  0.36332921  0.19800571  1
  Ti  Ti58  1  0.16909776  0.42131472  0.52157639  1
  Ti  Ti59  1  0.12889922  0.30627292  0.82465364  1
  Ti  Ti60  1  0.18410169  0.64910710  0.19501181  1
  Ti  Ti61  1  0.21646985  0.65252813  0.53622461  1
  Ti  Ti62  1  0.15316663  0.63280228  0.85336013  1
  Ti  Ti63  1  0.45236330  -0.01602752  0.23721914  1
  Ti  Ti64  1  0.52853165  0.00212970  0.45601567  1
  Ti  Ti65  1  0.48867668  0.00814107  0.80016981  1
  Ti  Ti66  1  0.48029161  0.33387811  0.15008188  1
  Ti  Ti67  1  0.49436526  0.23676833  0.54020652  1
  Ti  Ti68  1  0.50245896  0.33555232  0.94040291  1
  Ti  Ti69  1  0.53595655  0.65489321  0.17798981  1
  Ti  Ti70  1  0.58725129  0.69787696  0.48339581  1
  Ti  Ti71  1  0.47854461  0.68148624  0.86174564  1
  Ti  Ti72  1  0.89719795  -0.00000912  0.21884440  1
  Ti  Ti73  1  0.85652711  0.00097409  0.52906458  1
  Ti  Ti74  1  0.90025409  -0.02589177  0.85480127  1
  Ti  Ti75  1  0.88035105  0.36951342  0.11314355  1
  Ti  Ti76  1  0.84710110  0.31570402  0.54062178  1
  Ti  Ti77  1  0.84511948  0.36268479  0.78875262  1
  Ti  Ti78  1  0.82937131  0.73869886  0.17893605  1
  Ti  Ti79  1  0.87073754  0.67030352  0.52866875  1
  Ti  Ti80  1  0.81645832  0.66449225  0.73311495  1
  Ti  Ti81  1  0.24360259  0.17768708  -0.06524101  1
  Ti  Ti82  1  0.23101872  0.18513341  0.30365860  1
  Ti  Ti83  1  0.16864057  0.24167355  0.61700457  1
  Ti  Ti84  1  0.15850624  0.46827311  -0.03867590  1
  Ti  Ti85  1  0.24044299  0.50126294  0.31086660  1
  Ti  Ti86  1  0.10541417  0.52620682  0.68498080  1
  Ti  Ti87  1  0.12339050  0.74393538  -0.00471364  1
  Ti  Ti88  1  0.15756085  0.81265947  0.29182626  1
  Ti  Ti89  1  0.13528504  0.88232881  0.59268429  1
  Ti  Ti90  1  0.51413797  0.10115520  0.01070889  1
  Ti  Ti91  1  0.53603341  0.18070802  0.31635005  1
  Ti  Ti92  1  0.46370336  0.08436115  0.63969337  1
  Ti  Ti93  1  0.43604008  0.50714557  -0.06542092  1
  Ti  Ti94  1  0.47308952  0.43818568  0.33540836  1
  Ti  Ti95  1  0.48072528  0.50094588  0.65803008  1
  Ti  Ti96  1  0.52174579  0.90536092  -0.04451837  1
  Ti  Ti97  1  0.45911472  0.80893994  0.36598133  1
  Ti  Ti98  1  0.47218168  0.82860169  0.73615121  1
  Ti  Ti99  1  0.86454499  0.17617427  0.08595018  1
  Ti  Ti100  1  0.82464850  0.12349533  0.36064086  1
  Ti  Ti101  1  0.86209755  0.15551959  0.72229685  1
  Ti  Ti102  1  0.85559306  0.48193519  -0.03137018  1
  Ti  Ti103  1  0.80284414  0.57993716  0.36105771  1
  Ti  Ti104  1  0.71596575  0.46633455  0.64200006  1
  Ti  Ti105  1  0.83350675  0.88138812  0.03641851  1
  Ti  Ti106  1  0.79728131  0.88296299  0.36956677  1
  Ti  Ti107  1  0.84172023  0.86225827  0.71831243  1
  Co  Co108  1  0.76582377  0.06530909  0.83935621  1
  Co  Co109  1  0.19873393  0.95149438  0.73966115  1
  Co  Co110  1  0.77029025  0.89870253  0.20492829  1
  Co  Co111  1  0.26388774  0.79272162  0.64802366  1
  Co  Co112  1  0.56211320  0.96371421  0.11011086  1
  Co  Co113  1  0.35275646  0.19602532  0.65913546  1
  Co  Co114  1  0.25359315  0.05142517  0.15506716  1
  Co  Co115  1  0.85578573  0.28433659  0.24759333  1
  Co  Co116  1  0.54791429  0.94662282  0.63726297  1
  Co  Co117  1  0.40330645  0.69612880  0.47227813  1
  Co  Co118  1  0.59869448  0.59311185  0.33534958  1
  Co  Co119  1  0.37184013  0.42028086  0.05651445  1
  Co  Co120  1  0.21941586  0.03206751  0.87985475  1
  Co  Co121  1  0.19997849  0.15346198  0.76444380  1
  Co  Co122  1  0.18391211  0.38938847  0.68742884  1
  Co  Co123  1  0.14038315  0.24104958  0.44066819  1
  Co  Co124  1  0.93213732  0.24172804  0.39522964  1
  Co  Co125  1  0.29330803  0.23628469  0.51088799  1
  Co  Co126  1  0.92586499  0.83628348  0.27663031  1
  Co  Co127  1  0.62115916  0.01942548  0.88783805  1
  Co  Co128  1  0.79195471  0.62184503  0.90452859  1
  Co  Co129  1  0.80562804  0.45721961  0.23082042  1
  Co  Co130  1  1.03112479  0.19102814  0.70795940  1
  Co  Co131  1  0.24032729  0.63867776  0.71496853  1
  Co  Co132  1  0.33661851  0.74271609  0.78662089  1
  Co  Co133  1  -0.04067661  0.25542396  0.83569112  1
  Co  Co134  1  0.18349768  0.20651646  0.14253967  1
  Co  Co135  1  0.79824791  0.58766981  0.07961427  1
  Co  Co136  1  1.00672243  0.25857842  0.14567666  1
  Co  Co137  1  0.16837418  0.79590053  0.79669533  1
  Co  Co138  1  0.60214837  0.32797683  0.28909188  1
  Co  Co139  1  0.31976169  0.61409185  0.87461799  1
  Co  Co140  1  0.58747312  0.32716750  0.44128207  1
  Co  Co141  1  0.77994336  1.00230141  0.67687985  1
  Co  Co142  1  0.87690200  0.47202150  0.66198850  1
  Co  Co143  1  0.06436109  0.93860836  0.26557998  1
  Co  Co144  1  0.13974438  0.76726399  0.44879415  1
  Co  Co145  1  0.93630204  0.15339591  0.24469336  1
  Co  Co146  1  0.52865490  0.23692123  0.71088150  1
  Co  Co147  1  0.09644528  0.59434218  0.07525135  1
  Co  Co148  1  0.02079692  0.33214143  0.50320308  1
  Co  Co149  1  0.44820603  0.63760761  0.03730943  1
  Co  Co150  1  0.33243309  0.05547248  0.76512045  1
  Co  Co151  1  0.28587575  0.29237363  0.77261259  1
  Co  Co152  1  0.27107625  0.76878883  0.93959870  1
  Co  Co153  1  0.76008656  0.08443801  0.18559523  1
  Co  Co154  1  0.73878347  0.75358300  0.62569894  1
  Co  Co155  1  0.96327803  0.61716913  0.65820810  1
  Co  Co156  1  0.74620367  0.73157503  0.01750584  1
  Co  Co157  1  0.52312257  0.48804994  0.08596886  1
  Co  Co158  1  0.40887167  0.00119887  0.08396878  1
  Co  Co159  1  0.14092765  0.07389947  0.01983596  1
  Co  Co160  1  0.26276837  0.07288928  0.61962258  1
  Co  Co161  1  0.06874709  0.24269281  0.29518368  1
  Ni  Ni162  1  0.13487927  0.92884257  0.42021156  1
  Ni  Ni163  1  0.62026073  0.87241466  0.40389226  1
  Ni  Ni164  1  0.33423160  0.84399939  0.25523169  1
  Ni  Ni165  1  0.50153903  0.55651574  0.48438292  1
  Ni  Ni166  1  -0.01921480  0.84774397  0.97094779  1
  Ni  Ni167  1  0.98244380  0.54885250  0.37212980  1
  Ni  Ni168  1  0.59258933  0.24110357  0.05110005  1
  Ni  Ni169  1  0.38048545  1.04806669  0.92555431  1
  Ni  Ni170  1  0.70204592  0.02277532  0.43775782  1
  Ni  Ni171  1  0.29939817  0.36550515  0.21259488  1
  Ni  Ni172  1  0.02577153  0.44044911  0.06769228  1
  Ni  Ni173  1  1.03429850  0.89075487  0.74007083  1
  Ni  Ni174  1  0.38514297  0.10444178  0.32081422  1
  Ni  Ni175  1  0.13766837  0.62093695  0.37031435  1
  Ni  Ni176  1  0.02588365  0.99836686  0.52326607  1
  Ni  Ni177  1  0.97341132  0.89544373  0.12714093  1
  Ni  Ni178  1  0.04179436  0.64961594  0.50789442  1
  Ni  Ni179  1  0.72326516  0.43684828  0.08305253  1
  Ni  Ni180  1  0.55249418  0.51813626  0.81104447  1
  Ni  Ni181  1  0.45757283  0.84727775  0.53565455  1
  Ni  Ni182  1  0.81200867  0.47398716  0.49320801  1
  Ni  Ni183  1  0.28565880  0.51508429  0.62331605  1
  Ni  Ni184  1  0.10754859  0.40189512  0.36733643  1
  Ni  Ni185  1  0.61768511  0.10145441  0.56183521  1
  Ni  Ni186  1  0.44701297  0.38077360  0.78252104  1
  Ni  Ni187  1  0.74331096  0.75156845  0.45556802  1
  Ni  Ni188  1  0.21892253  0.48694874  0.12552093  1
  Ni  Ni189  1  0.99991481  0.39932838  0.90059502  1
  Ni  Ni190  1  0.62209214  0.44220489  0.95127524  1
  Ni  Ni191  1  0.71817298  0.60377287  0.54691443  1
  Ni  Ni192  1  0.24882574  0.78744546  0.11261338  1
  Ni  Ni193  1  0.57427661  0.37864986  0.59946602  1
  Ni  Ni194  1  0.74358590  0.91597932  0.90068120  1
  Ni  Ni195  1  0.94397212  0.96433259  0.38208740  1
  Ni  Ni196  1  0.01590759  0.56188948  0.94316560  1
  Ni  Ni197  1  0.83517004  0.78480275  0.88139496  1
  Ni  Ni198  1  0.78589665  0.14727437  0.56302324  1
  Ni  Ni199  1  0.53701869  0.84057613  0.22750312  1
  Ni  Ni200  1  0.32708740  0.36100076  0.90905187  1
  Ni  Ni201  1  0.62696540  0.35452129  0.80114975  1
  Ni  Ni202  1  0.39220989  0.23615607  1.00737505  1
  Ni  Ni203  1  0.56199251  0.74597830  1.00072218  1
  Ni  Ni204  1  0.58720759  0.11680758  0.16730357  1
  Ni  Ni205  1  0.75670903  0.23085760  0.82501413  1
  Ni  Ni206  1  0.72199256  0.61088942  0.21943089  1
  Ni  Ni207  1  0.88487015  0.13955688  0.92326464  1
  Ni  Ni208  1  0.95012177  0.78124088  0.63282317  1
  Ni  Ni209  1  0.43640048  0.60779607  0.32712198  1
  Ni  Ni210  1  0.39916100  0.26738905  0.29318321  1
  Ni  Ni211  1  0.08060806  0.52188464  0.23834903  1
  Ni  Ni212  1  0.57716449  0.77995566  0.62597108  1
  Ni  Ni213  1  0.94271757  0.01776863  0.67756390  1
  Ni  Ni214  1  0.44711305  0.39523468  0.49455325  1
  Ni  Ni215  1  0.36132819  0.68854147  0.19076027  1
