# generated using pymatgen
data_Ti2CoNi
_symmetry_space_group_name_H-M   'P 1'
_cell_length_a   14.58244871
_cell_length_b   14.59954587
_cell_length_c   14.65197987
_cell_angle_alpha   90.26064668
_cell_angle_beta   90.06099459
_cell_angle_gamma   89.70215274
_symmetry_Int_Tables_number   1
_chemical_formula_structural   Ti2CoNi
_chemical_formula_sum   'Ti108 Co54 Ni54'
_cell_volume   3119.28833055
_cell_formula_units_Z   54
loop_
 _symmetry_equiv_pos_site_id
 _symmetry_equiv_pos_as_xyz
  1  'x, y, z'
loop_
 _atom_site_type_symbol
 _atom_site_label
 _atom_site_symmetry_multiplicity
 _atom_site_fract_x
 _atom_site_fract_y
 _atom_site_fract_z
 _atom_site_occupancy
  Ti  Ti0  1  -0.02136277  0.03769680  -0.01693384  1
  Ti  Ti1  1  0.00624296  -0.12396434  0.31940783  1
  Ti  Ti2  1  -0.00342133  0.03421792  0.60886661  1
  Ti  Ti3  1  -0.04825826  0.22940296  -0.01437763  1
  Ti  Ti4  1  -0.01054354  0.31455081  0.32997084  1
  Ti  Ti5  1  0.06563446  0.40864199  0.72494383  1
  Ti  Ti6  1  -0.03442163  0.73223304  -0.04999083  1
  Ti  Ti7  1  0.01802787  0.68205781  0.42262300  1
  Ti  Ti8  1  -0.10414498  0.63819200  0.61870813  1
  Ti  Ti9  1  0.38235655  -0.07282830  0.01124845  1
  Ti  Ti10  1  0.32080491  0.00145347  0.24723016  1
  Ti  Ti11  1  0.31557604  0.03462533  0.62289319  1
  Ti  Ti12  1  0.31431657  0.36923475  0.06264255  1
  Ti  Ti13  1  0.30476830  0.37036127  0.26653651  1
  Ti  Ti14  1  0.37570649  0.31168807  0.64646109  1
  Ti  Ti15  1  0.30645235  0.69438209  -0.03318722  1
  Ti  Ti16  1  0.37331424  0.72914458  0.34733620  1
  Ti  Ti17  1  0.35688559  0.62346884  0.77258952  1
  Ti  Ti18  1  0.61079535  0.00792683  0.01716221  1
  Ti  Ti19  1  0.69801963  0.06716954  0.39041594  1
  Ti  Ti20  1  0.55678720  0.01385154  0.70440231  1
  Ti  Ti21  1  0.63476294  0.29048134  -0.00855237  1
  Ti  Ti22  1  0.64717571  0.32573814  0.36413731  1
  Ti  Ti23  1  0.68053046  0.35336541  0.58785998  1
  Ti  Ti24  1  0.68264139  0.62949127  0.01628183  1
  Ti  Ti25  1  0.69105386  0.61468969  0.33412030  1
  Ti  Ti26  1  0.70851673  0.61534358  0.65108576  1
  Ti  Ti27  1  0.05742301  0.18349614  0.18676431  1
  Ti  Ti28  1  0.01770723  0.18427653  0.48214784  1
  Ti  Ti29  1  0.00047993  0.17259197  0.78732822  1
  Ti  Ti30  1  0.01983734  0.45646606  0.19046234  1
  Ti  Ti31  1  0.11622839  0.49405282  0.51702041  1
  Ti  Ti32  1  0.01637177  0.60291359  0.78053799  1
  Ti  Ti33  1  -0.03254635  0.76384874  0.15575207  1
  Ti  Ti34  1  -0.07359731  0.89293486  0.48767859  1
  Ti  Ti35  1  -0.02485574  0.78610789  0.74329254  1
  Ti  Ti36  1  0.39655223  0.18603217  0.19915537  1
  Ti  Ti37  1  0.31562310  0.23129661  0.41891850  1
  Ti  Ti38  1  0.30354889  0.12155079  0.80076777  1
  Ti  Ti39  1  0.39993538  0.53666424  0.09479258  1
  Ti  Ti40  1  0.33707217  0.50733734  0.57067052  1
  Ti  Ti41  1  0.29450074  0.50920411  0.91838853  1
  Ti  Ti42  1  0.25877812  0.80781573  0.12622657  1
  Ti  Ti43  1  0.35931814  0.84694118  0.54488888  1
  Ti  Ti44  1  0.41179294  0.80899010  0.85003159  1
  Ti  Ti45  1  0.66545331  0.12073714  0.17654098  1
  Ti  Ti46  1  0.75538272  0.18797323  0.53171568  1
  Ti  Ti47  1  0.68128427  0.12705038  0.85195564  1
  Ti  Ti48  1  0.68306294  0.45150779  0.16010358  1
  Ti  Ti49  1  0.60770240  0.53133854  0.48213226  1
  Ti  Ti50  1  0.68014086  0.43289496  0.83735161  1
  Ti  Ti51  1  0.77944706  0.82237301  0.17728757  1
  Ti  Ti52  1  0.65148075  0.88109450  0.48214464  1
  Ti  Ti53  1  0.67498304  0.92615129  0.83546432  1
  Ti  Ti54  1  0.11307560  -0.00975349  0.19363954  1
  Ti  Ti55  1  0.19484839  -0.05122388  0.51503327  1
  Ti  Ti56  1  0.16814230  -0.00902240  0.90755504  1
  Ti  Ti57  1  0.13298400  0.30727809  0.07011298  1
  Ti  Ti58  1  0.16745375  0.29292098  0.54395801  1
  Ti  Ti59  1  0.19338376  0.28529752  0.76444118  1
  Ti  Ti60  1  0.13909900  0.63243017  0.16864608  1
  Ti  Ti61  1  0.19044790  0.72015417  0.51105154  1
  Ti  Ti62  1  0.12674987  0.79281119  0.85719718  1
  Ti  Ti63  1  0.48245235  -0.03123161  0.16711047  1
  Ti  Ti64  1  0.47376065  0.01459934  0.53719601  1
  Ti  Ti65  1  0.46626986  0.01471583  0.86583371  1
  Ti  Ti66  1  0.50321415  0.36449476  0.19203387  1
  Ti  Ti67  1  0.48954476  0.37049706  0.50830113  1
  Ti  Ti68  1  0.36767323  0.34211184  0.85271814  1
  Ti  Ti69  1  0.50926597  0.62421378  0.23368375  1
  Ti  Ti70  1  0.44169598  0.66708612  0.51313130  1
  Ti  Ti71  1  0.53858887  0.66063556  0.76081605  1
  Ti  Ti72  1  0.91502606  -0.01217793  0.17364209  1
  Ti  Ti73  1  0.79047288  -0.00539849  0.56743246  1
  Ti  Ti74  1  0.88420182  -0.00050542  0.77686501  1
  Ti  Ti75  1  0.83017668  0.30361271  0.12794975  1
  Ti  Ti76  1  0.82541370  0.40441044  0.46309889  1
  Ti  Ti77  1  0.87576686  0.38378551  0.86521098  1
  Ti  Ti78  1  0.81895184  0.62672191  0.18805987  1
  Ti  Ti79  1  0.81724668  0.71867602  0.45880981  1
  Ti  Ti80  1  0.80269226  0.68241340  0.83744706  1
  Ti  Ti81  1  0.13433960  0.17865142  -0.07618435  1
  Ti  Ti82  1  0.17203891  0.05853986  0.35673649  1
  Ti  Ti83  1  0.14669183  0.11073065  0.67383301  1
  Ti  Ti84  1  0.11507854  0.48644029  0.01365337  1
  Ti  Ti85  1  0.17393606  0.51613181  0.32282577  1
  Ti  Ti86  1  0.18707934  0.57789530  0.68437749  1
  Ti  Ti87  1  0.07872247  0.88519395  0.04241388  1
  Ti  Ti88  1  0.21190199  0.85582268  0.34129016  1
  Ti  Ti89  1  0.25390828  0.83535579  0.70856754  1
  Ti  Ti90  1  0.42429862  0.22612810  -0.00263135  1
  Ti  Ti91  1  0.50396564  0.14750370  0.37145709  1
  Ti  Ti92  1  0.56741905  0.20631583  0.66085904  1
  Ti  Ti93  1  0.50046746  0.49909912  -0.08692286  1
  Ti  Ti94  1  0.42455872  0.51100359  0.37123410  1
  Ti  Ti95  1  0.49366413  0.43141439  0.73466410  1
  Ti  Ti96  1  0.50130440  0.75720743  0.07401266  1
  Ti  Ti97  1  0.53450262  0.83521558  0.29795430  1
  Ti  Ti98  1  0.55982761  0.79978302  0.61948286  1
  Ti  Ti99  1  0.78389761  0.11614133  0.02499531  1
  Ti  Ti100  1  0.83456672  0.16246873  0.29499469  1
  Ti  Ti101  1  0.79620804  0.22772397  0.74295371  1
  Ti  Ti102  1  0.88708906  0.51513478  0.04238102  1
  Ti  Ti103  1  0.88740041  0.54131564  0.34861143  1
  Ti  Ti104  1  0.91844926  0.45621640  0.63126402  1
  Ti  Ti105  1  0.73014852  0.82705216  -0.01235353  1
  Ti  Ti106  1  0.79055679  0.89271554  0.35556898  1
  Ti  Ti107  1  0.78277754  0.79623275  0.62945134  1
  Co  Co108  1  0.30578218  0.67654925  0.61025045  1
  Co  Co109  1  0.95432517  0.53383913  0.49086879  1
  Co  Co110  1  0.21126327  0.46320209  0.16078875  1
  Co  Co111  1  -0.02536377  0.38000196  0.03368737  1
  Co  Co112  1  0.14396576  0.21752202  0.35687548  1
  Co  Co113  1  0.05403394  0.62263444  0.59309847  1
  Co  Co114  1  0.99400398  0.62244509  0.08296915  1
  Co  Co115  1  0.86459060  0.30021188  0.59000514  1
  Co  Co116  1  0.28057393  0.23150655  0.92130134  1
  Co  Co117  1  0.99703120  0.36188247  0.50155390  1
  Co  Co118  1  0.54154441  0.67610636  0.38267563  1
  Co  Co119  1  0.93469409  0.31350784  0.73358005  1
  Co  Co120  1  0.04280070  0.00739908  0.44900837  1
  Co  Co121  1  0.32419527  0.55776565  0.24790882  1
  Co  Co122  1  0.89615891  1.00432556  0.34189029  1
  Co  Co123  1  0.41683687  0.75941289  0.68655834  1
  Co  Co124  1  0.90640259  0.89558635  0.65405337  1
  Co  Co125  1  0.28084319  0.19675085  0.63278734  1
  Co  Co126  1  0.77801286  0.39771462  0.70511249  1
  Co  Co127  1  0.41568350  0.92832209  0.69474030  1
  Co  Co128  1  0.08849391  0.61982916  0.93204542  1
  Co  Co129  1  0.56662506  0.46769907  0.30903001  1
  Co  Co130  1  0.12751152  0.73354907  0.69005879  1
  Co  Co131  1  0.42555135  0.18319766  0.53373022  1
  Co  Co132  1  0.53844024  0.88049381  0.96219992  1
  Co  Co133  1  0.65275424  0.29205642  0.76863749  1
  Co  Co134  1  0.36046605  0.90354146  0.39092542  1
  Co  Co135  1  0.04847602  0.32529961  0.88416061  1
  Co  Co136  1  0.49646306  0.82284540  0.45862182  1
  Co  Co137  1  0.20315691  0.65353514  0.82656328  1
  Co  Co138  1  0.97983333  0.76767582  0.57251190  1
  Co  Co139  1  0.72761744  0.46683168  0.33873158  1
  Co  Co140  1  0.03733646  0.23689130  0.63647289  1
  Co  Co141  1  0.88271175  0.14076501  0.63642337  1
  Co  Co142  1  0.08540911  0.84324236  0.46388975  1
  Co  Co143  1  0.37935500  0.84152235  0.22707347  1
  Co  Co144  1  0.99341879  0.48762356  0.89246143  1
  Co  Co145  1  0.45148179  0.07842670  0.06122516  1
  Co  Co146  1  0.67767845  0.91218059  0.66588616  1
  Co  Co147  1  0.54067879  0.85323265  0.77763015  1
  Co  Co148  1  0.75447055  -0.03557379  0.08575713  1
  Co  Co149  1  0.42928794  0.12568780  0.69624044  1
  Co  Co150  1  0.24986561  0.59359623  0.06851632  1
  Co  Co151  1  0.88037955  0.08880088  0.46981204  1
  Co  Co152  1  0.20339797  0.36530768  0.92804059  1
  Co  Co153  1  0.12757144  0.09851752  0.06123965  1
  Co  Co154  1  0.80459047  0.97731984  0.93121341  1
  Co  Co155  1  0.12597817  0.73243840  0.03724895  1
  Co  Co156  1  0.77114810  0.56537026  0.49303879  1
  Co  Co157  1  0.65738300  0.70238082  0.50280786  1
  Co  Co158  1  0.36232235  0.68715944  0.16111435  1
  Co  Co159  1  0.76940057  1.00596983  0.23793168  1
  Co  Co160  1  0.15416791  0.48837066  0.83526424  1
  Co  Co161  1  0.87428469  0.24854055  0.43159997  1
  Ni  Ni162  1  0.27072804  0.20008386  0.07796530  1
  Ni  Ni163  1  0.86434520  0.12590890  0.87692584  1
  Ni  Ni164  1  -0.01874134  0.89493964  0.88834518  1
  Ni  Ni165  1  0.63320531  0.06114344  0.55024962  1
  Ni  Ni166  1  0.67844454  0.76081008  0.75705788  1
  Ni  Ni167  1  0.13773327  0.37395510  0.39967948  1
  Ni  Ni168  1  0.11556033  0.80900070  0.20647955  1
  Ni  Ni169  1  0.31073559  0.94833759  0.82998143  1
  Ni  Ni170  1  0.21662476  0.40857723  0.64241386  1
  Ni  Ni171  1  0.22549628  0.69786665  0.29032140  1
  Ni  Ni172  1  0.45362941  0.32264752  0.34751311  1
  Ni  Ni173  1  0.32430734  0.46026656  0.74836791  1
  Ni  Ni174  1  0.82390300  0.84422279  0.81947999  1
  Ni  Ni175  1  0.13738035  0.33501012  0.23712007  1
  Ni  Ni176  1  0.06333307  0.00458587  0.78172050  1
  Ni  Ni177  1  0.28004573  0.59260306  0.43010567  1
  Ni  Ni178  1  0.64812922  0.59494148  0.85482022  1
  Ni  Ni179  1  0.23320671  0.97314790  0.07796222  1
  Ni  Ni180  1  0.90376283  0.14817544  0.13634620  1
  Ni  Ni181  1  0.76104683  0.40209472  0.00502933  1
  Ni  Ni182  1  0.30513757  0.40328704  0.44010705  1
  Ni  Ni183  1  0.68653356  0.77287432  0.32090906  1
  Ni  Ni184  1  0.62193592  0.87270925  0.13963117  1
  Ni  Ni185  1  0.22421209  0.14699050  0.21976129  1
  Ni  Ni186  1  0.77929015  0.25747166  0.92124683  1
  Ni  Ni187  1  0.34746681  0.06357194  0.42654949  1
  Ni  Ni188  1  0.56297999  0.54831272  0.09069565  1
  Ni  Ni189  1  0.84636255  0.54004736  0.76035143  1
  Ni  Ni190  1  1.00552264  0.11801251  0.32531524  1
  Ni  Ni191  1  0.62416803  0.48425311  0.66105132  1
  Ni  Ni192  1  0.83512896  0.70511374  0.04283139  1
  Ni  Ni193  1  0.49184842  0.38398658  0.02537020  1
  Ni  Ni194  1  0.54701387  0.21439151  0.11378005  1
  Ni  Ni195  1  0.64484408  0.70297994  0.16726527  1
  Ni  Ni196  1  0.89824143  0.88140111  0.03786237  1
  Ni  Ni197  1  0.52771004  0.30927653  0.86489245  1
  Ni  Ni198  1  0.24668091  0.84909520  0.95632853  1
  Ni  Ni199  1  0.20046461  0.12590333  0.50480011  1
  Ni  Ni200  1  0.55046110  0.14232393  0.94128594  1
  Ni  Ni201  1  0.46989654  0.65448787  0.93772156  1
  Ni  Ni202  1  0.61264321  -0.00791790  0.26421288  1
  Ni  Ni203  1  0.08511435  0.89158631  0.64000726  1
  Ni  Ni204  1  0.72773656  0.07217399  0.70126806  1
  Ni  Ni205  1  0.53010370  0.97825198  0.39583480  1
  Ni  Ni206  1  0.84283866  0.45853326  0.20732040  1
  Ni  Ni207  1  0.67530415  0.28439980  0.20339965  1
  Ni  Ni208  1  0.48522103  0.56774772  0.63001526  1
  Ni  Ni209  1  0.87882537  0.73445968  0.30646895  1
  Ni  Ni210  1  0.58750152  0.22460667  0.49407892  1
  Ni  Ni211  1  -0.00025264  0.62087970  0.25861298  1
  Ni  Ni212  1  0.60530698  0.74673487  0.90592450  1
  Ni  Ni213  1  0.79348022  0.53716179  0.91371367  1
  Ni  Ni214  1  0.81016314  0.32942310  0.29980487  1
  Ni  Ni215  1  0.30742888  0.07689407  0.96601064  1
