# generated using pymatgen
data_Ti2CoNi
_symmetry_space_group_name_H-M   'P 1'
_cell_length_a   14.63023452
_cell_length_b   14.66148173
_cell_length_c   14.62096316
_cell_angle_alpha   90.40701448
_cell_angle_beta   90.18484038
_cell_angle_gamma   89.80137421
_symmetry_Int_Tables_number   1
_chemical_formula_structural   Ti2CoNi
_chemical_formula_sum   'Ti108 Co54 Ni54'
_cell_volume   3136.09594509
_cell_formula_units_Z   54
loop_
 _symmetry_equiv_pos_site_id
 _symmetry_equiv_pos_as_xyz
  1  'x, y, z'
loop_
 _atom_site_type_symbol
 _atom_site_label
 _atom_site_symmetry_multiplicity
 _atom_site_fract_x
 _atom_site_fract_y
 _atom_site_fract_z
 _atom_site_occupancy
  Ti  Ti0  1  -0.05221862  -0.06723184  -0.07868444  1
  Ti  Ti1  1  -0.05627893  -0.03634495  0.32287790  1
  Ti  Ti2  1  -0.02614865  0.04397209  0.64236269  1
  Ti  Ti3  1  0.01618972  0.40473625  0.02823947  1
  Ti  Ti4  1  0.03191573  0.36984396  0.25770541  1
  Ti  Ti5  1  0.02440173  0.25295901  0.66244956  1
  Ti  Ti6  1  0.05870709  0.60757408  0.01633105  1
  Ti  Ti7  1  -0.01744601  0.61843264  0.36273222  1
  Ti  Ti8  1  0.00435029  0.67707479  0.60780736  1
  Ti  Ti9  1  0.35119102  0.03753899  0.01915309  1
  Ti  Ti10  1  0.34590586  0.00751491  0.33640066  1
  Ti  Ti11  1  0.28936120  -0.02932953  0.68579349  1
  Ti  Ti12  1  0.34902984  0.36485601  0.02409991  1
  Ti  Ti13  1  0.42055495  0.32783881  0.35054621  1
  Ti  Ti14  1  0.32669883  0.44399849  0.67917962  1
  Ti  Ti15  1  0.35836188  0.70121438  -0.08627772  1
  Ti  Ti16  1  0.35096172  0.55460316  0.32101697  1
  Ti  Ti17  1  0.34143898  0.66830883  0.71951750  1
  Ti  Ti18  1  0.63855552  0.00614439  0.04262715  1
  Ti  Ti19  1  0.72563146  0.03487948  0.33235399  1
  Ti  Ti20  1  0.71461236  -0.02059954  0.65253746  1
  Ti  Ti21  1  0.67351915  0.26071744  -0.02477313  1
  Ti  Ti22  1  0.64074263  0.25421802  0.35358252  1
  Ti  Ti23  1  0.70370080  0.33986676  0.66578819  1
  Ti  Ti24  1  0.69473353  0.73690127  -0.09142224  1
  Ti  Ti25  1  0.61512248  0.76214365  0.34200114  1
  Ti  Ti26  1  0.65061388  0.69438747  0.69225225  1
  Ti  Ti27  1  0.07653245  0.15693224  0.17296899  1
  Ti  Ti28  1  0.04326449  0.26252555  0.42320278  1
  Ti  Ti29  1  -0.00885776  0.25847359  0.86885968  1
  Ti  Ti30  1  0.00320522  0.55281477  0.18086661  1
  Ti  Ti31  1  0.00207315  0.45673606  0.59420212  1
  Ti  Ti32  1  -0.06987510  0.44696021  0.83595149  1
  Ti  Ti33  1  -0.03512585  0.85398279  0.15518347  1
  Ti  Ti34  1  -0.06359472  0.79270907  0.45161703  1
  Ti  Ti35  1  -0.01858625  0.75681957  0.78542324  1
  Ti  Ti36  1  0.33547404  0.23890975  0.20674886  1
  Ti  Ti37  1  0.28243810  0.14374852  0.56549404  1
  Ti  Ti38  1  0.37198036  0.15239776  0.79828193  1
  Ti  Ti39  1  0.33709217  0.56894740  0.13976494  1
  Ti  Ti40  1  0.34285938  0.48742708  0.49051022  1
  Ti  Ti41  1  0.21529689  0.42057491  0.83754195  1
  Ti  Ti42  1  0.27732799  0.79156888  0.10155374  1
  Ti  Ti43  1  0.34396504  0.82248080  0.49737459  1
  Ti  Ti44  1  0.40651994  0.86053959  0.80773507  1
  Ti  Ti45  1  0.66434049  0.20470465  0.15204930  1
  Ti  Ti46  1  0.63786710  0.10535110  0.48965847  1
  Ti  Ti47  1  0.66069017  0.09813021  0.86783597  1
  Ti  Ti48  1  0.61387414  0.51440426  0.12469126  1
  Ti  Ti49  1  0.66013610  0.45456719  0.50952240  1
  Ti  Ti50  1  0.72535763  0.58151333  0.82737663  1
  Ti  Ti51  1  0.67418208  0.88171642  0.19592549  1
  Ti  Ti52  1  0.68078574  0.89762091  0.47687163  1
  Ti  Ti53  1  0.61121147  0.87969246  0.83877806  1
  Ti  Ti54  1  0.13422155  -0.03177201  0.19411749  1
  Ti  Ti55  1  0.14053012  -0.00103968  0.53500710  1
  Ti  Ti56  1  0.12172947  -0.00860326  0.80418489  1
  Ti  Ti57  1  0.18096003  0.32572600  0.13616863  1
  Ti  Ti58  1  0.18842010  0.33294541  0.54338605  1
  Ti  Ti59  1  0.21499797  0.25270779  0.92492208  1
  Ti  Ti60  1  0.17268187  0.64910702  0.26648976  1
  Ti  Ti61  1  0.14773273  0.74205490  0.46357767  1
  Ti  Ti62  1  0.16325963  0.70650874  0.89405988  1
  Ti  Ti63  1  0.48557670  -0.03572989  0.17134687  1
  Ti  Ti64  1  0.48782328  -0.05482767  0.48096071  1
  Ti  Ti65  1  0.51532857  0.01802761  0.75641739  1
  Ti  Ti66  1  0.56074478  0.35946079  0.21860831  1
  Ti  Ti67  1  0.38773584  0.30313223  0.53597848  1
  Ti  Ti68  1  0.49503208  0.31285373  0.89473803  1
  Ti  Ti69  1  0.60128441  0.69372001  0.09752113  1
  Ti  Ti70  1  0.46340219  0.66405366  0.43753899  1
  Ti  Ti71  1  0.53186805  0.56456081  0.80596038  1
  Ti  Ti72  1  0.79645187  0.07560602  0.17096913  1
  Ti  Ti73  1  0.85245866  0.04338278  0.46795976  1
  Ti  Ti74  1  0.82834100  0.04238082  0.79568018  1
  Ti  Ti75  1  0.84872000  0.38607726  0.16506306  1
  Ti  Ti76  1  0.85735804  0.34167358  0.51521185  1
  Ti  Ti77  1  0.78373237  0.28788408  0.82460716  1
  Ti  Ti78  1  0.80243783  0.57311329  0.17358976  1
  Ti  Ti79  1  0.80070899  0.75490151  0.58707612  1
  Ti  Ti80  1  0.89478985  0.63444384  0.90932180  1
  Ti  Ti81  1  0.11931078  0.08622478  -0.02157765  1
  Ti  Ti82  1  0.18097627  0.10285824  0.37838450  1
  Ti  Ti83  1  0.22064708  0.25706149  0.71702971  1
  Ti  Ti84  1  0.25381127  0.54680968  -0.02095666  1
  Ti  Ti85  1  0.21929227  0.39641611  0.35260847  1
  Ti  Ti86  1  0.12817788  0.54567719  0.70002430  1
  Ti  Ti87  1  0.10764842  0.83749641  0.02221347  1
  Ti  Ti88  1  0.21638889  0.83751905  0.29509530  1
  Ti  Ti89  1  0.10912960  0.85265577  0.65670890  1
  Ti  Ti90  1  0.49983273  0.14833401  0.06663562  1
  Ti  Ti91  1  0.50854750  0.10358964  0.33757094  1
  Ti  Ti92  1  0.53888463  0.19823716  0.63962165  1
  Ti  Ti93  1  0.46152573  0.54726257  -0.01423707  1
  Ti  Ti94  1  0.55360446  0.51214111  0.33007511  1
  Ti  Ti95  1  0.49903024  0.54531059  0.60528187  1
  Ti  Ti96  1  0.43863227  0.85090813  0.01631981  1
  Ti  Ti97  1  0.41682380  0.82419137  0.31451333  1
  Ti  Ti98  1  0.47563508  0.75478269  0.61442741  1
  Ti  Ti99  1  0.93368952  0.13517816  0.02480487  1
  Ti  Ti100  1  0.91102224  0.18213543  0.29361309  1
  Ti  Ti101  1  0.78766409  0.16777232  0.59975711  1
  Ti  Ti102  1  0.74876864  0.45448035  -0.02952736  1
  Ti  Ti103  1  0.77243477  0.55406583  0.38544169  1
  Ti  Ti104  1  0.82513714  0.53420769  0.64632295  1
  Ti  Ti105  1  0.81673442  0.81826857  0.03005654  1
  Ti  Ti106  1  0.84689552  0.74189679  0.27915198  1
  Ti  Ti107  1  0.80513580  0.84923264  0.76742804  1
  Co  Co108  1  0.43225123  0.91501857  0.63918712  1
  Co  Co109  1  0.97866457  0.76327322  0.96277496  1
  Co  Co110  1  0.29417803  0.71033309  0.38800745  1
  Co  Co111  1  0.09396780  0.84458214  0.85268232  1
  Co  Co112  1  0.27305981  0.84663712  0.93819751  1
  Co  Co113  1  0.69327739  0.36687610  0.10636247  1
  Co  Co114  1  0.61716535  0.75514089  0.52614724  1
  Co  Co115  1  0.52957094  0.24885311  0.47285286  1
  Co  Co116  1  0.64266152  0.50936684  0.67869587  1
  Co  Co117  1  0.97895339  0.08618913  0.84122392  1
  Co  Co118  1  0.61942312  0.58132116  -0.04125678  1
  Co  Co119  1  0.50109299  0.20836996  0.22298035  1
  Co  Co120  1  0.34809611  0.32855579  0.83177406  1
  Co  Co121  1  0.77110039  0.27401637  0.25242142  1
  Co  Co122  1  0.31881085  0.93436879  0.18196277  1
  Co  Co123  1  0.08562993  0.24483320  1.02127414  1
  Co  Co124  1  0.82562009  0.90969819  0.21036012  1
  Co  Co125  1  0.75034937  0.37434646  0.39259741  1
  Co  Co126  1  0.90101269  0.33646119  0.35274553  1
  Co  Co127  1  0.33877175  0.70831961  0.23065719  1
  Co  Co128  1  0.85636614  0.97341520  0.05859282  1
  Co  Co129  1  0.52578354  0.30251299  0.07047245  1
  Co  Co130  1  0.41425002  0.08629246  0.64003528  1
  Co  Co131  1  0.10295127  0.51122567  0.32036672  1
  Co  Co132  1  0.89029499  0.48577606  0.29255191  1
  Co  Co133  1  0.06646747  0.58357067  0.49495508  1
  Co  Co134  1  0.21531146  0.96155582  0.04892457  1
  Co  Co135  1  0.42775044  0.69271259  0.08133204  1
  Co  Co136  1  0.68228177  0.27726189  0.51935739  1
  Co  Co137  1  0.96430277  0.93248027  0.75765122  1
  Co  Co138  1  0.21314889  0.57831242  0.42665176  1
  Co  Co139  1  0.61927833  0.61990225  0.43145993  1
  Co  Co140  1  0.84494026  0.17084157  0.89624875  1
  Co  Co141  1  0.83211595  0.91768792  0.56054379  1
  Co  Co142  1  0.36795608  0.20799247  0.96640775  1
  Co  Co143  1  0.57810809  0.42575125  0.98631098  1
  Co  Co144  1  0.56263384  0.02115676  0.59990662  1
  Co  Co145  1  0.06665302  0.42128334  0.44829290  1
  Co  Co146  1  0.17149033  0.41417376  0.99877788  1
  Co  Co147  1  0.95541167  0.04248568  0.18537109  1
  Co  Co148  1  0.18681664  0.48910427  0.55711152  1
  Co  Co149  1  0.94857584  0.83568666  0.63012355  1
  Co  Co150  1  0.14773475  0.70874400  0.72605304  1
  Co  Co151  1  0.24414892  0.83521891  0.78282079  1
  Co  Co152  1  0.75234186  0.73890085  0.15231920  1
  Co  Co153  1  0.38559691  0.26893071  0.68504447  1
  Co  Co154  1  0.70945426  0.44934786  0.25660165  1
  Co  Co155  1  0.80529175  0.87420963  0.37569297  1
  Co  Co156  1  0.38846755  0.08846281  0.18362424  1
  Co  Co157  1  0.76065922  0.72101481  0.42895358  1
  Co  Co158  1  0.19316938  0.65449550  0.09229159  1
  Co  Co159  1  0.71196802  0.61446318  0.55830638  1
  Co  Co160  1  0.03021747  -0.01595514  0.05969134  1
  Co  Co161  1  0.24368391  0.16550380  0.06919752  1
  Ni  Ni162  1  0.24132788  0.58611558  0.81305095  1
  Ni  Ni163  1  0.82616456  0.68749898  0.75118313  1
  Ni  Ni164  1  0.89473173  0.51483257  0.02936319  1
  Ni  Ni165  1  0.04623262  0.78154880  0.31791180  1
  Ni  Ni166  1  0.28107676  0.24145900  0.41323744  1
  Ni  Ni167  1  0.01944262  0.08400689  0.42745951  1
  Ni  Ni168  1  0.93844023  0.18216169  0.53243388  1
  Ni  Ni169  1  0.66877416  0.62462408  0.26188003  1
  Ni  Ni170  1  0.16310521  0.24759398  0.29267434  1
  Ni  Ni171  1  0.33245124  0.64898512  0.54775291  1
  Ni  Ni172  1  0.75440490  0.93464290  0.91720071  1
  Ni  Ni173  1  0.96481819  0.58489695  0.75059649  1
  Ni  Ni174  1  0.06150057  0.72214061  0.16093755  1
  Ni  Ni175  1  0.32070674  0.41278693  0.21530048  1
  Ni  Ni176  1  0.59311540  0.86473048  0.66733168  1
  Ni  Ni177  1  0.49866014  0.42573541  0.46065032  1
  Ni  Ni178  1  0.17130472  0.49517782  0.16156792  1
  Ni  Ni179  1  0.91134600  0.68247654  0.09363495  1
  Ni  Ni180  1  0.45551362  0.44775646  0.12526705  1
  Ni  Ni181  1  0.11810570  0.16749335  0.81474634  1
  Ni  Ni182  1  0.67384425  0.12981021  0.70704539  1
  Ni  Ni183  1  -0.00960227  0.93731705  0.50593103  1
  Ni  Ni184  1  0.50888688  0.97370841  0.93291758  1
  Ni  Ni185  1  0.50523123  0.72761098  0.77983774  1
  Ni  Ni186  1  0.09749010  0.93641495  0.37263554  1
  Ni  Ni187  1  0.48196364  0.40102647  0.74422860  1
  Ni  Ni188  1  0.77079471  0.44265189  0.77864162  1
  Ni  Ni189  1  0.88772106  0.18910036  0.73061252  1
  Ni  Ni190  1  0.42575009  0.11999901  0.47837856  1
  Ni  Ni191  1  0.61644073  0.05789914  0.20953157  1
  Ni  Ni192  1  0.62262803  0.84477979  0.02218844  1
  Ni  Ni193  1  0.86852212  0.32634904  0.98060281  1
  Ni  Ni194  1  0.88220475  0.61621828  0.50429552  1
  Ni  Ni195  1  0.25245395  0.07782875  0.87709388  1
  Ni  Ni196  1  0.23392596  0.09764739  0.22060753  1
  Ni  Ni197  1  0.37890321  0.50174779  0.83499793  1
  Ni  Ni198  1  0.61504134  0.25728534  0.79450834  1
  Ni  Ni199  1  0.49454502  0.64458323  0.24017619  1
  Ni  Ni200  1  0.07203561  0.38132808  0.75522627  1
  Ni  Ni201  1  0.08256993  0.52152901  0.87569916  1
  Ni  Ni202  1  0.56702713  0.93401145  0.32705374  1
  Ni  Ni203  1  0.11071895  0.16892397  0.54621532  1
  Ni  Ni204  1  0.76448508  0.62705802  1.01850520  1
  Ni  Ni205  1  0.88817656  0.35583707  0.69247622  1
  Ni  Ni206  1  0.16461061  0.09149081  0.67888273  1
  Ni  Ni207  1  0.24649740  0.92770144  0.43569064  1
  Ni  Ni208  1  0.52566208  0.72497751  0.94202434  1
  Ni  Ni209  1  0.96546348  0.27538361  0.12561575  1
  Ni  Ni210  1  0.51109915  0.80319581  0.18128631  1
  Ni  Ni211  1  0.76002621  0.10415314  0.00684262  1
  Ni  Ni212  1  0.54888986  0.36703722  0.60338971  1
  Ni  Ni213  1  0.26802258  0.78751331  0.63124424  1
  Ni  Ni214  1  0.79564393  0.20252544  0.41729290  1
  Ni  Ni215  1  0.50347147  0.13208091  0.90101410  1
