# generated using pymatgen
data_Ti2CoNi
_symmetry_space_group_name_H-M   'P 1'
_cell_length_a   14.53439763
_cell_length_b   14.54873791
_cell_length_c   14.55487765
_cell_angle_alpha   90.07603828
_cell_angle_beta   89.97587168
_cell_angle_gamma   90.25688547
_symmetry_Int_Tables_number   1
_chemical_formula_structural   Ti2CoNi
_chemical_formula_sum   'Ti108 Co54 Ni54'
_cell_volume   3077.69891707
_cell_formula_units_Z   54
loop_
 _symmetry_equiv_pos_site_id
 _symmetry_equiv_pos_as_xyz
  1  'x, y, z'
loop_
 _atom_site_type_symbol
 _atom_site_label
 _atom_site_symmetry_multiplicity
 _atom_site_fract_x
 _atom_site_fract_y
 _atom_site_fract_z
 _atom_site_occupancy
  Ti  Ti0  1  -0.04762970  0.00777092  -0.01317281  1
  Ti  Ti1  1  -0.00147414  -0.00609260  0.35177072  1
  Ti  Ti2  1  0.05994251  -0.02686843  0.68659352  1
  Ti  Ti3  1  0.01315207  0.33754513  0.03848532  1
  Ti  Ti4  1  0.04472532  0.33246701  0.38231838  1
  Ti  Ti5  1  0.04210954  0.34634526  0.58231172  1
  Ti  Ti6  1  -0.00287191  0.69508069  0.04660616  1
  Ti  Ti7  1  0.02093134  0.60635952  0.37588198  1
  Ti  Ti8  1  -0.09631963  0.73340728  0.65934764  1
  Ti  Ti9  1  0.31805947  -0.01464733  0.02575145  1
  Ti  Ti10  1  0.28850615  0.01234102  0.25454276  1
  Ti  Ti11  1  0.33709258  0.02687716  0.70436350  1
  Ti  Ti12  1  0.30642459  0.34301563  -0.05861353  1
  Ti  Ti13  1  0.31617219  0.37999178  0.29075840  1
  Ti  Ti14  1  0.35204103  0.21608152  0.65709369  1
  Ti  Ti15  1  0.37598668  0.60429967  0.00944020  1
  Ti  Ti16  1  0.32050481  0.61028012  0.34512257  1
  Ti  Ti17  1  0.38006066  0.69887896  0.68512672  1
  Ti  Ti18  1  0.60679810  0.02168866  0.07689081  1
  Ti  Ti19  1  0.60744863  -0.01034346  0.39523595  1
  Ti  Ti20  1  0.67144168  0.03838849  0.69308851  1
  Ti  Ti21  1  0.68098889  0.33758659  -0.07217733  1
  Ti  Ti22  1  0.72550072  0.37706549  0.32867254  1
  Ti  Ti23  1  0.67818293  0.34735097  0.62512737  1
  Ti  Ti24  1  0.64217151  0.66880284  0.03857480  1
  Ti  Ti25  1  0.69048891  0.63231062  0.37225894  1
  Ti  Ti26  1  0.62914759  0.72496573  0.69480759  1
  Ti  Ti27  1  -0.05774905  0.16690500  0.26082057  1
  Ti  Ti28  1  -0.08019323  0.12814380  0.45641879  1
  Ti  Ti29  1  0.03866337  0.14378177  0.82491569  1
  Ti  Ti30  1  0.06550770  0.51901577  0.15044730  1
  Ti  Ti31  1  -0.05197460  0.53576375  0.63950382  1
  Ti  Ti32  1  0.01471877  0.52640320  0.86916337  1
  Ti  Ti33  1  -0.05072969  0.88448602  0.13483398  1
  Ti  Ti34  1  -0.01007712  0.85820699  0.52411165  1
  Ti  Ti35  1  0.06435068  0.79951012  0.82850697  1
  Ti  Ti36  1  0.36558002  0.16868123  0.11554452  1
  Ti  Ti37  1  0.29950448  0.20122342  0.46088494  1
  Ti  Ti38  1  0.24777895  0.20263578  0.82311270  1
  Ti  Ti39  1  0.24783663  0.51935857  0.17002862  1
  Ti  Ti40  1  0.38499446  0.52667359  0.52853930  1
  Ti  Ti41  1  0.30107728  0.60245887  0.83023686  1
  Ti  Ti42  1  0.39282181  0.86491114  0.18175769  1
  Ti  Ti43  1  0.24254627  0.76976867  0.46187864  1
  Ti  Ti44  1  0.36440981  0.77057227  0.86680708  1
  Ti  Ti45  1  0.56632575  0.19715723  0.17552021  1
  Ti  Ti46  1  0.74999174  0.23764584  0.45623743  1
  Ti  Ti47  1  0.62346066  0.09015942  0.87603390  1
  Ti  Ti48  1  0.73243920  0.48476012  0.07264203  1
  Ti  Ti49  1  0.60901167  0.56758870  0.53046120  1
  Ti  Ti50  1  0.70299462  0.56212272  0.88668117  1
  Ti  Ti51  1  0.68815010  0.83057155  0.15185243  1
  Ti  Ti52  1  0.72422869  0.81058199  0.41385530  1
  Ti  Ti53  1  0.67416192  0.76104203  0.87682831  1
  Ti  Ti54  1  0.11169731  0.05298245  0.17450879  1
  Ti  Ti55  1  0.27787760  0.01303644  0.48007496  1
  Ti  Ti56  1  0.22216169  -0.08948578  0.84564822  1
  Ti  Ti57  1  0.18012171  0.24856636  0.12030148  1
  Ti  Ti58  1  0.22487136  0.38154676  0.52309955  1
  Ti  Ti59  1  0.11842423  0.35783593  0.83484660  1
  Ti  Ti60  1  0.27883492  0.70853347  0.15864180  1
  Ti  Ti61  1  0.07457527  0.67674411  0.54821686  1
  Ti  Ti62  1  0.18100265  0.68788310  0.71454004  1
  Ti  Ti63  1  0.47001254  0.08497944  0.27669611  1
  Ti  Ti64  1  0.50501168  0.02178227  0.57088632  1
  Ti  Ti65  1  0.50979649  -0.02553921  0.78148100  1
  Ti  Ti66  1  0.44996491  0.35688306  0.15863677  1
  Ti  Ti67  1  0.44491487  0.33377908  0.46699023  1
  Ti  Ti68  1  0.49741998  0.29420326  0.83170461  1
  Ti  Ti69  1  0.47605799  0.67717341  0.17395645  1
  Ti  Ti70  1  0.42764800  0.71401510  0.47714661  1
  Ti  Ti71  1  0.52041382  0.60737330  0.83646366  1
  Ti  Ti72  1  0.81248794  0.03707389  0.16243241  1
  Ti  Ti73  1  0.76124707  0.04587119  0.53678106  1
  Ti  Ti74  1  0.77477074  -0.04924377  0.85784149  1
  Ti  Ti75  1  0.90138813  0.38551443  0.18456991  1
  Ti  Ti76  1  0.86926758  0.32097181  0.56184464  1
  Ti  Ti77  1  0.83326394  0.29240808  0.75841509  1
  Ti  Ti78  1  0.89265154  0.59283351  0.18129710  1
  Ti  Ti79  1  0.83735231  0.59732261  0.50723399  1
  Ti  Ti80  1  0.88933245  0.69375413  0.86596743  1
  Ti  Ti81  1  0.15105120  0.05517943  -0.02354537  1
  Ti  Ti82  1  0.13884858  0.11607183  0.36837399  1
  Ti  Ti83  1  0.14204812  0.21109729  0.66270585  1
  Ti  Ti84  1  0.18802023  0.52168947  -0.04527284  1
  Ti  Ti85  1  0.16629533  0.48543224  0.34668388  1
  Ti  Ti86  1  0.12667652  0.50089258  0.67924338  1
  Ti  Ti87  1  0.12705120  0.86332334  0.01208953  1
  Ti  Ti88  1  0.15321830  0.91500573  0.38100265  1
  Ti  Ti89  1  0.23976251  0.86019650  0.67002395  1
  Ti  Ti90  1  0.54548390  0.21002242  -0.00008704  1
  Ti  Ti91  1  0.58321430  0.20740834  0.37602832  1
  Ti  Ti92  1  0.55501933  0.19576758  0.67124740  1
  Ti  Ti93  1  0.52554228  0.44285161  -0.00224973  1
  Ti  Ti94  1  0.57045418  0.49431773  0.27402877  1
  Ti  Ti95  1  0.43551945  0.47812782  0.72017508  1
  Ti  Ti96  1  0.49712440  0.87783085  -0.00733829  1
  Ti  Ti97  1  0.54856712  0.79679832  0.32314813  1
  Ti  Ti98  1  0.51240632  0.83789214  0.62992661  1
  Ti  Ti99  1  0.88834257  0.18024196  -0.04935687  1
  Ti  Ti100  1  0.75738119  0.19623038  0.26073818  1
  Ti  Ti101  1  0.91209155  0.13493735  0.66149965  1
  Ti  Ti102  1  0.86340982  0.42168844  -0.09570914  1
  Ti  Ti103  1  0.84321411  0.50707326  0.34193557  1
  Ti  Ti104  1  0.75650981  0.60649033  0.69958423  1
  Ti  Ti105  1  0.81346648  0.78926612  0.01472325  1
  Ti  Ti106  1  0.91442087  0.83465742  0.32113208  1
  Ti  Ti107  1  0.78844203  0.86946861  0.59768802  1
  Co  Co108  1  0.01649262  0.64631960  0.74038986  1
  Co  Co109  1  0.72594871  0.42944539  0.79582334  1
  Co  Co110  1  -0.03383617  0.41615961  0.74722642  1
  Co  Co111  1  0.20470436  0.30035581  0.37244716  1
  Co  Co112  1  0.38901408  0.92929494  0.87756777  1
  Co  Co113  1  0.15455212  0.63674751  0.26027277  1
  Co  Co114  1  0.35187173  0.33954577  0.77849511  1
  Co  Co115  1  0.28397111  0.52808246  0.66451565  1
  Co  Co116  1  0.74137670  0.08231361  0.38098653  1
  Co  Co117  1  0.12316013  0.37877252  0.21623983  1
  Co  Co118  1  0.56415894  0.54733830  0.11291154  1
  Co  Co119  1  0.67142423  0.24428239  0.77431544  1
  Co  Co120  1  0.37009085  0.37156781  0.61049134  1
  Co  Co121  1  0.58944816  0.32836614  0.25879731  1
  Co  Co122  1  0.72638899  0.71101966  0.55882165  1
  Co  Co123  1  0.38456374  0.86931854  0.73185153  1
  Co  Co124  1  0.22568378  0.81534105  0.27264044  1
  Co  Co125  1  0.24558639  0.45831698  0.80905291  1
  Co  Co126  1  0.42430248  0.05680388  0.42826883  1
  Co  Co127  1  0.25578362  0.17815781  -0.00730992  1
  Co  Co128  1  0.84262829  0.93033963  0.44343783  1
  Co  Co129  1  0.78503695  0.11672880  0.78327077  1
  Co  Co130  1  0.28072132  0.66124638  0.57108268  1
  Co  Co131  1  0.30643918  0.06354994  0.87871311  1
  Co  Co132  1  0.58210076  0.74502765  0.49250597  1
  Co  Co133  1  0.99680539  0.46534819  0.29332914  1
  Co  Co134  1  0.56947441  0.43659596  0.83482272  1
  Co  Co135  1  0.75040756  0.18981419  0.63590133  1
  Co  Co136  1  0.64948230  0.88863895  0.74467034  1
  Co  Co137  1  0.52125943  0.63390729  0.36279252  1
  Co  Co138  1  0.64023292  0.90130925  0.54643979  1
  Co  Co139  1  0.81751895  0.32519322  0.01972695  1
  Co  Co140  1  0.50829273  0.63423058  0.63841218  1
  Co  Co141  1  0.22261516  0.90600335  0.13427447  1
  Co  Co142  1  0.40701406  0.47117954  0.88676888  1
  Co  Co143  1  0.97138543  0.30163155  0.87573986  1
  Co  Co144  1  0.61680047  0.52628953  0.71017031  1
  Co  Co145  1  0.73826877  0.19092676  0.91606388  1
  Co  Co146  1  0.86219835  0.54642371  0.79854656  1
  Co  Co147  1  0.49171760  0.88597472  0.46142384  1
  Co  Co148  1  0.37816695  0.75856000  0.31196122  1
  Co  Co149  1  0.45007881  0.93794808  0.31677311  1
  Co  Co150  1  0.21910142  0.35283477  0.68632741  1
  Co  Co151  1  0.76760876  0.68054375  0.14244271  1
  Co  Co152  1  0.06173565  0.80050903  0.67139947  1
  Co  Co153  1  0.75047298  0.32918588  0.16997840  1
  Co  Co154  1  0.06356029  0.49405698  0.51716216  1
  Co  Co155  1  0.85982618  0.01810850  0.30537190  1
  Co  Co156  1  0.32497980  0.89140169  0.38904012  1
  Co  Co157  1  0.61959758  0.33538774  0.08573658  1
  Co  Co158  1  0.12271180  0.76951432  0.13791804  1
  Co  Co159  1  0.39798143  0.20033817  0.93469776  1
  Co  Co160  1  0.62755716  0.68158194  0.22559271  1
  Co  Co161  1  0.99591673  0.26354447  0.71431345  1
  Ni  Ni162  1  0.78457188  0.79399528  0.75743388  1
  Ni  Ni163  1  0.93925359  0.49662167  0.04233150  1
  Ni  Ni164  1  0.44520178  0.01509073  0.12596203  1
  Ni  Ni165  1  0.10609287  0.22683314  0.95190369  1
  Ni  Ni166  1  0.91727592  0.87056681  0.79639299  1
  Ni  Ni167  1  0.11800736  0.20604114  0.49921408  1
  Ni  Ni168  1  0.87700763  0.75016118  0.47177276  1
  Ni  Ni169  1  0.53430802  0.42874063  0.59096939  1
  Ni  Ni170  1  0.82890516  0.60889157  1.00048723  1
  Ni  Ni171  1  0.74780625  0.45555197  0.49234475  1
  Ni  Ni172  1  0.25937066  0.18386993  0.25931631  1
  Ni  Ni173  1  0.44320898  0.48618238  0.37835190  1
  Ni  Ni174  1  0.79611387  0.95923637  0.02440658  1
  Ni  Ni175  1  0.22605314  0.72575159  0.94743725  1
  Ni  Ni176  1  0.47283196  0.05267987  0.95919000  1
  Ni  Ni177  1  0.51945630  0.79758936  0.81453007  1
  Ni  Ni178  1  0.41808014  0.24655425  0.30360165  1
  Ni  Ni179  1  0.36681055  0.89315994  0.56382803  1
  Ni  Ni180  1  0.95876534  0.84144149  0.96000480  1
  Ni  Ni181  1  0.85366009  0.67923364  0.32073637  1
  Ni  Ni182  1  0.09188954  0.22366589  0.25544736  1
  Ni  Ni183  1  0.87227392  0.21369548  0.11978651  1
  Ni  Ni184  1  0.34447699  0.80149095  0.03151554  1
  Ni  Ni185  1  0.45142253  0.13131934  0.79491975  1
  Ni  Ni186  1  0.08913185  0.66403650  0.90384248  1
  Ni  Ni187  1  0.49432062  0.71307498  0.98622906  1
  Ni  Ni188  1  0.20271363  0.55442586  0.49272796  1
  Ni  Ni189  1  0.21009395  0.07880905  0.60908656  1
  Ni  Ni190  1  0.01699126  0.14441012  0.07111786  1
  Ni  Ni191  1  0.06492422  0.77139602  0.39274206  1
  Ni  Ni192  1  0.46267844  0.18042796  0.52621422  1
  Ni  Ni193  1  0.56876583  0.92417028  0.21310457  1
  Ni  Ni194  1  0.07759223  0.03113892  0.51594467  1
  Ni  Ni195  1  0.41116466  0.52209543  0.20445386  1
  Ni  Ni196  1  0.05367691  0.96414853  0.86403472  1
  Ni  Ni197  1  0.62685205  0.14479242  0.52479344  1
  Ni  Ni198  1  0.88397742  0.29754727  0.37080305  1
  Ni  Ni199  1  0.73626425  0.91699035  0.28628817  1
  Ni  Ni200  1  0.92062575  -0.00658276  0.58146718  1
  Ni  Ni201  1  0.71112670  0.17517857  0.08052352  1
  Ni  Ni202  1  0.14726683  0.88491822  0.54782655  1
  Ni  Ni203  1  0.60196696  0.38653293  0.44155639  1
  Ni  Ni204  1  0.08064881  0.89336394  0.22972761  1
  Ni  Ni205  1  0.92851854  0.44121343  0.46123231  1
  Ni  Ni206  1  0.17650040  0.40115889  0.05705275  1
  Ni  Ni207  1  1.00623661  0.71545770  0.23014313  1
  Ni  Ni208  1  0.80785351  0.45025315  0.65921947  1
  Ni  Ni209  1  0.91760290  0.03200583  0.79954937  1
  Ni  Ni210  1  0.72241460  0.54425023  0.22505963  1
  Ni  Ni211  1  0.15909423  0.63475152  0.06648754  1
  Ni  Ni212  1  0.65303003  0.06317682  0.23720819  1
  Ni  Ni213  1  0.34699974  0.44851784  0.05631127  1
  Ni  Ni214  1  0.66321941  0.88141890  0.98880554  1
  Ni  Ni215  1  0.17495726  0.05729590  0.77147422  1
