# generated using pymatgen
data_Ti2CoNi
_symmetry_space_group_name_H-M   'P 1'
_cell_length_a   14.65728353
_cell_length_b   14.63788999
_cell_length_c   14.68263870
_cell_angle_alpha   89.89859218
_cell_angle_beta   89.88833982
_cell_angle_gamma   90.12337714
_symmetry_Int_Tables_number   1
_chemical_formula_structural   Ti2CoNi
_chemical_formula_sum   'Ti108 Co54 Ni54'
_cell_volume   3150.16690721
_cell_formula_units_Z   54
loop_
 _symmetry_equiv_pos_site_id
 _symmetry_equiv_pos_as_xyz
  1  'x, y, z'
loop_
 _atom_site_type_symbol
 _atom_site_label
 _atom_site_symmetry_multiplicity
 _atom_site_fract_x
 _atom_site_fract_y
 _atom_site_fract_z
 _atom_site_occupancy
  Ti  Ti0  1  0.03630828  -0.01644098  0.04257812  1
  Ti  Ti1  1  -0.06116722  -0.00001698  0.27462853  1
  Ti  Ti2  1  0.05028306  0.05394984  0.67706783  1
  Ti  Ti3  1  -0.03004403  0.31110687  -0.02384859  1
  Ti  Ti4  1  -0.06464901  0.37596862  0.34881498  1
  Ti  Ti5  1  -0.08548429  0.30795552  0.67323400  1
  Ti  Ti6  1  0.02171128  0.68727967  -0.05353444  1
  Ti  Ti7  1  0.03166360  0.58977851  0.35026807  1
  Ti  Ti8  1  0.01862291  0.62429225  0.64738878  1
  Ti  Ti9  1  0.36901098  0.02307055  -0.02894920  1
  Ti  Ti10  1  0.37820715  -0.02680249  0.38627481  1
  Ti  Ti11  1  0.32441905  0.10518913  0.63464452  1
  Ti  Ti12  1  0.43651821  0.32327258  0.00461293  1
  Ti  Ti13  1  0.39203771  0.34547023  0.33682966  1
  Ti  Ti14  1  0.32966275  0.34694994  0.55099978  1
  Ti  Ti15  1  0.33902913  0.66596671  -0.00635493  1
  Ti  Ti16  1  0.28857441  0.67459774  0.29457068  1
  Ti  Ti17  1  0.34060699  0.69907020  0.79363606  1
  Ti  Ti18  1  0.60105340  0.03421790  0.02616067  1
  Ti  Ti19  1  0.59324154  -0.10108302  0.35129461  1
  Ti  Ti20  1  0.57937977  0.00780561  0.65150766  1
  Ti  Ti21  1  0.64971491  0.31108120  -0.01414510  1
  Ti  Ti22  1  0.74176373  0.34526017  0.28500705  1
  Ti  Ti23  1  0.62074291  0.25750518  0.66692287  1
  Ti  Ti24  1  0.68179250  0.65955910  -0.04528390  1
  Ti  Ti25  1  0.66446110  0.71075321  0.34222695  1
  Ti  Ti26  1  0.69303661  0.65343788  0.63912560  1
  Ti  Ti27  1  -0.02147537  0.19343859  0.23741781  1
  Ti  Ti28  1  0.01332062  0.10450692  0.46374791  1
  Ti  Ti29  1  0.00991969  0.20282229  0.81826909  1
  Ti  Ti30  1  0.04759013  0.48235314  0.07086265  1
  Ti  Ti31  1  0.01644923  0.48101560  0.51708391  1
  Ti  Ti32  1  -0.03589700  0.55391199  0.80548195  1
  Ti  Ti33  1  -0.00480287  0.76291711  0.24054929  1
  Ti  Ti34  1  -0.01569115  0.89829769  0.45230605  1
  Ti  Ti35  1  0.04293824  0.78286486  0.77155470  1
  Ti  Ti36  1  0.30520755  0.20249481  0.22259177  1
  Ti  Ti37  1  0.31542062  0.16648991  0.45375010  1
  Ti  Ti38  1  0.30768749  0.17315008  0.84751263  1
  Ti  Ti39  1  0.31319352  0.40520998  0.16556835  1
  Ti  Ti40  1  0.32568788  0.54841843  0.52012676  1
  Ti  Ti41  1  0.32541178  0.43355288  0.84149195  1
  Ti  Ti42  1  0.29347112  0.86595831  0.20753517  1
  Ti  Ti43  1  0.37993169  0.75151924  0.53451365  1
  Ti  Ti44  1  0.29004839  0.88697903  0.83289166  1
  Ti  Ti45  1  0.65131003  0.16439182  0.21766074  1
  Ti  Ti46  1  0.67399938  0.22226641  0.43570376  1
  Ti  Ti47  1  0.72169966  0.10220997  0.75449721  1
  Ti  Ti48  1  0.68224234  0.47975479  0.11638856  1
  Ti  Ti49  1  0.62316277  0.48891650  0.50314436  1
  Ti  Ti50  1  0.75738698  0.55539487  0.82056137  1
  Ti  Ti51  1  0.65910191  0.82765992  0.08407278  1
  Ti  Ti52  1  0.61270788  0.82945066  0.53592449  1
  Ti  Ti53  1  0.65289235  0.85945608  0.90449211  1
  Ti  Ti54  1  0.15143492  0.06059405  0.18246930  1
  Ti  Ti55  1  0.17022253  -0.03043515  0.50579163  1
  Ti  Ti56  1  0.10966385  -0.03961878  0.82868854  1
  Ti  Ti57  1  0.14945172  0.32903435  0.25767243  1
  Ti  Ti58  1  0.10024984  0.30053479  0.51320810  1
  Ti  Ti59  1  0.17023418  0.32687020  0.84118557  1
  Ti  Ti60  1  0.15871455  0.65555944  0.08268346  1
  Ti  Ti61  1  0.17943272  0.70967519  0.50078560  1
  Ti  Ti62  1  0.17730911  0.59128556  0.79252960  1
  Ti  Ti63  1  0.44903767  0.07289407  0.16378459  1
  Ti  Ti64  1  0.58741927  0.05235852  0.46824973  1
  Ti  Ti65  1  0.48600456  -0.04941694  0.85412784  1
  Ti  Ti66  1  0.49844377  0.42059416  0.15462041  1
  Ti  Ti67  1  0.52043032  0.32464477  0.48669432  1
  Ti  Ti68  1  0.52921478  0.40496301  0.83313716  1
  Ti  Ti69  1  0.50418535  0.62410736  0.20718822  1
  Ti  Ti70  1  0.52957537  0.64604088  0.52109372  1
  Ti  Ti71  1  0.54576147  0.64757770  0.81308054  1
  Ti  Ti72  1  0.76986867  -0.00358283  0.14435842  1
  Ti  Ti73  1  0.75388864  -0.03388489  0.53877533  1
  Ti  Ti74  1  0.89942924  0.00669645  0.86377637  1
  Ti  Ti75  1  0.87719959  0.37597607  0.15348785  1
  Ti  Ti76  1  0.82263678  0.40515922  0.49727637  1
  Ti  Ti77  1  0.83936486  0.38058372  0.84685825  1
  Ti  Ti78  1  0.80037133  0.74041307  0.19287363  1
  Ti  Ti79  1  0.89504232  0.66969311  0.51549311  1
  Ti  Ti80  1  0.84433227  0.71449796  0.74978367  1
  Ti  Ti81  1  0.15728748  0.17462553  -0.02189776  1
  Ti  Ti82  1  0.16627251  0.14175597  0.35276968  1
  Ti  Ti83  1  0.17898809  0.22377745  0.67854830  1
  Ti  Ti84  1  0.23123808  0.48365694  0.00933829  1
  Ti  Ti85  1  0.18485678  0.52916801  0.23804787  1
  Ti  Ti86  1  0.11840511  0.42516923  0.68147122  1
  Ti  Ti87  1  0.20982318  0.85712010  0.02354647  1
  Ti  Ti88  1  0.14938851  0.83834053  0.34489036  1
  Ti  Ti89  1  0.23617957  0.83618179  0.65282708  1
  Ti  Ti90  1  0.50100401  0.16096177  -0.07923015  1
  Ti  Ti91  1  0.46696175  0.16495331  0.35484199  1
  Ti  Ti92  1  0.48541528  0.14866105  0.73771662  1
  Ti  Ti93  1  0.52919779  0.57055634  0.01401675  1
  Ti  Ti94  1  0.57536402  0.44328487  0.31642837  1
  Ti  Ti95  1  0.43735983  0.51103973  0.68133787  1
  Ti  Ti96  1  0.46615612  0.88020251  0.06600265  1
  Ti  Ti97  1  0.45452497  0.77101700  0.35169979  1
  Ti  Ti98  1  0.43717772  0.88059236  0.67521411  1
  Ti  Ti99  1  0.80438492  0.18667719  -0.08185333  1
  Ti  Ti100  1  0.84618565  0.18590820  0.38081719  1
  Ti  Ti101  1  0.85070208  0.13081788  0.58899511  1
  Ti  Ti102  1  0.84855979  0.57428211  0.06671841  1
  Ti  Ti103  1  0.84495600  0.55685155  0.26332968  1
  Ti  Ti104  1  0.75190493  0.43608730  0.66631317  1
  Ti  Ti105  1  0.86611517  0.87707893  0.01317848  1
  Ti  Ti106  1  0.80357752  0.86967295  0.37384378  1
  Ti  Ti107  1  0.89012462  0.83888858  0.61694120  1
  Co  Co108  1  0.73019797  0.82461405  0.65398025  1
  Co  Co109  1  0.62621527  0.32455662  0.15862706  1
  Co  Co110  1  0.08155317  0.89953693  0.64872983  1
  Co  Co111  1  0.89026808  0.12570535  0.74867093  1
  Co  Co112  1  0.15468598  0.71081357  0.68376661  1
  Co  Co113  1  0.06207052  0.80721261  0.07413814  1
  Co  Co114  1  0.19724892  0.43284302  0.51881108  1
  Co  Co115  1  0.79192194  0.73676436  0.02761879  1
  Co  Co116  1  0.89070524  0.22365168  0.08264383  1
  Co  Co117  1  0.84660490  0.57731000  0.66137008  1
  Co  Co118  1  0.36835328  0.81995480  0.95092631  1
  Co  Co119  1  0.88978064  0.53997465  0.41777794  1
  Co  Co120  1  0.68189984  0.37970256  0.80414514  1
  Co  Co121  1  0.16760073  0.75580677  0.19831779  1
  Co  Co122  1  0.68415682  0.12077876  0.58156188  1
  Co  Co123  1  0.44670745  0.67939896  0.66960300  1
  Co  Co124  1  0.27904447  0.45391558  0.36859079  1
  Co  Co125  1  0.62723759  0.22493880  0.83621050  1
  Co  Co126  1  0.68576902  0.74026750  0.79467909  1
  Co  Co127  1  0.81176773  0.20309079  0.21958891  1
  Co  Co128  1  0.03597653  0.86377802  0.92543510  1
  Co  Co129  1  0.47862347  0.79801900  0.81457425  1
  Co  Co130  1  0.93829495  0.71094135  0.08738166  1
  Co  Co131  1  0.41558982  0.28758701  0.83326508  1
  Co  Co132  1  0.28368842  0.30437517  0.96296654  1
  Co  Co133  1  0.86499275  0.64312863  0.91655634  1
  Co  Co134  1  0.45120786  0.47157693  0.44426641  1
  Co  Co135  1  0.76350811  0.56658080  0.52140569  1
  Co  Co136  1  0.27416286  0.48860690  0.68389761  1
  Co  Co137  1  0.18142531  0.57063535  0.41810860  1
  Co  Co138  1  0.66273638  0.66279607  0.12392010  1
  Co  Co139  1  0.57243257  0.76603309  0.67584029  1
  Co  Co140  1  0.55152480  0.59547592  0.36686967  1
  Co  Co141  1  0.62398605  0.89797845  0.75090189  1
  Co  Co142  1  0.67992371  0.57088123  0.25162193  1
  Co  Co143  1  0.12593366  0.35190156  0.99152463  1
  Co  Co144  1  0.03347216  0.32112476  0.13336540  1
  Co  Co145  1  0.16095364  0.56751268  0.59568219  1
  Co  Co146  1  0.22756975  0.29848773  0.40290649  1
  Co  Co147  1  0.91359154  0.06511187  0.12092872  1
  Co  Co148  1  0.57436281  0.28285433  0.31468379  1
  Co  Co149  1  0.29267042  0.33065193  0.71400502  1
  Co  Co150  1  0.93748314  -0.01147246  0.58373251  1
  Co  Co151  1  0.77873894  0.25839609  0.75391141  1
  Co  Co152  1  0.10743581  0.42677479  0.38210302  1
  Co  Co153  1  0.29408250  0.65297148  0.64218558  1
  Co  Co154  1  0.04475035  0.25851410  0.37202532  1
  Co  Co155  1  0.39753091  0.62511605  0.39735309  1
  Co  Co156  1  0.40282338  0.50968005  0.27883360  1
  Co  Co157  1  0.95066461  0.92171754  0.74668763  1
  Co  Co158  1  0.94624547  0.45776142  0.67275534  1
  Co  Co159  1  0.87026895  1.02491141  0.43304505  1
  Co  Co160  1  0.92529693  0.88768267  0.15883003  1
  Co  Co161  1  0.80161944  -0.02069663  0.69254172  1
  Ni  Ni162  1  0.89901036  0.80476472  0.87021799  1
  Ni  Ni163  1  0.92861408  0.27072165  0.50021739  1
  Ni  Ni164  1  0.40295795  0.74616181  0.13966493  1
  Ni  Ni165  1  0.73761607  0.48688692  0.37507022  1
  Ni  Ni166  1  0.30487173  0.04428160  0.26454281  1
  Ni  Ni167  1  0.36014540  0.17896235  0.05552210  1
  Ni  Ni168  1  0.51818969  0.74121607  0.97753717  1
  Ni  Ni169  1  0.19623224  0.74642046  0.88976757  1
  Ni  Ni170  1  0.47363597  0.89212502  0.49246475  1
  Ni  Ni171  1  0.01883973  0.19846282  0.62094692  1
  Ni  Ni172  1  0.15699176  0.12152690  0.81122502  1
  Ni  Ni173  1  0.09784286  0.49642837  0.90374324  1
  Ni  Ni174  1  0.61510173  0.52351847  0.73698337  1
  Ni  Ni175  1  0.86422834  0.71120913  0.35519698  1
  Ni  Ni176  1  0.56038650  0.78834047  0.21435238  1
  Ni  Ni177  1  0.76411149  0.27304940  0.58027614  1
  Ni  Ni178  1  1.02210811  0.45166963  0.23636249  1
  Ni  Ni179  1  0.74325789  0.14336945  0.06809336  1
  Ni  Ni180  1  0.16721207  0.13211280  0.54099541  1
  Ni  Ni181  1  0.09310870  0.90613132  0.19821524  1
  Ni  Ni182  1  0.39270200  0.48257596  0.02627950  1
  Ni  Ni183  1  0.21374298  0.99854642  0.69099818  1
  Ni  Ni184  1  0.32385604  0.93955724  0.55611605  1
  Ni  Ni185  1  0.65825937  0.48148377  0.93984254  1
  Ni  Ni186  1  0.79935299  0.39841972  0.00840474  1
  Ni  Ni187  1  0.44937592  0.91323795  0.24189199  1
  Ni  Ni188  1  0.55504864  0.19649529  0.07325941  1
  Ni  Ni189  1  0.20715154  0.27279942  0.10677673  1
  Ni  Ni190  1  0.20543732  0.01926705  0.95023521  1
  Ni  Ni191  1  0.28651737  1.00472032  0.10544524  1
  Ni  Ni192  1  0.44987877  0.31540206  0.67541557  1
  Ni  Ni193  1  0.93259099  0.48644663  0.95057535  1
  Ni  Ni194  1  0.32699081  0.58742136  0.14850132  1
  Ni  Ni195  1  0.00768653  0.60115409  0.17962518  1
  Ni  Ni196  1  0.09019475  -0.00530913  0.34279315  1
  Ni  Ni197  1  0.00886635  0.38360790  0.81814088  1
  Ni  Ni198  1  0.36025482  0.02897196  0.77952616  1
  Ni  Ni199  1  0.57463589  0.41032971  0.63737532  1
  Ni  Ni200  1  0.41732270  0.56169580  0.88088268  1
  Ni  Ni201  1  0.58940295  0.96008532  0.17047264  1
  Ni  Ni202  1  0.72485730  0.05451478  0.36113034  1
  Ni  Ni203  1  0.28865740  0.83682353  0.42696991  1
  Ni  Ni204  1  0.05178706  0.16519971  0.09597880  1
  Ni  Ni205  1  1.04029779  0.77132532  0.57123152  1
  Ni  Ni206  1  0.75485986  0.75615434  0.49113885  1
  Ni  Ni207  1  0.56394986  0.04977554  0.30005401  1
  Ni  Ni208  1  0.61785116  0.04265332  0.85856192  1
  Ni  Ni209  1  0.75363564  1.00237493  0.96092284  1
  Ni  Ni210  1  0.96685762  0.13023498  0.96262479  1
  Ni  Ni211  1  0.43760838  0.04798037  0.52633177  1
  Ni  Ni212  1  0.02583517  0.74230893  0.41330830  1
  Ni  Ni213  1  0.70954565  0.87152684  0.24171422  1
  Ni  Ni214  1  0.46045106  0.25385624  0.19282684  1
  Ni  Ni215  1  0.45827377  0.19802920  0.56247726  1
