# generated using pymatgen
data_Ti2CoNi
_symmetry_space_group_name_H-M   'P 1'
_cell_length_a   14.54962358
_cell_length_b   14.53649036
_cell_length_c   14.50205974
_cell_angle_alpha   89.90950950
_cell_angle_beta   90.13399500
_cell_angle_gamma   89.89675893
_symmetry_Int_Tables_number   1
_chemical_formula_structural   Ti2CoNi
_chemical_formula_sum   'Ti108 Co54 Ni54'
_cell_volume   3067.17513558
_cell_formula_units_Z   54
loop_
 _symmetry_equiv_pos_site_id
 _symmetry_equiv_pos_as_xyz
  1  'x, y, z'
loop_
 _atom_site_type_symbol
 _atom_site_label
 _atom_site_symmetry_multiplicity
 _atom_site_fract_x
 _atom_site_fract_y
 _atom_site_fract_z
 _atom_site_occupancy
  Ti  Ti0  1  -0.02424483  0.04594040  0.04957411  1
  Ti  Ti1  1  0.06187198  -0.00880428  0.34583061  1
  Ti  Ti2  1  0.03222290  -0.06981514  0.67143436  1
  Ti  Ti3  1  0.01713734  0.33798868  -0.00177210  1
  Ti  Ti4  1  -0.00875162  0.28770257  0.30490123  1
  Ti  Ti5  1  0.00319503  0.28052211  0.65542165  1
  Ti  Ti6  1  0.05750542  0.64152221  0.02923820  1
  Ti  Ti7  1  -0.00525489  0.65662995  0.28259865  1
  Ti  Ti8  1  0.02824163  0.59983117  0.66151287  1
  Ti  Ti9  1  0.39414794  0.04917661  0.08564286  1
  Ti  Ti10  1  0.30345353  -0.04572686  0.37137742  1
  Ti  Ti11  1  0.22746304  0.01204405  0.69035128  1
  Ti  Ti12  1  0.35370080  0.30881835  0.00896103  1
  Ti  Ti13  1  0.31034794  0.30184312  0.27258257  1
  Ti  Ti14  1  0.28829698  0.41090890  0.70291852  1
  Ti  Ti15  1  0.40763764  0.65208471  -0.01098424  1
  Ti  Ti16  1  0.36554579  0.70262164  0.34016586  1
  Ti  Ti17  1  0.35849082  0.59514272  0.65344201  1
  Ti  Ti18  1  0.60677371  0.00727471  -0.07534575  1
  Ti  Ti19  1  0.70082731  -0.04409819  0.39424071  1
  Ti  Ti20  1  0.70880771  0.03152807  0.58797861  1
  Ti  Ti21  1  0.65670089  0.32699953  -0.03775168  1
  Ti  Ti22  1  0.59844537  0.27014792  0.29425721  1
  Ti  Ti23  1  0.68984743  0.31604930  0.69870197  1
  Ti  Ti24  1  0.59765951  0.69062209  -0.02593351  1
  Ti  Ti25  1  0.69269785  0.65753591  0.29149100  1
  Ti  Ti26  1  0.71690888  0.68733053  0.67839154  1
  Ti  Ti27  1  0.00205751  0.12432221  0.20582937  1
  Ti  Ti28  1  -0.05336756  0.16962415  0.47319265  1
  Ti  Ti29  1  -0.01858804  0.08223250  0.87905756  1
  Ti  Ti30  1  -0.06270763  0.50979375  0.14820448  1
  Ti  Ti31  1  -0.01133281  0.45907063  0.55037801  1
  Ti  Ti32  1  0.00858178  0.49289922  0.81685015  1
  Ti  Ti33  1  0.01038613  0.87634830  0.15579464  1
  Ti  Ti34  1  -0.04533735  0.85387166  0.48064340  1
  Ti  Ti35  1  0.03577194  0.82790580  0.87963419  1
  Ti  Ti36  1  0.26096733  0.18818399  0.11690460  1
  Ti  Ti37  1  0.34570938  0.14736646  0.51815464  1
  Ti  Ti38  1  0.29987030  0.23820554  0.81546343  1
  Ti  Ti39  1  0.35966360  0.45436850  0.19227629  1
  Ti  Ti40  1  0.35969975  0.40875005  0.47956215  1
  Ti  Ti41  1  0.30831967  0.55646991  0.85674936  1
  Ti  Ti42  1  0.33520992  0.87615311  0.20142105  1
  Ti  Ti43  1  0.23545123  0.87013429  0.57492225  1
  Ti  Ti44  1  0.34701831  0.77793729  0.87218075  1
  Ti  Ti45  1  0.68505762  0.12252225  0.21210359  1
  Ti  Ti46  1  0.59109043  0.13936417  0.43792830  1
  Ti  Ti47  1  0.75333315  0.19654215  0.87310919  1
  Ti  Ti48  1  0.59038507  0.49760143  0.22624764  1
  Ti  Ti49  1  0.67888145  0.53808716  0.43819731  1
  Ti  Ti50  1  0.68686173  0.53057904  0.83901477  1
  Ti  Ti51  1  0.61636827  0.78398600  0.15418361  1
  Ti  Ti52  1  0.76548898  0.83175522  0.51940280  1
  Ti  Ti53  1  0.68085416  0.85320832  0.82522527  1
  Ti  Ti54  1  0.16801943  0.01853210  0.10694331  1
  Ti  Ti55  1  0.09959244  0.09073314  0.54461192  1
  Ti  Ti56  1  0.26050411  -0.04546398  0.90861082  1
  Ti  Ti57  1  0.14887556  0.34029162  0.18248436  1
  Ti  Ti58  1  0.14008222  0.35921841  0.41003952  1
  Ti  Ti59  1  0.17710423  0.38130518  0.86200470  1
  Ti  Ti60  1  0.16386971  0.56590380  0.19748359  1
  Ti  Ti61  1  0.27577656  0.70000152  0.52656025  1
  Ti  Ti62  1  0.14008358  0.66406898  0.84143000  1
  Ti  Ti63  1  0.56992643  -0.02586405  0.13407021  1
  Ti  Ti64  1  0.55084745  -0.07522310  0.49783757  1
  Ti  Ti65  1  0.51264385  0.00911156  0.76971676  1
  Ti  Ti66  1  0.52189893  0.39075392  0.07201038  1
  Ti  Ti67  1  0.50925270  0.26997489  0.56254426  1
  Ti  Ti68  1  0.47875776  0.31161380  0.75752223  1
  Ti  Ti69  1  0.46895132  0.66660807  0.17743896  1
  Ti  Ti70  1  0.47944224  0.71094570  0.50155360  1
  Ti  Ti71  1  0.51918320  0.78956806  0.76379895  1
  Ti  Ti72  1  0.82842377  0.01021600  0.22441807  1
  Ti  Ti73  1  0.86198928  0.01394007  0.46412459  1
  Ti  Ti74  1  0.81418922  0.00857434  0.76140687  1
  Ti  Ti75  1  0.73628558  0.34680986  0.15456926  1
  Ti  Ti76  1  0.75577851  0.39643890  0.52053883  1
  Ti  Ti77  1  0.91600089  0.31783040  0.82529351  1
  Ti  Ti78  1  0.75995486  0.62031287  0.11326244  1
  Ti  Ti79  1  0.82147909  0.65398823  0.48323917  1
  Ti  Ti80  1  0.81760663  0.71817520  0.83801545  1
  Ti  Ti81  1  0.15820550  0.13136835  -0.07862453  1
  Ti  Ti82  1  0.23422506  0.12567340  0.36073456  1
  Ti  Ti83  1  0.07671782  0.13046139  0.72861840  1
  Ti  Ti84  1  0.23644178  0.47360572  0.03334214  1
  Ti  Ti85  1  0.13809153  0.57574676  0.39287299  1
  Ti  Ti86  1  0.19157366  0.50585093  0.56514862  1
  Ti  Ti87  1  0.18550426  0.81237311  0.04742902  1
  Ti  Ti88  1  0.17673289  0.80482182  0.38401615  1
  Ti  Ti89  1  0.19664035  0.82957533  0.76148820  1
  Ti  Ti90  1  0.56315084  0.15944695  0.01799616  1
  Ti  Ti91  1  0.41791615  0.16079508  0.31189776  1
  Ti  Ti92  1  0.39990385  0.11949032  0.68800825  1
  Ti  Ti93  1  0.51197556  0.51491588  -0.10355137  1
  Ti  Ti94  1  0.53490354  0.43001741  0.40231744  1
  Ti  Ti95  1  0.56438607  0.54527045  0.68350848  1
  Ti  Ti96  1  0.47472859  0.84623092  0.01301294  1
  Ti  Ti97  1  0.50133362  0.88612642  0.32119729  1
  Ti  Ti98  1  0.43098688  0.85770111  0.61883142  1
  Ti  Ti99  1  0.80523925  0.17471386  0.07146453  1
  Ti  Ti100  1  0.80283053  0.27631245  0.38636697  1
  Ti  Ti101  1  0.82251850  0.20562194  0.60629779  1
  Ti  Ti102  1  0.80681598  0.46091712  -0.00482598  1
  Ti  Ti103  1  0.85574715  0.51745407  0.34014051  1
  Ti  Ti104  1  0.83311964  0.50116156  0.70386631  1
  Ti  Ti105  1  0.88421941  0.80618748  -0.00017869  1
  Ti  Ti106  1  0.82302708  0.81385399  0.20089294  1
  Ti  Ti107  1  0.89392988  0.78697332  0.67869994  1
  Co  Co108  1  0.06448596  0.45531555  0.25732793  1
  Co  Co109  1  -0.01125049  0.44258365  0.38935113  1
  Co  Co110  1  0.71043190  0.13496221  0.72430552  1
  Co  Co111  1  0.88302445  0.90513687  0.33704037  1
  Co  Co112  1  0.62676124  0.85818504  0.98607193  1
  Co  Co113  1  0.63689005  0.30570266  0.45125145  1
  Co  Co114  1  0.89045879  0.62623921  0.00582894  1
  Co  Co115  1  0.26798748  0.04158861  0.22039329  1
  Co  Co116  1  0.97327732  0.66940887  0.85933874  1
  Co  Co117  1  0.56174206  0.18192262  0.68929010  1
  Co  Co118  1  0.11226470  0.66089609  0.53422381  1
  Co  Co119  1  0.92043760  0.10108191  0.33271706  1
  Co  Co120  1  0.22469659  1.01874477  0.49022639  1
  Co  Co121  1  0.33009627  0.89543389  0.03555078  1
  Co  Co122  1  0.95540859  0.71019722  0.55493866  1
  Co  Co123  1  0.24581453  0.45349286  0.32465808  1
  Co  Co124  1  0.44273444  0.64645918  0.79684498  1
  Co  Co125  1  0.31580946  0.07416434  0.81641461  1
  Co  Co126  1  0.10831718  0.25333574  0.53773741  1
  Co  Co127  1  0.36084404  0.27651343  0.64275734  1
  Co  Co128  1  0.42816358  1.00240845  0.92838395  1
  Co  Co129  1  0.36569039  0.91740509  0.75824450  1
  Co  Co130  1  0.23285021  0.33724366  0.56732539  1
  Co  Co131  1  0.48044891  0.36697436  0.24872068  1
  Co  Co132  1  0.71105610  0.40486563  0.33724362  1
  Co  Co133  1  0.66878835  0.19597026  0.56785097  1
  Co  Co134  1  0.36607947  0.98531046  0.56102116  1
  Co  Co135  1  0.08560740  0.46183333  0.09101736  1
  Co  Co136  1  0.09236325  0.73340670  0.16830290  1
  Co  Co137  1  0.23340713  0.16693483  0.64554654  1
  Co  Co138  1  0.19435805  0.67116510  0.67366351  1
  Co  Co139  1  0.03885746  0.73824151  0.41361273  1
  Co  Co140  1  0.06423504  0.25214387  0.84715538  1
  Co  Co141  1  0.83493122  0.07552985  0.93135622  1
  Co  Co142  1  0.61220990  0.66745356  0.81510612  1
  Co  Co143  1  0.75650731  0.49914665  0.21163069  1
  Co  Co144  1  0.76822655  0.93254398  0.93484549  1
  Co  Co145  1  0.95202528  0.31849137  0.48301727  1
  Co  Co146  1  0.08628314  0.42597535  0.68445828  1
  Co  Co147  1  0.70762150  0.05424457  0.04013523  1
  Co  Co148  1  0.74368272  0.63774928  0.94593803  1
  Co  Co149  1  0.12301602  0.52329869  0.93241036  1
  Co  Co150  1  0.66334404  0.48441547  0.04652362  1
  Co  Co151  1  0.60024447  0.26574737  0.12990033  1
  Co  Co152  1  0.36626656  0.83460406  0.45086651  1
  Co  Co153  1  0.74246163  0.76514089  0.04425165  1
  Co  Co154  1  0.17750928  0.52769903  0.76079795  1
  Co  Co155  1  0.85914930  0.95796689  0.06905303  1
  Co  Co156  1  0.97125574  0.59122149  0.45107020  1
  Co  Co157  1  0.71558409  0.91233954  0.10547385  1
  Co  Co158  1  0.96451211  0.48640119  0.97635394  1
  Co  Co159  1  0.66910930  0.90548905  0.25644083  1
  Co  Co160  1  0.46092515  0.27832139  0.40748058  1
  Co  Co161  1  0.87195224  0.94304527  0.61351396  1
  Ni  Ni162  1  0.85636296  0.54793127  0.86317025  1
  Ni  Ni163  1  0.42683679  0.53970551  0.31681499  1
  Ni  Ni164  1  0.54332538  0.73940799  0.30032856  1
  Ni  Ni165  1  0.44399157  0.17983074  0.89185205  1
  Ni  Ni166  1  0.62503363  0.78169626  0.43322251  1
  Ni  Ni167  1  0.83326747  0.20780150  0.23974089  1
  Ni  Ni168  1  0.74749590  0.86383895  0.67851529  1
  Ni  Ni169  1  0.33267314  0.74926268  0.10916457  1
  Ni  Ni170  1  0.94337529  0.08516852  0.62136701  1
  Ni  Ni171  1  0.59298795  0.18263406  0.84599529  1
  Ni  Ni172  1  0.52432857  0.07172170  0.57875305  1
  Ni  Ni173  1  0.88722332  0.88031279  0.83185259  1
  Ni  Ni174  1  0.09845482  0.92083072  0.49951726  1
  Ni  Ni175  1  0.60327469  0.38847137  0.81882855  1
  Ni  Ni176  1  0.54824068  0.61409511  0.38937656  1
  Ni  Ni177  1  0.31110026  0.56504714  0.43742509  1
  Ni  Ni178  1  0.52052621  0.13036699  0.18282739  1
  Ni  Ni179  1  0.76856370  0.37951884  0.83973692  1
  Ni  Ni180  1  0.05027656  0.75480962  0.70980574  1
  Ni  Ni181  1  0.87415980  0.38132380  0.24181552  1
  Ni  Ni182  1  0.16397892  0.28725655  0.71517107  1
  Ni  Ni183  1  0.84521070  0.30488280  0.98526435  1
  Ni  Ni184  1  0.31389281  0.13114028  0.96743609  1
  Ni  Ni185  1  0.16766948  0.88204616  0.23060932  1
  Ni  Ni186  1  0.07976144  0.18802462  0.06794460  1
  Ni  Ni187  1  0.23574433  0.65622049  0.99444643  1
  Ni  Ni188  1  0.57497066  0.03948945  0.31056693  1
  Ni  Ni189  1  0.53646682  0.56759658  0.07384564  1
  Ni  Ni190  1  0.28707386  0.26719515  0.42748094  1
  Ni  Ni191  1  0.08029061  0.17096892  0.38374320  1
  Ni  Ni192  1  0.60017988  0.92666879  0.66267436  1
  Ni  Ni193  1  0.75556927  0.11945733  0.37503080  1
  Ni  Ni194  1  0.23069398  0.71524232  0.25256069  1
  Ni  Ni195  1  0.10454781  -0.02218795  0.81440837  1
  Ni  Ni196  1  0.42599057  0.25069263  0.14532438  1
  Ni  Ni197  1  0.94192384  0.27123739  0.12900868  1
  Ni  Ni198  1  0.77155632  0.78079633  0.35641484  1
  Ni  Ni199  1  0.44385131  0.03149726  0.42341045  1
  Ni  Ni200  1  0.09461982  0.95210102  0.97553200  1
  Ni  Ni201  1  0.58369143  0.42084983  0.57384064  1
  Ni  Ni202  1  0.39827143  0.48718175  0.01998829  1
  Ni  Ni203  1  0.15175073  0.17712126  0.23107025  1
  Ni  Ni204  1  0.33637790  0.75421420  0.70260133  1
  Ni  Ni205  1  0.88760671  0.16367006  0.76080248  1
  Ni  Ni206  1  0.71173109  0.54060169  0.60179237  1
  Ni  Ni207  1  0.18355894  0.30235074  0.00847261  1
  Ni  Ni208  1  0.37374723  0.39324890  0.87451491  1
  Ni  Ni209  1  0.93331397  0.70437576  0.13658782  1
  Ni  Ni210  1  0.42583391  1.01255092  0.24900796  1
  Ni  Ni211  1  0.31694286  0.59678449  0.13702461  1
  Ni  Ni212  1  0.43176078  0.48001396  0.75038013  1
  Ni  Ni213  1  0.86617288  0.36494741  0.63375335  1
  Ni  Ni214  1  0.46124436  0.54256039  0.51785465  1
  Ni  Ni215  1  0.60079433  0.77319746  0.60198775  1
