# generated using pymatgen
data_Ti2CoNi
_symmetry_space_group_name_H-M   'P 1'
_cell_length_a   14.59329721
_cell_length_b   14.48466009
_cell_length_c   14.56459807
_cell_angle_alpha   89.89867239
_cell_angle_beta   90.17870292
_cell_angle_gamma   89.94531630
_symmetry_Int_Tables_number   1
_chemical_formula_structural   Ti2CoNi
_chemical_formula_sum   'Ti108 Co54 Ni54'
_cell_volume   3078.62823531
_cell_formula_units_Z   54
loop_
 _symmetry_equiv_pos_site_id
 _symmetry_equiv_pos_as_xyz
  1  'x, y, z'
loop_
 _atom_site_type_symbol
 _atom_site_label
 _atom_site_symmetry_multiplicity
 _atom_site_fract_x
 _atom_site_fract_y
 _atom_site_fract_z
 _atom_site_occupancy
  Ti  Ti0  1  0.02212403  0.00367812  0.03635001  1
  Ti  Ti1  1  -0.03249712  -0.02077246  0.39859053  1
  Ti  Ti2  1  0.02506220  -0.06122712  0.73504840  1
  Ti  Ti3  1  -0.05566888  0.29061730  -0.06111362  1
  Ti  Ti4  1  0.03214315  0.27260816  0.27519330  1
  Ti  Ti5  1  0.01971043  0.33257330  0.63034936  1
  Ti  Ti6  1  0.00041246  0.61671146  -0.02112917  1
  Ti  Ti7  1  -0.13924947  0.65273961  0.32771691  1
  Ti  Ti8  1  0.01148045  0.64025025  0.64578904  1
  Ti  Ti9  1  0.31974634  0.03067989  0.02557839  1
  Ti  Ti10  1  0.26865900  -0.06902133  0.32832232  1
  Ti  Ti11  1  0.31921398  0.00845305  0.71622234  1
  Ti  Ti12  1  0.29763851  0.38169390  -0.00672372  1
  Ti  Ti13  1  0.29693587  0.31669585  0.26716875  1
  Ti  Ti14  1  0.28434576  0.31404868  0.66213097  1
  Ti  Ti15  1  0.36071539  0.71879069  -0.00311874  1
  Ti  Ti16  1  0.31079293  0.61906169  0.45079921  1
  Ti  Ti17  1  0.43864846  0.65702480  0.68967193  1
  Ti  Ti18  1  0.64543200  -0.08179160  -0.01970206  1
  Ti  Ti19  1  0.68992366  0.04466339  0.26952435  1
  Ti  Ti20  1  0.60153504  -0.00220745  0.68072891  1
  Ti  Ti21  1  0.67758456  0.38992474  -0.03215692  1
  Ti  Ti22  1  0.72764734  0.36536165  0.33442142  1
  Ti  Ti23  1  0.68918059  0.26300109  0.63409682  1
  Ti  Ti24  1  0.69281612  0.59390349  0.03944073  1
  Ti  Ti25  1  0.64033587  0.71684224  0.31213666  1
  Ti  Ti26  1  0.64284192  0.64197659  0.61318044  1
  Ti  Ti27  1  0.01437648  0.17280871  0.10739885  1
  Ti  Ti28  1  0.01258654  0.15264534  0.53383383  1
  Ti  Ti29  1  0.00976389  0.16102346  0.79549402  1
  Ti  Ti30  1  -0.00825516  0.58185896  0.16626261  1
  Ti  Ti31  1  0.05229106  0.50962245  0.52157347  1
  Ti  Ti32  1  -0.05104396  0.48424628  0.83838002  1
  Ti  Ti33  1  -0.03402061  0.87365938  0.20042849  1
  Ti  Ti34  1  0.03112985  0.82931459  0.56088461  1
  Ti  Ti35  1  0.06316193  0.75865137  0.83234881  1
  Ti  Ti36  1  0.31471736  0.19724382  0.12393932  1
  Ti  Ti37  1  0.33103564  0.21080781  0.46542483  1
  Ti  Ti38  1  0.38610967  0.22107430  0.84367800  1
  Ti  Ti39  1  0.32386351  0.48618435  0.16484591  1
  Ti  Ti40  1  0.33193902  0.43382162  0.50650932  1
  Ti  Ti41  1  0.34850923  0.48007853  0.76869566  1
  Ti  Ti42  1  0.31249952  0.79561555  0.18483903  1
  Ti  Ti43  1  0.37762631  0.81805371  0.48076233  1
  Ti  Ti44  1  0.31107010  0.81953707  0.83043518  1
  Ti  Ti45  1  0.70503210  0.22101864  0.09131700  1
  Ti  Ti46  1  0.67839331  0.15708122  0.43295400  1
  Ti  Ti47  1  0.58133328  0.22891470  0.81168773  1
  Ti  Ti48  1  0.60956434  0.51593559  0.18254307  1
  Ti  Ti49  1  0.63110105  0.53240539  0.45896417  1
  Ti  Ti50  1  0.73052051  0.54493229  0.78099712  1
  Ti  Ti51  1  0.75535795  0.87849987  0.17214537  1
  Ti  Ti52  1  0.62673459  0.81430153  0.47454994  1
  Ti  Ti53  1  0.72761925  0.83274911  0.82898902  1
  Ti  Ti54  1  0.17618082  -0.07058535  0.14670867  1
  Ti  Ti55  1  0.18670384  0.04570152  0.48944270  1
  Ti  Ti56  1  0.16698849  0.02078027  0.88221308  1
  Ti  Ti57  1  0.13577859  0.39257063  0.15264203  1
  Ti  Ti58  1  0.08820999  0.31861989  0.44993963  1
  Ti  Ti59  1  0.11717688  0.38464573  0.89311103  1
  Ti  Ti60  1  0.11558520  0.72497848  0.13948109  1
  Ti  Ti61  1  0.13766660  0.69227730  0.47756367  1
  Ti  Ti62  1  0.23875957  0.65367392  0.76168544  1
  Ti  Ti63  1  0.56144258  -0.02199017  0.15563339  1
  Ti  Ti64  1  0.49428869  -0.00665650  0.51104075  1
  Ti  Ti65  1  0.45274281  -0.06350331  0.86662731  1
  Ti  Ti66  1  0.55272314  0.32026605  0.19865116  1
  Ti  Ti67  1  0.56938128  0.35718059  0.50115645  1
  Ti  Ti68  1  0.48068565  0.38507307  0.89029489  1
  Ti  Ti69  1  0.49271286  0.69681164  0.18575251  1
  Ti  Ti70  1  0.49253040  0.66116354  0.46009556  1
  Ti  Ti71  1  0.45655040  0.59873721  0.88562760  1
  Ti  Ti72  1  0.83917222  0.08679173  0.15526212  1
  Ti  Ti73  1  0.82853225  0.04287260  0.57218510  1
  Ti  Ti74  1  0.82247273  0.03412695  0.77961124  1
  Ti  Ti75  1  0.84806874  0.28756891  0.22418526  1
  Ti  Ti76  1  0.77421149  0.36892174  0.50804929  1
  Ti  Ti77  1  0.77943420  0.25017557  0.82187351  1
  Ti  Ti78  1  0.81148048  0.50501089  0.21389503  1
  Ti  Ti79  1  0.83588130  0.71559267  0.56029917  1
  Ti  Ti80  1  0.87939215  0.68771601  0.83167150  1
  Ti  Ti81  1  0.21959148  0.20875340  -0.04818734  1
  Ti  Ti82  1  0.19723061  0.16043060  0.32421084  1
  Ti  Ti83  1  0.21823029  0.16804969  0.75778121  1
  Ti  Ti84  1  0.16827202  0.54389235  0.03518397  1
  Ti  Ti85  1  0.17195615  0.59028411  0.27985883  1
  Ti  Ti86  1  0.14540538  0.47647203  0.72405266  1
  Ti  Ti87  1  0.18782442  0.83751392  -0.02244335  1
  Ti  Ti88  1  0.08556483  0.82932181  0.34349166  1
  Ti  Ti89  1  0.22532410  0.86416128  0.62973225  1
  Ti  Ti90  1  0.53725296  0.10673613  -0.02771568  1
  Ti  Ti91  1  0.50265976  0.11711825  0.35035544  1
  Ti  Ti92  1  0.45461636  0.17544861  0.65095742  1
  Ti  Ti93  1  0.49059956  0.45072944  0.05147821  1
  Ti  Ti94  1  0.43646633  0.45863968  0.34793747  1
  Ti  Ti95  1  0.54204777  0.49401700  0.73135623  1
  Ti  Ti96  1  0.55382943  0.76036197  -0.03505745  1
  Ti  Ti97  1  0.46804538  0.90113304  0.31809995  1
  Ti  Ti98  1  0.43140918  0.87186024  0.67462523  1
  Ti  Ti99  1  0.85007568  0.12248234  -0.03517657  1
  Ti  Ti100  1  0.86340557  0.13992180  0.35430559  1
  Ti  Ti101  1  0.87384328  0.21752691  0.66365475  1
  Ti  Ti102  1  0.85567917  0.44809046  0.04366648  1
  Ti  Ti103  1  0.94153321  0.44446813  0.37263915  1
  Ti  Ti104  1  0.82236801  0.40851082  0.69435290  1
  Ti  Ti105  1  0.77833715  0.77487702  0.01800038  1
  Ti  Ti106  1  0.79600622  0.83622428  0.36274064  1
  Ti  Ti107  1  0.80403455  0.87430199  0.66597188  1
  Co  Co108  1  0.13026078  0.74708692  0.67565206  1
  Co  Co109  1  0.86777426  0.94325254  0.06563762  1
  Co  Co110  1  0.33968571  0.87244153  0.02457528  1
  Co  Co111  1  0.85017765  0.97483483  0.27490215  1
  Co  Co112  1  0.44411661  0.09007741  0.11495700  1
  Co  Co113  1  0.41720889  0.23106530  0.99461657  1
  Co  Co114  1  0.91583497  0.42563101  0.54448070  1
  Co  Co115  1  0.16213540  0.22750258  0.17079244  1
  Co  Co116  1  0.81240233  0.40031804  0.87183784  1
  Co  Co117  1  0.04418890  0.84333065  0.05758191  1
  Co  Co118  1  0.23349302  0.33616070  0.41641556  1
  Co  Co119  1  0.80019480  0.50208000  0.40568178  1
  Co  Co120  1  0.45478044  0.75751119  0.82652875  1
  Co  Co121  1  0.17622232  0.40399010  0.58100331  1
  Co  Co122  1  0.42663450  0.33977350  0.74454313  1
  Co  Co123  1  0.42952747  0.30881270  0.40420168  1
  Co  Co124  1  0.26568845  0.34872433  0.82845680  1
  Co  Co125  1  0.57984900  0.14519610  0.17222246  1
  Co  Co126  1  0.68386464  0.18820239  0.93308613  1
  Co  Co127  1  0.17514215  0.88455747  0.78669001  1
  Co  Co128  1  0.24758879  0.06527828  0.20495969  1
  Co  Co129  1  0.91398854  0.58977811  0.48693410  1
  Co  Co130  1  0.94158234  0.78265963  0.69674076  1
  Co  Co131  1  0.56118382  0.33501547  0.67559952  1
  Co  Co132  1  0.06138294  0.14543609  0.94398153  1
  Co  Co133  1  0.16687932  0.09535713  0.06353923  1
  Co  Co134  1  0.32093929  0.54529699  0.62767022  1
  Co  Co135  1  0.19048355  0.50682269  0.45010626  1
  Co  Co136  1  0.10252149  0.29039116  0.02885087  1
  Co  Co137  1  0.59250025  0.43889994  0.32623885  1
  Co  Co138  1  0.36750800  0.95735581  0.18038356  1
  Co  Co139  1  0.17704589  0.59515543  0.60145173  1
  Co  Co140  1  0.65411170  0.38857948  0.79945953  1
  Co  Co141  1  0.85665963  0.62896958  0.07716304  1
  Co  Co142  1  0.89702344  0.86596291  0.83239278  1
  Co  Co143  1  0.27582652  0.46942176  0.32548172  1
  Co  Co144  1  0.78256775  0.53723717  0.56771225  1
  Co  Co145  1  0.40254696  0.33853399  0.12926782  1
  Co  Co146  1  0.95171572  0.32697026  0.78256679  1
  Co  Co147  1  0.69759625  0.56760388  0.30586409  1
  Co  Co148  1  0.79753504  0.95968896  0.92692536  1
  Co  Co149  1  0.56444525  0.28360193  0.02515484  1
  Co  Co150  1  0.87730312  0.74296127  0.18938029  1
  Co  Co151  1  0.61891029  0.86488206  0.27088097  1
  Co  Co152  1  0.82201252  0.56001254  0.93009196  1
  Co  Co153  1  0.66091304  0.45560508  0.62892510  1
  Co  Co154  1  0.43403364  0.21558741  0.24872334  1
  Co  Co155  1  0.48644656  0.94289161  1.01683733  1
  Co  Co156  1  0.96096523  0.07255240  0.66849182  1
  Co  Co157  1  0.04929436  0.90223193  0.90227722  1
  Co  Co158  1  0.72941171  0.67904380  0.18071028  1
  Co  Co159  1  0.75868261  0.70633544  0.71964093  1
  Co  Co160  1  0.95387857  0.02471997  0.88501767  1
  Co  Co161  1  0.46678307  0.83871689  0.13307272  1
  Ni  Ni162  1  0.59497154  0.67584784  0.77519403  1
  Ni  Ni163  1  0.35474032  0.60753247  0.27773152  1
  Ni  Ni164  1  0.97227509  0.42754239  0.21115148  1
  Ni  Ni165  1  0.34755675  0.55224287  1.01013982  1
  Ni  Ni166  1  0.14747933  0.06016487  0.65814855  1
  Ni  Ni167  1  0.23624953  0.52286995  0.88236524  1
  Ni  Ni168  1  0.70048765  0.21294513  0.26415366  1
  Ni  Ni169  1  0.04089504  0.98655488  0.55383243  1
  Ni  Ni170  1  0.65397332  0.03467382  0.84961371  1
  Ni  Ni171  1  0.49135826  0.52491612  0.56864763  1
  Ni  Ni172  1  0.68619397  0.94465399  0.55026194  1
  Ni  Ni173  1  0.58404091  0.14091294  0.56155465  1
  Ni  Ni174  1  0.70867799  0.67554885  0.89129540  1
  Ni  Ni175  1  0.10969544  0.43190308  0.31893976  1
  Ni  Ni176  1  0.61263566  0.97155599  0.39650979  1
  Ni  Ni177  1  0.43173653  0.32542526  0.57969786  1
  Ni  Ni178  1  0.23064368  0.74507338  0.32680234  1
  Ni  Ni179  1  0.32660729  0.96945382  0.53508938  1
  Ni  Ni180  1  0.52001744  0.76873104  0.58910703  1
  Ni  Ni181  1  0.94617364  0.31693568  0.10140666  1
  Ni  Ni182  1  0.33476912  0.07043348  0.86917172  1
  Ni  Ni183  1  -0.03893380  0.74480782  0.43851537  1
  Ni  Ni184  1  0.08268675  0.58871307  0.83222432  1
  Ni  Ni185  1  0.40115423  0.74772384  0.33108260  1
  Ni  Ni186  1  0.52255750  0.59159702  0.31162887  1
  Ni  Ni187  1  0.98258486  0.05400126  0.22607641  1
  Ni  Ni188  1  0.57388962  0.27216446  0.35674434  1
  Ni  Ni189  1  0.57667833  0.86463542  0.78684821  1
  Ni  Ni190  1  0.48861594  0.07940075  0.78787441  1
  Ni  Ni191  1  0.93255230  0.76742673  0.98278095  1
  Ni  Ni192  1  0.11226660  0.99284498  0.29868061  1
  Ni  Ni193  1  0.87654901  0.57310361  0.69342213  1
  Ni  Ni194  1  0.92379388  0.28046119  0.43406418  1
  Ni  Ni195  1  0.20121125  0.85537548  0.46670950  1
  Ni  Ni196  1  0.16815764  0.22350382  0.56984895  1
  Ni  Ni197  1  0.60635458  0.53256801  0.90435591  1
  Ni  Ni198  1  0.77886652  -0.00302383  0.42067829  1
  Ni  Ni199  1  0.70798446  0.05357919  0.04770195  1
  Ni  Ni200  1  0.26463216  0.64399042  0.12854171  1
  Ni  Ni201  1  0.70274883  0.12180724  0.70893707  1
  Ni  Ni202  1  0.31116548  0.71658861  0.59965772  1
  Ni  Ni203  1  0.62641491  0.79184403  0.11285814  1
  Ni  Ni204  1  0.30021228  0.12748901  0.60537613  1
  Ni  Ni205  1  0.71393794  0.38135534  0.14411346  1
  Ni  Ni206  1  0.87274361  0.87923937  0.50854193  1
  Ni  Ni207  1  0.18651920  0.67477012  0.93548715  1
  Ni  Ni208  1  0.73367197  0.66140081  0.44753561  1
  Ni  Ni209  1  0.12036178  0.29670620  0.75162278  1
  Ni  Ni210  1  0.04018109  0.13538252  0.37172475  1
  Ni  Ni211  1  0.81257668  0.19948155  0.51077049  1
  Ni  Ni212  1  0.51836491  0.61380345  0.04919214  1
  Ni  Ni213  1  0.35123228  0.05309671  0.39314366  1
  Ni  Ni214  1  0.02191207  0.44583883  0.02515434  1
  Ni  Ni215  1  0.02683766  0.68408432  0.29196378  1
