# generated using pymatgen
data_Ti2CoNi
_symmetry_space_group_name_H-M   'P 1'
_cell_length_a   14.54432157
_cell_length_b   14.57791226
_cell_length_c   14.52881876
_cell_angle_alpha   90.26539819
_cell_angle_beta   89.76236146
_cell_angle_gamma   90.14716908
_symmetry_Int_Tables_number   1
_chemical_formula_structural   Ti2CoNi
_chemical_formula_sum   'Ti108 Co54 Ni54'
_cell_volume   3080.41550356
_cell_formula_units_Z   54
loop_
 _symmetry_equiv_pos_site_id
 _symmetry_equiv_pos_as_xyz
  1  'x, y, z'
loop_
 _atom_site_type_symbol
 _atom_site_label
 _atom_site_symmetry_multiplicity
 _atom_site_fract_x
 _atom_site_fract_y
 _atom_site_fract_z
 _atom_site_occupancy
  Ti  Ti0  1  -0.03458182  -0.01830851  0.03877763  1
  Ti  Ti1  1  0.00215159  0.05683662  0.37409188  1
  Ti  Ti2  1  0.10840891  0.07852987  0.64431100  1
  Ti  Ti3  1  -0.01600843  0.24878519  -0.05483263  1
  Ti  Ti4  1  -0.04447944  0.37153522  0.36873527  1
  Ti  Ti5  1  0.01642792  0.36536013  0.64038489  1
  Ti  Ti6  1  0.01676579  0.69911533  -0.07772240  1
  Ti  Ti7  1  -0.01488793  0.72198324  0.33091342  1
  Ti  Ti8  1  0.02623944  0.67398476  0.67060644  1
  Ti  Ti9  1  0.29633835  0.04126559  -0.01682154  1
  Ti  Ti10  1  0.29355650  -0.06558518  0.26743553  1
  Ti  Ti11  1  0.31416178  0.01120830  0.62408227  1
  Ti  Ti12  1  0.36670515  0.33452622  0.00429622  1
  Ti  Ti13  1  0.26590975  0.37076167  0.35832967  1
  Ti  Ti14  1  0.42092204  0.27233486  0.71000149  1
  Ti  Ti15  1  0.31324279  0.66544730  -0.06753686  1
  Ti  Ti16  1  0.29336104  0.65886769  0.30938718  1
  Ti  Ti17  1  0.38551656  0.64391887  0.67570911  1
  Ti  Ti18  1  0.59691303  -0.04648136  -0.00856162  1
  Ti  Ti19  1  0.65974454  0.03551706  0.28099439  1
  Ti  Ti20  1  0.75251472  0.05049319  0.66617069  1
  Ti  Ti21  1  0.69890163  0.37052857  -0.00768463  1
  Ti  Ti22  1  0.74629479  0.36436312  0.34631150  1
  Ti  Ti23  1  0.60951614  0.30732906  0.69756932  1
  Ti  Ti24  1  0.68173296  0.64548968  0.01742019  1
  Ti  Ti25  1  0.59262486  0.61862117  0.32156808  1
  Ti  Ti26  1  0.68481467  0.63693023  0.66588155  1
  Ti  Ti27  1  -0.02183586  0.20514244  0.22850394  1
  Ti  Ti28  1  -0.14767834  0.12317276  0.52083853  1
  Ti  Ti29  1  -0.00350168  0.12445558  0.79746077  1
  Ti  Ti30  1  -0.00380492  0.49355994  0.09539646  1
  Ti  Ti31  1  0.06752115  0.54262246  0.49279003  1
  Ti  Ti32  1  0.02247023  0.53856576  0.84015000  1
  Ti  Ti33  1  0.00258676  0.86868768  0.22201825  1
  Ti  Ti34  1  0.02379152  0.79265931  0.50266220  1
  Ti  Ti35  1  0.02431957  0.91756291  0.73961275  1
  Ti  Ti36  1  0.35467959  0.29642947  0.19182504  1
  Ti  Ti37  1  0.39543780  0.14185218  0.47547007  1
  Ti  Ti38  1  0.33958836  0.10028437  0.80718031  1
  Ti  Ti39  1  0.33812609  0.53921288  0.13103690  1
  Ti  Ti40  1  0.37519132  0.52627712  0.50917047  1
  Ti  Ti41  1  0.26080360  0.51814319  0.81141917  1
  Ti  Ti42  1  0.26980661  0.75721269  0.13851111  1
  Ti  Ti43  1  0.36554269  0.86635840  0.51885593  1
  Ti  Ti44  1  0.31186769  0.87914146  0.84571774  1
  Ti  Ti45  1  0.69757037  0.18486372  0.16908576  1
  Ti  Ti46  1  0.65312451  0.18562809  0.43084963  1
  Ti  Ti47  1  0.66574107  0.15166411  0.83333637  1
  Ti  Ti48  1  0.65760686  0.50233875  0.15856597  1
  Ti  Ti49  1  0.69886373  0.57556622  0.47922724  1
  Ti  Ti50  1  0.59074185  0.51420829  0.79705884  1
  Ti  Ti51  1  0.69954728  0.82248712  0.12494793  1
  Ti  Ti52  1  0.58219135  0.87915444  0.50550023  1
  Ti  Ti53  1  0.57743852  0.84087498  0.83076605  1
  Ti  Ti54  1  0.14286744  0.02879649  0.18530848  1
  Ti  Ti55  1  0.15499344  -0.02764067  0.48215309  1
  Ti  Ti56  1  0.13663191  -0.03559614  0.89785979  1
  Ti  Ti57  1  0.13023893  0.38133404  0.19867121  1
  Ti  Ti58  1  0.11934112  0.29365923  0.49533568  1
  Ti  Ti59  1  0.13550322  0.26094185  0.85252006  1
  Ti  Ti60  1  0.15527833  0.61008819  0.09207203  1
  Ti  Ti61  1  0.21035249  0.69344231  0.54842589  1
  Ti  Ti62  1  0.22210059  0.70207935  0.77294905  1
  Ti  Ti63  1  0.43684758  0.03331511  0.13734439  1
  Ti  Ti64  1  0.52010296  0.02759936  0.40860354  1
  Ti  Ti65  1  0.50672355  0.01758696  0.76487787  1
  Ti  Ti66  1  0.58953656  0.33612526  0.19155561  1
  Ti  Ti67  1  0.60845943  0.37245820  0.50288011  1
  Ti  Ti68  1  0.54116289  0.32587533  0.89127977  1
  Ti  Ti69  1  0.46531432  0.70311121  0.20505428  1
  Ti  Ti70  1  0.52995540  0.69967865  0.52328149  1
  Ti  Ti71  1  0.51884897  0.67003543  0.91424197  1
  Ti  Ti72  1  0.84901259  -0.01115346  0.25766657  1
  Ti  Ti73  1  0.86564793  -0.06430363  0.51920356  1
  Ti  Ti74  1  0.89602254  -0.03535029  0.85619633  1
  Ti  Ti75  1  0.84667865  0.24629630  0.06455620  1
  Ti  Ti76  1  0.84258053  0.30920718  0.50725115  1
  Ti  Ti77  1  0.86225360  0.40338044  0.84637637  1
  Ti  Ti78  1  0.83007563  0.58063388  0.16025211  1
  Ti  Ti79  1  0.79499362  0.74957323  0.50837946  1
  Ti  Ti80  1  0.84325745  0.62756232  0.77084616  1
  Ti  Ti81  1  0.16088034  0.17674807  0.07650396  1
  Ti  Ti82  1  0.21818210  0.15311507  0.34323295  1
  Ti  Ti83  1  0.25699636  0.20419879  0.62878513  1
  Ti  Ti84  1  0.10343142  0.41447228  -0.03035745  1
  Ti  Ti85  1  0.12949638  0.56904598  0.28636999  1
  Ti  Ti86  1  0.22466778  0.39966550  0.67024550  1
  Ti  Ti87  1  0.13262799  0.87533696  0.07272510  1
  Ti  Ti88  1  0.21770713  0.81435175  0.39504340  1
  Ti  Ti89  1  0.16760524  0.85707294  0.63548807  1
  Ti  Ti90  1  0.49824335  0.12386557  -0.04551056  1
  Ti  Ti91  1  0.51402758  0.16865635  0.25628077  1
  Ti  Ti92  1  0.58287273  0.13072270  0.60898333  1
  Ti  Ti93  1  0.43380785  0.50173749  -0.03601166  1
  Ti  Ti94  1  0.44158770  0.47910326  0.29145953  1
  Ti  Ti95  1  0.46173937  0.45067492  0.68046094  1
  Ti  Ti96  1  0.43038631  0.84510279  0.01422268  1
  Ti  Ti97  1  0.45026384  0.80726788  0.35876168  1
  Ti  Ti98  1  0.46489850  0.84677943  0.68238764  1
  Ti  Ti99  1  0.75346545  0.05744268  -0.01027393  1
  Ti  Ti100  1  0.81433846  0.17414516  0.33399749  1
  Ti  Ti101  1  0.82456731  0.23656239  0.71375563  1
  Ti  Ti102  1  0.85158865  0.55814666  -0.03516062  1
  Ti  Ti103  1  0.91894763  0.54390354  0.32901433  1
  Ti  Ti104  1  0.79990918  0.41801167  0.64765658  1
  Ti  Ti105  1  0.79504179  0.83099324  -0.06301765  1
  Ti  Ti106  1  0.77643451  0.70702694  0.29994508  1
  Ti  Ti107  1  0.76011624  0.81148055  0.73766995  1
  Co  Co108  1  0.85715321  0.92738563  0.69884911  1
  Co  Co109  1  0.93167992  0.05823467  0.66491762  1
  Co  Co110  1  0.64552458  0.76004782  0.40639867  1
  Co  Co111  1  0.06417417  0.74462058  0.10435047  1
  Co  Co112  1  0.35537704  0.37561823  0.58331324  1
  Co  Co113  1  -0.00187612  0.14374443  0.07805951  1
  Co  Co114  1  0.92082290  0.38974615  0.99279002  1
  Co  Co115  1  0.40641839  0.75684024  0.82524361  1
  Co  Co116  1  0.61149335  0.76239029  0.24517584  1
  Co  Co117  1  0.73292490  0.87105125  0.28690588  1
  Co  Co118  1  0.26455977  0.48687327  0.25388108  1
  Co  Co119  1  0.84287225  0.09316349  0.13017392  1
  Co  Co120  1  0.47984153  0.99016789  0.57467470  1
  Co  Co121  1  0.40526858  0.40296992  0.83044912  1
  Co  Co122  1  0.41045544  0.85622859  0.18430709  1
  Co  Co123  1  0.89852204  0.74321884  0.18366316  1
  Co  Co124  1  0.57568592  0.89830193  0.32040376  1
  Co  Co125  1  0.61836984  0.79118195  0.97531212  1
  Co  Co126  1  0.18078404  0.12422831  0.79053176  1
  Co  Co127  1  0.59130673  0.08441867  0.10231854  1
  Co  Co128  1  0.28989611  0.27689935  0.48627143  1
  Co  Co129  1  0.44165232  0.96658027  0.90559624  1
  Co  Co130  1  0.25147687  0.37792155  0.88443189  1
  Co  Co131  1  0.83093654  0.58810718  0.59913852  1
  Co  Co132  1  0.21240022  0.32307704  0.05282345  1
  Co  Co133  1  0.94186965  0.46942439  0.54327468  1
  Co  Co134  1  0.81660244  0.47052679  0.45729351  1
  Co  Co135  1  0.42794912  0.12723481  0.64658788  1
  Co  Co136  1  0.90895332  0.78262775  0.63212375  1
  Co  Co137  1  0.38121723  0.24264826  0.34198473  1
  Co  Co138  1  0.39962459  0.23837216  0.87692899  1
  Co  Co139  1  0.55748400  0.91798983  0.15778966  1
  Co  Co140  1  0.02889016  0.30608188  0.09826417  1
  Co  Co141  1  0.08807519  0.10468105  0.94211353  1
  Co  Co142  1  0.00972359  0.62075487  0.20000848  1
  Co  Co143  1  0.95448253  0.64440194  0.05589214  1
  Co  Co144  1  0.42306268  0.37968138  0.43374656  1
  Co  Co145  1  0.22755134  0.11488058  0.49834030  1
  Co  Co146  1  0.99249676  0.03607785  0.19618822  1
  Co  Co147  1  0.82082180  0.72466370  0.04571355  1
  Co  Co148  1  0.07055193  0.13848200  0.49662857  1
  Co  Co149  1  0.25634958  0.19469393  0.93189893  1
  Co  Co150  1  0.84979005  0.89411802  0.11356931  1
  Co  Co151  1  0.52143346  0.17399584  0.78505894  1
  Co  Co152  1  0.73093901  0.88506535  0.58323227  1
  Co  Co153  1  0.78988059  0.01746873  0.40140116  1
  Co  Co154  1  0.14542629  0.75497059  0.24802912  1
  Co  Co155  1  0.71713568  -0.01256119  0.13747934  1
  Co  Co156  1  0.42882198  0.56799666  0.80979412  1
  Co  Co157  1  0.27430377  0.27197290  0.77259334  1
  Co  Co158  1  0.90171891  0.63793772  0.46200369  1
  Co  Co159  1  0.90373157  0.10515335  0.95473636  1
  Co  Co160  1  0.53061125  0.68383399  0.73918840  1
  Co  Co161  1  0.08051693  0.51582387  0.65983278  1
  Ni  Ni162  1  0.43763708  0.63017851  0.37902558  1
  Ni  Ni163  1  0.09225408  0.78690044  0.79489907  1
  Ni  Ni164  1  0.12548121  0.67845410  0.40930609  1
  Ni  Ni165  1  0.74969245  0.53798092  0.31627548  1
  Ni  Ni166  1  0.22197096  0.57438162  0.64853243  1
  Ni  Ni167  1  0.65799458  0.20462869  0.99643008  1
  Ni  Ni168  1  0.81647248  0.29421559  0.21758491  1
  Ni  Ni169  1  0.80494432  0.42729843  0.09929791  1
  Ni  Ni170  1  0.01711177  0.93644867  0.58026650  1
  Ni  Ni171  1  0.65019678  0.46310289  0.63935008  1
  Ni  Ni172  1  0.62660175  0.94585925  0.68973677  1
  Ni  Ni173  1  0.24963432  0.48955119  0.00289926  1
  Ni  Ni174  1  0.36450934  0.70678395  0.50268809  1
  Ni  Ni175  1  0.40773552  0.67848760  0.05645285  1
  Ni  Ni176  1  0.60193661  0.50161617  0.97323287  1
  Ni  Ni177  1  0.51202504  0.23503591  0.08414915  1
  Ni  Ni178  1  0.81847400  0.09905251  0.81146647  1
  Ni  Ni179  1  0.10368040  0.40752133  0.78872392  1
  Ni  Ni180  1  0.39122509  0.07340528  0.31038798  1
  Ni  Ni181  1  0.35857768  0.17581102  0.06166578  1
  Ni  Ni182  1  0.01209115  0.86021401  0.92681983  1
  Ni  Ni183  1  0.96986782  0.29403104  0.78113722  1
  Ni  Ni184  1  0.68266519  0.69149419  0.84341737  1
  Ni  Ni185  1  0.61727866  0.78750474  0.64775092  1
  Ni  Ni186  1  0.52570810  0.58123763  0.10573546  1
  Ni  Ni187  1  0.21478699  0.97249713  0.75057599  1
  Ni  Ni188  1  0.66872994  0.02463958  0.50896237  1
  Ni  Ni189  1  0.31388987  0.79742727  0.67041875  1
  Ni  Ni190  1  0.11245230  0.42954726  0.37296255  1
  Ni  Ni191  1  0.12028675  0.93363423  0.32287814  1
  Ni  Ni192  1  0.60891089  0.44696130  0.31856258  1
  Ni  Ni193  1  0.28939631  0.11030643  0.18835388  1
  Ni  Ni194  1  0.92694816  0.41029311  0.20990208  1
  Ni  Ni195  1  0.28661810  0.92662624  0.09848312  1
  Ni  Ni196  1  0.80772198  0.24290485  0.90001078  1
  Ni  Ni197  1  0.54563495  0.30091279  0.35985830  1
  Ni  Ni198  1  0.70253304  0.34680271  0.82004050  1
  Ni  Ni199  1  0.09999566  0.26777257  0.32875073  1
  Ni  Ni200  1  0.47883940  0.26864966  0.54625638  1
  Ni  Ni201  1  0.17913465  0.77934753  0.94248615  1
  Ni  Ni202  1  0.21795921  0.45240172  0.50928306  1
  Ni  Ni203  1  0.92897410  0.50002857  0.71128493  1
  Ni  Ni204  1  0.71422400  0.24393461  0.58643519  1
  Ni  Ni205  1  0.71433041  0.96340886  0.83603308  1
  Ni  Ni206  1  0.73254018  0.52090051  0.85772143  1
  Ni  Ni207  1  0.15923545  0.60594067  0.92193164  1
  Ni  Ni208  1  0.87136987  0.84337091  0.36931267  1
  Ni  Ni209  1  0.47065106  0.42343735  0.12094690  1
  Ni  Ni210  1  0.95817095  0.21759359  0.41979036  1
  Ni  Ni211  1  0.31980706  0.98727928  0.42806597  1
  Ni  Ni212  1  0.53463323  0.51127799  0.44656178  1
  Ni  Ni213  1  -0.02227641  0.20724639  0.62251452  1
  Ni  Ni214  1  0.54144867  0.56516163  0.60537102  1
  Ni  Ni215  1  0.92039294  0.78063208  0.80175998  1
