# generated using pymatgen
data_Ti2CoNi
_symmetry_space_group_name_H-M   'P 1'
_cell_length_a   14.67488883
_cell_length_b   14.61971256
_cell_length_c   14.69000567
_cell_angle_alpha   90.19038586
_cell_angle_beta   89.61078740
_cell_angle_gamma   90.34718980
_symmetry_Int_Tables_number   1
_chemical_formula_structural   Ti2CoNi
_chemical_formula_sum   'Ti108 Co54 Ni54'
_cell_volume   3151.48529456
_cell_formula_units_Z   54
loop_
 _symmetry_equiv_pos_site_id
 _symmetry_equiv_pos_as_xyz
  1  'x, y, z'
loop_
 _atom_site_type_symbol
 _atom_site_label
 _atom_site_symmetry_multiplicity
 _atom_site_fract_x
 _atom_site_fract_y
 _atom_site_fract_z
 _atom_site_occupancy
  Ti  Ti0  1  -0.00857872  0.03300018  -0.04594987  1
  Ti  Ti1  1  0.00932681  0.08134662  0.31082171  1
  Ti  Ti2  1  -0.03815031  0.08285643  0.66476638  1
  Ti  Ti3  1  -0.04204005  0.31795778  0.03728631  1
  Ti  Ti4  1  -0.05203720  0.27017719  0.24313904  1
  Ti  Ti5  1  0.02046114  0.28926149  0.67076515  1
  Ti  Ti6  1  -0.01649590  0.66547382  -0.04201616  1
  Ti  Ti7  1  -0.02895801  0.66183721  0.30657890  1
  Ti  Ti8  1  -0.02758362  0.59515482  0.62141782  1
  Ti  Ti9  1  0.31786637  0.04301429  -0.04583468  1
  Ti  Ti10  1  0.35840977  -0.09892169  0.40597925  1
  Ti  Ti11  1  0.36011504  0.03181772  0.69623293  1
  Ti  Ti12  1  0.39914526  0.35071449  -0.04217447  1
  Ti  Ti13  1  0.34449611  0.31092674  0.40669279  1
  Ti  Ti14  1  0.29319548  0.28183143  0.61782787  1
  Ti  Ti15  1  0.35659894  0.68156407  -0.00902622  1
  Ti  Ti16  1  0.31559210  0.65351356  0.31141558  1
  Ti  Ti17  1  0.32799405  0.61051343  0.68063557  1
  Ti  Ti18  1  0.66190027  -0.04030112  0.07214544  1
  Ti  Ti19  1  0.78948051  0.02089348  0.37258207  1
  Ti  Ti20  1  0.68375111  0.02945976  0.59637476  1
  Ti  Ti21  1  0.63062879  0.35745613  -0.00243154  1
  Ti  Ti22  1  0.64703671  0.38032971  0.29122332  1
  Ti  Ti23  1  0.62185275  0.32177601  0.57982694  1
  Ti  Ti24  1  0.67174468  0.59711751  -0.05016200  1
  Ti  Ti25  1  0.60024764  0.67007429  0.34806710  1
  Ti  Ti26  1  0.61588695  0.66605857  0.67612006  1
  Ti  Ti27  1  0.01368008  0.12305144  0.11429933  1
  Ti  Ti28  1  -0.06454134  0.18528542  0.49517135  1
  Ti  Ti29  1  0.03666414  0.19345803  0.86345172  1
  Ti  Ti30  1  -0.01139166  0.48116035  0.19802377  1
  Ti  Ti31  1  -0.01671108  0.49902714  0.40915662  1
  Ti  Ti32  1  -0.05491435  0.44509750  0.89590109  1
  Ti  Ti33  1  0.12869958  0.91289630  0.15874380  1
  Ti  Ti34  1  -0.00123940  0.79838847  0.57632606  1
  Ti  Ti35  1  0.00398744  0.85633088  0.91510510  1
  Ti  Ti36  1  0.37048978  0.15601428  0.12341392  1
  Ti  Ti37  1  0.36311694  0.10174099  0.44407561  1
  Ti  Ti38  1  0.32428045  0.20923340  0.80526164  1
  Ti  Ti39  1  0.32456459  0.43328688  0.24571377  1
  Ti  Ti40  1  0.28619520  0.55767612  0.49661665  1
  Ti  Ti41  1  0.37944199  0.51499924  0.83983482  1
  Ti  Ti42  1  0.35607494  0.94701501  0.12649153  1
  Ti  Ti43  1  0.30681597  0.75742191  0.51222057  1
  Ti  Ti44  1  0.33666219  0.86043267  0.78071594  1
  Ti  Ti45  1  0.69753330  0.11796744  0.21473902  1
  Ti  Ti46  1  0.55848881  0.12188092  0.49293116  1
  Ti  Ti47  1  0.64941654  0.12826737  0.77263255  1
  Ti  Ti48  1  0.68358008  0.56728994  0.20033400  1
  Ti  Ti49  1  0.68520909  0.60308407  0.50305287  1
  Ti  Ti50  1  0.68026389  0.48755321  0.74575230  1
  Ti  Ti51  1  0.68328399  0.80296390  0.20839133  1
  Ti  Ti52  1  0.66426278  0.84957495  0.56870834  1
  Ti  Ti53  1  0.68362832  0.85999665  0.89030512  1
  Ti  Ti54  1  0.23407294  -0.02724074  0.29973945  1
  Ti  Ti55  1  0.15230184  0.04977985  0.47199672  1
  Ti  Ti56  1  0.18401134  -0.01754484  0.84377808  1
  Ti  Ti57  1  0.15462793  0.36087469  0.15109633  1
  Ti  Ti58  1  0.09598436  0.33744851  0.47972268  1
  Ti  Ti59  1  0.12607250  0.36430729  0.88034582  1
  Ti  Ti60  1  0.21176009  0.70182354  0.13147417  1
  Ti  Ti61  1  0.15052681  0.67890882  0.57487753  1
  Ti  Ti62  1  0.12733951  0.63620111  0.75931125  1
  Ti  Ti63  1  0.51894084  0.03574096  0.19449242  1
  Ti  Ti64  1  0.48799049  -0.05708531  0.53793632  1
  Ti  Ti65  1  0.51447865  -0.02945291  0.85891151  1
  Ti  Ti66  1  0.47736800  0.33769668  0.15130134  1
  Ti  Ti67  1  0.47651570  0.41080757  0.49340226  1
  Ti  Ti68  1  0.52348294  0.25705790  0.86042268  1
  Ti  Ti69  1  0.54110912  0.67125911  0.12051531  1
  Ti  Ti70  1  0.47330458  0.60373753  0.52281081  1
  Ti  Ti71  1  0.45098088  0.70873099  0.80574634  1
  Ti  Ti72  1  0.85194154  0.02873664  0.11230522  1
  Ti  Ti73  1  0.96829190  -0.03242005  0.47281400  1
  Ti  Ti74  1  0.85028863  -0.05530871  0.82187145  1
  Ti  Ti75  1  0.81361878  0.39641627  0.15582431  1
  Ti  Ti76  1  0.83341091  0.44653108  0.52223420  1
  Ti  Ti77  1  0.76030800  0.32883591  0.83398868  1
  Ti  Ti78  1  0.88432390  0.74655757  0.15574426  1
  Ti  Ti79  1  0.80982797  0.73437580  0.57734538  1
  Ti  Ti80  1  0.81053946  0.63221507  0.81045084  1
  Ti  Ti81  1  0.24994719  0.23677768  -0.01326958  1
  Ti  Ti82  1  0.22260471  0.16105122  0.30859967  1
  Ti  Ti83  1  0.15159701  0.10721887  0.69453171  1
  Ti  Ti84  1  0.24215198  0.47310147  -0.00778287  1
  Ti  Ti85  1  0.16937926  0.49267706  0.33051009  1
  Ti  Ti86  1  0.17713159  0.45414339  0.65454923  1
  Ti  Ti87  1  0.17691712  0.77005699  -0.08171271  1
  Ti  Ti88  1  0.15188166  0.78109872  0.32122087  1
  Ti  Ti89  1  0.13475374  0.84111459  0.72732671  1
  Ti  Ti90  1  0.55907953  0.15987730  0.03617507  1
  Ti  Ti91  1  0.50327764  0.19964779  0.30916976  1
  Ti  Ti92  1  0.48096540  0.20186770  0.66942091  1
  Ti  Ti93  1  0.49956205  0.51282048  -0.02141184  1
  Ti  Ti94  1  0.48156451  0.54485068  0.25928673  1
  Ti  Ti95  1  0.49684740  0.48369037  0.69186973  1
  Ti  Ti96  1  0.51405133  0.83364421  -0.00215827  1
  Ti  Ti97  1  0.55959033  0.85670490  0.37311108  1
  Ti  Ti98  1  0.53452032  0.85224288  0.70615423  1
  Ti  Ti99  1  0.83320179  0.17470219  -0.05606841  1
  Ti  Ti100  1  0.79765292  0.22793865  0.37030620  1
  Ti  Ti101  1  0.79542096  0.20482101  0.64437009  1
  Ti  Ti102  1  0.86714196  0.53964409  0.03863849  1
  Ti  Ti103  1  0.78711902  0.53771536  0.34891107  1
  Ti  Ti104  1  0.89206178  0.45201025  0.72227339  1
  Ti  Ti105  1  0.82611718  0.85040724  0.01751894  1
  Ti  Ti106  1  0.86901004  0.82041406  0.35527465  1
  Ti  Ti107  1  0.84592591  0.91164688  0.63865288  1
  Co  Co108  1  0.44176710  0.73512304  0.63909744  1
  Co  Co109  1  0.03698543  0.00574806  0.79222356  1
  Co  Co110  1  0.79852683  1.00348050  0.95962262  1
  Co  Co111  1  0.04769194  0.37559560  0.31187543  1
  Co  Co112  1  0.80619694  0.35704569  0.99058911  1
  Co  Co113  1  0.97216677  0.87419283  0.73223284  1
  Co  Co114  1  0.49841867  0.02120816  0.37121728  1
  Co  Co115  1  0.67387040  0.21411212  0.91972985  1
  Co  Co116  1  0.98897961  0.62584321  0.12208302  1
  Co  Co117  1  0.77081969  0.29757695  0.50899726  1
  Co  Co118  1  0.21700474  0.22118475  0.46409972  1
  Co  Co119  1  0.07816862  0.94214538  0.33184078  1
  Co  Co120  1  0.93355249  0.33357127  0.42872472  1
  Co  Co121  1  0.36324356  0.87764135  0.61044982  1
  Co  Co122  1  0.71778835  0.14781943  0.48696552  1
  Co  Co123  1  0.84204843  0.05581644  0.54579378  1
  Co  Co124  1  0.84110490  0.39598111  0.31850786  1
  Co  Co125  1  0.28388973  0.36600542  0.84083716  1
  Co  Co126  1  0.18612263  0.14643890  0.86059187  1
  Co  Co127  1  0.37031701  0.62997187  0.16225641  1
  Co  Co128  1  0.07078355  0.21242783  0.37879652  1
  Co  Co129  1  0.31247824  0.33341456  0.10297699  1
  Co  Co130  1  0.89526832  0.72979530  0.70971582  1
  Co  Co131  1  0.68526429  0.42289533  0.44725907  1
  Co  Co132  1  0.85605293  0.77676326  0.87026042  1
  Co  Co133  1  0.71396883  0.12116444  0.05092685  1
  Co  Co134  1  0.39821101  0.78237333  0.11460732  1
  Co  Co135  1  0.47951634  0.37289180  0.31870375  1
  Co  Co136  1  0.19935764  0.32505514  0.32530514  1
  Co  Co137  1  0.56964258  0.51415976  0.39338224  1
  Co  Co138  1  0.65017285  0.04360302  0.91523236  1
  Co  Co139  1  0.90492220  0.10608419  0.81692439  1
  Co  Co140  1  0.86699093  0.12094555  0.24557903  1
  Co  Co141  1  0.77303360  0.48304689  0.89323859  1
  Co  Co142  1  1.00184875  0.82343515  0.23972837  1
  Co  Co143  1  0.41327613  0.17267109  0.96278558  1
  Co  Co144  1  0.79783795  0.89824360  0.48287257  1
  Co  Co145  1  0.55916649  0.41885965  0.85302847  1
  Co  Co146  1  0.64541485  0.98164865  0.44261914  1
  Co  Co147  1  0.76791327  0.26573072  0.22554291  1
  Co  Co148  1  0.54762439  0.57618003  0.81851379  1
  Co  Co149  1  0.60243785  0.49395087  0.57415625  1
  Co  Co150  1  0.22674494  0.95441412  0.64793925  1
  Co  Co151  1  0.26767456  0.75748135  0.67634962  1
  Co  Co152  1  0.05616284  0.45928347  0.75506153  1
  Co  Co153  1  0.96884014  0.58872884  0.79842270  1
  Co  Co154  1  0.79451486  0.05758861  0.71197814  1
  Co  Co155  1  0.08631412  0.17385741  0.55659753  1
  Co  Co156  1  0.85342324  0.20918585  0.10343426  1
  Co  Co157  1  0.43004873  0.90741017  0.26298761  1
  Co  Co158  1  0.38454599  0.49841751  0.38775189  1
  Co  Co159  1  0.54221897  0.86593264  0.15432951  1
  Co  Co160  1  0.01862312  0.74100110  0.80801014  1
  Co  Co161  1  1.02323679  0.81415358  0.41176706  1
  Ni  Ni162  1  0.25494265  0.83573695  0.05330603  1
  Ni  Ni163  1  0.55881398  0.47873241  0.12656385  1
  Ni  Ni164  1  0.86281379  0.61945565  0.47241816  1
  Ni  Ni165  1  0.17128480  0.27671190  0.74122516  1
  Ni  Ni166  1  0.52910414  0.67800414  0.95095903  1
  Ni  Ni167  1  0.05936261  0.77367566  0.07246562  1
  Ni  Ni168  1  0.22862280  0.53283226  0.15087712  1
  Ni  Ni169  1  0.62403628  0.26182260  0.15608276  1
  Ni  Ni170  1  0.01922269  0.66239406  0.47061830  1
  Ni  Ni171  1  0.35037459  0.26216371  0.25005883  1
  Ni  Ni172  1  0.90840140  0.27538721  0.78886124  1
  Ni  Ni173  1  0.42380092  0.34626219  0.74895777  1
  Ni  Ni174  1  0.66732079  0.95426372  0.75504084  1
  Ni  Ni175  1  0.73633769  0.79905108  0.72936691  1
  Ni  Ni176  1  0.78055763  0.68544846  0.27806834  1
  Ni  Ni177  1  0.28596044  0.67914841  0.83340223  1
  Ni  Ni178  1  0.09628527  0.24118514  1.02882886  1
  Ni  Ni179  1  0.66773892  0.76404041  0.04042552  1
  Ni  Ni180  1  0.79143239  0.57524891  0.63745672  1
  Ni  Ni181  1  0.45011351  0.24298205  0.51336385  1
  Ni  Ni182  1  0.36938023  0.88173719  0.94330360  1
  Ni  Ni183  1  0.63615293  0.71535138  0.83379202  1
  Ni  Ni184  1  0.16865073  0.64275094  0.40544300  1
  Ni  Ni185  1  0.99679727  0.42930183  0.58350898  1
  Ni  Ni186  1  0.27223022  0.11793344  0.58185921  1
  Ni  Ni187  1  0.47224744  0.74211391  0.25454034  1
  Ni  Ni188  1  0.06421254  0.95651769  0.61399931  1
  Ni  Ni189  1  0.43637156  0.72969444  0.41065469  1
  Ni  Ni190  1  0.34818716  0.44599777  0.62425300  1
  Ni  Ni191  1  0.80494724  0.91658803  0.22069730  1
  Ni  Ni192  1  0.21883322  0.51316431  0.81122082  1
  Ni  Ni193  1  0.10416123  0.21878386  0.21194273  1
  Ni  Ni194  1  0.76940508  0.36552147  0.66261281  1
  Ni  Ni195  1  0.72288362  0.75573366  0.42417514  1
  Ni  Ni196  1  0.62786576  0.30171035  0.73922582  1
  Ni  Ni197  1  0.11626173  0.52156526  0.50951805  1
  Ni  Ni198  1  0.45804415  0.10939563  0.81269544  1
  Ni  Ni199  1  0.37244911  0.07262431  0.27503547  1
  Ni  Ni200  1  0.53187895  0.03341202  0.68070204  1
  Ni  Ni201  1  0.05835706  0.45335145  0.03908640  1
  Ni  Ni202  1  0.18151018  0.88210002  0.45942416  1
  Ni  Ni203  1  0.09098413  0.54158480  0.90711464  1
  Ni  Ni204  1  0.11426726  0.61902504  0.23781289  1
  Ni  Ni205  1  0.28920291  0.82312010  0.23250091  1
  Ni  Ni206  1  0.24500923  0.39966422  0.49632961  1
  Ni  Ni207  1  0.13209115  0.92173457  0.99515271  1
  Ni  Ni208  1  0.64747840  -0.03693236  0.27118348  1
  Ni  Ni209  1  0.15200261  0.08483693  0.01010385  1
  Ni  Ni210  1  0.47844744  0.01038850  0.02336368  1
  Ni  Ni211  1  0.97462608  0.90919225  0.08619417  1
  Ni  Ni212  1  0.60644441  0.27513945  0.42107365  1
  Ni  Ni213  1  0.70900502  0.48280117  0.05914163  1
  Ni  Ni214  1  0.56639488  0.73943717  0.51198108  1
  Ni  Ni215  1  0.38217386  0.48394064  0.09188816  1
