# generated using pymatgen
data_Ti2CoNi
_symmetry_space_group_name_H-M   'P 1'
_cell_length_a   14.61306827
_cell_length_b   14.63239954
_cell_length_c   14.69252677
_cell_angle_alpha   90.27791730
_cell_angle_beta   90.13072397
_cell_angle_gamma   89.97144459
_symmetry_Int_Tables_number   1
_chemical_formula_structural   Ti2CoNi
_chemical_formula_sum   'Ti108 Co54 Ni54'
_cell_volume   3141.57305985
_cell_formula_units_Z   54
loop_
 _symmetry_equiv_pos_site_id
 _symmetry_equiv_pos_as_xyz
  1  'x, y, z'
loop_
 _atom_site_type_symbol
 _atom_site_label
 _atom_site_symmetry_multiplicity
 _atom_site_fract_x
 _atom_site_fract_y
 _atom_site_fract_z
 _atom_site_occupancy
  Ti  Ti0  1  -0.00014351  -0.06181123  0.00401862  1
  Ti  Ti1  1  0.00878276  -0.08040196  0.33455614  1
  Ti  Ti2  1  0.07839536  -0.07745776  0.69153726  1
  Ti  Ti3  1  -0.01860865  0.32950064  0.00815298  1
  Ti  Ti4  1  -0.02421077  0.28974110  0.26843594  1
  Ti  Ti5  1  0.00281912  0.34354491  0.70471085  1
  Ti  Ti6  1  -0.01099164  0.75059736  0.00206363  1
  Ti  Ti7  1  -0.00339360  0.64083389  0.28843409  1
  Ti  Ti8  1  -0.01344900  0.71488512  0.65476488  1
  Ti  Ti9  1  0.29017549  0.00047271  0.06843613  1
  Ti  Ti10  1  0.30256252  0.04515455  0.34942412  1
  Ti  Ti11  1  0.38773109  0.00379020  0.74668989  1
  Ti  Ti12  1  0.31135156  0.38495315  0.03149940  1
  Ti  Ti13  1  0.39261863  0.33427933  0.40623829  1
  Ti  Ti14  1  0.34593648  0.32054722  0.64825650  1
  Ti  Ti15  1  0.36508363  0.64581342  -0.05392003  1
  Ti  Ti16  1  0.35946159  0.66478528  0.39029962  1
  Ti  Ti17  1  0.34497308  0.64684538  0.72105136  1
  Ti  Ti18  1  0.71163990  0.05067146  0.02483532  1
  Ti  Ti19  1  0.68744218  0.01879895  0.36200748  1
  Ti  Ti20  1  0.58536916  -0.00702297  0.71913686  1
  Ti  Ti21  1  0.69416362  0.38308068  0.04696497  1
  Ti  Ti22  1  0.67533189  0.24111478  0.33344202  1
  Ti  Ti23  1  0.65055893  0.23619014  0.65420466  1
  Ti  Ti24  1  0.56037307  0.61643442  -0.05991414  1
  Ti  Ti25  1  0.74954731  0.72387856  0.33352608  1
  Ti  Ti26  1  0.71530330  0.70517271  0.65588683  1
  Ti  Ti27  1  -0.02854462  0.14111614  0.12471574  1
  Ti  Ti28  1  -0.02777035  0.09648503  0.50129290  1
  Ti  Ti29  1  -0.02833858  0.22151366  0.83881303  1
  Ti  Ti30  1  -0.04622970  0.49774919  0.15045941  1
  Ti  Ti31  1  -0.04578722  0.47985720  0.57526598  1
  Ti  Ti32  1  0.00076377  0.53066184  0.77088024  1
  Ti  Ti33  1  0.02722496  0.80861799  0.17262228  1
  Ti  Ti34  1  -0.00545968  0.90024718  0.51595187  1
  Ti  Ti35  1  0.03957713  0.78791133  0.82057451  1
  Ti  Ti36  1  0.40891962  0.18782229  0.12715551  1
  Ti  Ti37  1  0.30373853  0.19694076  0.49423961  1
  Ti  Ti38  1  0.35009925  0.19035686  0.81836023  1
  Ti  Ti39  1  0.31259486  0.55782617  0.21507836  1
  Ti  Ti40  1  0.28735352  0.48868685  0.40201525  1
  Ti  Ti41  1  0.29184521  0.38080475  0.83101808  1
  Ti  Ti42  1  0.31332809  0.85285743  0.18084427  1
  Ti  Ti43  1  0.31284099  0.83786528  0.47475096  1
  Ti  Ti44  1  0.32300346  0.84871824  0.82857239  1
  Ti  Ti45  1  0.68401667  0.19335255  0.14904615  1
  Ti  Ti46  1  0.58773463  0.13351386  0.49690533  1
  Ti  Ti47  1  0.67955332  0.14809073  0.83489352  1
  Ti  Ti48  1  0.63272810  0.47083551  0.20011952  1
  Ti  Ti49  1  0.65323020  0.53793228  0.46658768  1
  Ti  Ti50  1  0.71713223  0.51446318  0.75623785  1
  Ti  Ti51  1  0.66999773  0.76891060  0.11572635  1
  Ti  Ti52  1  0.57579564  0.83211337  0.56117425  1
  Ti  Ti53  1  0.70440949  0.89636996  0.89516063  1
  Ti  Ti54  1  0.13784403  0.00495577  0.21700576  1
  Ti  Ti55  1  0.16914503  0.01411725  0.53777196  1
  Ti  Ti56  1  0.19973722  0.06217459  0.75083267  1
  Ti  Ti57  1  0.11752464  0.35913162  0.16650218  1
  Ti  Ti58  1  0.10863697  0.33109273  0.54971095  1
  Ti  Ti59  1  0.15130872  0.24411657  0.84162564  1
  Ti  Ti60  1  0.16550108  0.68391463  0.16971985  1
  Ti  Ti61  1  0.20089179  0.63211146  0.51292701  1
  Ti  Ti62  1  0.21087315  0.71419954  0.86090518  1
  Ti  Ti63  1  0.50339693  0.02609412  0.08668899  1
  Ti  Ti64  1  0.48933932  -0.04477598  0.42515462  1
  Ti  Ti65  1  0.50913051  -0.11325030  0.86512833  1
  Ti  Ti66  1  0.40824899  0.35112680  0.21654923  1
  Ti  Ti67  1  0.60190158  0.35059089  0.47571750  1
  Ti  Ti68  1  0.50645658  0.37685459  0.79050119  1
  Ti  Ti69  1  0.51718368  0.64424586  0.13324413  1
  Ti  Ti70  1  0.48686578  0.63954047  0.52609715  1
  Ti  Ti71  1  0.51941647  0.56774377  0.76387991  1
  Ti  Ti72  1  0.82668720  0.01083990  0.22963844  1
  Ti  Ti73  1  0.81090799  -0.02850800  0.57092604  1
  Ti  Ti74  1  0.85969700  0.06739148  0.78460676  1
  Ti  Ti75  1  0.79850530  0.36414746  0.23083380  1
  Ti  Ti76  1  0.83136174  0.40384059  0.44109750  1
  Ti  Ti77  1  0.78083320  0.34017333  0.88306266  1
  Ti  Ti78  1  0.85021298  0.67844147  0.14987361  1
  Ti  Ti79  1  0.83555050  0.65974908  0.50138598  1
  Ti  Ti80  1  0.86419190  0.67454758  0.82882125  1
  Ti  Ti81  1  0.23601528  0.17636421  0.00712559  1
  Ti  Ti82  1  0.16583374  0.19319258  0.30910464  1
  Ti  Ti83  1  0.06028984  0.16861926  0.64975636  1
  Ti  Ti84  1  0.16147082  0.53580290  -0.06298765  1
  Ti  Ti85  1  0.09588942  0.47366822  0.34335245  1
  Ti  Ti86  1  0.19349771  0.48284959  0.67406183  1
  Ti  Ti87  1  0.16642239  0.91120297  -0.07840999  1
  Ti  Ti88  1  0.13202023  0.76048117  0.38012520  1
  Ti  Ti89  1  0.19990821  0.76661467  0.66516421  1
  Ti  Ti90  1  0.54937962  0.20305283  -0.01774059  1
  Ti  Ti91  1  0.51677365  0.10144703  0.28223304  1
  Ti  Ti92  1  0.46805368  0.15957721  0.66102848  1
  Ti  Ti93  1  0.50593307  0.43986760  0.03013509  1
  Ti  Ti94  1  0.54012546  0.60899669  0.32500946  1
  Ti  Ti95  1  0.48143403  0.44801156  0.58958779  1
  Ti  Ti96  1  0.46149808  0.82039123  0.05637404  1
  Ti  Ti97  1  0.54322522  0.89354956  0.24287339  1
  Ti  Ti98  1  0.41501060  0.83976708  0.65892845  1
  Ti  Ti99  1  0.85220025  0.17040914  -0.03017509  1
  Ti  Ti100  1  0.85635831  0.20397284  0.39966144  1
  Ti  Ti101  1  0.85289967  0.17867214  0.62604942  1
  Ti  Ti102  1  0.85939887  0.49102307  -0.03435363  1
  Ti  Ti103  1  0.80740919  0.54972226  0.30891519  1
  Ti  Ti104  1  0.80191473  0.37148730  0.64548720  1
  Ti  Ti105  1  0.83109768  0.86583975  0.07853867  1
  Ti  Ti106  1  0.82521548  0.87454074  0.40015845  1
  Ti  Ti107  1  0.86456607  0.86712527  0.74038014  1
  Co  Co108  1  0.73187807  0.76506884  0.80931964  1
  Co  Co109  1  0.72429857  0.87889686  0.24616611  1
  Co  Co110  1  0.44556782  0.74968537  0.24114574  1
  Co  Co111  1  0.37688747  0.47674408  0.72186078  1
  Co  Co112  1  0.28325138  0.72770892  0.27511561  1
  Co  Co113  1  0.40216095  0.95016160  0.96272059  1
  Co  Co114  1  0.61056337  0.58453300  0.62578593  1
  Co  Co115  1  0.66800283  0.34292479  0.77128572  1
  Co  Co116  1  0.93930748  0.45155899  0.29731692  1
  Co  Co117  1  0.63575138  0.42520511  0.63172869  1
  Co  Co118  1  0.51704484  0.23551604  0.37044102  1
  Co  Co119  1  0.34420226  0.70885178  0.56845557  1
  Co  Co120  1  1.02327918  0.22985036  0.41286683  1
  Co  Co121  1  0.86985764  1.02595657  0.40211945  1
  Co  Co122  1  0.35722693  0.69790826  0.11693129  1
  Co  Co123  1  0.16371624  0.32943564  0.99705002  1
  Co  Co124  1  0.63566617  0.69793946  0.45679319  1
  Co  Co125  1  0.16670821  0.84625511  0.25031081  1
  Co  Co126  1  0.26290966  0.54310656  0.81625446  1
  Co  Co127  1  0.88169053  0.80441256  0.57628368  1
  Co  Co128  1  0.48270730  0.08468121  0.83711669  1
  Co  Co129  1  0.86856780  0.02876918  0.06791671  1
  Co  Co130  1  0.75680810  0.74350301  -0.02167427  1
  Co  Co131  1  0.03855339  0.08327928  0.77714923  1
  Co  Co132  1  0.82933244  0.25556018  0.76282215  1
  Co  Co133  1  0.83626302  0.98359292  0.91839023  1
  Co  Co134  1  0.18388437  0.61025394  0.33488734  1
  Co  Co135  1  0.60435417  0.74765532  0.27391827  1
  Co  Co136  1  0.97536205  0.07435135  0.93205335  1
  Co  Co137  1  0.53568444  0.39545497  0.31961282  1
  Co  Co138  1  0.95491284  0.01836182  0.65104803  1
  Co  Co139  1  0.71530353  0.88550219  0.67762442  1
  Co  Co140  1  0.70808996  0.23105303  0.98902373  1
  Co  Co141  1  0.58686105  0.81840654  0.74067637  1
  Co  Co142  1  0.40496707  0.11665086  -0.02130721  1
  Co  Co143  1  0.43355840  0.11921612  0.44428629  1
  Co  Co144  1  0.06375916  0.19214978  0.99156160  1
  Co  Co145  1  0.87467541  0.63659818  -0.00093991  1
  Co  Co146  1  0.36266147  0.19554282  0.30317084  1
  Co  Co147  1  0.58395266  0.02086673  0.92950365  1
  Co  Co148  1  0.11812078  0.04466115  0.06016164  1
  Co  Co149  1  0.45533722  0.72857000  0.82888759  1
  Co  Co150  1  0.93458445  0.29499703  0.55273705  1
  Co  Co151  1  0.50518869  0.70330291  0.67060571  1
  Co  Co152  1  0.63980240  0.86555115  0.39241033  1
  Co  Co153  1  0.26504894  0.27657460  0.14889428  1
  Co  Co154  1  0.53946185  0.22371705  0.79882955  1
  Co  Co155  1  0.87064367  0.82630095  0.90677364  1
  Co  Co156  1  0.15655931  0.87826793  0.08455957  1
  Co  Co157  1  0.13500485  0.52500159  0.18931606  1
  Co  Co158  1  0.79717450  0.50497636  0.12816222  1
  Co  Co159  1  -0.00622588  0.38491220  0.43301809  1
  Co  Co160  1  0.98726310  0.94105582  0.83541281  1
  Co  Co161  1  0.13262439  1.07341663  0.90298459  1
  Ni  Ni162  1  -0.04786656  0.75666051  0.40666049  1
  Ni  Ni163  1  0.33763266  0.53874256  0.56330681  1
  Ni  Ni164  1  0.97886876  0.96805877  0.17184951  1
  Ni  Ni165  1  0.69318672  0.62450903  0.20209041  1
  Ni  Ni166  1  0.45698862  0.49933899  0.42589710  1
  Ni  Ni167  1  0.26756090  0.11327496  0.18979914  1
  Ni  Ni168  1  0.69227754  0.42086820  0.34852080  1
  Ni  Ni169  1  0.14650346  0.17365128  0.49564578  1
  Ni  Ni170  1  0.39427039  1.00025738  0.21684402  1
  Ni  Ni171  1  0.13447970  0.62966913  0.74592750  1
  Ni  Ni172  1  0.65272417  0.02432342  0.18758361  1
  Ni  Ni173  1  0.41226578  0.48790514  0.89736474  1
  Ni  Ni174  1  0.83056161  0.19057416  0.23501949  1
  Ni  Ni175  1  0.24864577  0.39942413  0.26243344  1
  Ni  Ni176  1  0.18342761  0.92565896  0.39173396  1
  Ni  Ni177  1  0.26178941  0.39022335  0.52853043  1
  Ni  Ni178  1  0.73378252  0.80989151  0.52086066  1
  Ni  Ni179  1  0.93981099  0.39152233  0.85041411  1
  Ni  Ni180  1  0.25324477  0.58372440  0.06207539  1
  Ni  Ni181  1  0.94393819  0.55509041  0.42596837  1
  Ni  Ni182  1  0.30618932  0.10567727  0.63308770  1
  Ni  Ni183  1  0.74501581  0.27137372  0.50994022  1
  Ni  Ni184  1  0.12430611  0.19010168  0.14689808  1
  Ni  Ni185  1  0.49203391  0.77800549  0.40691765  1
  Ni  Ni186  1  0.11858571  0.41045239  0.82954682  1
  Ni  Ni187  1  0.48269224  0.00606979  0.58538010  1
  Ni  Ni188  1  0.33810488  0.99796294  0.51063847  1
  Ni  Ni189  1  0.76630215  0.52283893  0.58020248  1
  Ni  Ni190  1  0.61722271  0.91162269  0.05581841  1
  Ni  Ni191  1  0.06938716  0.46307916  0.04157859  1
  Ni  Ni192  1  0.07207029  0.58540384  0.60166476  1
  Ni  Ni193  1  0.84347786  0.28839699  0.09364461  1
  Ni  Ni194  1  0.71871121  0.07300888  0.67103149  1
  Ni  Ni195  1  0.88160779  0.81153191  0.25192926  1
  Ni  Ni196  1  0.66835669  0.55628536  0.04646956  1
  Ni  Ni197  1  0.47033291  0.50118081  0.20475600  1
  Ni  Ni198  1  0.62558917  0.46116778  0.89886985  1
  Ni  Ni199  1  0.03342961  0.63572867  0.89441183  1
  Ni  Ni200  1  0.15290211  0.72229260  0.00780598  1
  Ni  Ni201  1  0.75204723  0.10788157  0.49708095  1
  Ni  Ni202  1  0.72679717  0.60043245  0.89810966  1
  Ni  Ni203  1  0.59000942  0.77206553  0.95727725  1
  Ni  Ni204  1  0.14759801  0.84088971  0.53303087  1
  Ni  Ni205  1  0.09185816  0.06009674  0.38997286  1
  Ni  Ni206  1  0.29671997  0.81327275  1.00413453  1
  Ni  Ni207  1  0.21216496  0.23715282  0.68670073  1
  Ni  Ni208  1  0.42034122  0.29754250  0.92914857  1
  Ni  Ni209  1  0.97240260  0.10960617  0.29259943  1
  Ni  Ni210  1  0.56437835  0.31464899  0.15011778  1
  Ni  Ni211  1  0.86693330  0.59174014  0.68325924  1
  Ni  Ni212  1  0.28994538  0.03646773  0.88904533  1
  Ni  Ni213  1  0.47359834  0.26645780  0.53838740  1
  Ni  Ni214  1  0.26276880  0.92609182  0.64946167  1
  Ni  Ni215  1  0.17343631  0.32876062  0.39921723  1
