# generated using pymatgen
data_Ti2CoNi
_symmetry_space_group_name_H-M   'P 1'
_cell_length_a   14.67676400
_cell_length_b   14.67050215
_cell_length_c   14.63781899
_cell_angle_alpha   90.12466519
_cell_angle_beta   90.04509054
_cell_angle_gamma   90.43347852
_symmetry_Int_Tables_number   1
_chemical_formula_structural   Ti2CoNi
_chemical_formula_sum   'Ti108 Co54 Ni54'
_cell_volume   3151.65060445
_cell_formula_units_Z   54
loop_
 _symmetry_equiv_pos_site_id
 _symmetry_equiv_pos_as_xyz
  1  'x, y, z'
loop_
 _atom_site_type_symbol
 _atom_site_label
 _atom_site_symmetry_multiplicity
 _atom_site_fract_x
 _atom_site_fract_y
 _atom_site_fract_z
 _atom_site_occupancy
  Ti  Ti0  1  0.08413555  0.02782976  -0.02103524  1
  Ti  Ti1  1  0.02445407  0.01315721  0.36901524  1
  Ti  Ti2  1  -0.02277742  0.05521260  0.72291786  1
  Ti  Ti3  1  0.00297786  0.35841428  -0.04547366  1
  Ti  Ti4  1  -0.04918162  0.31338402  0.38163314  1
  Ti  Ti5  1  -0.04318664  0.34073653  0.68636816  1
  Ti  Ti6  1  0.04673990  0.69862864  -0.00409966  1
  Ti  Ti7  1  -0.02870565  0.66042296  0.30195105  1
  Ti  Ti8  1  -0.03646892  0.64154990  0.65678656  1
  Ti  Ti9  1  0.30077880  0.00341275  0.04651260  1
  Ti  Ti10  1  0.37119554  -0.07442213  0.29706028  1
  Ti  Ti11  1  0.28939790  0.03529646  0.67905239  1
  Ti  Ti12  1  0.52351392  0.31737613  -0.04191289  1
  Ti  Ti13  1  0.22223831  0.36109403  0.28357843  1
  Ti  Ti14  1  0.30731711  0.40921750  0.65318462  1
  Ti  Ti15  1  0.28352760  0.61549017  -0.09153628  1
  Ti  Ti16  1  0.30255208  0.68360553  0.30558254  1
  Ti  Ti17  1  0.26576206  0.60897922  0.66982568  1
  Ti  Ti18  1  0.62542161  -0.05047078  -0.06795345  1
  Ti  Ti19  1  0.60704799  -0.05089805  0.33794407  1
  Ti  Ti20  1  0.65867036  -0.04377223  0.66879994  1
  Ti  Ti21  1  0.69095140  0.41211253  -0.01836222  1
  Ti  Ti22  1  0.67068515  0.29915601  0.27958646  1
  Ti  Ti23  1  0.66862317  0.25940813  0.61220959  1
  Ti  Ti24  1  0.65703134  0.61520311  0.01827622  1
  Ti  Ti25  1  0.61547058  0.64469485  0.35717922  1
  Ti  Ti26  1  0.74411732  0.69650172  0.66397880  1
  Ti  Ti27  1  -0.04836693  0.15428933  0.17959134  1
  Ti  Ti28  1  0.05170536  0.16610488  0.52803223  1
  Ti  Ti29  1  -0.05482882  0.22017682  0.83785848  1
  Ti  Ti30  1  0.03353767  0.46232659  0.21882886  1
  Ti  Ti31  1  0.02119724  0.45247373  0.51700345  1
  Ti  Ti32  1  0.02692999  0.50654444  0.82459719  1
  Ti  Ti33  1  -0.02810886  0.85986540  0.11467478  1
  Ti  Ti34  1  0.00958471  0.85790513  0.48799535  1
  Ti  Ti35  1  0.03413397  0.84714987  0.80695992  1
  Ti  Ti36  1  0.29576338  0.18106513  0.20039205  1
  Ti  Ti37  1  0.33187146  0.13328234  0.49166785  1
  Ti  Ti38  1  0.30710110  0.18624376  0.78567617  1
  Ti  Ti39  1  0.35798430  0.48531595  0.18510359  1
  Ti  Ti40  1  0.34798030  0.51289882  0.39230814  1
  Ti  Ti41  1  0.38794218  0.46670907  0.84448815  1
  Ti  Ti42  1  0.35606936  0.82982932  0.13436524  1
  Ti  Ti43  1  0.37067661  0.89109692  0.56884599  1
  Ti  Ti44  1  0.35332107  0.78635809  0.84243379  1
  Ti  Ti45  1  0.71700566  0.11125286  0.21272643  1
  Ti  Ti46  1  0.62298319  0.14585013  0.43975990  1
  Ti  Ti47  1  0.67796117  0.18879666  0.87812447  1
  Ti  Ti48  1  0.70600372  0.49207680  0.18780384  1
  Ti  Ti49  1  0.67977708  0.48491908  0.48830766  1
  Ti  Ti50  1  0.66882342  0.53799561  0.81951898  1
  Ti  Ti51  1  0.65526084  0.92141910  0.13842634  1
  Ti  Ti52  1  0.60331662  0.81095863  0.49561540  1
  Ti  Ti53  1  0.74015360  0.83645256  0.80312531  1
  Ti  Ti54  1  0.12019140  0.04934329  0.19214383  1
  Ti  Ti55  1  0.16396466  -0.01508847  0.55163624  1
  Ti  Ti56  1  0.22093644  -0.07288758  0.86669805  1
  Ti  Ti57  1  0.13274939  0.30707603  0.09724686  1
  Ti  Ti58  1  0.19712258  0.33180815  0.47958268  1
  Ti  Ti59  1  0.13895629  0.21250364  0.90402740  1
  Ti  Ti60  1  0.21752116  0.64230494  0.10592399  1
  Ti  Ti61  1  0.17888295  0.75965113  0.50627213  1
  Ti  Ti62  1  0.11454866  0.66891738  0.78438820  1
  Ti  Ti63  1  0.50005142  0.04832321  0.19866552  1
  Ti  Ti64  1  0.49141470  0.02699549  0.52171502  1
  Ti  Ti65  1  0.42597617  0.00563055  0.84318337  1
  Ti  Ti66  1  0.47171008  0.26835974  0.14935203  1
  Ti  Ti67  1  0.49023578  0.40369290  0.53824813  1
  Ti  Ti68  1  0.55073524  0.37972525  0.75656490  1
  Ti  Ti69  1  0.44771227  0.66528242  0.14671739  1
  Ti  Ti70  1  0.43709650  0.69653689  0.49066346  1
  Ti  Ti71  1  0.49348095  0.64961148  0.91362862  1
  Ti  Ti72  1  0.83402178  -0.00732692  0.11990264  1
  Ti  Ti73  1  0.82582617  -0.05270254  0.45791621  1
  Ti  Ti74  1  0.79492190  0.04985202  0.79922143  1
  Ti  Ti75  1  0.85494353  0.34862462  0.22892433  1
  Ti  Ti76  1  0.77114373  0.28654216  0.45356885  1
  Ti  Ti77  1  0.84874679  0.42909388  0.84251731  1
  Ti  Ti78  1  0.86435387  0.66368868  0.08416359  1
  Ti  Ti79  1  0.88586408  0.60100007  0.49027118  1
  Ti  Ti80  1  0.87311461  0.63985182  0.84847983  1
  Ti  Ti81  1  0.32537081  0.23029577  0.00286091  1
  Ti  Ti82  1  0.11266503  0.19796088  0.32731836  1
  Ti  Ti83  1  0.11621330  0.19916448  0.71749462  1
  Ti  Ti84  1  0.21026399  0.39721847  -0.07732969  1
  Ti  Ti85  1  0.14075237  0.55381032  0.38762664  1
  Ti  Ti86  1  0.11723535  0.47790604  0.67222133  1
  Ti  Ti87  1  0.17242773  0.84104444  0.07642233  1
  Ti  Ti88  1  0.18303691  0.90526799  0.36630885  1
  Ti  Ti89  1  0.20046625  0.82634372  0.69537519  1
  Ti  Ti90  1  0.52714220  0.11905450  -0.01524700  1
  Ti  Ti91  1  0.46096526  0.24804962  0.38370807  1
  Ti  Ti92  1  0.48856469  0.22280839  0.58732980  1
  Ti  Ti93  1  0.52377546  0.49019364  0.08411066  1
  Ti  Ti94  1  0.52659134  0.43307154  0.31563196  1
  Ti  Ti95  1  0.48135661  0.55234455  0.67887146  1
  Ti  Ti96  1  0.53244623  0.79909500  0.04147596  1
  Ti  Ti97  1  0.48641687  0.76687330  0.31386370  1
  Ti  Ti98  1  0.49225610  0.77877223  0.67928539  1
  Ti  Ti99  1  0.84272912  0.14909522  0.00021202  1
  Ti  Ti100  1  0.88447774  0.13065881  0.43179582  1
  Ti  Ti101  1  0.85608908  0.15969512  0.62447230  1
  Ti  Ti102  1  0.87286437  0.45272980  0.06597664  1
  Ti  Ti103  1  0.78536776  0.58220564  0.34649535  1
  Ti  Ti104  1  0.76092237  0.40735862  0.66939305  1
  Ti  Ti105  1  0.78183970  0.83341723  -0.00429448  1
  Ti  Ti106  1  0.76947597  0.78116962  0.35942360  1
  Ti  Ti107  1  0.88556501  0.88901529  0.65191556  1
  Co  Co108  1  0.57399979  0.21754407  0.74798354  1
  Co  Co109  1  0.05235950  0.73735283  0.17218053  1
  Co  Co110  1  0.72473699  0.67904892  0.48897686  1
  Co  Co111  1  0.73473436  0.09241244  0.54204394  1
  Co  Co112  1  0.89889410  0.76496834  0.75433949  1
  Co  Co113  1  0.22825211  0.33550397  0.76906162  1
  Co  Co114  1  0.28904925  0.34353826  0.12539453  1
  Co  Co115  1  0.32434381  0.80410691  0.42032202  1
  Co  Co116  1  0.50552839  0.87443611  0.19642296  1
  Co  Co117  1  0.21579171  0.50931538  0.79639171  1
  Co  Co118  1  0.46591950  0.19379688  0.85646833  1
  Co  Co119  1  0.68615330  0.75240731  0.09394777  1
  Co  Co120  1  0.69067595  0.34685126  0.82627887  1
  Co  Co121  1  0.36438414  0.31479981  0.87270005  1
  Co  Co122  1  0.78042335  0.42204995  0.35159947  1
  Co  Co123  1  0.06983994  0.89595923  0.24081625  1
  Co  Co124  1  0.41490570  0.30238039  0.71480768  1
  Co  Co125  1  0.39094962  0.40271238  0.01423261  1
  Co  Co126  1  0.08212832  0.46089522  0.05248314  1
  Co  Co127  1  0.08708961  0.38969978  0.36575876  1
  Co  Co128  1  0.92611331  0.87114598  0.33571353  1
  Co  Co129  1  0.01644034  0.17932644  1.00564003  1
  Co  Co130  1  0.27987192  0.64805842  0.47548782  1
  Co  Co131  1  0.74393021  0.06303377  0.37572793  1
  Co  Co132  1  0.34815752  0.89438433  0.73187265  1
  Co  Co133  1  0.18848938  0.49164592  0.19146912  1
  Co  Co134  1  0.95596834  0.07083045  0.88545441  1
  Co  Co135  1  0.60290161  0.31895332  0.45393114  1
  Co  Co136  1  0.71015269  0.13228302  0.70619394  1
  Co  Co137  1  0.07892185  0.76999089  0.35638532  1
  Co  Co138  1  0.35483383  0.36509114  0.42086261  1
  Co  Co139  1  0.07147475  0.34566096  0.80270409  1
  Co  Co140  1  0.11594470  0.32641937  0.61781130  1
  Co  Co141  1  0.75375972  0.65916322  0.20845901  1
  Co  Co142  1  0.48914243  0.96168612  0.68102388  1
  Co  Co143  1  0.58245774  0.05174319  0.80191220  1
  Co  Co144  1  0.38488673  0.33846501  0.26452164  1
  Co  Co145  1  1.01244850  0.59089342  0.12539962  1
  Co  Co146  1  0.40436859  0.11559727  0.08919903  1
  Co  Co147  1  0.34589277  0.28604457  0.55506894  1
  Co  Co148  1  0.58504666  0.09476874  0.62477210  1
  Co  Co149  1  0.53861700  0.49076381  0.91619207  1
  Co  Co150  1  0.82363713  0.20132776  0.29699332  1
  Co  Co151  1  0.78517197  0.55873425  0.60443354  1
  Co  Co152  1  0.38736408  0.56771062  1.02820050  1
  Co  Co153  1  0.63905971  0.78712018  0.25123403  1
  Co  Co154  1  0.06826935  0.86482864  0.96143639  1
  Co  Co155  1  0.24868527  0.48920884  0.04532031  1
  Co  Co156  1  0.13907429  0.63085217  0.25190770  1
  Co  Co157  1  0.28585428  0.22135743  0.36328650  1
  Co  Co158  1  0.43956434  0.11528731  0.70355172  1
  Co  Co159  1  0.35505240  0.72886266  0.00965484  1
  Co  Co160  1  0.78191980  0.99104562  0.94543812  1
  Co  Co161  1  0.59812032  0.62282302  0.18644387  1
  Ni  Ni162  1  0.79170374  0.54913868  0.95686551  1
  Ni  Ni163  1  0.51982832  0.55060486  0.46800165  1
  Ni  Ni164  1  0.40152939  0.64879670  0.77330895  1
  Ni  Ni165  1  0.93208702  0.28303437  0.53783438  1
  Ni  Ni166  1  0.90834561  0.49465733  0.68863459  1
  Ni  Ni167  1  0.80797722  0.25746700  0.75717286  1
  Ni  Ni168  1  0.96633960  0.01687187  0.54840026  1
  Ni  Ni169  1  0.74412774  0.84090409  0.56736217  1
  Ni  Ni170  1  0.25019262  0.08528391  0.91336621  1
  Ni  Ni171  1  0.03968655  0.66327277  0.48455963  1
  Ni  Ni172  1  0.39345216  0.88393490  0.96622495  1
  Ni  Ni173  1  0.17585224  0.09212635  0.43289391  1
  Ni  Ni174  1  0.17747176  0.14550038  0.06284972  1
  Ni  Ni175  1  0.56244338  0.86920102  0.80138951  1
  Ni  Ni176  1  0.60193687  0.68380189  0.76159005  1
  Ni  Ni177  1  0.26620132  0.06295644  0.30661374  1
  Ni  Ni178  1  0.93105059  0.95029325  -0.01428479  1
  Ni  Ni179  1  0.46432103  0.58939148  0.29923954  1
  Ni  Ni180  1  0.37419220  0.53991718  0.55486657  1
  Ni  Ni181  1  0.44369096  0.07218668  0.36083059  1
  Ni  Ni182  1  0.87466479  0.53387905  0.21247722  1
  Ni  Ni183  1  0.46995519  0.89204122  0.42950350  1
  Ni  Ni184  1  0.81474601  0.30090296  0.94012100  1
  Ni  Ni185  1  0.33444195  0.74350730  0.62311344  1
  Ni  Ni186  1  0.85292875  0.42971354  0.51200045  1
  Ni  Ni187  1  0.75701487  0.30920846  0.10042359  1
  Ni  Ni188  1  0.31565062  0.97834497  0.44617059  1
  Ni  Ni189  1  0.20016776  0.78702898  0.23731358  1
  Ni  Ni190  1  0.87480537  0.76947374  0.21752149  1
  Ni  Ni191  1  0.87762446  0.76421616  0.51905799  1
  Ni  Ni192  1  0.91947894  0.78317733  0.92813359  1
  Ni  Ni193  1  0.96100361  0.54841477  0.96836905  1
  Ni  Ni194  1  0.56748988  0.16916114  0.27843482  1
  Ni  Ni195  1  0.60760165  0.36571876  0.13910030  1
  Ni  Ni196  1  0.20778720  0.18071588  0.58279192  1
  Ni  Ni197  1  0.06957708  0.93581187  0.66859373  1
  Ni  Ni198  1  0.58353808  0.66447786  0.58377410  1
  Ni  Ni199  1  0.04615219  0.77693632  0.63363434  1
  Ni  Ni200  1  0.62223037  0.21107478  0.09452932  1
  Ni  Ni201  1  0.23666727  0.94059602  0.19682455  1
  Ni  Ni202  1  0.92067352  0.28778401  0.07986717  1
  Ni  Ni203  1  0.18724303  0.76285091  0.90299705  1
  Ni  Ni204  1  0.03031362  0.29509711  0.22559175  1
  Ni  Ni205  1  0.76461888  0.92795047  0.27171659  1
  Ni  Ni206  1  0.94298848  0.48781806  0.36635388  1
  Ni  Ni207  1  0.63876913  0.75608859  0.91571038  1
  Ni  Ni208  1  0.13203688  0.56860672  0.94070142  1
  Ni  Ni209  1  0.88725231  0.91704857  0.82903203  1
  Ni  Ni210  1  0.12577264  0.05290071  0.80506231  1
  Ni  Ni211  1  0.20979632  0.50765905  0.53424147  1
  Ni  Ni212  1  0.49724534  0.96792172  0.05381840  1
  Ni  Ni213  1  0.88357695  0.03922823  0.28314432  1
  Ni  Ni214  1  0.68585594  0.07008002  0.04661119  1
  Ni  Ni215  1  0.63457824  0.51862794  0.64998820  1
