# generated using pymatgen
data_Ti2CoNi
_symmetry_space_group_name_H-M   'P 1'
_cell_length_a   14.54113165
_cell_length_b   14.53449590
_cell_length_c   14.41734986
_cell_angle_alpha   90.40091235
_cell_angle_beta   90.24851713
_cell_angle_gamma   90.13264105
_symmetry_Int_Tables_number   1
_chemical_formula_structural   Ti2CoNi
_chemical_formula_sum   'Ti108 Co54 Ni54'
_cell_volume   3046.96668565
_cell_formula_units_Z   54
loop_
 _symmetry_equiv_pos_site_id
 _symmetry_equiv_pos_as_xyz
  1  'x, y, z'
loop_
 _atom_site_type_symbol
 _atom_site_label
 _atom_site_symmetry_multiplicity
 _atom_site_fract_x
 _atom_site_fract_y
 _atom_site_fract_z
 _atom_site_occupancy
  Ti  Ti0  1  -0.00954522  -0.07791780  -0.00597333  1
  Ti  Ti1  1  -0.03245397  0.11437286  0.34617545  1
  Ti  Ti2  1  -0.09144862  -0.02434113  0.60513913  1
  Ti  Ti3  1  0.06095291  0.32491795  0.00640969  1
  Ti  Ti4  1  0.01199154  0.31359669  0.43031424  1
  Ti  Ti5  1  -0.02279840  0.39743085  0.64046668  1
  Ti  Ti6  1  0.07332541  0.66903301  -0.04926667  1
  Ti  Ti7  1  0.02486472  0.69084471  0.38983329  1
  Ti  Ti8  1  -0.04925604  0.68702611  0.62044839  1
  Ti  Ti9  1  0.40444056  -0.04109809  0.04113118  1
  Ti  Ti10  1  0.33976359  -0.03316113  0.31748255  1
  Ti  Ti11  1  0.27897723  -0.06654413  0.60648006  1
  Ti  Ti12  1  0.33088588  0.38494275  -0.08247220  1
  Ti  Ti13  1  0.35401329  0.32074120  0.41495193  1
  Ti  Ti14  1  0.36661007  0.28146249  0.60543028  1
  Ti  Ti15  1  0.27524889  0.68554020  -0.00191544  1
  Ti  Ti16  1  0.33775085  0.66612478  0.36718232  1
  Ti  Ti17  1  0.39501932  0.65484317  0.74098332  1
  Ti  Ti18  1  0.56473564  0.00521551  -0.07530756  1
  Ti  Ti19  1  0.61149256  -0.06497611  0.31737226  1
  Ti  Ti20  1  0.63055477  0.03617545  0.72982190  1
  Ti  Ti21  1  0.62041749  0.29766849  0.19640705  1
  Ti  Ti22  1  0.63378336  0.40600176  0.33301504  1
  Ti  Ti23  1  0.75805260  0.32811960  0.69996980  1
  Ti  Ti24  1  0.69178841  0.69668491  0.02487910  1
  Ti  Ti25  1  0.70627882  0.63854240  0.27527974  1
  Ti  Ti26  1  0.70938261  0.64607379  0.65264075  1
  Ti  Ti27  1  0.06314256  0.14478300  0.15403949  1
  Ti  Ti28  1  -0.03397515  0.17139125  0.55347149  1
  Ti  Ti29  1  0.01090224  0.17224255  0.84487602  1
  Ti  Ti30  1  -0.04028192  0.50398112  0.13900451  1
  Ti  Ti31  1  0.05693714  0.48453529  0.44224626  1
  Ti  Ti32  1  -0.02141187  0.48372154  0.83696997  1
  Ti  Ti33  1  0.01528635  0.80969340  0.21784680  1
  Ti  Ti34  1  -0.01155644  0.86637543  0.48776713  1
  Ti  Ti35  1  0.04694600  0.80127248  0.82422244  1
  Ti  Ti36  1  0.38463865  0.15214328  0.13299108  1
  Ti  Ti37  1  0.28369772  0.15215858  0.48155173  1
  Ti  Ti38  1  0.36374736  0.18856567  0.90983845  1
  Ti  Ti39  1  0.38636410  0.53188122  0.19385683  1
  Ti  Ti40  1  0.30899483  0.51431679  0.55606529  1
  Ti  Ti41  1  0.44621708  0.51900089  0.88352590  1
  Ti  Ti42  1  0.28316252  0.86598347  0.14745994  1
  Ti  Ti43  1  0.28853684  0.82217339  0.46779119  1
  Ti  Ti44  1  0.35170790  0.80768688  0.81625290  1
  Ti  Ti45  1  0.73380516  0.15796970  0.14731987  1
  Ti  Ti46  1  0.69806887  0.16038590  0.56284106  1
  Ti  Ti47  1  0.67629915  0.21021138  0.80950053  1
  Ti  Ti48  1  0.66695047  0.48055132  0.13860560  1
  Ti  Ti49  1  0.61626579  0.51837397  0.52374269  1
  Ti  Ti50  1  0.62224309  0.46796796  0.78742445  1
  Ti  Ti51  1  0.58868304  0.78469486  0.17876474  1
  Ti  Ti52  1  0.70150054  0.81885834  0.51171354  1
  Ti  Ti53  1  0.67993976  0.76884616  0.80346710  1
  Ti  Ti54  1  0.15310233  -0.01746864  0.07789678  1
  Ti  Ti55  1  0.10577891  0.01312067  0.57743960  1
  Ti  Ti56  1  0.21299820  0.00148211  0.79845178  1
  Ti  Ti57  1  0.20559107  0.26847665  0.17889593  1
  Ti  Ti58  1  0.18242456  0.37150360  0.53076246  1
  Ti  Ti59  1  0.18745950  0.39190761  0.80608784  1
  Ti  Ti60  1  0.16786586  0.69445714  0.19596752  1
  Ti  Ti61  1  0.24096890  0.67763618  0.59438460  1
  Ti  Ti62  1  0.19182322  0.66722628  0.78273385  1
  Ti  Ti63  1  0.58029294  0.03752633  0.13875197  1
  Ti  Ti64  1  0.40488807  0.00800212  0.49510727  1
  Ti  Ti65  1  0.40181211  0.00312675  0.82877086  1
  Ti  Ti66  1  0.41235854  0.33388963  0.18922555  1
  Ti  Ti67  1  0.57248119  0.28626513  0.52777828  1
  Ti  Ti68  1  0.50964189  0.31363498  0.86167510  1
  Ti  Ti69  1  0.52509475  0.61097261  0.09680511  1
  Ti  Ti70  1  0.53195281  0.70728440  0.59463306  1
  Ti  Ti71  1  0.51532941  0.68835174  0.90895709  1
  Ti  Ti72  1  0.88706634  0.03772821  0.16054489  1
  Ti  Ti73  1  0.79867909  -0.03972899  0.40520929  1
  Ti  Ti74  1  0.92963316  -0.04130749  0.81322203  1
  Ti  Ti75  1  0.82271161  0.35511706  0.17015365  1
  Ti  Ti76  1  0.73974750  0.33258478  0.46971673  1
  Ti  Ti77  1  0.87215876  0.30221762  0.86628425  1
  Ti  Ti78  1  0.86896440  0.70297168  0.10708168  1
  Ti  Ti79  1  0.80853967  0.66287965  0.44393624  1
  Ti  Ti80  1  0.86398806  0.67009268  0.89115384  1
  Ti  Ti81  1  0.16101362  0.14421267  -0.00467642  1
  Ti  Ti82  1  0.19442863  0.09656169  0.29369322  1
  Ti  Ti83  1  0.13271038  0.21402639  0.69430371  1
  Ti  Ti84  1  0.11730286  0.50517961  0.00994626  1
  Ti  Ti85  1  0.22727973  0.53868507  0.27847027  1
  Ti  Ti86  1  0.10806607  0.52774165  0.65536061  1
  Ti  Ti87  1  0.12337152  0.80920245  0.04838022  1
  Ti  Ti88  1  0.14775834  0.89769446  0.30818052  1
  Ti  Ti89  1  0.11494002  0.80486908  0.60659827  1
  Ti  Ti90  1  0.60540602  0.20230971  -0.00861138  1
  Ti  Ti91  1  0.49082379  0.22783650  0.34549262  1
  Ti  Ti92  1  0.44316698  0.12831206  0.66985391  1
  Ti  Ti93  1  0.49257296  0.42040778  0.04166241  1
  Ti  Ti94  1  0.41686872  0.49750351  0.37857545  1
  Ti  Ti95  1  0.46751244  0.50782740  0.65720721  1
  Ti  Ti96  1  0.43798336  0.76819804  0.06148326  1
  Ti  Ti97  1  0.46479397  0.81176037  0.34306680  1
  Ti  Ti98  1  0.47075470  0.91070391  0.65605568  1
  Ti  Ti99  1  0.90436332  0.20639839  0.03855661  1
  Ti  Ti100  1  0.77446167  0.12329294  0.31429322  1
  Ti  Ti101  1  0.81876967  0.10507410  0.70809459  1
  Ti  Ti102  1  0.78736143  0.50809609  -0.00319717  1
  Ti  Ti103  1  0.88532407  0.52488228  0.32678199  1
  Ti  Ti104  1  0.78237736  0.48052635  0.59916026  1
  Ti  Ti105  1  0.79075131  0.86920652  -0.02752053  1
  Ti  Ti106  1  0.77297803  0.81321658  0.26903593  1
  Ti  Ti107  1  0.78617063  0.88491455  0.70465827  1
  Co  Co108  1  0.83690032  0.09189458  0.49679062  1
  Co  Co109  1  0.35851765  0.69479163  0.17219599  1
  Co  Co110  1  0.24097360  0.10283291  0.62441101  1
  Co  Co111  1  0.85511159  0.22672393  0.43170488  1
  Co  Co112  1  0.08983430  0.95271770  0.71421373  1
  Co  Co113  1  0.64426064  0.65603943  0.47619135  1
  Co  Co114  1  0.06402348  0.55084859  0.27376815  1
  Co  Co115  1  0.44954852  0.28489114  1.01588780  1
  Co  Co116  1  0.46527399  0.86171413  0.91495110  1
  Co  Co117  1  0.12181781  0.53847718  0.84924484  1
  Co  Co118  1  0.74332073  0.96507902  0.85209830  1
  Co  Co119  1  0.62292510  0.85135513  0.63619250  1
  Co  Co120  1  0.18420552  0.25385983  0.38299928  1
  Co  Co121  1  0.55476825  0.90882302  0.46700113  1
  Co  Co122  1  0.50667367  0.64678911  0.42822944  1
  Co  Co123  1  0.52136689  0.46496333  0.22022987  1
  Co  Co124  1  0.58329768  0.55902877  0.31349531  1
  Co  Co125  1  0.51636094  0.78042302  0.75230953  1
  Co  Co126  1  0.38717358  0.10018738  0.35929354  1
  Co  Co127  1  0.31197181  0.21054866  0.26263439  1
  Co  Co128  1  0.88972307  0.41410341  0.47831562  1
  Co  Co129  1  0.53327579  0.18680213  0.14148871  1
  Co  Co130  1  0.04889647  0.24082961  0.28210903  1
  Co  Co131  1  0.50453260  0.13526205  0.82107432  1
  Co  Co132  1  0.90625330  0.87215592  0.12305866  1
  Co  Co133  1  0.97274891  0.39089559  0.28893754  1
  Co  Co134  1  0.24220757  0.57495967  0.10664079  1
  Co  Co135  1  0.87899234  0.37004823  1.00415318  1
  Co  Co136  1  0.48056137  0.11529315  -0.00013536  1
  Co  Co137  1  0.29196802  0.42168615  0.09540861  1
  Co  Co138  1  0.42464033  0.81780458  0.50241061  1
  Co  Co139  1  0.38375099  0.55805643  1.02798792  1
  Co  Co140  1  0.59874108  0.06167283  0.42595627  1
  Co  Co141  1  0.61303370  0.81755609  0.93945413  1
  Co  Co142  1  0.74246528  0.83844808  0.12111253  1
  Co  Co143  1  0.96054722  0.55189607  -0.01755131  1
  Co  Co144  1  0.71896858  1.00145090  0.58452759  1
  Co  Co145  1  0.95096464  0.77595571  0.98162040  1
  Co  Co146  1  0.76988843  0.20456794  0.97519800  1
  Co  Co147  1  0.29452970  0.37110834  0.29294023  1
  Co  Co148  1  0.88628093  0.67853695  0.27715364  1
  Co  Co149  1  0.02768387  0.65583752  0.13071628  1
  Co  Co150  1  0.80209054  0.11342349  0.86413534  1
  Co  Co151  1  0.98350717  0.30551653  0.14441959  1
  Co  Co152  1  0.63878952  0.77806010  0.36107737  1
  Co  Co153  1  0.57924025  0.90226815  0.79637061  1
  Co  Co154  1  0.35539586  0.78702214  0.63804083  1
  Co  Co155  1  0.25027861  0.52020809  0.93274343  1
  Co  Co156  1  0.04353648  0.31774343  0.79593416  1
  Co  Co157  1  0.48621757  0.66914131  0.27330515  1
  Co  Co158  1  0.45220886  0.16615123  0.49568912  1
  Co  Co159  1  0.01686480  0.63279121  0.76784765  1
  Co  Co160  1  0.40590910  0.64232595  0.53943563  1
  Co  Co161  1  0.88739271  0.20609026  0.21453523  1
  Ni  Ni162  1  0.94018861  0.56383639  0.51549146  1
  Ni  Ni163  1  0.64661841  0.21615541  0.40037865  1
  Ni  Ni164  1  0.07533337  0.65682221  0.52875257  1
  Ni  Ni165  1  0.55791468  0.04136820  0.56720931  1
  Ni  Ni166  1  0.84461088  0.80523971  0.56722538  1
  Ni  Ni167  1  0.94137232  0.93437335  0.33578067  1
  Ni  Ni168  1  0.10194176  0.12728961  0.42473025  1
  Ni  Ni169  1  0.81208959  0.47246016  0.82657463  1
  Ni  Ni170  1  0.69234837  0.60494003  0.84175100  1
  Ni  Ni171  1  0.30482500  0.12290617  0.75731131  1
  Ni  Ni172  1  0.85259953  0.02356590  0.97288715  1
  Ni  Ni173  1  0.84517932  0.72674954  0.73741166  1
  Ni  Ni174  1  0.79873984  0.56680108  0.15905146  1
  Ni  Ni175  1  0.00144994  0.08861826  0.69830688  1
  Ni  Ni176  1  0.95350984  0.84779391  0.69570434  1
  Ni  Ni177  1  0.22412995  0.82993965  0.72332832  1
  Ni  Ni178  1  0.29416255  0.79565523  0.28775438  1
  Ni  Ni179  1  0.85755076  0.30545724  0.58401062  1
  Ni  Ni180  1  0.14910439  0.77365611  0.42634233  1
  Ni  Ni181  1  0.01011573  0.08105200  0.00916092  1
  Ni  Ni182  1  0.28532797  0.91552131  -0.06480697  1
  Ni  Ni183  1  0.69399032  0.02804365  0.01464766  1
  Ni  Ni184  1  0.58664157  0.23106059  0.68447858  1
  Ni  Ni185  1  0.59398702  0.12948859  0.28140320  1
  Ni  Ni186  1  0.08508387  1.01696082  0.88320879  1
  Ni  Ni187  1  0.61831848  0.40115178  0.63913980  1
  Ni  Ni188  1  0.27268126  0.04948160  0.16480992  1
  Ni  Ni189  1  0.46881699  0.90159685  0.20690161  1
  Ni  Ni190  1  0.93094196  0.23977113  0.70835884  1
  Ni  Ni191  1  0.29314839  0.06565170  1.00134624  1
  Ni  Ni192  1  0.86366946  0.79787791  0.40163189  1
  Ni  Ni193  1  0.12357214  0.23225047  0.54112506  1
  Ni  Ni194  1  0.27557749  0.26735868  0.03521809  1
  Ni  Ni195  1  0.20001520  0.23232306  0.86557065  1
  Ni  Ni196  1  0.61498609  0.49768700  -0.03467124  1
  Ni  Ni197  1  0.29279860  0.52626122  0.76930499  1
  Ni  Ni198  1  0.86198830  0.56042463  0.71905615  1
  Ni  Ni199  1  0.56012596  0.62994927  0.74538744  1
  Ni  Ni200  1  0.31710262  0.27732502  0.77035709  1
  Ni  Ni201  1  0.72102705  0.98382331  0.21091203  1
  Ni  Ni202  1  0.19102432  0.79322760  0.89046646  1
  Ni  Ni203  1  0.13727037  0.39177898  0.31970360  1
  Ni  Ni204  1  0.70880864  0.34330056  0.05176156  1
  Ni  Ni205  1  0.27517551  0.39154043  0.66919881  1
  Ni  Ni206  1  0.41840398  0.40008332  0.75179117  1
  Ni  Ni207  1  0.46801808  0.42550468  0.51528023  1
  Ni  Ni208  1  0.59108016  0.89348674  0.06809762  1
  Ni  Ni209  1  0.75651937  0.51586411  0.42269630  1
  Ni  Ni210  1  0.04428659  0.99002819  0.22242392  1
  Ni  Ni211  1  0.76718392  0.29685579  0.31121848  1
  Ni  Ni212  1  0.19788338  0.57925280  0.45387685  1
  Ni  Ni213  1  0.11377289  0.40612780  0.16162144  1
  Ni  Ni214  1  0.70343296  0.34409842  0.89048364  1
  Ni  Ni215  1  0.22883813  0.99682735  0.44231341  1
