# generated using pymatgen
data_Ti2CoNi
_symmetry_space_group_name_H-M   'P 1'
_cell_length_a   14.57055798
_cell_length_b   14.66587812
_cell_length_c   14.58807217
_cell_angle_alpha   89.94277821
_cell_angle_beta   90.34945525
_cell_angle_gamma   90.09200489
_symmetry_Int_Tables_number   1
_chemical_formula_structural   Ti2CoNi
_chemical_formula_sum   'Ti108 Co54 Ni54'
_cell_volume   3117.26201824
_cell_formula_units_Z   54
loop_
 _symmetry_equiv_pos_site_id
 _symmetry_equiv_pos_as_xyz
  1  'x, y, z'
loop_
 _atom_site_type_symbol
 _atom_site_label
 _atom_site_symmetry_multiplicity
 _atom_site_fract_x
 _atom_site_fract_y
 _atom_site_fract_z
 _atom_site_occupancy
  Ti  Ti0  1  0.06001883  -0.01533840  -0.00516384  1
  Ti  Ti1  1  -0.04239227  -0.08974422  0.33867436  1
  Ti  Ti2  1  -0.03501163  -0.02724275  0.68735204  1
  Ti  Ti3  1  -0.04437301  0.31934738  -0.09833572  1
  Ti  Ti4  1  0.11245204  0.30212170  0.36127556  1
  Ti  Ti5  1  -0.07094729  0.41174996  0.71379319  1
  Ti  Ti6  1  0.00974412  0.64120766  0.01822043  1
  Ti  Ti7  1  -0.02205953  0.68540697  0.31914798  1
  Ti  Ti8  1  -0.04231355  0.64780380  0.67450053  1
  Ti  Ti9  1  0.27438884  0.07161583  0.06071425  1
  Ti  Ti10  1  0.23876628  -0.02294025  0.23473248  1
  Ti  Ti11  1  0.37843555  -0.02494814  0.65114363  1
  Ti  Ti12  1  0.35441690  0.28143611  0.09624373  1
  Ti  Ti13  1  0.31245692  0.28802541  0.36419460  1
  Ti  Ti14  1  0.34703660  0.31647956  0.62710251  1
  Ti  Ti15  1  0.30744901  0.72419584  -0.04249094  1
  Ti  Ti16  1  0.35997765  0.69124701  0.37028253  1
  Ti  Ti17  1  0.29552204  0.68017144  0.57910191  1
  Ti  Ti18  1  0.59836832  -0.00246263  0.01673377  1
  Ti  Ti19  1  0.59473365  -0.04396841  0.36023104  1
  Ti  Ti20  1  0.67257235  0.02793043  0.69462642  1
  Ti  Ti21  1  0.64239414  0.37735026  -0.04902627  1
  Ti  Ti22  1  0.62814648  0.29576207  0.27052341  1
  Ti  Ti23  1  0.64515270  0.33798027  0.75329765  1
  Ti  Ti24  1  0.67461560  0.68079569  0.05042195  1
  Ti  Ti25  1  0.63969163  0.74843496  0.36595855  1
  Ti  Ti26  1  0.65808827  0.75804224  0.65656481  1
  Ti  Ti27  1  0.01565821  0.18664233  0.22007732  1
  Ti  Ti28  1  -0.01192336  0.18579667  0.44047936  1
  Ti  Ti29  1  -0.03855284  0.12698784  0.85603475  1
  Ti  Ti30  1  -0.05822892  0.52288892  0.17224338  1
  Ti  Ti31  1  0.03985775  0.50368414  0.56453101  1
  Ti  Ti32  1  0.02631601  0.50144192  0.85110094  1
  Ti  Ti33  1  -0.06354823  0.79511275  0.16483247  1
  Ti  Ti34  1  0.03309868  0.89267009  0.53401856  1
  Ti  Ti35  1  0.02940380  0.80864784  0.90361123  1
  Ti  Ti36  1  0.33379055  0.14500580  0.22363943  1
  Ti  Ti37  1  0.35747845  0.14589227  0.52342839  1
  Ti  Ti38  1  0.37766163  0.11694624  0.85670611  1
  Ti  Ti39  1  0.28654202  0.45324869  0.16149784  1
  Ti  Ti40  1  0.39548308  0.53930042  0.48249903  1
  Ti  Ti41  1  0.36841279  0.52276757  0.88168518  1
  Ti  Ti42  1  0.33163101  0.83605843  0.10886689  1
  Ti  Ti43  1  0.33963672  0.84795248  0.49176185  1
  Ti  Ti44  1  0.30329148  0.89904918  0.83252995  1
  Ti  Ti45  1  0.52706985  0.17439171  0.14735817  1
  Ti  Ti46  1  0.72355824  0.16652591  0.55236719  1
  Ti  Ti47  1  0.69088006  0.15836508  0.82518711  1
  Ti  Ti48  1  0.74466253  0.47448596  0.18587421  1
  Ti  Ti49  1  0.74024645  0.43267160  0.49935857  1
  Ti  Ti50  1  0.69255255  0.53369523  0.83063872  1
  Ti  Ti51  1  0.66322904  0.88816291  0.17982003  1
  Ti  Ti52  1  0.69697129  0.92282368  0.52870499  1
  Ti  Ti53  1  0.61698361  0.83483698  0.82979378  1
  Ti  Ti54  1  0.03325090  -0.00769451  0.18972621  1
  Ti  Ti55  1  0.17084406  -0.07051272  0.40053877  1
  Ti  Ti56  1  0.11364124  -0.01958889  0.81432356  1
  Ti  Ti57  1  0.10164039  0.36967171  0.13894436  1
  Ti  Ti58  1  0.13106631  0.33821232  0.59141977  1
  Ti  Ti59  1  0.17854869  0.37116509  0.83212257  1
  Ti  Ti60  1  0.22742281  0.63711180  0.11767380  1
  Ti  Ti61  1  0.10177998  0.68820520  0.53129548  1
  Ti  Ti62  1  0.19335634  0.73066180  0.78348861  1
  Ti  Ti63  1  0.44402791  -0.01567360  0.12182208  1
  Ti  Ti64  1  0.42793943  -0.00564492  0.44468552  1
  Ti  Ti65  1  0.54205226  0.02194014  0.84327409  1
  Ti  Ti66  1  0.54652219  0.38797883  0.12756649  1
  Ti  Ti67  1  0.48733143  0.28231844  0.46937515  1
  Ti  Ti68  1  0.45042697  0.30954724  0.80496875  1
  Ti  Ti69  1  0.45167621  0.56749008  0.18833964  1
  Ti  Ti70  1  0.57136741  0.58321492  0.56784272  1
  Ti  Ti71  1  0.46491828  0.71201498  0.78655830  1
  Ti  Ti72  1  0.83156657  -0.01635805  0.13837610  1
  Ti  Ti73  1  0.89561180  0.04054756  0.47390520  1
  Ti  Ti74  1  0.87889789  -0.06185452  0.86289435  1
  Ti  Ti75  1  0.88184479  0.33638854  0.20841744  1
  Ti  Ti76  1  0.91251309  0.32661605  0.54470725  1
  Ti  Ti77  1  0.83462798  0.26035635  0.77026401  1
  Ti  Ti78  1  0.77240339  0.67057400  0.25564899  1
  Ti  Ti79  1  0.85054202  0.62745792  0.46590929  1
  Ti  Ti80  1  0.77626000  0.70910065  0.81915122  1
  Ti  Ti81  1  0.21012826  0.20488955  -0.06712311  1
  Ti  Ti82  1  0.16964072  0.12802082  0.44664484  1
  Ti  Ti83  1  0.20111679  0.14958437  0.65342642  1
  Ti  Ti84  1  0.17941435  0.51071498  -0.01973524  1
  Ti  Ti85  1  0.13940576  0.56462729  0.28618467  1
  Ti  Ti86  1  0.24871846  0.50387291  0.62174106  1
  Ti  Ti87  1  0.12308487  0.79127178  0.08131326  1
  Ti  Ti88  1  0.19552796  0.75734834  0.27517425  1
  Ti  Ti89  1  0.19836675  0.84604252  0.61936217  1
  Ti  Ti90  1  0.55894417  0.20304894  -0.04365558  1
  Ti  Ti91  1  0.49585574  0.13908336  0.33605553  1
  Ti  Ti92  1  0.52387167  0.10289427  0.61003177  1
  Ti  Ti93  1  0.53615945  0.54335396  -0.00113149  1
  Ti  Ti94  1  0.44959165  0.42605321  0.33272026  1
  Ti  Ti95  1  0.47236821  0.47316789  0.69491259  1
  Ti  Ti96  1  0.47223213  0.84004812  -0.04437740  1
  Ti  Ti97  1  0.48202263  0.82516476  0.24133502  1
  Ti  Ti98  1  0.47408363  0.79645981  0.61430576  1
  Ti  Ti99  1  0.83684604  0.19577077  0.04833871  1
  Ti  Ti100  1  0.80061509  0.19925929  0.36207472  1
  Ti  Ti101  1  0.90638283  0.15574039  0.64218592  1
  Ti  Ti102  1  0.84912792  0.54204279  -0.03560948  1
  Ti  Ti103  1  0.90195484  0.47544724  0.37600715  1
  Ti  Ti104  1  0.75881278  0.60718989  0.64057388  1
  Ti  Ti105  1  0.73291882  0.85799173  -0.02443742  1
  Ti  Ti106  1  0.77656093  0.90235279  0.32622391  1
  Ti  Ti107  1  0.85730187  0.81008266  0.63011328  1
  Co  Co108  1  0.35823512  0.58551228  0.04138105  1
  Co  Co109  1  0.57477080  0.90850845  0.69025908  1
  Co  Co110  1  0.41835736  0.99500767  0.28017864  1
  Co  Co111  1  0.27189918  1.04459400  0.75304287  1
  Co  Co112  1  0.31991355  0.39908005  0.48559616  1
  Co  Co113  1  0.70519791  0.51048868  1.02743216  1
  Co  Co114  1  0.06134396  0.79566089  0.40003286  1
  Co  Co115  1  0.20255445  0.42300473  0.30185432  1
  Co  Co116  1  0.46495790  0.68897757  0.49350079  1
  Co  Co117  1  1.05851435  0.05475931  0.54515599  1
  Co  Co118  1  0.12273421  0.09060394  0.11013363  1
  Co  Co119  1  0.59496083  0.61988915  0.73095398  1
  Co  Co120  1  1.01428907  0.27686485  0.74050023  1
  Co  Co121  1  0.10115760  0.33699359  0.97241606  1
  Co  Co122  1  0.48046064  0.83005752  0.40786824  1
  Co  Co123  1  0.94829017  0.74536473  0.50788414  1
  Co  Co124  1  0.17751134  0.23302264  0.08954321  1
  Co  Co125  1  0.75512079  0.26759180  0.92572647  1
  Co  Co126  1  0.25641121  0.37171275  0.99811220  1
  Co  Co127  1  0.85299919  0.77136075  0.36895482  1
  Co  Co128  1  1.02943208  0.42686938  0.28461087  1
  Co  Co129  1  0.10216474  0.52798431  0.13127629  1
  Co  Co130  1  0.60071657  0.46411176  0.27702819  1
  Co  Co131  1  0.45305306  -0.10189296  0.78793522  1
  Co  Co132  1  0.46124267  0.70387541  0.09541329  1
  Co  Co133  1  0.59240797  0.44552726  0.43512183  1
  Co  Co134  1  0.23838417  0.26156912  0.50757447  1
  Co  Co135  1  0.16913562  0.14304703  0.27072034  1
  Co  Co136  1  0.77238658  0.29828650  0.62367345  1
  Co  Co137  1  0.70705308  0.97752031  0.86208275  1
  Co  Co138  1  0.76231110  0.76477840  0.50328007  1
  Co  Co139  1  0.53620512  0.93511720  0.54029431  1
  Co  Co140  1  0.05251665  0.20874995  0.58896469  1
  Co  Co141  1  0.05435723  0.11036537  0.71978720  1
  Co  Co142  1  0.18687633  0.93548553  0.09154021  1
  Co  Co143  1  0.40733936  0.98522887  0.95804215  1
  Co  Co144  1  0.37215801  0.27290766  0.93299563  1
  Co  Co145  1  0.57095633  0.02024936  0.21453238  1
  Co  Co146  1  0.56445955  0.82861039  0.07987231  1
  Co  Co147  1  0.66264252  0.26956527  0.07949277  1
  Co  Co148  1  0.60980518  0.56118830  0.14887649  1
  Co  Co149  1  0.68765243  0.62369880  0.47720704  1
  Co  Co150  1  0.23719617  0.29400551  0.21941069  1
  Co  Co151  1  0.86532704  0.89046336  0.48897837  1
  Co  Co152  1  0.42238127  0.61977309  0.65504618  1
  Co  Co153  1  0.25826865  0.00041629  0.53009021  1
  Co  Co154  1  0.23477019  0.02559992  0.91645059  1
  Co  Co155  1  0.07688502  0.84480879  0.23877954  1
  Co  Co156  1  0.73547459  0.53395102  0.35442863  1
  Co  Co157  1  0.59994743  0.77915399  0.51018183  1
  Co  Co158  1  0.05512289  0.67630710  0.17655026  1
  Co  Co159  1  0.47603560  0.41672388  0.54396680  1
  Co  Co160  1  0.21455707  0.76465985  0.43860759  1
  Co  Co161  1  0.15096750  0.98552427  0.65640200  1
  Ni  Ni162  1  0.46352140  0.67348678  0.94230481  1
  Ni  Ni163  1  0.76133802  0.37208580  0.33706051  1
  Ni  Ni164  1  0.33036888  0.85439262  0.31146316  1
  Ni  Ni165  1  0.15256949  0.68057875  0.94007575  1
  Ni  Ni166  1  0.34725602  0.70077085  0.20840396  1
  Ni  Ni167  1  0.90233038  0.04128340  1.00137894  1
  Ni  Ni168  1  0.03299972  0.66076263  0.82347472  1
  Ni  Ni169  1  0.76986985  0.21221916  0.20125123  1
  Ni  Ni170  1  0.75971897  0.88512217  0.73878343  1
  Ni  Ni171  1  0.81314878  0.40977110  0.85576176  1
  Ni  Ni172  1  0.12794222  0.61587874  0.68360760  1
  Ni  Ni173  1  0.40895336  0.43156090  0.03349022  1
  Ni  Ni174  1  0.93039553  0.31391407  0.36459059  1
  Ni  Ni175  1  0.91434714  0.87370337  0.01759292  1
  Ni  Ni176  1  0.31351288  0.42815188  0.75287659  1
  Ni  Ni177  1  0.86140530  0.55561104  0.78467535  1
  Ni  Ni178  1  0.91571179  0.78600672  0.78638349  1
  Ni  Ni179  1  0.33469233  0.79365013  0.70226859  1
  Ni  Ni180  1  0.60127180  0.71241853  0.20242370  1
  Ni  Ni181  1  1.04211847  0.56837505  0.41808116  1
  Ni  Ni182  1  0.59238863  0.09614218  0.46303614  1
  Ni  Ni183  1  0.42038828  0.13979674  0.02680567  1
  Ni  Ni184  1  0.84184877  0.63756941  0.10762087  1
  Ni  Ni185  1  0.73700989  0.08776620  0.96995310  1
  Ni  Ni186  1  0.44520292  0.28375258  0.25017808  1
  Ni  Ni187  1  0.54084066  0.46502213  0.84207043  1
  Ni  Ni188  1  0.10528990  0.45207930  0.71203188  1
  Ni  Ni189  1  0.18837460  0.85670076  0.94114358  1
  Ni  Ni190  1  0.38770769  0.16015200  0.69081986  1
  Ni  Ni191  1  0.80778611  0.37636482  0.05164115  1
  Ni  Ni192  1  0.53873367  0.17528511  0.76401151  1
  Ni  Ni193  1  0.75862560  0.44541270  0.69215751  1
  Ni  Ni194  1  0.61922536  0.35872537  0.58702688  1
  Ni  Ni195  1  0.96465801  0.30641958  0.06953476  1
  Ni  Ni196  1  0.31748075  0.54117874  0.31005268  1
  Ni  Ni197  1  0.78676805  0.79664008  0.11734020  1
  Ni  Ni198  1  0.81714194  1.00522018  0.61525919  1
  Ni  Ni199  1  0.87601440  0.50089779  0.58009170  1
  Ni  Ni200  1  0.21020490  0.55867440  0.81627484  1
  Ni  Ni201  1  0.22317661  0.59245156  0.44647981  1
  Ni  Ni202  1  0.73031718  1.05243847  0.25314658  1
  Ni  Ni203  1  0.28257094  0.25221010  0.77987579  1
  Ni  Ni204  1  0.82591470  0.06783070  0.77191978  1
  Ni  Ni205  1  0.16013525  0.44192621  0.45654376  1
  Ni  Ni206  1  0.86119233  0.72575954  0.96202005  1
  Ni  Ni207  1  0.67357803  0.10759613  0.11536546  1
  Ni  Ni208  1  0.62061192  0.67894986  0.88948659  1
  Ni  Ni209  1  0.30359516  0.07873709  0.37070336  1
  Ni  Ni210  1  0.64962184  0.26980044  0.43583024  1
  Ni  Ni211  1  0.04628485  0.05396186  0.35277707  1
  Ni  Ni212  1  -0.00481750  0.46417231  0.01375873  1
  Ni  Ni213  1  0.74427178  0.04746104  0.41403153  1
  Ni  Ni214  1  0.05902507  0.83555716  0.72037063  1
  Ni  Ni215  1  0.89286202  0.07303490  0.28058847  1
