# generated using pymatgen
data_Ti2CoNi
_symmetry_space_group_name_H-M   'P 1'
_cell_length_a   14.55586826
_cell_length_b   14.69620899
_cell_length_c   14.63954861
_cell_angle_alpha   89.89589429
_cell_angle_beta   90.24756987
_cell_angle_gamma   89.71994699
_symmetry_Int_Tables_number   1
_chemical_formula_structural   Ti2CoNi
_chemical_formula_sum   'Ti108 Co54 Ni54'
_cell_volume   3131.56294773
_cell_formula_units_Z   54
loop_
 _symmetry_equiv_pos_site_id
 _symmetry_equiv_pos_as_xyz
  1  'x, y, z'
loop_
 _atom_site_type_symbol
 _atom_site_label
 _atom_site_symmetry_multiplicity
 _atom_site_fract_x
 _atom_site_fract_y
 _atom_site_fract_z
 _atom_site_occupancy
  Ti  Ti0  1  0.02082822  -0.06896586  0.02215630  1
  Ti  Ti1  1  0.01296570  -0.03530733  0.36394297  1
  Ti  Ti2  1  0.05797836  -0.01769601  0.77808622  1
  Ti  Ti3  1  0.00761198  0.31973294  -0.06875983  1
  Ti  Ti4  1  0.06032759  0.30197011  0.38453451  1
  Ti  Ti5  1  -0.00283344  0.31937958  0.71237991  1
  Ti  Ti6  1  -0.03828004  0.62809450  -0.09314263  1
  Ti  Ti7  1  0.00891187  0.64211155  0.42312181  1
  Ti  Ti8  1  0.02551610  0.68128529  0.71617722  1
  Ti  Ti9  1  0.43758958  0.00611458  0.02989283  1
  Ti  Ti10  1  0.38971751  0.02692467  0.38718046  1
  Ti  Ti11  1  0.28691042  -0.05707071  0.65918469  1
  Ti  Ti12  1  0.36667979  0.34644808  0.01325387  1
  Ti  Ti13  1  0.25620161  0.28531755  0.31350633  1
  Ti  Ti14  1  0.35288751  0.32957497  0.75399272  1
  Ti  Ti15  1  0.40337116  0.70927481  -0.01439326  1
  Ti  Ti16  1  0.23257312  0.66816647  0.38049380  1
  Ti  Ti17  1  0.35497094  0.62801581  0.62126869  1
  Ti  Ti18  1  0.64731265  0.02227123  0.02619056  1
  Ti  Ti19  1  0.66859773  0.04811637  0.24469321  1
  Ti  Ti20  1  0.66778271  -0.00605097  0.68568652  1
  Ti  Ti21  1  0.64045334  0.30422816  -0.06880456  1
  Ti  Ti22  1  0.64628056  0.35712308  0.38663621  1
  Ti  Ti23  1  0.63249740  0.37721914  0.62630797  1
  Ti  Ti24  1  0.61561712  0.73661067  0.09508478  1
  Ti  Ti25  1  0.67401714  0.66571422  0.28473440  1
  Ti  Ti26  1  0.69077982  0.70860987  0.65611771  1
  Ti  Ti27  1  0.00404624  0.14226690  0.11843010  1
  Ti  Ti28  1  -0.05403851  0.15933763  0.43269384  1
  Ti  Ti29  1  -0.06939413  0.14380050  0.81326482  1
  Ti  Ti30  1  -0.02451214  0.53795197  0.20579786  1
  Ti  Ti31  1  0.00888947  0.44980077  0.47696497  1
  Ti  Ti32  1  0.00356381  0.50475801  0.75271697  1
  Ti  Ti33  1  0.02764338  0.75020224  0.13514200  1
  Ti  Ti34  1  -0.08281487  0.82381008  0.43690494  1
  Ti  Ti35  1  0.07190042  0.80455389  0.88041925  1
  Ti  Ti36  1  0.32984328  0.12352795  0.15326946  1
  Ti  Ti37  1  0.32737831  0.19221413  0.46935634  1
  Ti  Ti38  1  0.37232157  0.17489819  0.85754907  1
  Ti  Ti39  1  0.33456317  0.52840448  0.15506992  1
  Ti  Ti40  1  0.31759507  0.48513439  0.48518108  1
  Ti  Ti41  1  0.33014683  0.50708626  0.79930185  1
  Ti  Ti42  1  0.39113589  0.84599213  0.12768585  1
  Ti  Ti43  1  0.26962581  0.81098188  0.50350108  1
  Ti  Ti44  1  0.35640163  0.76999861  0.80563626  1
  Ti  Ti45  1  0.65287388  0.23900919  0.21950008  1
  Ti  Ti46  1  0.70250551  0.16858236  0.52808079  1
  Ti  Ti47  1  0.58967871  0.15290928  0.80812689  1
  Ti  Ti48  1  0.67783522  0.49414773  0.07924781  1
  Ti  Ti49  1  0.65052966  0.56025605  0.44677576  1
  Ti  Ti50  1  0.70645211  0.49630316  0.89301515  1
  Ti  Ti51  1  0.66642417  0.86364867  0.25599740  1
  Ti  Ti52  1  0.68178793  0.87820048  0.46437708  1
  Ti  Ti53  1  0.65759522  0.89854529  0.85670711  1
  Ti  Ti54  1  0.16368321  0.00015973  0.19797352  1
  Ti  Ti55  1  0.19873006  -0.00506089  0.45901310  1
  Ti  Ti56  1  0.19542347  0.07274034  0.85146494  1
  Ti  Ti57  1  0.08841723  0.32440252  0.19049756  1
  Ti  Ti58  1  0.18985677  0.29147450  0.64142563  1
  Ti  Ti59  1  0.20257896  0.35158160  0.89457547  1
  Ti  Ti60  1  0.20582302  0.65776762  0.18568195  1
  Ti  Ti61  1  0.15603703  0.66674757  0.57113428  1
  Ti  Ti62  1  0.16665458  0.59766553  0.87897125  1
  Ti  Ti63  1  0.48740403  -0.01971989  0.22324312  1
  Ti  Ti64  1  0.52242533  -0.00785565  0.56724848  1
  Ti  Ti65  1  0.37764567  -0.02830015  0.82900918  1
  Ti  Ti66  1  0.55739279  0.35095521  0.10604739  1
  Ti  Ti67  1  0.51158089  0.27437012  0.51272937  1
  Ti  Ti68  1  0.52890195  0.45424630  0.79542307  1
  Ti  Ti69  1  0.52544570  0.57804278  0.17549348  1
  Ti  Ti70  1  0.54731025  0.72339540  0.49889138  1
  Ti  Ti71  1  0.58389037  0.69420984  0.83746748  1
  Ti  Ti72  1  0.83651651  -0.00384427  0.15966428  1
  Ti  Ti73  1  0.85282090  -0.00379616  0.49868599  1
  Ti  Ti74  1  0.79212839  0.01997416  0.82410179  1
  Ti  Ti75  1  0.85382470  0.37896913  0.18216385  1
  Ti  Ti76  1  0.85933387  0.33120644  0.46250257  1
  Ti  Ti77  1  0.82564212  0.32527997  0.91023246  1
  Ti  Ti78  1  0.87590698  0.67148749  0.08352668  1
  Ti  Ti79  1  0.82891571  0.68063283  0.52441690  1
  Ti  Ti80  1  0.77924755  0.66461250  0.82590570  1
  Ti  Ti81  1  0.19835158  0.21290084  0.01487920  1
  Ti  Ti82  1  0.09516374  0.13557660  0.31777798  1
  Ti  Ti83  1  0.16165488  0.09809155  0.62173386  1
  Ti  Ti84  1  0.15633139  0.47863993  0.07921224  1
  Ti  Ti85  1  0.13607186  0.48873776  0.31348210  1
  Ti  Ti86  1  0.13069091  0.47726679  0.60877748  1
  Ti  Ti87  1  0.20074097  0.82242214  0.07322409  1
  Ti  Ti88  1  0.12930483  0.82059489  0.29192645  1
  Ti  Ti89  1  0.11896093  0.85025922  0.64122836  1
  Ti  Ti90  1  0.49678858  0.18045076  0.00545740  1
  Ti  Ti91  1  0.46970823  0.24859288  0.30448579  1
  Ti  Ti92  1  0.41958750  0.18167813  0.64647473  1
  Ti  Ti93  1  0.43630631  0.52512430  -0.00614366  1
  Ti  Ti94  1  0.47825169  0.47244531  0.32590212  1
  Ti  Ti95  1  0.54501377  0.54959656  0.60820222  1
  Ti  Ti96  1  0.50557707  0.85301440  -0.05823871  1
  Ti  Ti97  1  0.42734297  0.81663987  0.34738933  1
  Ti  Ti98  1  0.43683081  0.82035726  0.63231250  1
  Ti  Ti99  1  0.82478077  0.14347029  0.00733864  1
  Ti  Ti100  1  0.79428056  0.13612622  0.34272605  1
  Ti  Ti101  1  0.88375480  0.16337193  0.61826057  1
  Ti  Ti102  1  0.87058652  0.48298140  0.02212665  1
  Ti  Ti103  1  0.79685372  0.49761642  0.33061289  1
  Ti  Ti104  1  0.79507328  0.44416860  0.73262556  1
  Ti  Ti105  1  0.82993383  0.81504937  -0.05517292  1
  Ti  Ti106  1  0.88058177  0.82683094  0.25453504  1
  Ti  Ti107  1  0.91367605  0.86768548  0.66893761  1
  Co  Co108  1  0.76527028  0.83648144  0.76117179  1
  Co  Co109  1  0.63638788  0.19729195  0.38204033  1
  Co  Co110  1  0.26984915  0.96972527  0.07546896  1
  Co  Co111  1  0.89145136  0.84850861  0.09134231  1
  Co  Co112  1  0.17378811  0.93209303  0.94036962  1
  Co  Co113  1  0.11276985  0.80717532  0.44876834  1
  Co  Co114  1  0.32460371  0.95999628  0.23082774  1
  Co  Co115  1  0.67765653  0.03939603  0.42703586  1
  Co  Co116  1  1.01455354  0.56823203  0.05151526  1
  Co  Co117  1  0.07963007  0.18263760  0.89126138  1
  Co  Co118  1  0.53359367  0.12798725  0.15439198  1
  Co  Co119  1  0.27122129  0.76912741  0.66355737  1
  Co  Co120  1  0.51753502  0.65370283  0.34439529  1
  Co  Co121  1  0.80774372  0.95140991  0.34562281  1
  Co  Co122  1  0.50954064  0.12170525  0.47780226  1
  Co  Co123  1  0.30635186  0.08486445  0.97488519  1
  Co  Co124  1  0.74459219  0.14399517  0.70743981  1
  Co  Co125  1  0.67308639  0.76671672  0.95031508  1
  Co  Co126  1  0.72648117  0.88470216  0.08773701  1
  Co  Co127  1  0.05598125  0.07085115  0.49286371  1
  Co  Co128  1  0.29667135  0.77820025  0.25086245  1
  Co  Co129  1  0.36429048  0.61439099  0.30461879  1
  Co  Co130  1  0.56081769  0.44136928  0.96091686  1
  Co  Co131  1  0.42788735  0.40952959  0.17782355  1
  Co  Co132  1  0.89403363  0.46889563  0.86385858  1
  Co  Co133  1  0.85051654  0.27049614  0.75755604  1
  Co  Co134  1  0.06654313  0.16676683  0.72704771  1
  Co  Co135  1  0.20264362  0.58452677  0.71355985  1
  Co  Co136  1  0.33226855  0.31931780  0.56721808  1
  Co  Co137  1  0.52452415  0.76917396  0.22710989  1
  Co  Co138  1  0.85765360  0.53236980  0.46863287  1
  Co  Co139  1  0.38721815  0.70323422  0.46912339  1
  Co  Co140  1  0.24557840  0.42380815  0.22904787  1
  Co  Co141  1  0.16965052  0.17412373  0.17732325  1
  Co  Co142  1  0.22962205  0.76031536  0.91936572  1
  Co  Co143  1  0.51053782  0.89923016  0.76438227  1
  Co  Co144  1  0.76670539  0.74472915  0.17078101  1
  Co  Co145  1  0.42770555  0.25303621  0.14828791  1
  Co  Co146  1  0.53902419  0.43086189  0.48383192  1
  Co  Co147  1  0.15623933  0.54315643  0.46247863  1
  Co  Co148  1  0.06838613  0.47049653  0.92042196  1
  Co  Co149  1  0.40239683  0.90088575  0.49359634  1
  Co  Co150  1  0.33634526  0.87232471  0.95659286  1
  Co  Co151  1  0.27003943  0.29936273  0.13784071  1
  Co  Co152  1  0.28845413  0.45425893  0.65072144  1
  Co  Co153  1  0.26054291  0.89473964  0.35887809  1
  Co  Co154  1  0.00999676  0.40578546  0.07387475  1
  Co  Co155  1  0.21147162  0.22654891  0.79222469  1
  Co  Co156  1  0.73409765  0.42294337  0.50390355  1
  Co  Co157  1  0.13478762  0.06617139  0.03413475  1
  Co  Co158  1  0.21192623  0.88372751  0.79348720  1
  Co  Co159  1  0.45855618  0.56600685  0.46462850  1
  Co  Co160  1  0.16832185  0.72766021  0.76905881  1
  Co  Co161  1  0.53225352  0.10217886  0.31950154  1
  Ni  Ni162  1  0.83248897  0.97566021  0.98828396  1
  Ni  Ni163  1  0.50567628  0.68403853  0.69432484  1
  Ni  Ni164  1  0.27537404  0.48667791  0.96209039  1
  Ni  Ni165  1  0.26196348  0.10868355  0.31320614  1
  Ni  Ni166  1  0.89347985  0.44168953  0.60388611  1
  Ni  Ni167  1  0.93938181  0.07607403  0.26262599  1
  Ni  Ni168  1  0.76751164  0.76912014  0.37502916  1
  Ni  Ni169  1  0.10937894  0.68753202  0.00986923  1
  Ni  Ni170  1  0.66388256  0.18613410  0.06081406  1
  Ni  Ni171  1  0.78112683  0.57249462  0.17991785  1
  Ni  Ni172  1  0.54337064  0.94728789  0.38852772  1
  Ni  Ni173  1  0.65760603  0.55832041  0.74027128  1
  Ni  Ni174  1  0.98933538  0.03824539  0.63908669  1
  Ni  Ni175  1  0.01185254  0.92053697  0.19306674  1
  Ni  Ni176  1  0.76675431  0.87868638  0.60143339  1
  Ni  Ni177  1  0.94506858  0.24481364  0.26188170  1
  Ni  Ni178  1  0.65699347  0.43039922  0.23523784  1
  Ni  Ni179  1  0.47465022  0.31188458  0.88896548  1
  Ni  Ni180  1  0.88152058  0.66201705  0.29704580  1
  Ni  Ni181  1  0.91113274  0.27440810  0.07014547  1
  Ni  Ni182  1  0.39412443  0.68347981  0.15313192  1
  Ni  Ni183  1  0.58459887  0.15144963  0.63916255  1
  Ni  Ni184  1  0.73756304  0.55258688  0.59530226  1
  Ni  Ni185  1  0.97299289  0.06877382  0.95475295  1
  Ni  Ni186  1  0.60503722  0.84378066  0.63480467  1
  Ni  Ni187  1  0.53343256  0.02163446  0.88561475  1
  Ni  Ni188  1  0.06548980  0.65972184  0.27545947  1
  Ni  Ni189  1  0.81314295  0.18104113  0.17464548  1
  Ni  Ni190  1  0.92513070  0.92526363  0.85095300  1
  Ni  Ni191  1  0.78439964  0.30580584  0.61448378  1
  Ni  Ni192  1  -0.01770102  0.58210595  0.58178799  1
  Ni  Ni193  1  0.95299676  0.41357762  0.31914280  1
  Ni  Ni194  1  0.86096537  0.60843996  0.69466054  1
  Ni  Ni195  1  0.56245207  0.89527298  0.10671572  1
  Ni  Ni196  1  0.79022505  0.30519063  0.31099065  1
  Ni  Ni197  1  0.74654479  0.17986063  0.86618782  1
  Ni  Ni198  1  0.57762719  0.61331170  -0.01347739  1
  Ni  Ni199  1  0.69093026  0.30829857  0.76923931  1
  Ni  Ni200  1  0.16499577  0.19405149  0.46635898  1
  Ni  Ni201  1  0.74754257  0.32775303  0.06719696  1
  Ni  Ni202  1  0.91373646  0.76386176  0.80213544  1
  Ni  Ni203  1  0.43690860  0.62084749  0.84001542  1
  Ni  Ni204  1  0.74878376  0.62839903  0.99273460  1
  Ni  Ni205  1  0.26539797  0.63498622  0.03135553  1
  Ni  Ni206  1  0.52453297  0.28874313  0.73094492  1
  Ni  Ni207  1  0.30308268  0.09994242  0.71816583  1
  Ni  Ni208  1  0.45297682  0.40912051  0.63393905  1
  Ni  Ni209  1  0.99741990  0.74894810  0.56281309  1
  Ni  Ni210  1  0.03647073  0.22874914  0.56691349  1
  Ni  Ni211  1  0.18894044  0.36823484  0.47196461  1
  Ni  Ni212  1  0.01901901  0.91964018  0.53063622  1
  Ni  Ni213  1  0.38957910  0.35119301  0.41515678  1
  Ni  Ni214  1  0.35367477  0.05268250  0.55685955  1
  Ni  Ni215  1  0.15566042  0.42675475  0.76423578  1
