# generated using pymatgen
data_Ti2CoNi
_symmetry_space_group_name_H-M   'P 1'
_cell_length_a   14.67326626
_cell_length_b   14.59899415
_cell_length_c   14.69940016
_cell_angle_alpha   89.85212790
_cell_angle_beta   89.64161381
_cell_angle_gamma   90.29814061
_symmetry_Int_Tables_number   1
_chemical_formula_structural   Ti2CoNi
_chemical_formula_sum   'Ti108 Co54 Ni54'
_cell_volume   3148.71596844
_cell_formula_units_Z   54
loop_
 _symmetry_equiv_pos_site_id
 _symmetry_equiv_pos_as_xyz
  1  'x, y, z'
loop_
 _atom_site_type_symbol
 _atom_site_label
 _atom_site_symmetry_multiplicity
 _atom_site_fract_x
 _atom_site_fract_y
 _atom_site_fract_z
 _atom_site_occupancy
  Ti  Ti0  1  -0.04822693  0.00829823  0.02674916  1
  Ti  Ti1  1  0.01119992  0.05797387  0.29730592  1
  Ti  Ti2  1  0.04970438  -0.00371633  0.72211741  1
  Ti  Ti3  1  0.03678717  0.39979591  -0.02110459  1
  Ti  Ti4  1  0.04580158  0.25988788  0.30198060  1
  Ti  Ti5  1  0.01761704  0.34345276  0.67296174  1
  Ti  Ti6  1  -0.01374999  0.58694441  0.03371636  1
  Ti  Ti7  1  0.06250569  0.62437032  0.37381363  1
  Ti  Ti8  1  0.00928350  0.79705734  0.69974322  1
  Ti  Ti9  1  0.33519394  -0.01624174  -0.06492454  1
  Ti  Ti10  1  0.35694465  0.03171401  0.34093083  1
  Ti  Ti11  1  0.36362336  0.03941079  0.67078183  1
  Ti  Ti12  1  0.32217599  0.36884659  0.04335680  1
  Ti  Ti13  1  0.37061312  0.27348391  0.33094942  1
  Ti  Ti14  1  0.28910679  0.36065471  0.69182694  1
  Ti  Ti15  1  0.27701149  0.64698869  -0.03754539  1
  Ti  Ti16  1  0.36477710  0.62064766  0.24920600  1
  Ti  Ti17  1  0.35920853  0.59319538  0.69417954  1
  Ti  Ti18  1  0.61124093  -0.04019758  0.00301339  1
  Ti  Ti19  1  0.71351222  -0.09331458  0.37088044  1
  Ti  Ti20  1  0.60345834  0.00821507  0.59444990  1
  Ti  Ti21  1  0.74367870  0.32472001  -0.03597438  1
  Ti  Ti22  1  0.70242683  0.27427671  0.28942299  1
  Ti  Ti23  1  0.71422625  0.36912393  0.62503820  1
  Ti  Ti24  1  0.68139384  0.60972164  0.05740763  1
  Ti  Ti25  1  0.76157973  0.71244650  0.32493997  1
  Ti  Ti26  1  0.67777914  0.56172792  0.66032616  1
  Ti  Ti27  1  -0.01151675  0.17098498  0.13243464  1
  Ti  Ti28  1  -0.04979260  0.14779287  0.45342563  1
  Ti  Ti29  1  0.02967732  0.17386214  0.85987766  1
  Ti  Ti30  1  0.09469536  0.46010591  0.27233628  1
  Ti  Ti31  1  0.05009552  0.48576970  0.52900200  1
  Ti  Ti32  1  -0.02698183  0.50303274  0.82381523  1
  Ti  Ti33  1  -0.04723163  0.81047495  0.07986204  1
  Ti  Ti34  1  -0.03148024  0.78698092  0.47876445  1
  Ti  Ti35  1  -0.09524261  0.84776505  0.88062485  1
  Ti  Ti36  1  0.32464297  0.11419574  0.18553860  1
  Ti  Ti37  1  0.33024897  0.12627066  0.49648754  1
  Ti  Ti38  1  0.32409110  0.18048552  0.82007808  1
  Ti  Ti39  1  0.30507791  0.43735346  0.22867015  1
  Ti  Ti40  1  0.39338402  0.57178390  0.50289030  1
  Ti  Ti41  1  0.38974820  0.46260978  0.86622929  1
  Ti  Ti42  1  0.33537575  0.82747289  0.19881132  1
  Ti  Ti43  1  0.30685222  0.82107550  0.43773613  1
  Ti  Ti44  1  0.36110353  0.86696152  0.76707206  1
  Ti  Ti45  1  0.63233937  0.21803843  0.11224221  1
  Ti  Ti46  1  0.62373521  0.21450544  0.49268650  1
  Ti  Ti47  1  0.69127498  0.22114350  0.81079260  1
  Ti  Ti48  1  0.70673209  0.41610650  0.13486153  1
  Ti  Ti49  1  0.62147447  0.53015087  0.46528299  1
  Ti  Ti50  1  0.64990934  0.55576581  0.86126821  1
  Ti  Ti51  1  0.66927189  0.89421001  0.18298413  1
  Ti  Ti52  1  0.63704333  0.83034442  0.63292287  1
  Ti  Ti53  1  0.63513619  0.83464563  0.83647097  1
  Ti  Ti54  1  0.14016828  -0.00565855  0.14952429  1
  Ti  Ti55  1  0.18069657  0.02008372  0.58381415  1
  Ti  Ti56  1  0.16694022  -0.01626164  0.86924708  1
  Ti  Ti57  1  0.14421128  0.32961092  0.13281384  1
  Ti  Ti58  1  0.16163039  0.34011841  0.55921058  1
  Ti  Ti59  1  0.20654407  0.33627787  0.87586879  1
  Ti  Ti60  1  0.09858411  0.72943712  0.19976813  1
  Ti  Ti61  1  0.20578148  0.64189425  0.56187611  1
  Ti  Ti62  1  0.17564207  0.71095158  0.76827460  1
  Ti  Ti63  1  0.54119253  0.04105368  0.15942240  1
  Ti  Ti64  1  0.45016368  -0.03141002  0.49537385  1
  Ti  Ti65  1  0.61784495  0.03608201  0.81514745  1
  Ti  Ti66  1  0.50278200  0.35956430  0.17705834  1
  Ti  Ti67  1  0.44471364  0.27561326  0.54181098  1
  Ti  Ti68  1  0.56735741  0.37247267  0.84982503  1
  Ti  Ti69  1  0.53244502  0.71740895  0.18595452  1
  Ti  Ti70  1  0.52458896  0.69939566  0.43128995  1
  Ti  Ti71  1  0.51888477  0.70697239  0.74950780  1
  Ti  Ti72  1  0.83905349  0.02315561  0.19029984  1
  Ti  Ti73  1  0.79597966  -0.03535709  0.55194925  1
  Ti  Ti74  1  0.84501909  0.04272399  0.83858401  1
  Ti  Ti75  1  0.89445818  0.35336102  0.20514432  1
  Ti  Ti76  1  0.82320662  0.29466706  0.45253648  1
  Ti  Ti77  1  0.85376189  0.32490469  0.74138745  1
  Ti  Ti78  1  0.85383629  0.66454844  0.15473849  1
  Ti  Ti79  1  0.80059457  0.64500703  0.50456466  1
  Ti  Ti80  1  0.85985363  0.65032862  0.78723585  1
  Ti  Ti81  1  0.26709602  0.17045869  0.02405769  1
  Ti  Ti82  1  0.15261628  0.16383455  0.42079197  1
  Ti  Ti83  1  0.06629398  0.16807016  0.61271893  1
  Ti  Ti84  1  0.16984975  0.54071364  0.09835770  1
  Ti  Ti85  1  0.24034117  0.47901540  0.40782756  1
  Ti  Ti86  1  0.14201903  0.48360664  0.73018807  1
  Ti  Ti87  1  0.22393806  0.82485694  0.03234733  1
  Ti  Ti88  1  0.11434833  0.88905402  0.34787774  1
  Ti  Ti89  1  0.15043078  0.83132884  0.57225614  1
  Ti  Ti90  1  0.48059297  0.14624129  -0.04660968  1
  Ti  Ti91  1  0.51848090  0.17770231  0.27203406  1
  Ti  Ti92  1  0.50580525  0.18212318  0.75250321  1
  Ti  Ti93  1  0.48993449  0.58517866  0.02598677  1
  Ti  Ti94  1  0.48044493  0.46992382  0.34325504  1
  Ti  Ti95  1  0.48553414  0.44560541  0.63966877  1
  Ti  Ti96  1  0.43394710  0.78448620  -0.05761419  1
  Ti  Ti97  1  0.51333774  0.90931713  0.31657654  1
  Ti  Ti98  1  0.44591586  0.79094528  0.59149867  1
  Ti  Ti99  1  0.80380654  0.13151765  0.00245302  1
  Ti  Ti100  1  0.79584703  0.08070742  0.36617675  1
  Ti  Ti101  1  0.79449501  0.12238832  0.67535260  1
  Ti  Ti102  1  0.81767362  0.52244668  -0.04261444  1
  Ti  Ti103  1  0.79460266  0.48518342  0.33467249  1
  Ti  Ti104  1  0.88699769  0.52048333  0.64325143  1
  Ti  Ti105  1  0.74975697  0.79651057  0.02386701  1
  Ti  Ti106  1  0.90230650  0.87777631  0.32059153  1
  Ti  Ti107  1  0.80963891  0.81526165  0.68816068  1
  Co  Co108  1  0.53565836  0.31253536  0.36888681  1
  Co  Co109  1  0.01090899  0.29158632  0.49800681  1
  Co  Co110  1  0.57832162  0.30620983  0.67449987  1
  Co  Co111  1  0.88763380  0.37799053  0.88874219  1
  Co  Co112  1  0.07078514  0.01715661  0.45396358  1
  Co  Co113  1  0.60943758  0.77763049  0.31807001  1
  Co  Co114  1  0.16342371  0.26211787  0.73515915  1
  Co  Co115  1  0.69433049  0.73010559  0.17808027  1
  Co  Co116  1  0.82243399  0.83390005  0.19263660  1
  Co  Co117  1  0.59050608  0.60625686  0.31419632  1
  Co  Co118  1  0.22888351  0.75334783  0.29330841  1
  Co  Co119  1  0.87805109  0.39924274  0.04524131  1
  Co  Co120  1  0.44207749  0.21336416  0.10461116  1
  Co  Co121  1  0.20526735  0.31375609  0.29524020  1
  Co  Co122  1  0.24509577  0.82508577  0.87811946  1
  Co  Co123  1  0.24447106  0.68008966  0.13655743  1
  Co  Co124  1  0.36107376  0.20325765  0.66280491  1
  Co  Co125  1  0.54773339  0.52381354  0.16724692  1
  Co  Co126  1  0.18233921  0.05216861  0.30495495  1
  Co  Co127  1  0.19464166  0.09303393  0.72899566  1
  Co  Co128  1  0.57153497  0.38209627  0.52177444  1
  Co  Co129  1  0.52893931  0.53604990  0.75732868  1
  Co  Co130  1  0.62839990  0.45944687  0.99920053  1
  Co  Co131  1  0.79757231  0.48452603  0.77894214  1
  Co  Co132  1  0.34739860  0.53742543  0.09557812  1
  Co  Co133  1  0.49363884  0.92793056  0.90710821  1
  Co  Co134  1  0.42425858  0.04165418  0.05519918  1
  Co  Co135  1  0.08121406  0.84420303  0.83319131  1
  Co  Co136  1  0.48845450  0.12184903  0.58730104  1
  Co  Co137  1  0.56541406  0.29972416  -0.00320392  1
  Co  Co138  1  0.49699269  0.87247406  0.10081504  1
  Co  Co139  1  0.15017503  0.16620935  0.18206354  1
  Co  Co140  1  0.29539435  0.75192721  0.64492649  1
  Co  Co141  1  0.80596162  0.94256196  0.05049752  1
  Co  Co142  1  0.20053191  0.89892959  0.71853694  1
  Co  Co143  1  0.68818024  0.37136546  0.42002826  1
  Co  Co144  1  0.92087940  0.24976886  0.01358115  1
  Co  Co145  1  0.93663197  0.06647215  0.58685372  1
  Co  Co146  1  0.63122722  0.43411570  0.28388248  1
  Co  Co147  1  0.72134937  0.96239304  0.71732613  1
  Co  Co148  1  0.40784873  0.96822404  0.20460072  1
  Co  Co149  1  0.91297612  0.97005642  0.44171846  1
  Co  Co150  1  0.47134859  0.42467109  0.02749899  1
  Co  Co151  1  0.89672018  0.37987470  0.56671141  1
  Co  Co152  1  0.14232366  0.74783898  0.43285115  1
  Co  Co153  1  0.11173031  0.37242241  0.40689278  1
  Co  Co154  1  0.33822905  0.71239920  0.80620768  1
  Co  Co155  1  0.19936165  0.58956929  0.27350170  1
  Co  Co156  1  0.04577431  0.34065748  0.82755584  1
  Co  Co157  1  0.99833002  -0.01572171  0.87461439  1
  Co  Co158  1  0.84317533  0.50823787  0.14912579  1
  Co  Co159  1  0.30133170  0.27540274  0.17180232  1
  Co  Co160  1  0.22641564  0.19588321  0.59299118  1
  Co  Co161  1  0.18880163  0.14998319  0.88602048  1
  Ni  Ni162  1  0.28881677  0.65247184  0.40487388  1
  Ni  Ni163  1  0.44779403  0.61833083  0.87005710  1
  Ni  Ni164  1  0.23651285  0.48068740  0.95791488  1
  Ni  Ni165  1  0.64402880  0.14572252  0.95570631  1
  Ni  Ni166  1  0.94438546  0.38923143  0.37175361  1
  Ni  Ni167  1  0.10418357  0.07532562  0.00701884  1
  Ni  Ni168  1  0.10268705  0.24167444  0.99772932  1
  Ni  Ni169  1  0.77530961  0.47778897  0.51122324  1
  Ni  Ni170  1  0.88552550  0.20436138  0.29650011  1
  Ni  Ni171  1  0.58442425  0.86329663  0.47445803  1
  Ni  Ni172  1  0.94329315  0.54326258  0.27539508  1
  Ni  Ni173  1  0.25540378  0.56003076  0.81796990  1
  Ni  Ni174  1  0.00107192  0.91898728  0.57535355  1
  Ni  Ni175  1  0.88544488  0.69760300  0.96938810  1
  Ni  Ni176  1  0.91938687  0.53969304  0.44875145  1
  Ni  Ni177  1  0.74792487  0.93066404  0.89921717  1
  Ni  Ni178  1  0.07269096  0.89036589  0.99633399  1
  Ni  Ni179  1  0.43614581  0.03885155  0.81390822  1
  Ni  Ni180  1  0.48017303  0.14161482  0.42405303  1
  Ni  Ni181  1  0.64804619  0.69803251  0.54423095  1
  Ni  Ni182  1  0.10702624  0.56988764  0.91207740  1
  Ni  Ni183  1  0.94925945  0.72170831  0.28005562  1
  Ni  Ni184  1  0.94330770  0.16301972  0.72236545  1
  Ni  Ni185  1  0.23748994  0.97408388  0.44044566  1
  Ni  Ni186  1  0.79936440  0.20410278  0.15709104  1
  Ni  Ni187  1  0.11226517  0.69982022  0.02806778  1
  Ni  Ni188  1  0.61556815  0.03527634  0.42156811  1
  Ni  Ni189  1  0.89043538  0.95702077  0.70433506  1
  Ni  Ni190  1  0.71007012  0.57112069  0.21866160  1
  Ni  Ni191  1  1.03106014  0.61624177  0.70806662  1
  Ni  Ni192  1  0.51745045  0.61763922  0.60354217  1
  Ni  Ni193  1  0.31367329  0.90548574  0.58505078  1
  Ni  Ni194  1  0.90228281  0.69231299  0.62293179  1
  Ni  Ni195  1  0.04188017  0.65720744  0.54762866  1
  Ni  Ni196  1  0.74465114  0.69527991  0.89594440  1
  Ni  Ni197  1  0.00856202  0.45772310  0.13543314  1
  Ni  Ni198  1  0.67083917  0.09620627  0.26307277  1
  Ni  Ni199  1  0.25115017  0.48417522  0.58098792  1
  Ni  Ni200  1  0.41520390  0.75868164  0.33152344  1
  Ni  Ni201  1  0.76329476  0.13182856  0.51584141  1
  Ni  Ni202  1  0.69578687  0.70289939  0.73964834  1
  Ni  Ni203  1  0.85747869  0.21160931  0.86263321  1
  Ni  Ni204  1  0.26817966  0.28580105  0.45252135  1
  Ni  Ni205  1  -0.00681011  0.92852518  0.18820556  1
  Ni  Ni206  1  0.63971533  0.15764947  0.65237751  1
  Ni  Ni207  1  0.28938788  0.96441925  0.09528710  1
  Ni  Ni208  1  0.39323357  0.71571074  0.08686935  1
  Ni  Ni209  1  0.80058374  0.81234269  0.48323278  1
  Ni  Ni210  1  0.58656269  0.70109744  0.93100233  1
  Ni  Ni211  1  0.43247225  0.33073839  0.75424845  1
  Ni  Ni212  1  0.38303287  0.40942423  0.47460199  1
  Ni  Ni213  1  0.70003923  0.05989264  0.10710484  1
  Ni  Ni214  1  0.52118762  0.91024802  0.72929489  1
  Ni  Ni215  1  0.40895190  0.29849586  0.91751978  1
