# generated using pymatgen
data_Ti2CoNi
_symmetry_space_group_name_H-M   'P 1'
_cell_length_a   14.61016760
_cell_length_b   14.55619052
_cell_length_c   14.66148665
_cell_angle_alpha   89.74111730
_cell_angle_beta   90.00055003
_cell_angle_gamma   90.08468336
_symmetry_Int_Tables_number   1
_chemical_formula_structural   Ti2CoNi
_chemical_formula_sum   'Ti108 Co54 Ni54'
_cell_volume   3117.99942527
_cell_formula_units_Z   54
loop_
 _symmetry_equiv_pos_site_id
 _symmetry_equiv_pos_as_xyz
  1  'x, y, z'
loop_
 _atom_site_type_symbol
 _atom_site_label
 _atom_site_symmetry_multiplicity
 _atom_site_fract_x
 _atom_site_fract_y
 _atom_site_fract_z
 _atom_site_occupancy
  Ti  Ti0  1  0.03649891  0.02411815  -0.03872649  1
  Ti  Ti1  1  0.06076933  -0.01670775  0.27601391  1
  Ti  Ti2  1  0.02814697  0.02348890  0.59599766  1
  Ti  Ti3  1  -0.00045118  0.23876919  -0.01735393  1
  Ti  Ti4  1  -0.07710587  0.27119741  0.33654262  1
  Ti  Ti5  1  0.02142211  0.34040518  0.78837871  1
  Ti  Ti6  1  0.03413429  0.66625001  -0.00129558  1
  Ti  Ti7  1  0.02352710  0.69037952  0.31099520  1
  Ti  Ti8  1  -0.05446804  0.61071084  0.67157075  1
  Ti  Ti9  1  0.39788752  -0.09646132  0.02230676  1
  Ti  Ti10  1  0.40505097  -0.00346293  0.25177419  1
  Ti  Ti11  1  0.24012621  0.05919472  0.64362609  1
  Ti  Ti12  1  0.34720863  0.39681298  -0.03984923  1
  Ti  Ti13  1  0.34622702  0.42676452  0.33396712  1
  Ti  Ti14  1  0.27572580  0.29039179  0.62880397  1
  Ti  Ti15  1  0.30635057  0.58752202  0.01711586  1
  Ti  Ti16  1  0.32509107  0.62197649  0.38657775  1
  Ti  Ti17  1  0.30226059  0.69440022  0.73545626  1
  Ti  Ti18  1  0.71712641  -0.02311243  0.01537707  1
  Ti  Ti19  1  0.61481436  0.02765083  0.36938311  1
  Ti  Ti20  1  0.70015075  0.00176160  0.70062282  1
  Ti  Ti21  1  0.58024422  0.27806772  -0.01578093  1
  Ti  Ti22  1  0.61241574  0.27165572  0.35015473  1
  Ti  Ti23  1  0.71023461  0.26792326  0.71627797  1
  Ti  Ti24  1  0.75065221  0.71743718  -0.03805048  1
  Ti  Ti25  1  0.67958346  0.72881618  0.36566297  1
  Ti  Ti26  1  0.69105553  0.67328883  0.65086173  1
  Ti  Ti27  1  0.03261263  0.25343762  0.17875166  1
  Ti  Ti28  1  -0.05549989  0.23498836  0.51397252  1
  Ti  Ti29  1  -0.04021609  0.14476229  0.81671705  1
  Ti  Ti30  1  -0.04429208  0.55790053  0.15284989  1
  Ti  Ti31  1  0.05071664  0.51257148  0.53395596  1
  Ti  Ti32  1  0.00939658  0.48237341  0.94804018  1
  Ti  Ti33  1  -0.06230026  0.77446665  0.15275307  1
  Ti  Ti34  1  -0.00814229  0.76828981  0.51454125  1
  Ti  Ti35  1  0.00614781  0.91728479  0.78742521  1
  Ti  Ti36  1  0.31991662  0.18563313  0.21784569  1
  Ti  Ti37  1  0.33598182  0.23112164  0.47067214  1
  Ti  Ti38  1  0.39196890  0.08091552  0.78007391  1
  Ti  Ti39  1  0.36591899  0.45093334  0.15183819  1
  Ti  Ti40  1  0.40849875  0.48358303  0.50156693  1
  Ti  Ti41  1  0.41547829  0.53194000  0.79847525  1
  Ti  Ti42  1  0.32707528  0.74430729  0.15101818  1
  Ti  Ti43  1  0.28823235  0.88598448  0.55163306  1
  Ti  Ti44  1  0.31458889  0.87131945  0.84218024  1
  Ti  Ti45  1  0.68347512  0.22121973  0.17095595  1
  Ti  Ti46  1  0.66015505  0.16402694  0.54822558  1
  Ti  Ti47  1  0.67033592  0.13404107  0.86496261  1
  Ti  Ti48  1  0.65440826  0.43947087  0.20637397  1
  Ti  Ti49  1  0.66648546  0.55318348  0.48013278  1
  Ti  Ti50  1  0.61381888  0.42010736  0.77234536  1
  Ti  Ti51  1  0.64001702  0.84339808  0.19872721  1
  Ti  Ti52  1  0.67546504  0.87738990  0.49103923  1
  Ti  Ti53  1  0.63112396  0.82257146  0.80646931  1
  Ti  Ti54  1  0.16272025  -0.00550384  0.10514582  1
  Ti  Ti55  1  0.18160787  0.00815810  0.43463826  1
  Ti  Ti56  1  0.21517833  0.06063278  0.88954395  1
  Ti  Ti57  1  0.18107631  0.38941841  0.19063393  1
  Ti  Ti58  1  0.13371731  0.31053037  0.48233840  1
  Ti  Ti59  1  0.21776158  0.35024782  0.80013685  1
  Ti  Ti60  1  0.14993060  0.67229337  0.14105552  1
  Ti  Ti61  1  0.16217891  0.71093425  0.46145493  1
  Ti  Ti62  1  0.11200414  0.75725931  0.84950418  1
  Ti  Ti63  1  0.50201383  0.06743348  0.10429370  1
  Ti  Ti64  1  0.46622273  -0.08357944  0.47575453  1
  Ti  Ti65  1  0.55257204  -0.01618614  0.90166431  1
  Ti  Ti66  1  0.49190357  0.26443522  0.16255433  1
  Ti  Ti67  1  0.62008516  0.35838071  0.53493427  1
  Ti  Ti68  1  0.39828095  0.28785180  0.78567177  1
  Ti  Ti69  1  0.49835203  0.58177584  0.10579034  1
  Ti  Ti70  1  0.43294494  0.73207247  0.54785494  1
  Ti  Ti71  1  0.49679589  0.70569425  0.74645658  1
  Ti  Ti72  1  0.87666910  0.00351339  0.16321726  1
  Ti  Ti73  1  0.86255282  -0.07739590  0.52436548  1
  Ti  Ti74  1  0.84035886  0.00743790  0.86144372  1
  Ti  Ti75  1  0.85331739  0.34695883  0.16046785  1
  Ti  Ti76  1  0.84288655  0.42007245  0.47581993  1
  Ti  Ti77  1  0.83201528  0.39423883  0.85383758  1
  Ti  Ti78  1  0.75782495  0.67182990  0.16131316  1
  Ti  Ti79  1  0.86359967  0.62370307  0.44977168  1
  Ti  Ti80  1  0.87468879  0.60533027  0.87034057  1
  Ti  Ti81  1  0.18561749  0.18631228  0.05501471  1
  Ti  Ti82  1  0.14202669  0.16796864  0.31430662  1
  Ti  Ti83  1  0.08613305  0.20801443  0.65970613  1
  Ti  Ti84  1  0.16029057  0.37644045  -0.02040743  1
  Ti  Ti85  1  0.15844424  0.49600900  0.37270167  1
  Ti  Ti86  1  0.23208421  0.51206793  0.66548301  1
  Ti  Ti87  1  0.22060441  0.79746980  0.00120512  1
  Ti  Ti88  1  0.23488927  0.85080489  0.29424570  1
  Ti  Ti89  1  0.15503211  0.80238862  0.66650811  1
  Ti  Ti90  1  0.39075085  0.19659779  0.01193063  1
  Ti  Ti91  1  0.44847127  0.09979852  0.40304808  1
  Ti  Ti92  1  0.48839346  0.18606113  0.64018651  1
  Ti  Ti93  1  0.54328235  0.52238480  -0.06131009  1
  Ti  Ti94  1  0.51060229  0.56817796  0.30274198  1
  Ti  Ti95  1  0.54017252  0.53095934  0.62301239  1
  Ti  Ti96  1  0.57439747  0.76954549  0.02043563  1
  Ti  Ti97  1  0.44762425  0.76934622  0.31312283  1
  Ti  Ti98  1  0.54450973  0.88061707  0.64677394  1
  Ti  Ti99  1  0.79828409  0.22420836  -0.01606172  1
  Ti  Ti100  1  0.79883787  0.10034323  0.32010937  1
  Ti  Ti101  1  0.84458190  0.11366408  0.60493803  1
  Ti  Ti102  1  0.79494970  0.51153071  0.04610419  1
  Ti  Ti103  1  0.83838200  0.48760332  0.28774702  1
  Ti  Ti104  1  0.86273251  0.41790201  0.66506810  1
  Ti  Ti105  1  0.89905835  0.87836297  -0.00346828  1
  Ti  Ti106  1  0.90484982  0.87089551  0.32211078  1
  Ti  Ti107  1  0.83721883  0.79567448  0.75879855  1
  Co  Co108  1  0.82345894  0.78548329  0.43123525  1
  Co  Co109  1  0.99438494  0.36215213  0.59287448  1
  Co  Co110  1  0.28119018  0.90026092  0.14416133  1
  Co  Co111  1  0.14144634  0.91692407  0.89624100  1
  Co  Co112  1  -0.00153876  0.40050677  0.42598819  1
  Co  Co113  1  0.89892056  0.07722172  0.44874855  1
  Co  Co114  1  0.48770976  0.73406211  0.15288828  1
  Co  Co115  1  0.13662208  0.51899173  0.08257688  1
  Co  Co116  1  0.59132638  0.67289641  0.89268429  1
  Co  Co117  1  0.15477903  0.62513073  0.77444307  1
  Co  Co118  1  0.15934252  0.58996605  0.93920133  1
  Co  Co119  1  0.55786617  0.06950373  0.73159855  1
  Co  Co120  1  0.73082187  0.67338768  0.80652258  1
  Co  Co121  1  0.96756620  0.11376662  0.29404365  1
  Co  Co122  1  0.95626353  0.49589773  0.78417109  1
  Co  Co123  1  0.43103862  0.65514892  0.90934353  1
  Co  Co124  1  0.61018246  0.66788887  0.21808572  1
  Co  Co125  1  0.89680973  0.09020136  0.99336263  1
  Co  Co126  1  0.88209859  0.66825930  0.03774177  1
  Co  Co127  1  0.78010281  0.20638896  0.44166561  1
  Co  Co128  1  0.76831727  0.29360811  0.29323223  1
  Co  Co129  1  0.13471285  0.38453156  0.65423809  1
  Co  Co130  1  0.27458369  0.70163254  0.57318006  1
  Co  Co131  1  0.69249025  0.32732106  0.88649437  1
  Co  Co132  1  0.24493443  0.54285790  0.22014476  1
  Co  Co133  1  0.19719600  0.68831547  0.30035663  1
  Co  Co134  1  1.00765198  0.93033345  0.12969374  1
  Co  Co135  1  0.27033625  0.39679975  0.49668618  1
  Co  Co136  1  0.32154800  0.06084601  0.10782503  1
  Co  Co137  1  0.37937731  0.61621707  0.22465731  1
  Co  Co138  1  0.25536757  0.29553051  0.34573562  1
  Co  Co139  1  0.29989108  0.30685697  0.09730416  1
  Co  Co140  1  1.00123531  0.95390336  0.43971563  1
  Co  Co141  1  0.42769447  1.00838634  0.62745417  1
  Co  Co142  1  0.45338904  0.88287690  0.17071626  1
  Co  Co143  1  0.86891228  0.18791037  0.18844664  1
  Co  Co144  1  0.60682388  0.57833457  0.76470876  1
  Co  Co145  1  0.97406162  0.54457096  0.36310315  1
  Co  Co146  1  0.76205994  0.83061009  0.08136436  1
  Co  Co147  1  0.78402014  0.53180961  0.75267413  1
  Co  Co148  1  0.32977726  0.05805348  0.50963095  1
  Co  Co149  1  0.18905457  0.15394862  0.52176448  1
  Co  Co150  1  0.98867744  0.41749227  0.25298050  1
  Co  Co151  1  0.11420413  0.82133813  0.18837470  1
  Co  Co152  1  0.10012597  0.32889016  0.32150775  1
  Co  Co153  1  0.08849025  0.55091740  0.24014637  1
  Co  Co154  1  0.47064181  0.93054647  0.77713017  1
  Co  Co155  1  0.69768567  0.45076697  0.63242176  1
  Co  Co156  1  0.32124705  0.78241055  0.42608668  1
  Co  Co157  1  0.23040724  0.55659160  0.51113839  1
  Co  Co158  1  0.61980629  0.12720412  0.02731367  1
  Co  Co159  1  0.27478785  0.68947357  0.88891625  1
  Co  Co160  1  0.26941646  0.50743011  0.85432891  1
  Co  Co161  1  0.11561561  0.47530687  0.81887679  1
  Ni  Ni162  1  0.65233220  0.59961607  0.04705749  1
  Ni  Ni163  1  0.54244322  0.13385368  0.25885335  1
  Ni  Ni164  1  0.50038310  0.40061337  0.25048039  1
  Ni  Ni165  1  0.80594772  0.56631882  0.58867682  1
  Ni  Ni166  1  0.70152833  0.57013280  0.31703536  1
  Ni  Ni167  1  0.50947138  0.61533649  0.45630483  1
  Ni  Ni168  1  0.57095148  0.92486032  0.06696638  1
  Ni  Ni169  1  0.37027237  0.04312840  0.94050667  1
  Ni  Ni170  1  0.73963102  0.90926880  0.33340625  1
  Ni  Ni171  1  0.02065504  0.10073332  0.12240007  1
  Ni  Ni172  1  -0.00007813  0.75829960  0.71188180  1
  Ni  Ni173  1  0.59831554  0.73369621  0.52809404  1
  Ni  Ni174  1  0.76635005  0.10599492  0.09725793  1
  Ni  Ni175  1  0.78332487  0.29229097  0.57624917  1
  Ni  Ni176  1  0.54498922  0.43947751  0.40644889  1
  Ni  Ni177  1  0.50015382  0.40554073  0.06428503  1
  Ni  Ni178  1  0.33263666  0.94694939  0.38995984  1
  Ni  Ni179  1  0.58004051  0.02122283  0.55238978  1
  Ni  Ni180  1  0.84984080  0.73656206  0.59415704  1
  Ni  Ni181  1  0.49945357  0.14158481  0.90049568  1
  Ni  Ni182  1  0.08349576  0.83523106  0.36576389  1
  Ni  Ni183  1  0.47603746  0.81105038  0.88724560  1
  Ni  Ni184  1  0.38780194  0.59150393  0.63058443  1
  Ni  Ni185  1  0.09737286  0.06668494  0.76307924  1
  Ni  Ni186  1  0.49174218  0.37411286  0.88834896  1
  Ni  Ni187  1  0.23716088  0.02940026  0.26488821  1
  Ni  Ni188  1  0.71251636  0.36418106  0.05971938  1
  Ni  Ni189  1  0.88861355  0.37354170  1.00357644  1
  Ni  Ni190  1  0.37668598  0.42696083  0.67780888  1
  Ni  Ni191  1  0.45086776  0.33818920  0.57064202  1
  Ni  Ni192  1  0.87635083  0.96591354  0.69030529  1
  Ni  Ni193  1  0.56380195  0.25050762  0.79749376  1
  Ni  Ni194  1  0.74149603  0.03682639  0.47871579  1
  Ni  Ni195  1  0.27426757  0.23152955  0.90992701  1
  Ni  Ni196  1  0.02580105  0.39538692  0.09264322  1
  Ni  Ni197  1  0.94248683  0.76212083  0.88844796  1
  Ni  Ni198  1  0.89896799  0.25409171  0.69908615  1
  Ni  Ni199  1  0.05175055  0.11971333  0.44404078  1
  Ni  Ni200  1  0.85352431  0.68251317  0.29291525  1
  Ni  Ni201  1  0.51689893  0.22484453  0.47787085  1
  Ni  Ni202  1  0.75513743  0.86957743  0.89526796  1
  Ni  Ni203  1  0.79931646  0.13332106  0.76237850  1
  Ni  Ni204  1  0.37206511  0.84561977  0.68223837  1
  Ni  Ni205  1  0.43066032  0.26193338  0.32593234  1
  Ni  Ni206  1  0.06085866  0.83310087  0.01484074  1
  Ni  Ni207  1  0.19819096  0.93551897  0.74583806  1
  Ni  Ni208  1  0.11506088  0.88838030  0.53660711  1
  Ni  Ni209  1  0.11215206  0.64757631  0.61773652  1
  Ni  Ni210  1  0.72982024  0.84827595  0.64581012  1
  Ni  Ni211  1  0.70948161  0.52359700  0.89940565  1
  Ni  Ni212  1  0.57206298  0.86908840  0.34827909  1
  Ni  Ni213  1  0.70634429  0.41553519  0.38090634  1
  Ni  Ni214  1  0.24459627  0.17868733  0.75654964  1
  Ni  Ni215  1  0.11550829  0.20719421  0.86226469  1
