# generated using pymatgen
data_Ti2CoNi
_symmetry_space_group_name_H-M   'P 1'
_cell_length_a   14.46019126
_cell_length_b   14.53450734
_cell_length_c   14.54928089
_cell_angle_alpha   89.91650880
_cell_angle_beta   90.18153307
_cell_angle_gamma   89.90164589
_symmetry_Int_Tables_number   1
_chemical_formula_structural   Ti2CoNi
_chemical_formula_sum   'Ti108 Co54 Ni54'
_cell_volume   3057.82479025
_cell_formula_units_Z   54
loop_
 _symmetry_equiv_pos_site_id
 _symmetry_equiv_pos_as_xyz
  1  'x, y, z'
loop_
 _atom_site_type_symbol
 _atom_site_label
 _atom_site_symmetry_multiplicity
 _atom_site_fract_x
 _atom_site_fract_y
 _atom_site_fract_z
 _atom_site_occupancy
  Ti  Ti0  1  0.04173707  0.04583504  -0.01468351  1
  Ti  Ti1  1  -0.08408508  -0.02793564  0.29129180  1
  Ti  Ti2  1  0.02666036  0.08148630  0.69521124  1
  Ti  Ti3  1  -0.02107831  0.32723478  0.01559176  1
  Ti  Ti4  1  0.04128360  0.34793694  0.32071131  1
  Ti  Ti5  1  0.04699535  0.28917494  0.69473638  1
  Ti  Ti6  1  0.02069884  0.65346665  0.00291147  1
  Ti  Ti7  1  0.00489891  0.79316024  0.34984064  1
  Ti  Ti8  1  0.00792561  0.61373188  0.75151294  1
  Ti  Ti9  1  0.33579134  -0.06131755  -0.01373423  1
  Ti  Ti10  1  0.41604224  0.05306214  0.29682639  1
  Ti  Ti11  1  0.37568582  0.03245771  0.68899135  1
  Ti  Ti12  1  0.34919859  0.39591942  0.04114462  1
  Ti  Ti13  1  0.37235941  0.25548348  0.31271330  1
  Ti  Ti14  1  0.35990863  0.35318736  0.72695175  1
  Ti  Ti15  1  0.22436296  0.67103569  0.00271730  1
  Ti  Ti16  1  0.31040249  0.63098388  0.38275357  1
  Ti  Ti17  1  0.28010304  0.60237177  0.62433274  1
  Ti  Ti18  1  0.66989844  0.00390107  -0.04341608  1
  Ti  Ti19  1  0.60888990  0.05223294  0.27136950  1
  Ti  Ti20  1  0.74433410  -0.06746750  0.73520474  1
  Ti  Ti21  1  0.68535286  0.28761627  0.04318720  1
  Ti  Ti22  1  0.74989565  0.42712149  0.33192233  1
  Ti  Ti23  1  0.70542429  0.37054293  0.63083584  1
  Ti  Ti24  1  0.65759196  0.61843260  -0.03798038  1
  Ti  Ti25  1  0.67977592  0.63838295  0.32733710  1
  Ti  Ti26  1  0.71700929  0.64526690  0.68339442  1
  Ti  Ti27  1  0.05811815  0.06503334  0.19763473  1
  Ti  Ti28  1  -0.00419308  0.15473014  0.36735863  1
  Ti  Ti29  1  -0.03800587  0.16755465  0.87581655  1
  Ti  Ti30  1  0.00766751  0.56572414  0.18509610  1
  Ti  Ti31  1  -0.08944582  0.44474559  0.44868967  1
  Ti  Ti32  1  0.00676592  0.47188091  0.89242117  1
  Ti  Ti33  1  0.00553136  0.87314597  0.14211286  1
  Ti  Ti34  1  -0.03392115  0.82194843  0.55031152  1
  Ti  Ti35  1  -0.03729468  0.80969335  0.89531357  1
  Ti  Ti36  1  0.27754725  0.13992869  0.18100607  1
  Ti  Ti37  1  0.36044980  0.10346487  0.49783570  1
  Ti  Ti38  1  0.29852309  0.17431330  0.77287392  1
  Ti  Ti39  1  0.28357499  0.53595922  0.15708284  1
  Ti  Ti40  1  0.34115290  0.41344773  0.53725775  1
  Ti  Ti41  1  0.34077418  0.53263280  0.82236670  1
  Ti  Ti42  1  0.44229690  0.85076214  0.14448914  1
  Ti  Ti43  1  0.33532935  0.81424757  0.47485128  1
  Ti  Ti44  1  0.33076843  0.73393165  0.77582621  1
  Ti  Ti45  1  0.75714659  0.24690100  0.23738571  1
  Ti  Ti46  1  0.65677466  0.17959020  0.52085106  1
  Ti  Ti47  1  0.65259576  0.10765387  0.76890241  1
  Ti  Ti48  1  0.61644476  0.54781836  0.14271962  1
  Ti  Ti49  1  0.54882592  0.45632738  0.48270541  1
  Ti  Ti50  1  0.64618274  0.41066572  0.85698262  1
  Ti  Ti51  1  0.75951549  0.80584403  0.21281863  1
  Ti  Ti52  1  0.64892109  0.87008623  0.51953496  1
  Ti  Ti53  1  0.58693673  0.86170974  0.81941923  1
  Ti  Ti54  1  0.19623352  -0.03712971  0.11779185  1
  Ti  Ti55  1  0.14858686  -0.01436940  0.50696463  1
  Ti  Ti56  1  0.20979059  -0.06644220  0.81246146  1
  Ti  Ti57  1  0.20121840  0.35048085  0.17894191  1
  Ti  Ti58  1  0.13742783  0.30647918  0.49436473  1
  Ti  Ti59  1  0.17874217  0.43038483  0.82085247  1
  Ti  Ti60  1  0.14442261  0.69030303  0.31121062  1
  Ti  Ti61  1  0.08537403  0.63702036  0.50982328  1
  Ti  Ti62  1  0.14271316  0.74836930  0.81611171  1
  Ti  Ti63  1  0.50397981  0.04938779  0.10889995  1
  Ti  Ti64  1  0.54191796  0.02347309  0.57471796  1
  Ti  Ti65  1  0.50265183  0.04290721  0.88379071  1
  Ti  Ti66  1  0.48645076  0.32314101  0.14548132  1
  Ti  Ti67  1  0.46364207  0.28467012  0.47192157  1
  Ti  Ti68  1  0.47336269  0.35840669  0.89367737  1
  Ti  Ti69  1  0.46336609  0.65304094  0.18294603  1
  Ti  Ti70  1  0.58785879  0.65681624  0.49516032  1
  Ti  Ti71  1  0.52771329  0.67907228  0.80493778  1
  Ti  Ti72  1  0.76838899  0.01633574  0.17605918  1
  Ti  Ti73  1  0.83144663  -0.02454959  0.47084627  1
  Ti  Ti74  1  0.88239997  -0.02060489  0.85662147  1
  Ti  Ti75  1  0.83873620  0.40523329  0.12986677  1
  Ti  Ti76  1  0.82457337  0.26052613  0.51613016  1
  Ti  Ti77  1  0.78959575  0.27583013  0.86453947  1
  Ti  Ti78  1  0.82140197  0.61761719  0.10626094  1
  Ti  Ti79  1  0.78311527  0.70814808  0.51893400  1
  Ti  Ti80  1  0.82395109  0.69302074  0.91401929  1
  Ti  Ti81  1  0.19205661  0.17685739  -0.06879103  1
  Ti  Ti82  1  0.21589088  0.15079687  0.38551155  1
  Ti  Ti83  1  0.20080096  0.15590548  0.60799282  1
  Ti  Ti84  1  0.13939299  0.47181702  0.03117430  1
  Ti  Ti85  1  0.24121909  0.43376590  0.35189661  1
  Ti  Ti86  1  0.14262204  0.46527563  0.62665207  1
  Ti  Ti87  1  0.11860320  0.85242202  -0.02080403  1
  Ti  Ti88  1  0.29797661  0.85822439  0.28765333  1
  Ti  Ti89  1  0.16264857  0.79423696  0.62254819  1
  Ti  Ti90  1  0.40745046  0.20067402  -0.04345746  1
  Ti  Ti91  1  0.56868055  0.22250518  0.32869455  1
  Ti  Ti92  1  0.52138233  0.20079799  0.63644573  1
  Ti  Ti93  1  0.47236924  0.54980946  -0.01315173  1
  Ti  Ti94  1  0.53300833  0.44825636  0.28831985  1
  Ti  Ti95  1  0.55495847  0.54391916  0.66602842  1
  Ti  Ti96  1  0.44778851  0.80306737  -0.06099418  1
  Ti  Ti97  1  0.50941937  0.81253087  0.33103689  1
  Ti  Ti98  1  0.46976297  0.84205823  0.65542449  1
  Ti  Ti99  1  0.86698215  0.19173251  0.08179471  1
  Ti  Ti100  1  0.78146347  0.12703754  0.37450221  1
  Ti  Ti101  1  0.83703850  0.10090091  0.64180185  1
  Ti  Ti102  1  0.81549471  0.48980700  -0.09256125  1
  Ti  Ti103  1  0.87717794  0.60684047  0.31968835  1
  Ti  Ti104  1  0.84197473  0.52057774  0.62358427  1
  Ti  Ti105  1  0.82810527  0.89571431  0.04398183  1
  Ti  Ti106  1  0.83129240  0.80114540  0.38148302  1
  Ti  Ti107  1  0.85559895  0.76556195  0.73979881  1
  Co  Co108  1  0.44327089  0.70629174  0.44590574  1
  Co  Co109  1  0.12772736  0.88592404  0.26799020  1
  Co  Co110  1  0.59683116  0.21067258  0.18025643  1
  Co  Co111  1  0.90648457  0.36882887  0.61515330  1
  Co  Co112  1  0.58690765  0.21353669  0.87321782  1
  Co  Co113  1  0.22391399  0.52481337  0.48098058  1
  Co  Co114  1  0.84926055  0.58581640  0.78003261  1
  Co  Co115  1  0.81564993  0.11574093  0.80890150  1
  Co  Co116  1  0.30681581  0.33176590  0.88657909  1
  Co  Co117  1  0.44889508  0.21629107  0.77420458  1
  Co  Co118  1  0.22706958  0.69936157  0.50914501  1
  Co  Co119  1  0.10991539  0.03195952  0.35189991  1
  Co  Co120  1  0.92156001  0.45296997  0.27258746  1
  Co  Co121  1  0.40472860  0.43519859  0.38852995  1
  Co  Co122  1  0.26545222  0.82624873  0.09532170  1
  Co  Co123  1  0.12681868  0.58651380  0.89702965  1
  Co  Co124  1  0.37306140  0.71897730  0.05983143  1
  Co  Co125  1  0.55144276  0.18994435  0.02132711  1
  Co  Co126  1  0.27481830  0.80591827  0.91709970  1
  Co  Co127  1  0.92909499  1.02340605  0.10620231  1
  Co  Co128  1  0.29267841  0.27887542  0.45672649  1
  Co  Co129  1  0.53305457  0.69197761  0.03879532  1
  Co  Co130  1  0.09458919  0.30640079  0.89365312  1
  Co  Co131  1  0.16955362  0.83746628  0.42723943  1
  Co  Co132  1  0.28205974  0.51550285  0.96802540  1
  Co  Co133  1  0.11634438  0.76441979  0.13045614  1
  Co  Co134  1  0.28814135  0.97210249  0.41763714  1
  Co  Co135  1  0.80823599  0.40922458  0.75575826  1
  Co  Co136  1  0.22603828  0.32826915  0.62840890  1
  Co  Co137  1  0.43058189  0.67688661  0.65424860  1
  Co  Co138  1  0.87578719  0.30482896  0.35872253  1
  Co  Co139  1  0.45757383  0.48658805  0.13248807  1
  Co  Co140  1  0.18741811  0.27539794  0.76869442  1
  Co  Co141  1  0.70379725  0.01482916  0.59877440  1
  Co  Co142  1  0.88216662  0.24508983  0.71193008  1
  Co  Co143  1  0.97654566  0.27840427  0.48588644  1
  Co  Co144  1  0.71598170  0.15786941  0.93932131  1
  Co  Co145  1  0.94537838  0.28578169  0.20544472  1
  Co  Co146  1  0.75659306  0.52839096  0.21618941  1
  Co  Co147  1  0.92143782  0.66972140  0.61638385  1
  Co  Co148  1  0.89474355  0.13785158  0.24424787  1
  Co  Co149  1  0.38133525  0.65578357  0.91625494  1
  Co  Co150  1  0.24532181  0.01775988  0.27092896  1
  Co  Co151  1  0.13313162  0.11436067  0.79317426  1
  Co  Co152  1  0.67197938  0.56678626  0.81259910  1
  Co  Co153  1  0.69157910  0.12287366  0.09568432  1
  Co  Co154  1  0.43057834  0.18014437  0.15395996  1
  Co  Co155  1  0.51107485  0.51316700  0.81795059  1
  Co  Co156  1  0.38256455  0.54874431  0.27332807  1
  Co  Co157  1  0.41888443  0.56375266  0.51568465  1
  Co  Co158  1  0.94194357  0.67208329  0.45076552  1
  Co  Co159  1  0.70008827  0.73833230  0.81692083  1
  Co  Co160  1  0.82523647  0.05571263  0.99343244  1
  Co  Co161  1  -0.01834805  0.45450806  0.73071166  1
  Ni  Ni162  1  0.07437203  0.15079762  0.51181705  1
  Ni  Ni163  1  0.90037468  0.75406633  1.05932050  1
  Ni  Ni164  1  0.73538893  0.94055864  0.32606040  1
  Ni  Ni165  1  0.77753005  0.55856951  0.44777265  1
  Ni  Ni166  1  0.65396142  0.37865881  0.18721866  1
  Ni  Ni167  1  0.17277586  0.59355294  0.74475451  1
  Ni  Ni168  1  0.13862166  0.15300289  0.08442092  1
  Ni  Ni169  1  0.56100715  0.97894443  0.72520445  1
  Ni  Ni170  1  0.35994946  0.39640394  0.23091406  1
  Ni  Ni171  1  0.06428437  0.92538613  0.64015231  1
  Ni  Ni172  1  0.71866084  0.75088802  0.06649055  1
  Ni  Ni173  1  0.14287374  0.21647321  0.25125378  1
  Ni  Ni174  1  0.60844118  0.72742209  0.20073250  1
  Ni  Ni175  1  0.50840180  0.12153824  0.44212473  1
  Ni  Ni176  1  0.40317369  0.49907819  0.67061120  1
  Ni  Ni177  1  0.96146716  0.71994544  0.20773615  1
  Ni  Ni178  1  0.70988020  0.46077055  0.02852089  1
  Ni  Ni179  1  0.64630748  0.03143588  0.43389448  1
  Ni  Ni180  1  1.00042349  0.93720473  0.42949729  1
  Ni  Ni181  1  0.94045667  0.50283640  0.03955318  1
  Ni  Ni182  1  0.30438299  0.86146086  0.66758655  1
  Ni  Ni183  1  0.04016851  0.40926852  0.15171760  1
  Ni  Ni184  1  0.01359257  0.78672451  0.71428665  1
  Ni  Ni185  1  0.67173916  0.31384848  0.40960146  1
  Ni  Ni186  1  0.49525575  0.94662027  0.42575993  1
  Ni  Ni187  1  0.35332018  0.22462791  0.61448036  1
  Ni  Ni188  1  0.56081556  0.40393433  1.02648516  1
  Ni  Ni189  1  0.94352182  0.33204647  0.83431955  1
  Ni  Ni190  1  0.15351760  0.61791759  0.15911543  1
  Ni  Ni191  1  0.30776895  0.70925956  0.21024236  1
  Ni  Ni192  1  0.60014626  0.91129254  0.18783647  1
  Ni  Ni193  1  0.72512017  0.22341557  0.68859910  1
  Ni  Ni194  1  0.68131533  0.51631745  0.55918376  1
  Ni  Ni195  1  0.58682656  0.30827863  0.74605580  1
  Ni  Ni196  1  0.31091262  0.08900488  0.03136189  1
  Ni  Ni197  1  0.79965077  0.86017330  0.59243678  1
  Ni  Ni198  1  0.50817923  0.36782974  0.62010285  1
  Ni  Ni199  1  0.04302403  0.56147750  0.35641197  1
  Ni  Ni200  1  0.08033032  0.44655725  0.45691111  1
  Ni  Ni201  1  0.96871323  0.03855109  0.54878082  1
  Ni  Ni202  1  0.58709527  0.73349703  0.63610042  1
  Ni  Ni203  1  0.27719469  0.25422593  0.05498487  1
  Ni  Ni204  1  0.53856144  0.91334667  0.02341083  1
  Ni  Ni205  1  0.03917657  0.92627667  0.80648455  1
  Ni  Ni206  1  0.62022100  0.79157020  0.95426151  1
  Ni  Ni207  1  -0.00474011  0.51956969  0.57427986  1
  Ni  Ni208  1  0.39339082  0.90912467  0.80913428  1
  Ni  Ni209  1  0.33383886  0.05680451  0.86970447  1
  Ni  Ni210  1  0.38791279  0.94581965  0.54760972  1
  Ni  Ni211  1  0.91122224  0.93734549  0.68903879  1
  Ni  Ni212  1  0.20734489  -0.00251979  0.66607923  1
  Ni  Ni213  1  0.76418628  0.86426013  0.89675854  1
  Ni  Ni214  1  0.66371931  0.79710187  0.37269244  1
  Ni  Ni215  1  0.51416615  0.60451741  0.34658445  1
