# generated using pymatgen
data_Ti2CoNi
_symmetry_space_group_name_H-M   'P 1'
_cell_length_a   14.65827092
_cell_length_b   14.62068276
_cell_length_c   14.63779054
_cell_angle_alpha   89.90960762
_cell_angle_beta   89.87777264
_cell_angle_gamma   90.13168951
_symmetry_Int_Tables_number   1
_chemical_formula_structural   Ti2CoNi
_chemical_formula_sum   'Ti108 Co54 Ni54'
_cell_volume   3137.06304948
_cell_formula_units_Z   54
loop_
 _symmetry_equiv_pos_site_id
 _symmetry_equiv_pos_as_xyz
  1  'x, y, z'
loop_
 _atom_site_type_symbol
 _atom_site_label
 _atom_site_symmetry_multiplicity
 _atom_site_fract_x
 _atom_site_fract_y
 _atom_site_fract_z
 _atom_site_occupancy
  Ti  Ti0  1  -0.05334369  0.04551978  0.05312893  1
  Ti  Ti1  1  0.07490318  0.05824173  0.31902669  1
  Ti  Ti2  1  0.04080766  -0.05505900  0.67070018  1
  Ti  Ti3  1  0.03728558  0.37143274  -0.07218901  1
  Ti  Ti4  1  -0.01752232  0.29308754  0.36247957  1
  Ti  Ti5  1  0.05758229  0.33641152  0.63280133  1
  Ti  Ti6  1  -0.06599318  0.62811261  0.02247702  1
  Ti  Ti7  1  0.06931409  0.59601862  0.34886406  1
  Ti  Ti8  1  0.03353150  0.59023008  0.64792947  1
  Ti  Ti9  1  0.37903508  -0.00182159  -0.03407397  1
  Ti  Ti10  1  0.30890893  0.06284536  0.29706616  1
  Ti  Ti11  1  0.35874587  -0.04547912  0.70832542  1
  Ti  Ti12  1  0.30356845  0.28973196  -0.03716747  1
  Ti  Ti13  1  0.37725608  0.36417242  0.35325801  1
  Ti  Ti14  1  0.31727759  0.33671160  0.64174958  1
  Ti  Ti15  1  0.37366575  0.60227574  0.03682315  1
  Ti  Ti16  1  0.35043972  0.75801172  0.32162295  1
  Ti  Ti17  1  0.36061760  0.68848607  0.65741800  1
  Ti  Ti18  1  0.73594984  -0.00094521  0.00807504  1
  Ti  Ti19  1  0.66979841  0.01346763  0.29009486  1
  Ti  Ti20  1  0.66588312  0.05413452  0.59533727  1
  Ti  Ti21  1  0.70086066  0.36520321  -0.05942124  1
  Ti  Ti22  1  0.67227721  0.34348286  0.33401624  1
  Ti  Ti23  1  0.62510535  0.34387763  0.71499380  1
  Ti  Ti24  1  0.62636477  0.60431883  0.00600439  1
  Ti  Ti25  1  0.68249299  0.68206576  0.31132065  1
  Ti  Ti26  1  0.65887582  0.65629124  0.65024323  1
  Ti  Ti27  1  -0.08491302  0.20976555  0.18395913  1
  Ti  Ti28  1  -0.06783480  0.23785827  0.54719891  1
  Ti  Ti29  1  -0.02613311  0.16845758  0.87651497  1
  Ti  Ti30  1  -0.06276458  0.55176085  0.19023745  1
  Ti  Ti31  1  -0.03589623  0.47049064  0.49075121  1
  Ti  Ti32  1  -0.03153065  0.57504893  0.84330452  1
  Ti  Ti33  1  0.03871181  0.73630984  0.19926607  1
  Ti  Ti34  1  -0.02076866  0.85253190  0.47347351  1
  Ti  Ti35  1  0.05387181  0.82728245  0.85744927  1
  Ti  Ti36  1  0.33175074  0.13362438  0.09693732  1
  Ti  Ti37  1  0.34421481  0.12340458  0.59641389  1
  Ti  Ti38  1  0.26880004  0.07789985  0.80217221  1
  Ti  Ti39  1  0.41394442  0.49385239  0.20998940  1
  Ti  Ti40  1  0.30070737  0.55476595  0.48903686  1
  Ti  Ti41  1  0.31712144  0.52595952  0.77323027  1
  Ti  Ti42  1  0.35180360  0.91700242  0.16756421  1
  Ti  Ti43  1  0.30132204  0.89044019  0.49522075  1
  Ti  Ti44  1  0.28831389  0.84721008  0.86627776  1
  Ti  Ti45  1  0.65895385  0.15438876  0.12000779  1
  Ti  Ti46  1  0.65452986  0.15941901  0.41764516  1
  Ti  Ti47  1  0.74990419  0.21217172  0.84395601  1
  Ti  Ti48  1  0.68900699  0.43182474  0.13277555  1
  Ti  Ti49  1  0.69912109  0.54744698  0.46640673  1
  Ti  Ti50  1  0.70690739  0.50977227  0.80002584  1
  Ti  Ti51  1  0.68998592  0.82440171  0.06592870  1
  Ti  Ti52  1  0.68096176  0.85118384  0.56706311  1
  Ti  Ti53  1  0.62058647  0.80487324  0.78707258  1
  Ti  Ti54  1  0.15565093  -0.08167266  0.19701813  1
  Ti  Ti55  1  0.18913188  0.06756228  0.48648215  1
  Ti  Ti56  1  0.11821707  0.03174987  0.92412286  1
  Ti  Ti57  1  0.06387585  0.37256617  0.19214571  1
  Ti  Ti58  1  0.17281676  0.26084196  0.50834020  1
  Ti  Ti59  1  0.19144138  0.37557528  0.80928931  1
  Ti  Ti60  1  0.14913094  0.62536117  0.05478498  1
  Ti  Ti61  1  0.11928853  0.71411251  0.52466814  1
  Ti  Ti62  1  0.17317136  0.64421115  0.81073342  1
  Ti  Ti63  1  0.49573144  0.05108211  0.15908627  1
  Ti  Ti64  1  0.55076886  -0.03163288  0.44984305  1
  Ti  Ti65  1  0.53557567  0.00862782  0.83612635  1
  Ti  Ti66  1  0.43293006  0.29289760  0.14657490  1
  Ti  Ti67  1  0.55238819  0.32001568  0.50292766  1
  Ti  Ti68  1  0.43179880  0.35688910  0.82661906  1
  Ti  Ti69  1  0.48049722  0.67473497  0.20899387  1
  Ti  Ti70  1  0.49188181  0.61377484  0.52735960  1
  Ti  Ti71  1  0.44502171  0.69035519  0.87036128  1
  Ti  Ti72  1  0.83245636  -0.06935328  0.19731347  1
  Ti  Ti73  1  0.94824007  0.04096939  0.49826610  1
  Ti  Ti74  1  0.75954035  -0.00257975  0.81002303  1
  Ti  Ti75  1  0.84177355  0.38191965  0.24043827  1
  Ti  Ti76  1  0.76027911  0.36075837  0.54034703  1
  Ti  Ti77  1  0.93047851  0.33246332  0.77533744  1
  Ti  Ti78  1  0.83353565  0.72865019  0.16722170  1
  Ti  Ti79  1  0.81259627  0.70991123  0.51799138  1
  Ti  Ti80  1  0.77808028  0.68335158  0.84342630  1
  Ti  Ti81  1  0.10325734  0.20149517  0.04394281  1
  Ti  Ti82  1  0.18773017  0.26638979  0.30803259  1
  Ti  Ti83  1  0.16938529  0.19167557  0.69060292  1
  Ti  Ti84  1  0.19012517  0.42743395  0.05992527  1
  Ti  Ti85  1  0.22021487  0.48117693  0.31658181  1
  Ti  Ti86  1  0.18299169  0.46431283  0.62156613  1
  Ti  Ti87  1  0.21241981  0.81762208  0.04271416  1
  Ti  Ti88  1  0.15614043  0.80114291  0.36293222  1
  Ti  Ti89  1  0.21588771  0.82813787  0.66420266  1
  Ti  Ti90  1  0.50881623  0.16777412  -0.01000310  1
  Ti  Ti91  1  0.46504046  0.19624155  0.36625941  1
  Ti  Ti92  1  0.48995936  0.20258344  0.69551998  1
  Ti  Ti93  1  0.51965755  0.43817301  0.02890770  1
  Ti  Ti94  1  0.54062207  0.49410176  0.36500142  1
  Ti  Ti95  1  0.51588642  0.52165964  0.71748426  1
  Ti  Ti96  1  0.49606164  0.82752170  0.06519909  1
  Ti  Ti97  1  0.53111055  0.85932734  0.26307743  1
  Ti  Ti98  1  0.50894716  0.83483928  0.61645788  1
  Ti  Ti99  1  0.81868785  0.17289318  0.00465197  1
  Ti  Ti100  1  0.84180261  0.11625891  0.34373166  1
  Ti  Ti101  1  0.79690392  0.20407611  0.67515709  1
  Ti  Ti102  1  0.86660728  0.43674176  0.03688137  1
  Ti  Ti103  1  0.86529680  0.61418745  0.35188241  1
  Ti  Ti104  1  0.84624770  0.58922206  0.66180165  1
  Ti  Ti105  1  0.89671216  0.86599628  0.00527973  1
  Ti  Ti106  1  0.78893235  0.84968812  0.39963427  1
  Ti  Ti107  1  0.83886418  0.91583584  0.63128226  1
  Co  Co108  1  0.47366072  0.37245606  0.64579493  1
  Co  Co109  1  0.20892773  0.95154697  0.36546519  1
  Co  Co110  1  0.39860156  0.26432858  0.52348741  1
  Co  Co111  1  0.39351809  0.57166859  0.35338481  1
  Co  Co112  1  0.10595971  0.54544511  0.19431079  1
  Co  Co113  1  0.64485215  0.94088117  0.70611387  1
  Co  Co114  1  0.88903896  0.80256552  0.28920639  1
  Co  Co115  1  0.98398750  0.88307186  0.14738105  1
  Co  Co116  1  0.57537267  0.47408248  0.55568329  1
  Co  Co117  1  0.78277364  0.70453747  0.00900462  1
  Co  Co118  1  0.71303467  0.49757749  0.62654373  1
  Co  Co119  1  0.51492815  0.13575529  0.53130681  1
  Co  Co120  1  0.62827894  0.84143376  0.39141737  1
  Co  Co121  1  0.06082556  0.11654676  0.59826819  1
  Co  Co122  1  -0.00667798  0.73088513  0.37514129  1
  Co  Co123  1  0.29569679  0.20172950  0.41520513  1
  Co  Co124  1  0.08225571  0.04444162  0.12359974  1
  Co  Co125  1  0.50416647  0.04531525  0.31817736  1
  Co  Co126  1  0.22191782  0.26366360  0.12657341  1
  Co  Co127  1  0.08416640  0.07595179  0.76604811  1
  Co  Co128  1  0.26763836  0.38297225  0.47035640  1
  Co  Co129  1  0.25912548  0.13256872  0.95370186  1
  Co  Co130  1  0.77971408  0.29983517  0.09585350  1
  Co  Co131  1  0.42864186  0.43693863  0.48945881  1
  Co  Co132  1  0.17436874  0.93272820  0.78460499  1
  Co  Co133  1  0.33220681  0.22105676  0.24967131  1
  Co  Co134  1  0.20126602  0.01652156  0.64461706  1
  Co  Co135  1  0.90002831  0.96561627  0.36197511  1
  Co  Co136  1  0.28387491  0.38347293  0.20431273  1
  Co  Co137  1  0.87037539  0.30817723  0.93155772  1
  Co  Co138  1  0.95877889  0.63667114  0.50407955  1
  Co  Co139  1  0.65179696  0.10650141  0.92560746  1
  Co  Co140  1  0.91671095  0.74146609  0.90987968  1
  Co  Co141  1  0.27700166  0.46262820  0.91647047  1
  Co  Co142  1  0.12913085  0.55142801  0.49443800  1
  Co  Co143  1  0.54462934  -0.00851126  0.00685260  1
  Co  Co144  1  0.95296090  0.04224624  0.22254440  1
  Co  Co145  1  0.26520319  0.54545740  0.15416643  1
  Co  Co146  1  0.59698722  0.62299653  0.83758896  1
  Co  Co147  1  0.06823688  0.19655250  0.21604337  1
  Co  Co148  1  0.97920783  0.19385760  0.71248031  1
  Co  Co149  1  0.37104317  0.50349946  0.62727629  1
  Co  Co150  1  0.63412321  0.70641477  0.15458345  1
  Co  Co151  1  0.20332838  0.11142952  0.19281081  1
  Co  Co152  1  0.57338549  0.43649541  0.86634109  1
  Co  Co153  1  0.93342286  0.70658790  0.75757791  1
  Co  Co154  1  0.58910829  0.18302575  0.26385614  1
  Co  Co155  1  0.74879261  0.22382457  0.25208032  1
  Co  Co156  1  0.51411880  0.69009487  0.70748348  1
  Co  Co157  1  0.96392286  0.30088440  0.06461719  1
  Co  Co158  1  0.76986148  0.54660445  0.96293591  1
  Co  Co159  1  0.02952786  0.88942154  0.30598519  1
  Co  Co160  1  0.63953876  0.96319177  0.14074951  1
  Co  Co161  1  0.08007153  0.91512736  1.02070377  1
  Ni  Ni162  1  0.81628083  0.27423523  0.39993214  1
  Ni  Ni163  1  0.77105287  0.57951773  0.13102477  1
  Ni  Ni164  1  0.70201486  0.83623385  0.24074969  1
  Ni  Ni165  1  0.13283548  0.90817582  0.52599654  1
  Ni  Ni166  1  0.57604235  0.54690518  0.16786192  1
  Ni  Ni167  1  0.46869351  0.86463198  0.90428594  1
  Ni  Ni168  1  0.35030124  0.75061695  0.12863297  1
  Ni  Ni169  1  0.85367992  0.45797618  0.85867053  1
  Ni  Ni170  1  0.20836212  0.73666935  0.21001854  1
  Ni  Ni171  1  0.57449757  0.24970387  0.85348214  1
  Ni  Ni172  1  0.73918441  0.99867068  0.45244496  1
  Ni  Ni173  1  0.30526501  0.72840550  0.49986330  1
  Ni  Ni174  1  0.23009960  0.64754838  0.36865041  1
  Ni  Ni175  1  0.71692911  0.51418696  0.28285085  1
  Ni  Ni176  1  0.02924122  0.48270153  0.05736481  1
  Ni  Ni177  1  0.89174207  0.07196994  0.64985580  1
  Ni  Ni178  1  0.79950575  0.08337169  0.16091908  1
  Ni  Ni179  1  0.27240943  0.69334424  0.93848876  1
  Ni  Ni180  1  0.63796724  0.12267662  0.75108896  1
  Ni  Ni181  1  0.78487631  0.38009137  0.71874371  1
  Ni  Ni182  1  0.52492569  0.67197090  0.37157924  1
  Ni  Ni183  1  0.39149427  0.92087574  0.34707776  1
  Ni  Ni184  1  0.50764393  0.03716066  0.67239589  1
  Ni  Ni185  1  0.46821638  0.80369282  0.45176247  1
  Ni  Ni186  1  0.94439939  0.76817110  0.61192991  1
  Ni  Ni187  1  0.35752982  0.42991450  0.05366650  1
  Ni  Ni188  1  0.97953971  0.45650509  0.31976989  1
  Ni  Ni189  1  0.63142465  0.71061766  0.48867654  1
  Ni  Ni190  1  0.38324076  0.06461420  0.44118859  1
  Ni  Ni191  1  0.60062766  0.75691385  0.94204078  1
  Ni  Ni192  1  0.90215965  0.01266516  0.89780770  1
  Ni  Ni193  1  0.82058689  0.44364206  0.39757161  1
  Ni  Ni194  1  0.54859526  0.38325998  0.22325439  1
  Ni  Ni195  1  0.12029072  0.52170633  0.91724817  1
  Ni  Ni196  1  0.14010775  0.22061163  0.87162412  1
  Ni  Ni197  1  0.10771332  0.40094618  0.42206165  1
  Ni  Ni198  1  0.92250472  0.44162648  0.64754095  1
  Ni  Ni199  1  0.06056776  0.46356840  0.75957479  1
  Ni  Ni200  1  0.08431852  0.74514830  0.70286755  1
  Ni  Ni201  1  0.78693737  0.76799722  0.69136446  1
  Ni  Ni202  1  0.65144758  0.22071240  0.59218095  1
  Ni  Ni203  1  0.29949203  0.24615290  0.78711321  1
  Ni  Ni204  1  0.41319373  0.16091602  0.86268270  1
  Ni  Ni205  1  0.05018506  0.16794843  0.44024281  1
  Ni  Ni206  1  0.04102145  0.76011030  0.02617681  1
  Ni  Ni207  1  0.59723509  0.29804610  0.07046910  1
  Ni  Ni208  1  0.79512853  0.14381035  0.51519636  1
  Ni  Ni209  1  0.23077300  0.99449445  0.05914810  1
  Ni  Ni210  1  0.89049838  0.86913414  0.79945458  1
  Ni  Ni211  1  0.43640998  0.51759619  0.89992146  1
  Ni  Ni212  1  0.75954370  0.84195996  0.90311593  1
  Ni  Ni213  1  0.42830669  0.96703295  0.55551319  1
  Ni  Ni214  1  0.41509756  0.81098006  0.75788167  1
  Ni  Ni215  1  0.20947279  0.63057167  0.63826689  1
