# generated using pymatgen
data_Ti2CoNi
_symmetry_space_group_name_H-M   'P 1'
_cell_length_a   14.62602985
_cell_length_b   14.64452822
_cell_length_c   14.67133393
_cell_angle_alpha   90.19974048
_cell_angle_beta   89.96683356
_cell_angle_gamma   90.13037196
_symmetry_Int_Tables_number   1
_chemical_formula_structural   Ti2CoNi
_chemical_formula_sum   'Ti108 Co54 Ni54'
_cell_volume   3142.44444597
_cell_formula_units_Z   54
loop_
 _symmetry_equiv_pos_site_id
 _symmetry_equiv_pos_as_xyz
  1  'x, y, z'
loop_
 _atom_site_type_symbol
 _atom_site_label
 _atom_site_symmetry_multiplicity
 _atom_site_fract_x
 _atom_site_fract_y
 _atom_site_fract_z
 _atom_site_occupancy
  Ti  Ti0  1  0.06387868  0.04803703  -0.05158252  1
  Ti  Ti1  1  0.07166094  0.01313161  0.27567825  1
  Ti  Ti2  1  -0.07545223  -0.03763276  0.68715161  1
  Ti  Ti3  1  -0.05309615  0.30426590  0.04754194  1
  Ti  Ti4  1  -0.05631060  0.33016453  0.30212159  1
  Ti  Ti5  1  0.05307195  0.36633491  0.66781200  1
  Ti  Ti6  1  0.03484125  0.65268882  -0.01115719  1
  Ti  Ti7  1  0.05749623  0.64266695  0.39400822  1
  Ti  Ti8  1  0.02705998  0.57565684  0.62850494  1
  Ti  Ti9  1  0.33044874  -0.03545535  0.00559087  1
  Ti  Ti10  1  0.36368927  -0.08787934  0.32556685  1
  Ti  Ti11  1  0.25764638  0.02856496  0.64743268  1
  Ti  Ti12  1  0.34430537  0.36817754  -0.15767525  1
  Ti  Ti13  1  0.32567513  0.39809215  0.33820498  1
  Ti  Ti14  1  0.38246715  0.37907563  0.65305342  1
  Ti  Ti15  1  0.40643895  0.64479105  0.01549679  1
  Ti  Ti16  1  0.30419581  0.70098172  0.30085032  1
  Ti  Ti17  1  0.35227665  0.60158799  0.65441264  1
  Ti  Ti18  1  0.65463054  -0.06269693  0.08026217  1
  Ti  Ti19  1  0.63327444  0.04941157  0.27572017  1
  Ti  Ti20  1  0.68319112  -0.04733282  0.63974210  1
  Ti  Ti21  1  0.65194344  0.39475976  -0.07237751  1
  Ti  Ti22  1  0.73208319  0.24362276  0.36817765  1
  Ti  Ti23  1  0.67427401  0.27242146  0.56174255  1
  Ti  Ti24  1  0.59624411  0.65278127  -0.01887647  1
  Ti  Ti25  1  0.59336316  0.71107467  0.35549514  1
  Ti  Ti26  1  0.62257511  0.69163322  0.69495924  1
  Ti  Ti27  1  0.03983087  0.17720482  0.16827509  1
  Ti  Ti28  1  -0.03498376  0.12343159  0.59352441  1
  Ti  Ti29  1  -0.05005128  0.17240478  0.81528469  1
  Ti  Ti30  1  0.05209206  0.42051941  0.16062448  1
  Ti  Ti31  1  -0.05867361  0.51013582  0.46335488  1
  Ti  Ti32  1  -0.01993818  0.52243366  0.82677662  1
  Ti  Ti33  1  -0.07190652  0.87281601  0.15624477  1
  Ti  Ti34  1  -0.01004132  0.88358917  0.52036745  1
  Ti  Ti35  1  0.05515870  0.89107068  0.79457242  1
  Ti  Ti36  1  0.37093922  0.23475770  0.21286043  1
  Ti  Ti37  1  0.34889530  0.11858900  0.47572403  1
  Ti  Ti38  1  0.33930772  0.19289671  0.77121157  1
  Ti  Ti39  1  0.37153319  0.53697405  0.20187797  1
  Ti  Ti40  1  0.36066614  0.59586036  0.45876534  1
  Ti  Ti41  1  0.26168822  0.57456296  0.82640784  1
  Ti  Ti42  1  0.35759863  0.80882753  0.12882192  1
  Ti  Ti43  1  0.30641311  0.80309825  0.49737515  1
  Ti  Ti44  1  0.30609872  0.79172467  0.90873219  1
  Ti  Ti45  1  0.66717890  0.14647977  0.10048653  1
  Ti  Ti46  1  0.60373163  0.10857439  0.47853706  1
  Ti  Ti47  1  0.71752021  0.22019383  0.86235677  1
  Ti  Ti48  1  0.70118668  0.51461835  0.17256923  1
  Ti  Ti49  1  0.64033406  0.53555377  0.53172478  1
  Ti  Ti50  1  0.78409470  0.51133526  0.80819259  1
  Ti  Ti51  1  0.69520656  0.77591120  0.19443450  1
  Ti  Ti52  1  0.59986661  0.86116350  0.47849659  1
  Ti  Ti53  1  0.67616334  0.88592668  0.88713986  1
  Ti  Ti54  1  0.23115598  0.08884545  0.18814149  1
  Ti  Ti55  1  0.17143216  -0.02862441  0.43794789  1
  Ti  Ti56  1  0.22580588  0.02707016  0.83099151  1
  Ti  Ti57  1  0.20875651  0.27965643  0.12309432  1
  Ti  Ti58  1  0.21534404  0.31357543  0.50649481  1
  Ti  Ti59  1  0.07064488  0.33138141  0.86234530  1
  Ti  Ti60  1  0.13175028  0.60479903  0.20859495  1
  Ti  Ti61  1  0.18532616  0.66285895  0.53840005  1
  Ti  Ti62  1  0.13551553  0.72523790  0.82850801  1
  Ti  Ti63  1  0.47823565  0.08161325  0.17480624  1
  Ti  Ti64  1  0.47383768  -0.02833173  0.56325595  1
  Ti  Ti65  1  0.52542677  0.13056433  0.81465486  1
  Ti  Ti66  1  0.56997837  0.33228965  0.13945468  1
  Ti  Ti67  1  0.41369493  0.30316141  0.47090455  1
  Ti  Ti68  1  0.51704517  0.32079399  0.82577295  1
  Ti  Ti69  1  0.54376545  0.63166245  0.17135020  1
  Ti  Ti70  1  0.46234320  0.74185240  0.58812448  1
  Ti  Ti71  1  0.46404797  0.64211875  0.81984584  1
  Ti  Ti72  1  0.80386115  -0.02923584  0.26388640  1
  Ti  Ti73  1  0.82938452  -0.02021164  0.48810781  1
  Ti  Ti74  1  0.78947144  0.01023572  0.80913497  1
  Ti  Ti75  1  0.77834482  0.31129678  0.18647991  1
  Ti  Ti76  1  0.84030234  0.34972172  0.48349931  1
  Ti  Ti77  1  0.85206072  0.36671523  0.90833534  1
  Ti  Ti78  1  0.85007496  0.64957105  0.18102836  1
  Ti  Ti79  1  0.82448695  0.66199352  0.53604412  1
  Ti  Ti80  1  0.78175729  0.70269525  0.86725132  1
  Ti  Ti81  1  0.23258666  0.21970935  -0.06732264  1
  Ti  Ti82  1  0.11732081  0.18108300  0.37818184  1
  Ti  Ti83  1  0.14447710  0.18715497  0.69441414  1
  Ti  Ti84  1  0.22882181  0.49836354  0.04615228  1
  Ti  Ti85  1  0.10206017  0.43522138  0.35588861  1
  Ti  Ti86  1  0.20853462  0.47496773  0.62897185  1
  Ti  Ti87  1  0.14139443  0.83759193  0.06806883  1
  Ti  Ti88  1  0.06261267  0.82298159  0.29220157  1
  Ti  Ti89  1  0.16051532  0.85584552  0.62744701  1
  Ti  Ti90  1  0.50519535  0.06856384  -0.01400087  1
  Ti  Ti91  1  0.48321013  0.17585106  0.34578635  1
  Ti  Ti92  1  0.47823457  0.21190638  0.62260822  1
  Ti  Ti93  1  0.45205500  0.40463042  0.01735861  1
  Ti  Ti94  1  0.57198467  0.50439953  0.33147645  1
  Ti  Ti95  1  0.59110594  0.46803849  0.72258520  1
  Ti  Ti96  1  0.49338979  0.82739456  -0.05689005  1
  Ti  Ti97  1  0.53772561  0.88906577  0.24478221  1
  Ti  Ti98  1  0.52192913  0.86309528  0.73025363  1
  Ti  Ti99  1  0.84561521  0.11144766  -0.02342306  1
  Ti  Ti100  1  0.90848440  0.12796975  0.34452982  1
  Ti  Ti101  1  0.80922197  0.22655445  0.68761150  1
  Ti  Ti102  1  0.86514580  0.54351358  0.01475742  1
  Ti  Ti103  1  0.79621272  0.48112752  0.33240272  1
  Ti  Ti104  1  0.86097473  0.44882239  0.64176071  1
  Ti  Ti105  1  0.95371158  0.83874894  -0.03937050  1
  Ti  Ti106  1  0.86296589  0.79411382  0.32988554  1
  Ti  Ti107  1  0.87672034  0.77766886  0.68993192  1
  Co  Co108  1  0.98001346  0.68551521  0.26281979  1
  Co  Co109  1  0.35751209  0.89088358  0.65306373  1
  Co  Co110  1  0.81573599  0.17961519  0.50984071  1
  Co  Co111  1  0.71743307  0.82779197  0.73642194  1
  Co  Co112  1  0.48641316  0.53211460  0.60594064  1
  Co  Co113  1  0.13100398  0.51355252  0.49283850  1
  Co  Co114  1  0.85632602  0.85582071  0.83006335  1
  Co  Co115  1  0.01661118  0.74264555  0.12089783  1
  Co  Co116  1  0.47766399  0.35148215  0.28921449  1
  Co  Co117  1  0.45183568  0.61162042  0.32517176  1
  Co  Co118  1  0.08218079  0.99046231  0.11689659  1
  Co  Co119  1  0.18796779  0.11854020  0.52240418  1
  Co  Co120  1  0.28348443  0.22885521  0.36412388  1
  Co  Co121  1  0.54392614  0.77551250  0.09642462  1
  Co  Co122  1  0.60684011  0.21608520  0.24620540  1
  Co  Co123  1  0.95857893  0.24528604  0.43900262  1
  Co  Co124  1  0.38957975  0.77681765  0.77045144  1
  Co  Co125  1  0.35835435  0.98147775  0.17552469  1
  Co  Co126  1  0.42281635  0.48868244  0.76627883  1
  Co  Co127  1  0.34385666  0.07723435  0.31446046  1
  Co  Co128  1  0.12482638  0.36323199  0.01439191  1
  Co  Co129  1  0.71715491  0.63496123  0.28480043  1
  Co  Co130  1  0.29808096  0.35399666  0.00750753  1
  Co  Co131  1  0.76674932  0.14333423  0.24389994  1
  Co  Co132  1  0.20684536  0.41246465  0.88695465  1
  Co  Co133  1  0.60658584  0.74636886  0.84726735  1
  Co  Co134  1  0.64139486  0.58709432  0.82256714  1
  Co  Co135  1  0.51842021  0.62831400  0.47704769  1
  Co  Co136  1  0.21748607  0.33140716  0.72819354  1
  Co  Co137  1  0.08814256  1.00646348  0.60532190  1
  Co  Co138  1  0.59494588  0.99016116  0.79232648  1
  Co  Co139  1  0.56826036  0.28846671  0.42704952  1
  Co  Co140  1  0.47869131  0.45977737  0.44907032  1
  Co  Co141  1  0.28203075  0.74701868  0.65814557  1
  Co  Co142  1  0.16999176  0.63227207  0.69793128  1
  Co  Co143  1  0.34900797  0.13352067  0.06699065  1
  Co  Co144  1  0.78584107  0.02826008  0.11250123  1
  Co  Co145  1  0.80260440  0.93416116  0.97823539  1
  Co  Co146  1  0.86371049  0.63497972  0.37434415  1
  Co  Co147  1  0.52349099  0.49421790  0.89414541  1
  Co  Co148  1  0.93021260  0.28461742  0.60041747  1
  Co  Co149  1  0.35972493  0.38334635  0.15826418  1
  Co  Co150  1  0.02895611  0.38984932  0.51070378  1
  Co  Co151  1  0.99018595  0.57292073  0.12967418  1
  Co  Co152  1  0.23951866  0.87037688  0.77380985  1
  Co  Co153  1  0.45897679  0.75248194  0.24241888  1
  Co  Co154  1  -0.03353248  0.51752539  0.29450511  1
  Co  Co155  1  0.93644934  0.04698175  0.19417185  1
  Co  Co156  1  0.93741726  -0.00422880  0.86733667  1
  Co  Co157  1  0.36285551  0.51505487  0.93268903  1
  Co  Co158  1  0.35827544  0.09415346  0.90013089  1
  Co  Co159  1  0.18468683  0.75861344  0.20136671  1
  Co  Co160  1  0.12114686  0.54209656  0.91513231  1
  Co  Co161  1  0.12472260  0.48364942  0.76562475  1
  Ni  Ni162  1  0.65267913  0.37091502  0.28400171  1
  Ni  Ni163  1  0.21512776  0.66407889  0.97394552  1
  Ni  Ni164  1  0.99821499  0.46000098  0.98998500  1
  Ni  Ni165  1  0.05851037  0.05828656  0.76061126  1
  Ni  Ni166  1  0.44597826  0.77107003  0.41204891  1
  Ni  Ni167  1  0.88828186  0.61459007  0.71543276  1
  Ni  Ni168  1  0.87241228  0.45484838  0.17238105  1
  Ni  Ni169  1  0.68928927  0.11339211  0.74128446  1
  Ni  Ni170  1  0.02570313  0.05685389  0.45522765  1
  Ni  Ni171  1  0.73441532  0.36191205  0.76045683  1
  Ni  Ni172  1  0.64934457  0.71003073  0.53943748  1
  Ni  Ni173  1  0.11668036  0.79566353  0.46279137  1
  Ni  Ni174  1  0.20433994  0.07066058  0.02065489  1
  Ni  Ni175  1  0.07467342  0.20600218  0.99750989  1
  Ni  Ni176  1  0.73667842  0.57928240  0.66341168  1
  Ni  Ni177  1  0.68706751  0.89542113  0.34614297  1
  Ni  Ni178  1  0.61631535  0.25567920  0.71588115  1
  Ni  Ni179  1  0.98359350  0.71112014  0.52887803  1
  Ni  Ni180  1  0.77846311  0.83416459  0.56216451  1
  Ni  Ni181  1  0.41808387  0.04873461  0.70824512  1
  Ni  Ni182  1  0.30401004  0.21400414  0.61265674  1
  Ni  Ni183  1  0.49366652  1.00424197  0.39047630  1
  Ni  Ni184  1  0.74046331  0.75406514  0.41802040  1
  Ni  Ni185  1  0.58692717  0.23470594  -0.02651591  1
  Ni  Ni186  1  0.21815876  0.83357521  0.34498406  1
  Ni  Ni187  1  0.21508148  0.45026373  0.21975683  1
  Ni  Ni188  1  0.80533292  0.06613758  0.63457727  1
  Ni  Ni189  1  0.04308176  0.74919999  0.68041531  1
  Ni  Ni190  1  0.54389866  0.37534936  0.57846330  1
  Ni  Ni191  1  0.42010403  0.24090317  0.94622295  1
  Ni  Ni192  1  0.75914553  0.25990450  1.01880489  1
  Ni  Ni193  1  0.22234775  0.55898861  0.35681957  1
  Ni  Ni194  1  0.20710297  0.92194841  0.20597910  1
  Ni  Ni195  1  0.14848618  0.29912130  0.27250774  1
  Ni  Ni196  1  0.57079311  0.08357636  0.64317105  1
  Ni  Ni197  1  0.68034020  0.40326394  0.44618621  1
  Ni  Ni198  1  0.16857012  0.89976989  0.92091507  1
  Ni  Ni199  1  0.71494845  0.54665302  0.96303287  1
  Ni  Ni200  1  0.58465618  0.49618464  0.05738905  1
  Ni  Ni201  1  0.48436354  0.92974571  0.08348651  1
  Ni  Ni202  1  0.74522831  0.07612638  0.39526234  1
  Ni  Ni203  1  0.93961644  0.99122802  0.04077695  1
  Ni  Ni204  1  0.75845027  0.41581686  0.05479874  1
  Ni  Ni205  1  0.32111117  0.44940105  0.50900302  1
  Ni  Ni206  1  0.96279266  0.71780199  0.83384365  1
  Ni  Ni207  1  0.67478208  0.06324635  0.93609818  1
  Ni  Ni208  1  0.69955733  0.77925320  0.01920257  1
  Ni  Ni209  1  0.07876467  0.23628149  0.54317988  1
  Ni  Ni210  1  0.43180561  0.95479414  0.84829653  1
  Ni  Ni211  1  0.87120520  0.18147045  0.13119079  1
  Ni  Ni212  1  0.28082230  0.65472991  0.12498097  1
  Ni  Ni213  1  0.94594446  0.94277885  0.35901275  1
  Ni  Ni214  1  0.91384830  0.34395240  0.76260418  1
  Ni  Ni215  1  0.31890861  -0.03781424  0.50582334  1
