# generated using pymatgen
data_Ti2CoNi
_symmetry_space_group_name_H-M   'P 1'
_cell_length_a   14.72192219
_cell_length_b   14.69804257
_cell_length_c   14.63481140
_cell_angle_alpha   90.17404084
_cell_angle_beta   89.81689549
_cell_angle_gamma   90.08787490
_symmetry_Int_Tables_number   1
_chemical_formula_structural   Ti2CoNi
_chemical_formula_sum   'Ti108 Co54 Ni54'
_cell_volume   3166.69636097
_cell_formula_units_Z   54
loop_
 _symmetry_equiv_pos_site_id
 _symmetry_equiv_pos_as_xyz
  1  'x, y, z'
loop_
 _atom_site_type_symbol
 _atom_site_label
 _atom_site_symmetry_multiplicity
 _atom_site_fract_x
 _atom_site_fract_y
 _atom_site_fract_z
 _atom_site_occupancy
  Ti  Ti0  1  0.04170527  -0.00146348  -0.02823397  1
  Ti  Ti1  1  0.05531359  0.00994840  0.31600905  1
  Ti  Ti2  1  0.00970421  0.02951562  0.64646875  1
  Ti  Ti3  1  0.05443310  0.38676773  0.04933314  1
  Ti  Ti4  1  -0.00446238  0.34936950  0.36422197  1
  Ti  Ti5  1  0.05143227  0.31939479  0.62827100  1
  Ti  Ti6  1  -0.02146886  0.58018503  0.04840115  1
  Ti  Ti7  1  -0.06895595  0.70672246  0.37918688  1
  Ti  Ti8  1  0.08003291  0.64318118  0.63224223  1
  Ti  Ti9  1  0.31417721  0.07452391  0.00816300  1
  Ti  Ti10  1  0.29403589  -0.03452707  0.29714336  1
  Ti  Ti11  1  0.38666057  0.04220394  0.69050316  1
  Ti  Ti12  1  0.26376330  0.26817659  -0.02908365  1
  Ti  Ti13  1  0.33901420  0.34838918  0.38340410  1
  Ti  Ti14  1  0.38794049  0.32792175  0.70414659  1
  Ti  Ti15  1  0.30233941  0.71810084  -0.04090218  1
  Ti  Ti16  1  0.33284587  0.63201559  0.32004215  1
  Ti  Ti17  1  0.29832507  0.62709278  0.64658862  1
  Ti  Ti18  1  0.72195286  -0.04708133  0.01831349  1
  Ti  Ti19  1  0.69425060  -0.00584697  0.35160062  1
  Ti  Ti20  1  0.68696852  -0.00414164  0.70973084  1
  Ti  Ti21  1  0.66581714  0.30095269  0.00670932  1
  Ti  Ti22  1  0.69206629  0.31273126  0.30618670  1
  Ti  Ti23  1  0.72341749  0.30030841  0.66751518  1
  Ti  Ti24  1  0.64382120  0.61658836  -0.01532933  1
  Ti  Ti25  1  0.65371941  0.68506409  0.27541310  1
  Ti  Ti26  1  0.77396449  0.63952513  0.66115039  1
  Ti  Ti27  1  0.03875637  0.20940162  0.22673153  1
  Ti  Ti28  1  -0.06728366  0.16402658  0.49779749  1
  Ti  Ti29  1  0.08828562  0.19634357  0.78533961  1
  Ti  Ti30  1  -0.03980828  0.50906431  0.22392881  1
  Ti  Ti31  1  -0.01051911  0.47195488  0.53967592  1
  Ti  Ti32  1  0.02366906  0.54983771  0.82595557  1
  Ti  Ti33  1  0.02542635  0.87890340  0.17036897  1
  Ti  Ti34  1  -0.00579144  0.88046098  0.50614960  1
  Ti  Ti35  1  -0.07167614  0.84240811  0.90668932  1
  Ti  Ti36  1  0.40811788  0.21104023  0.11658077  1
  Ti  Ti37  1  0.35342780  0.07283802  0.50042194  1
  Ti  Ti38  1  0.28153792  0.18165500  0.79760974  1
  Ti  Ti39  1  0.39982957  0.54394693  0.14676693  1
  Ti  Ti40  1  0.36277478  0.51952420  0.49916710  1
  Ti  Ti41  1  0.30904909  0.46938770  0.83768063  1
  Ti  Ti42  1  0.32682880  0.76807422  0.17048528  1
  Ti  Ti43  1  0.29936013  0.88116773  0.50576021  1
  Ti  Ti44  1  0.40157607  0.85317031  0.81373669  1
  Ti  Ti45  1  0.60090278  0.13054429  0.10762044  1
  Ti  Ti46  1  0.64230196  0.18327624  0.44443269  1
  Ti  Ti47  1  0.68076662  0.10210988  0.92111791  1
  Ti  Ti48  1  0.65039738  0.47622931  0.22369991  1
  Ti  Ti49  1  0.64192588  0.53237081  0.57039585  1
  Ti  Ti50  1  0.62208490  0.53489302  0.80750257  1
  Ti  Ti51  1  0.72831150  0.82580030  0.15187542  1
  Ti  Ti52  1  0.66731160  0.87371574  0.54611538  1
  Ti  Ti53  1  0.67011832  0.79428008  0.73247948  1
  Ti  Ti54  1  0.16400577  0.02815187  0.13572467  1
  Ti  Ti55  1  0.15851065  0.06613619  0.47243631  1
  Ti  Ti56  1  0.25991947  -0.01004208  0.84484108  1
  Ti  Ti57  1  0.23496741  0.37177254  0.15590605  1
  Ti  Ti58  1  0.16582492  0.27164954  0.47811871  1
  Ti  Ti59  1  0.13164114  0.38298834  0.83562423  1
  Ti  Ti60  1  0.12439227  0.71737253  0.09767333  1
  Ti  Ti61  1  0.20588868  0.69851700  0.47102450  1
  Ti  Ti62  1  0.16205022  0.69511963  0.80646721  1
  Ti  Ti63  1  0.50057972  -0.01369817  0.23487906  1
  Ti  Ti64  1  0.51785476  -0.00599987  0.55449634  1
  Ti  Ti65  1  0.50266049  0.01476142  0.83105957  1
  Ti  Ti66  1  0.45677668  0.36597539  0.19367653  1
  Ti  Ti67  1  0.49396090  0.31245678  0.51227677  1
  Ti  Ti68  1  0.57381611  0.31883746  0.81518032  1
  Ti  Ti69  1  0.52546021  0.75054470  0.14948646  1
  Ti  Ti70  1  0.51782062  0.65865191  0.43642011  1
  Ti  Ti71  1  0.45321439  0.62759125  0.86282622  1
  Ti  Ti72  1  0.85248038  -0.01429656  0.19991148  1
  Ti  Ti73  1  0.83137344  -0.01891962  0.50173155  1
  Ti  Ti74  1  0.84621573  0.03930381  0.84394133  1
  Ti  Ti75  1  0.89118647  0.33736642  0.16177697  1
  Ti  Ti76  1  0.81503836  0.31964533  0.46644116  1
  Ti  Ti77  1  0.83560680  0.36641365  0.84103165  1
  Ti  Ti78  1  0.84220123  0.66055789  0.20002944  1
  Ti  Ti79  1  0.75017534  0.65196243  0.45630866  1
  Ti  Ti80  1  0.87847902  0.64263235  0.89887624  1
  Ti  Ti81  1  0.04501329  0.18357361  0.04007186  1
  Ti  Ti82  1  0.20204592  0.14944345  0.29385663  1
  Ti  Ti83  1  0.19775789  0.04838257  0.66031962  1
  Ti  Ti84  1  0.16221616  0.56973645  -0.04329147  1
  Ti  Ti85  1  0.13978288  0.51094217  0.29034774  1
  Ti  Ti86  1  0.20123614  0.45845596  0.60194532  1
  Ti  Ti87  1  0.21907713  0.88266223  0.00602709  1
  Ti  Ti88  1  0.09462998  0.78464491  0.33144131  1
  Ti  Ti89  1  0.09251652  0.85553440  0.70275083  1
  Ti  Ti90  1  0.48088097  0.16791966  -0.06151479  1
  Ti  Ti91  1  0.42646601  0.15411497  0.32042426  1
  Ti  Ti92  1  0.58531815  0.16300751  0.63430989  1
  Ti  Ti93  1  0.50729148  0.47195970  -0.01047039  1
  Ti  Ti94  1  0.48293308  0.46950998  0.34165095  1
  Ti  Ti95  1  0.45630885  0.51364326  0.68241951  1
  Ti  Ti96  1  0.53355814  0.82656204  -0.03238822  1
  Ti  Ti97  1  0.45400020  0.81325657  0.33709629  1
  Ti  Ti98  1  0.47253427  0.74709491  0.68000034  1
  Ti  Ti99  1  0.85010105  0.20988388  -0.02366655  1
  Ti  Ti100  1  0.75754167  0.14801707  0.24378060  1
  Ti  Ti101  1  0.90073348  0.20297144  0.73123627  1
  Ti  Ti102  1  0.82070023  0.45816537  0.00390452  1
  Ti  Ti103  1  0.89079771  0.51990800  0.40029223  1
  Ti  Ti104  1  0.88100749  0.45956756  0.68838338  1
  Ti  Ti105  1  0.75262377  0.77473012  -0.03942364  1
  Ti  Ti106  1  0.77782442  0.82858768  0.35750538  1
  Ti  Ti107  1  0.86694239  0.88981082  0.69637284  1
  Co  Co108  1  0.91940221  0.09544902  0.30732214  1
  Co  Co109  1  0.80740700  0.49809884  0.55176100  1
  Co  Co110  1  0.77357530  0.18107779  0.57012592  1
  Co  Co111  1  0.91459192  0.62914006  0.53776276  1
  Co  Co112  1  0.04632359  0.69647111  0.94228476  1
  Co  Co113  1  0.80763693  0.49760274  0.15943987  1
  Co  Co114  1  0.47566895  0.62627990  0.58057806  1
  Co  Co115  1  0.68570343  0.42844141  0.90400712  1
  Co  Co116  1  0.33273672  0.69721837  0.78616800  1
  Co  Co117  1  0.75720773  0.26105535  0.12732619  1
  Co  Co118  1  0.45629088  0.04493831  0.08459079  1
  Co  Co119  1  0.77170874  0.56734172  0.30732681  1
  Co  Co120  1  0.87708778  0.24850883  0.32444016  1
  Co  Co121  1  0.98507967  0.35568520  0.77199977  1
  Co  Co122  1  0.82964851  0.40709890  0.29544867  1
  Co  Co123  1  0.56603246  0.93295833  0.41016511  1
  Co  Co124  1  0.31188164  0.25849091  0.24717516  1
  Co  Co125  1  0.96744916  0.44932371  0.92660230  1
  Co  Co126  1  0.79629465  0.78685498  0.58542092  1
  Co  Co127  1  0.59314808  0.28004461  0.17884186  1
  Co  Co128  1  0.88979816  0.31444217  0.60973288  1
  Co  Co129  1  0.57566709  0.90564366  0.10832983  1
  Co  Co130  1  0.59325418  0.64208114  0.70310492  1
  Co  Co131  1  0.04888183  0.73538504  0.50263959  1
  Co  Co132  1  0.19080516  0.67996957  0.25335984  1
  Co  Co133  1  0.94916841  0.76338250  0.63227268  1
  Co  Co134  1  0.22709911  0.76727579  0.63628843  1
  Co  Co135  1  0.26733877  0.91070863  0.68966738  1
  Co  Co136  1  0.79344037  0.13070612  0.41438240  1
  Co  Co137  1  0.55984583  -0.00171533  0.97689261  1
  Co  Co138  1  0.29614106  0.19574183  0.41728378  1
  Co  Co139  1  0.18937024  0.54013851  0.76145916  1
  Co  Co140  1  0.76361482  0.10151934  0.07141821  1
  Co  Co141  1  0.24331637  0.82795682  0.82922646  1
  Co  Co142  1  0.40723701  0.88935720  0.62261460  1
  Co  Co143  1  0.05185147  0.17944141  0.38783116  1
  Co  Co144  1  0.05103374  0.84200936  0.02087337  1
  Co  Co145  1  0.61397602  0.85860027  0.26321716  1
  Co  Co146  1  0.11773235  0.04165435  0.80692563  1
  Co  Co147  1  0.00495787  0.04738115  0.15271303  1
  Co  Co148  1  0.61697327  0.55188519  0.37614309  1
  Co  Co149  1  0.05898660  0.47892787  0.68555767  1
  Co  Co150  1  0.92460764  0.74034231  1.05999225  1
  Co  Co151  1  0.80204358  0.52819418  0.82642036  1
  Co  Co152  1  0.98242404  0.96918841  0.79983525  1
  Co  Co153  1  0.28029134  0.79186308  0.34446318  1
  Co  Co154  1  0.66493090  0.46789112  0.06067198  1
  Co  Co155  1  0.98123327  0.12316701  0.88376554  1
  Co  Co156  1  0.67916488  1.00193983  0.19063497  1
  Co  Co157  1  0.09630644  0.86982263  0.87089537  1
  Co  Co158  1  0.14283483  0.91545548  0.55988518  1
  Co  Co159  1  0.41653175  -0.03043426  0.39694144  1
  Co  Co160  1  0.39681736  0.93827875  0.95746857  1
  Co  Co161  1  0.88362230  0.89538372  0.06048644  1
  Ni  Ni162  1  0.01619413  0.67492222  0.21896046  1
  Ni  Ni163  1  0.72529610  0.25132472  0.85044414  1
  Ni  Ni164  1  0.32258526  0.09054523  0.18613520  1
  Ni  Ni165  1  0.21406270  0.42332769  0.99315982  1
  Ni  Ni166  1  0.42529086  0.19110653  0.59929423  1
  Ni  Ni167  1  -0.01033802  0.28631357  0.91766128  1
  Ni  Ni168  1  0.31833053  0.33867537  0.55229998  1
  Ni  Ni169  1  0.59047594  0.13911787  0.28269866  1
  Ni  Ni170  1  0.88702388  0.81425456  0.22111718  1
  Ni  Ni171  1  0.47326005  0.44707768  0.82810353  1
  Ni  Ni172  1  0.74526218  0.14358077  0.73377985  1
  Ni  Ni173  1  0.63243278  0.71122624  0.56561896  1
  Ni  Ni174  1  0.59826171  0.15457097  0.79608789  1
  Ni  Ni175  1  0.19229415  0.86092336  0.20624684  1
  Ni  Ni176  1  0.00001808  0.74098184  0.78854625  1
  Ni  Ni177  1  0.52350987  0.28986376  0.34203666  1
  Ni  Ni178  1  0.26312852  0.62705917  0.10780001  1
  Ni  Ni179  1  0.20669808  0.19757513  0.11383805  1
  Ni  Ni180  1  0.72490328  0.45071955  0.42015004  1
  Ni  Ni181  1  0.26146421  0.18373909  0.59015939  1
  Ni  Ni182  1  0.62132755  0.78410210  0.41206907  1
  Ni  Ni183  1  0.59217283  0.71971096  0.85352728  1
  Ni  Ni184  1  0.44519683  0.18361737  0.76871887  1
  Ni  Ni185  1  0.40188204  0.30666938  0.88088889  1
  Ni  Ni186  1  0.12049645  0.53164573  0.12630289  1
  Ni  Ni187  1  0.16121146  0.32959018  0.30901687  1
  Ni  Ni188  1  0.36791988  0.72197472  0.49274263  1
  Ni  Ni189  1  0.84970406  0.05546983  0.64963549  1
  Ni  Ni190  1  0.05754952  0.58846417  0.43177048  1
  Ni  Ni191  1  0.93159610  0.90213371  0.35203338  1
  Ni  Ni192  1  0.30848385  0.46836927  0.28095519  1
  Ni  Ni193  1  0.44557679  0.66451825  0.02963593  1
  Ni  Ni194  1  0.56268301  0.58004799  0.12525452  1
  Ni  Ni195  1  0.56365837  0.38439128  0.65583416  1
  Ni  Ni196  1  0.82772062  0.75166810  0.78361222  1
  Ni  Ni197  1  0.50649848  0.30916796  0.02678791  1
  Ni  Ni198  1  0.68064762  0.04613970  0.52947864  1
  Ni  Ni199  1  0.71360205  0.45842511  0.70172355  1
  Ni  Ni200  1  0.79656372  0.62680806  0.04709349  1
  Ni  Ni201  1  0.51623408  0.47267695  0.50365349  1
  Ni  Ni202  1  0.33621930  0.54655063  0.98364545  1
  Ni  Ni203  1  0.89645464  0.16703247  0.14450472  1
  Ni  Ni204  1  0.54403940  0.90768222  0.70619946  1
  Ni  Ni205  1  0.36622002  0.38897408  0.04088970  1
  Ni  Ni206  1  0.75589072  0.89855838  0.84451987  1
  Ni  Ni207  1  0.21478042  0.30347120  0.69278234  1
  Ni  Ni208  1  0.33084068  0.93586821  0.12540589  1
  Ni  Ni209  1  0.17011135  0.91374325  0.39653801  1
  Ni  Ni210  1  0.16685313  0.12211643  0.94432136  1
  Ni  Ni211  1  0.08907402  0.16611272  0.59599262  1
  Ni  Ni212  1  0.22504223  0.54222814  0.42635316  1
  Ni  Ni213  1  0.49748176  0.62523341  0.26926800  1
  Ni  Ni214  1  0.92629787  0.61818412  0.71144987  1
  Ni  Ni215  1  0.11920515  0.42650141  0.44624534  1
