# generated using pymatgen
data_Ti2CoNi
_symmetry_space_group_name_H-M   'P 1'
_cell_length_a   14.57164635
_cell_length_b   14.60715494
_cell_length_c   14.68308080
_cell_angle_alpha   89.81338816
_cell_angle_beta   89.98315540
_cell_angle_gamma   89.90003116
_symmetry_Int_Tables_number   1
_chemical_formula_structural   Ti2CoNi
_chemical_formula_sum   'Ti108 Co54 Ni54'
_cell_volume   3125.27663027
_cell_formula_units_Z   54
loop_
 _symmetry_equiv_pos_site_id
 _symmetry_equiv_pos_as_xyz
  1  'x, y, z'
loop_
 _atom_site_type_symbol
 _atom_site_label
 _atom_site_symmetry_multiplicity
 _atom_site_fract_x
 _atom_site_fract_y
 _atom_site_fract_z
 _atom_site_occupancy
  Ti  Ti0  1  0.05981632  -0.02579306  0.01080951  1
  Ti  Ti1  1  -0.02496630  -0.00479973  0.36199896  1
  Ti  Ti2  1  -0.01650106  0.00094367  0.58049492  1
  Ti  Ti3  1  -0.03463050  0.32125606  0.03117682  1
  Ti  Ti4  1  -0.04018930  0.28774834  0.29376534  1
  Ti  Ti5  1  -0.01599770  0.37405514  0.72621342  1
  Ti  Ti6  1  -0.06170264  0.66009087  -0.00853291  1
  Ti  Ti7  1  0.01628993  0.67566073  0.37038278  1
  Ti  Ti8  1  0.02140603  0.64319665  0.66885743  1
  Ti  Ti9  1  0.27656858  0.03226258  -0.01594365  1
  Ti  Ti10  1  0.28257251  -0.03557295  0.40346636  1
  Ti  Ti11  1  0.33663370  0.12403024  0.69351687  1
  Ti  Ti12  1  0.31078790  0.35251481  -0.03302475  1
  Ti  Ti13  1  0.37146001  0.28843109  0.32416504  1
  Ti  Ti14  1  0.37937312  0.33175948  0.64507967  1
  Ti  Ti15  1  0.30998453  0.62537095  0.00136068  1
  Ti  Ti16  1  0.30955663  0.71921912  0.31262284  1
  Ti  Ti17  1  0.32770581  0.66160642  0.71324918  1
  Ti  Ti18  1  0.65905838  0.03425762  0.06684275  1
  Ti  Ti19  1  0.65534734  -0.02631775  0.31324808  1
  Ti  Ti20  1  0.67214076  -0.06680668  0.54317287  1
  Ti  Ti21  1  0.68903065  0.34188721  -0.04784375  1
  Ti  Ti22  1  0.60983738  0.31795511  0.35832545  1
  Ti  Ti23  1  0.60561708  0.34354762  0.72014704  1
  Ti  Ti24  1  0.74672464  0.64901962  0.06921095  1
  Ti  Ti25  1  0.64386540  0.67186383  0.37509863  1
  Ti  Ti26  1  0.61449726  0.66768577  0.61199001  1
  Ti  Ti27  1  0.08976153  0.22073848  0.15810781  1
  Ti  Ti28  1  0.06307479  0.18644476  0.46091328  1
  Ti  Ti29  1  -0.01842831  0.19890469  0.83767941  1
  Ti  Ti30  1  0.00953939  0.44299722  0.18164511  1
  Ti  Ti31  1  -0.05113461  0.47538578  0.40736962  1
  Ti  Ti32  1  -0.05394791  0.48879421  0.88481259  1
  Ti  Ti33  1  -0.01985296  0.81577300  0.08882670  1
  Ti  Ti34  1  -0.05166026  0.83594804  0.47405900  1
  Ti  Ti35  1  -0.04973761  0.87214621  0.88475910  1
  Ti  Ti36  1  0.36844107  0.14393008  0.14946407  1
  Ti  Ti37  1  0.26950085  0.20962175  0.51438712  1
  Ti  Ti38  1  0.27641228  0.18762166  0.85549714  1
  Ti  Ti39  1  0.36782363  0.51562614  0.19552252  1
  Ti  Ti40  1  0.36637541  0.53277462  0.55340515  1
  Ti  Ti41  1  0.38501371  0.51222287  0.85607126  1
  Ti  Ti42  1  0.36131027  0.76945843  0.13844429  1
  Ti  Ti43  1  0.34852433  0.84896311  0.58580622  1
  Ti  Ti44  1  0.31543540  0.86969086  0.86802731  1
  Ti  Ti45  1  0.66169743  0.17263358  0.21198528  1
  Ti  Ti46  1  0.75560189  0.21855521  0.48576718  1
  Ti  Ti47  1  0.60354856  0.11718644  0.76075555  1
  Ti  Ti48  1  0.60283385  0.53700947  0.19665232  1
  Ti  Ti49  1  0.72250689  0.40651351  0.53457815  1
  Ti  Ti50  1  0.75007485  0.46726819  0.81849686  1
  Ti  Ti51  1  0.67618483  0.84223300  0.09783223  1
  Ti  Ti52  1  0.76408325  0.76968303  0.54617379  1
  Ti  Ti53  1  0.63882278  0.86236203  0.82487267  1
  Ti  Ti54  1  0.16784601  0.03191616  0.17614192  1
  Ti  Ti55  1  0.18166311  0.00154484  0.56704395  1
  Ti  Ti56  1  0.05785727  -0.02861592  0.76902943  1
  Ti  Ti57  1  0.26837028  0.32578840  0.15313587  1
  Ti  Ti58  1  0.09429591  0.37820854  0.55593273  1
  Ti  Ti59  1  0.19463552  0.36305215  0.78898708  1
  Ti  Ti60  1  0.19636572  0.62105334  0.18050421  1
  Ti  Ti61  1  0.24445475  0.68743335  0.48746695  1
  Ti  Ti62  1  0.17203133  0.64525901  0.81404336  1
  Ti  Ti63  1  0.47865943  -0.06697621  0.15360688  1
  Ti  Ti64  1  0.48550646  -0.03336321  0.46711954  1
  Ti  Ti65  1  0.47869386  -0.04640701  0.84602788  1
  Ti  Ti66  1  0.60735205  0.34890766  0.13510135  1
  Ti  Ti67  1  0.52011246  0.39589229  0.54265783  1
  Ti  Ti68  1  0.50920237  0.25785607  0.89187464  1
  Ti  Ti69  1  0.56813845  0.72402268  0.18162858  1
  Ti  Ti70  1  0.45444358  0.66664127  0.44833288  1
  Ti  Ti71  1  0.52109932  0.69346448  0.79651246  1
  Ti  Ti72  1  0.94085115  0.00709230  0.15881699  1
  Ti  Ti73  1  0.81354073  0.03556444  0.46171659  1
  Ti  Ti74  1  0.76889617  0.03136530  0.86848738  1
  Ti  Ti75  1  0.79974740  0.33082433  0.15184754  1
  Ti  Ti76  1  0.91182357  0.32374163  0.54365171  1
  Ti  Ti77  1  0.76949384  0.24745306  0.79977015  1
  Ti  Ti78  1  0.92487622  0.63147424  0.18551139  1
  Ti  Ti79  1  0.89817071  0.63616014  0.51023179  1
  Ti  Ti80  1  0.87088021  0.68760924  0.80165457  1
  Ti  Ti81  1  0.13214739  0.24167014  -0.03869446  1
  Ti  Ti82  1  0.20463017  0.17377351  0.31373883  1
  Ti  Ti83  1  0.13931572  0.13083006  0.70962783  1
  Ti  Ti84  1  0.09708366  0.52605393  -0.00632393  1
  Ti  Ti85  1  0.18315135  0.49248622  0.40476683  1
  Ti  Ti86  1  0.17557761  0.55153676  0.62209788  1
  Ti  Ti87  1  0.18743618  0.83520381  0.06181959  1
  Ti  Ti88  1  0.12095711  0.83881947  0.36616600  1
  Ti  Ti89  1  0.20366377  0.85934117  0.72254172  1
  Ti  Ti90  1  0.53472500  0.17639189  0.05358285  1
  Ti  Ti91  1  0.51828368  0.14448790  0.36962888  1
  Ti  Ti92  1  0.47982199  0.15446373  0.56951658  1
  Ti  Ti93  1  0.49313066  0.47259193  0.02712939  1
  Ti  Ti94  1  0.47753282  0.48300565  0.37038755  1
  Ti  Ti95  1  0.49451015  0.52198593  0.70249979  1
  Ti  Ti96  1  0.51222515  0.76528624  -0.01181326  1
  Ti  Ti97  1  0.51023057  0.82216983  0.32666050  1
  Ti  Ti98  1  0.54401248  0.85094236  0.66398542  1
  Ti  Ti99  1  0.84283596  0.17545474  -0.01756381  1
  Ti  Ti100  1  0.83502303  0.11606584  0.28181072  1
  Ti  Ti101  1  0.79100820  0.09731485  0.65308649  1
  Ti  Ti102  1  0.84720464  0.48122150  0.03768719  1
  Ti  Ti103  1  0.72831736  0.48524126  0.34444601  1
  Ti  Ti104  1  0.78825075  0.58945297  0.66057099  1
  Ti  Ti105  1  0.80197970  0.79531459  -0.04941134  1
  Ti  Ti106  1  0.89835885  0.81926638  0.27800569  1
  Ti  Ti107  1  0.81582445  0.85263350  0.73016030  1
  Co  Co108  1  0.22977152  0.17424915  0.06234691  1
  Co  Co109  1  0.47936615  0.61291826  0.93252253  1
  Co  Co110  1  0.42448308  0.10730878  0.85299180  1
  Co  Co111  1  0.90509767  0.18926504  0.40386623  1
  Co  Co112  1  0.33144196  0.56638260  0.37441254  1
  Co  Co113  1  0.93592444  0.47984691  0.58796899  1
  Co  Co114  1  0.13789674  0.34825376  0.25531146  1
  Co  Co115  1  -0.02354530  0.11427578  0.70043407  1
  Co  Co116  1  0.67441837  0.17793999  0.91284048  1
  Co  Co117  1  0.86740637  0.42913444  0.26567768  1
  Co  Co118  1  0.78899601  0.60175169  0.91001374  1
  Co  Co119  1  1.02577356  0.12233371  0.27883989  1
  Co  Co120  1  0.88415389  0.24527503  0.68744688  1
  Co  Co121  1  0.59361310  0.62451721  0.04478661  1
  Co  Co122  1  0.04155056  0.78536544  0.76473350  1
  Co  Co123  1  0.86128524  0.59258138  0.32857768  1
  Co  Co124  1  0.76184834  0.27764729  0.30026994  1
  Co  Co125  1  0.01774705  0.63314638  0.84696549  1
  Co  Co126  1  0.28406158  0.42544161  0.29736151  1
  Co  Co127  1  0.77591317  0.51985599  0.17833598  1
  Co  Co128  1  0.71954241  0.25935049  0.64203885  1
  Co  Co129  1  0.43987311  0.04202326  0.01928821  1
  Co  Co130  1  0.70226793  0.73490788  0.73613089  1
  Co  Co131  1  0.64831055  0.59034966  0.77930667  1
  Co  Co132  1  0.91880731  0.15135919  0.55467557  1
  Co  Co133  1  0.69998126  -0.02818503  0.70708177  1
  Co  Co134  1  0.36919874  0.82132263  0.43008906  1
  Co  Co135  1  0.83857081  0.92104169  0.58185037  1
  Co  Co136  1  0.19287528  0.84485548  0.51453393  1
  Co  Co137  1  0.34929195  0.40560513  0.44980665  1
  Co  Co138  1  0.21010035  0.31544814  0.41041828  1
  Co  Co139  1  0.04646347  0.24043856  0.62944019  1
  Co  Co140  1  0.15304558  0.90792046  0.89443436  1
  Co  Co141  1  0.05298271  0.36633693  0.88725835  1
  Co  Co142  1  0.43943766  0.27346685  0.46910689  1
  Co  Co143  1  0.09696471  0.49917986  0.78150744  1
  Co  Co144  1  0.70076107  0.22010184  0.06342259  1
  Co  Co145  1  0.91773165  0.53164653  0.73681269  1
  Co  Co146  1  0.59908997  0.25728388  0.51653520  1
  Co  Co147  1  0.82853069  0.78966543  0.13345591  1
  Co  Co148  1  0.69557646  0.91779602  0.95481938  1
  Co  Co149  1  0.80330703  0.89485897  0.39509698  1
  Co  Co150  1  0.54603930  0.92059958  0.00273655  1
  Co  Co151  1  0.65153136  0.83127962  0.41742915  1
  Co  Co152  1  0.37630281  0.19809054  0.98800469  1
  Co  Co153  1  0.07211903  0.86312982  0.62228175  1
  Co  Co154  1  0.57945780  0.05601059  0.91695433  1
  Co  Co155  1  0.84826097  0.95198386  0.02571062  1
  Co  Co156  1  0.05928467  0.35945633  0.39726991  1
  Co  Co157  1  0.80468122  0.40095817  0.68113575  1
  Co  Co158  1  0.07185435  0.72503178  0.51741287  1
  Co  Co159  1  0.82228433  0.36130847  0.41154198  1
  Co  Co160  1  0.30438851  0.95085452  0.13251723  1
  Co  Co161  1  0.80707872  0.72878939  0.39167091  1
  Ni  Ni162  1  0.40423807  0.80544548  0.74528878  1
  Ni  Ni163  1  0.49977147  0.23751146  0.22108651  1
  Ni  Ni164  1  0.64862486  0.49548506  0.64670639  1
  Ni  Ni165  1  0.68781941  0.13453079  0.36813581  1
  Ni  Ni166  1  0.52071454  0.80596481  0.50654975  1
  Ni  Ni167  1  0.12584928  0.37720437  0.06905498  1
  Ni  Ni168  1  0.65760336  0.70678584  0.90794864  1
  Ni  Ni169  1  0.21624108  0.83195333  0.22267159  1
  Ni  Ni170  1  0.24664404  1.01844005  0.80292481  1
  Ni  Ni171  1  0.25110299  0.40489470  0.57574876  1
  Ni  Ni172  1  0.70987595  0.82056585  0.26789916  1
  Ni  Ni173  1  0.22522153  0.49517508  0.89535870  1
  Ni  Ni174  1  0.77794802  0.95078416  0.19184863  1
  Ni  Ni175  1  0.48428192  0.39996531  0.23102646  1
  Ni  Ni176  1  0.35176882  0.03426796  0.55133901  1
  Ni  Ni177  1  0.38447437  0.87934345  1.01187382  1
  Ni  Ni178  1  1.07080416  0.73545656  0.22023804  1
  Ni  Ni179  1  0.36407648  0.88274915  0.27492566  1
  Ni  Ni180  1  0.21841179  0.26383729  0.66196260  1
  Ni  Ni181  1  0.38162564  0.96439762  0.70443892  1
  Ni  Ni182  1  0.11522744  0.08557047  0.89205941  1
  Ni  Ni183  1  0.36003680  0.12072331  0.40791651  1
  Ni  Ni184  1  0.25305782  0.48225430  0.06667028  1
  Ni  Ni185  1  0.46320467  0.63798479  0.27919402  1
  Ni  Ni186  1  0.44680110  0.62908999  0.10621920  1
  Ni  Ni187  1  0.74549505  0.66806200  0.23622251  1
  Ni  Ni188  1  0.54566120  1.01231024  0.64404857  1
  Ni  Ni189  1  0.45079995  0.69319051  0.61592918  1
  Ni  Ni190  1  0.80149325  0.09576934  0.11896893  1
  Ni  Ni191  1  0.09917862  0.68044848  0.06224438  1
  Ni  Ni192  1  0.06323882  0.90241759  0.21180864  1
  Ni  Ni193  1  0.07419748  0.55892679  0.27463338  1
  Ni  Ni194  1  0.67544072  0.47969804  0.04495983  1
  Ni  Ni195  1  1.06779615  0.76884524  0.92966202  1
  Ni  Ni196  1  0.52636075  0.07429504  0.20997014  1
  Ni  Ni197  1  0.28766835  0.48799435  0.72540520  1
  Ni  Ni198  1  0.32361293  0.04331428  0.26479455  1
  Ni  Ni199  1  0.23128136  0.74779764  0.92790283  1
  Ni  Ni200  1  0.57341913  0.54733791  0.49855405  1
  Ni  Ni201  1  0.12980541  0.03962914  0.39565156  1
  Ni  Ni202  1  0.18239266  0.72179185  0.64041530  1
  Ni  Ni203  1  0.00916060  0.13690797  0.02655224  1
  Ni  Ni204  1  0.43458408  0.32355350  0.08739546  1
  Ni  Ni205  1  0.05710190  0.56164696  0.50608479  1
  Ni  Ni206  1  0.94084292  0.04592338  0.90422833  1
  Ni  Ni207  1  0.62215573  0.08440383  0.50530987  1
  Ni  Ni208  1  0.57087538  0.46251582  0.86718584  1
  Ni  Ni209  1  0.92566664  0.77320892  0.62858209  1
  Ni  Ni210  1  0.73495039  0.58876241  0.49253681  1
  Ni  Ni211  1  0.47075545  0.22106202  0.73294219  1
  Ni  Ni212  1  0.88523183  0.99683782  0.75316263  1
  Ni  Ni213  1  0.86633760  0.33858316  0.89817891  1
  Ni  Ni214  1  0.44377754  0.37413701  0.79264343  1
  Ni  Ni215  1  0.91975734  0.20296276  0.15275183  1
