# generated using pymatgen
data_Ti2CoNi
_symmetry_space_group_name_H-M   'P 1'
_cell_length_a   14.51049372
_cell_length_b   14.50683319
_cell_length_c   14.53190842
_cell_angle_alpha   90.17816310
_cell_angle_beta   90.21152393
_cell_angle_gamma   89.90360026
_symmetry_Int_Tables_number   1
_chemical_formula_structural   Ti2CoNi
_chemical_formula_sum   'Ti108 Co54 Ni54'
_cell_volume   3058.94588139
_cell_formula_units_Z   54
loop_
 _symmetry_equiv_pos_site_id
 _symmetry_equiv_pos_as_xyz
  1  'x, y, z'
loop_
 _atom_site_type_symbol
 _atom_site_label
 _atom_site_symmetry_multiplicity
 _atom_site_fract_x
 _atom_site_fract_y
 _atom_site_fract_z
 _atom_site_occupancy
  Ti  Ti0  1  -0.07064125  0.00944268  -0.08368109  1
  Ti  Ti1  1  0.04218496  -0.02251819  0.30759916  1
  Ti  Ti2  1  -0.05364679  0.02207984  0.59234071  1
  Ti  Ti3  1  0.07277871  0.27414882  0.03849777  1
  Ti  Ti4  1  -0.00974706  0.39240853  0.25953290  1
  Ti  Ti5  1  0.06751906  0.27458629  0.70528606  1
  Ti  Ti6  1  0.02113004  0.63893443  -0.01896909  1
  Ti  Ti7  1  -0.02142124  0.64343420  0.28732172  1
  Ti  Ti8  1  -0.01800562  0.72280546  0.60230607  1
  Ti  Ti9  1  0.41577854  -0.02360239  0.05269097  1
  Ti  Ti10  1  0.31390664  0.00795115  0.34724378  1
  Ti  Ti11  1  0.29696297  -0.00026734  0.73776006  1
  Ti  Ti12  1  0.33173876  0.30409753  -0.04862274  1
  Ti  Ti13  1  0.34161198  0.35284279  0.36602051  1
  Ti  Ti14  1  0.33208885  0.32893810  0.62087172  1
  Ti  Ti15  1  0.36855233  0.63260997  -0.04479211  1
  Ti  Ti16  1  0.32383726  0.67383798  0.28358720  1
  Ti  Ti17  1  0.37973492  0.54989287  0.70148673  1
  Ti  Ti18  1  0.71319668  -0.11819347  0.00150336  1
  Ti  Ti19  1  0.69841065  0.01820299  0.32804400  1
  Ti  Ti20  1  0.74025456  -0.00867164  0.63409932  1
  Ti  Ti21  1  0.55976792  0.32245624  0.03783316  1
  Ti  Ti22  1  0.60058152  0.33184479  0.32449120  1
  Ti  Ti23  1  0.67520498  0.36153143  0.54991947  1
  Ti  Ti24  1  0.72137990  0.60582321  0.01155280  1
  Ti  Ti25  1  0.74154880  0.71576948  0.33979619  1
  Ti  Ti26  1  0.61408355  0.71511296  0.61955279  1
  Ti  Ti27  1  -0.03371382  0.11189634  0.14358559  1
  Ti  Ti28  1  0.03039351  0.13512408  0.42422390  1
  Ti  Ti29  1  -0.00677670  0.18690559  0.87437294  1
  Ti  Ti30  1  -0.00345838  0.51742668  0.11032902  1
  Ti  Ti31  1  0.01470682  0.53708060  0.57372920  1
  Ti  Ti32  1  -0.04742409  0.48476480  0.83939401  1
  Ti  Ti33  1  0.04052763  0.80374399  0.20713125  1
  Ti  Ti34  1  0.03132890  0.88362119  0.47598269  1
  Ti  Ti35  1  -0.00241702  0.84687457  0.81102652  1
  Ti  Ti36  1  0.28924317  0.11092126  0.17249100  1
  Ti  Ti37  1  0.29261274  0.17813984  0.47592574  1
  Ti  Ti38  1  0.35959565  0.09698850  0.90793039  1
  Ti  Ti39  1  0.30540563  0.49621319  0.14912188  1
  Ti  Ti40  1  0.38319337  0.49883994  0.50153932  1
  Ti  Ti41  1  0.27262373  0.48799412  0.87304149  1
  Ti  Ti42  1  0.42735508  0.82241659  0.16655045  1
  Ti  Ti43  1  0.34150772  0.87529277  0.54984798  1
  Ti  Ti44  1  0.33299466  0.80580652  0.74685200  1
  Ti  Ti45  1  0.67394352  0.15664441  0.14956874  1
  Ti  Ti46  1  0.62430197  0.18439020  0.59508579  1
  Ti  Ti47  1  0.64466613  0.18382718  0.89241414  1
  Ti  Ti48  1  0.68531984  0.43342430  0.18041173  1
  Ti  Ti49  1  0.69872164  0.46863322  0.40935194  1
  Ti  Ti50  1  0.63502372  0.56959400  0.85023591  1
  Ti  Ti51  1  0.65931768  0.74273595  0.12664800  1
  Ti  Ti52  1  0.63219895  0.88289889  0.52040203  1
  Ti  Ti53  1  0.70258871  0.82423111  0.77620006  1
  Ti  Ti54  1  0.11158259  -0.02673121  0.11079675  1
  Ti  Ti55  1  0.14867483  -0.00632742  0.59632264  1
  Ti  Ti56  1  0.13696680  0.01255237  0.88722811  1
  Ti  Ti57  1  0.23276498  0.30700651  0.16380213  1
  Ti  Ti58  1  0.05030564  0.33394331  0.52232783  1
  Ti  Ti59  1  0.22645310  0.33712287  0.78452910  1
  Ti  Ti60  1  0.16021454  0.63908140  0.18633833  1
  Ti  Ti61  1  0.14870057  0.64626734  0.51529800  1
  Ti  Ti62  1  0.14086516  0.72080894  0.86611310  1
  Ti  Ti63  1  0.57745352  -0.04668862  0.17295139  1
  Ti  Ti64  1  0.50817357  0.00414334  0.43636725  1
  Ti  Ti65  1  0.56496268  -0.01084953  0.90313749  1
  Ti  Ti66  1  0.48453217  0.43300579  0.21064886  1
  Ti  Ti67  1  0.48796773  0.30764446  0.49545333  1
  Ti  Ti68  1  0.52895920  0.38813268  0.86189710  1
  Ti  Ti69  1  0.46101555  0.61746153  0.19395375  1
  Ti  Ti70  1  0.33488020  0.69684469  0.47150386  1
  Ti  Ti71  1  0.50005781  0.71151094  0.80041871  1
  Ti  Ti72  1  0.78400883  -0.00771539  0.13325485  1
  Ti  Ti73  1  0.80909321  0.13862559  0.54673557  1
  Ti  Ti74  1  0.75161020  0.01056548  0.83653069  1
  Ti  Ti75  1  0.84723205  0.26962139  0.19662049  1
  Ti  Ti76  1  0.86720702  0.39959595  0.48914656  1
  Ti  Ti77  1  0.77335475  0.30769731  0.78786959  1
  Ti  Ti78  1  0.87349664  0.66179048  0.13343193  1
  Ti  Ti79  1  0.80549120  0.59068234  0.53783232  1
  Ti  Ti80  1  0.81738998  0.65295924  0.83426686  1
  Ti  Ti81  1  0.18454142  0.18580207  -0.12987004  1
  Ti  Ti82  1  0.16382106  0.24621125  0.32994799  1
  Ti  Ti83  1  0.21648412  0.16269166  0.67653857  1
  Ti  Ti84  1  0.18682037  0.55892505  0.01990449  1
  Ti  Ti85  1  0.12216045  0.46361950  0.42098940  1
  Ti  Ti86  1  0.19304813  0.51508287  0.68515950  1
  Ti  Ti87  1  0.26599382  0.83325832  0.04104683  1
  Ti  Ti88  1  0.17337844  0.76865822  0.35409299  1
  Ti  Ti89  1  0.16712103  0.80718921  0.64108431  1
  Ti  Ti90  1  0.48982062  0.15288394  0.05199045  1
  Ti  Ti91  1  0.44188429  0.17989794  0.33585984  1
  Ti  Ti92  1  0.51035726  0.11975645  0.74932939  1
  Ti  Ti93  1  0.47834098  0.49808224  0.01911967  1
  Ti  Ti94  1  0.50489282  0.62108556  0.40131090  1
  Ti  Ti95  1  0.51641521  0.41462638  0.66550647  1
  Ti  Ti96  1  0.44304520  0.83629302  -0.07945449  1
  Ti  Ti97  1  0.49026916  0.81633314  0.34863219  1
  Ti  Ti98  1  0.50430023  0.87152691  0.67738883  1
  Ti  Ti99  1  0.85715982  0.21167213  0.01674880  1
  Ti  Ti100  1  0.83253760  0.17797496  0.37603519  1
  Ti  Ti101  1  0.90708975  0.14892556  0.71589506  1
  Ti  Ti102  1  0.80825885  0.42521656  0.02698092  1
  Ti  Ti103  1  0.83622866  0.53967418  0.32176379  1
  Ti  Ti104  1  0.81441901  0.46344992  0.68446192  1
  Ti  Ti105  1  0.95642470  0.85750308  0.03079713  1
  Ti  Ti106  1  0.86243035  0.89042846  0.30969472  1
  Ti  Ti107  1  0.84661442  0.83723828  0.59895994  1
  Co  Co108  1  0.17323140  0.05906120  0.41829334  1
  Co  Co109  1  0.87842141  0.57035777  -0.03048364  1
  Co  Co110  1  0.07293387  0.33247615  0.88362064  1
  Co  Co111  1  0.70930974  0.29442264  0.07494411  1
  Co  Co112  1  0.11321837  0.65518897  0.68785068  1
  Co  Co113  1  0.49089528  0.43597211  0.37668662  1
  Co  Co114  1  0.96724210  0.41900111  0.64651668  1
  Co  Co115  1  0.93164171  0.32739181  0.76696368  1
  Co  Co116  1  0.87425659  0.77623355  0.42530897  1
  Co  Co117  1  0.82558198  0.84767678  0.87139501  1
  Co  Co118  1  0.12186654  0.55742311  0.85328544  1
  Co  Co119  1  0.29548365  0.94697518  0.16977015  1
  Co  Co120  1  0.54612779  0.58724831  0.71830637  1
  Co  Co121  1  0.13702782  0.09933044  0.25593175  1
  Co  Co122  1  0.49438453  0.79096646  0.50923109  1
  Co  Co123  1  0.45748572  0.53865570  0.84756256  1
  Co  Co124  1  0.30253569  0.93572433  0.89877928  1
  Co  Co125  1  0.77874591  0.47559269  0.86732110  1
  Co  Co126  1  0.43051006  1.01051428  0.63886029  1
  Co  Co127  1  0.69980907  0.33553069  0.91862350  1
  Co  Co128  1  0.44897111  0.09372012  0.18994157  1
  Co  Co129  1  0.29510718  0.04331649  0.55664710  1
  Co  Co130  1  0.63866754  0.46362383  0.99561360  1
  Co  Co131  1  0.37268824  0.27104535  0.22254811  1
  Co  Co132  1  0.41252548  0.72941600  0.62921308  1
  Co  Co133  1  0.00132155  0.65912398  0.79608491  1
  Co  Co134  1  0.08437056  0.43200379  0.76003905  1
  Co  Co135  1  0.58313522  0.11811194  0.28685254  1
  Co  Co136  1  0.19458405  0.38086787  0.99005373  1
  Co  Co137  1  0.93819225  0.74103373  0.91069924  1
  Co  Co138  1  0.06589586  0.10754837  0.00785736  1
  Co  Co139  1  0.31505042  0.67797462  0.10154769  1
  Co  Co140  1  0.21037608  0.90098145  0.45197336  1
  Co  Co141  1  0.26722849  0.64159754  0.79531919  1
  Co  Co142  1  0.24284012  0.79352325  0.19541618  1
  Co  Co143  1  0.24222348  0.02047627  1.02658978  1
  Co  Co144  1  0.93349403  0.23713394  0.54754095  1
  Co  Co145  1  -0.03394457  0.47574903  0.39564337  1
  Co  Co146  1  0.65272717  0.62084326  0.46145764  1
  Co  Co147  1  0.18258441  0.92104832  0.28063501  1
  Co  Co148  1  0.71005156  0.22794339  0.29089231  1
  Co  Co149  1  0.73580145  0.75361982  0.50371062  1
  Co  Co150  1  0.47339690  0.14021190  0.50723745  1
  Co  Co151  1  0.94246863  0.94465993  0.16779219  1
  Co  Co152  1  0.49290375  0.61239292  0.56916539  1
  Co  Co153  1  0.46552556  0.97161722  0.28409866  1
  Co  Co154  1  0.68111019  0.06792463  0.47579390  1
  Co  Co155  1  0.44239442  -0.04150703  0.80572950  1
  Co  Co156  1  0.85712218  0.46220660  0.18038076  1
  Co  Co157  1  0.57677883  0.02682421  0.59344580  1
  Co  Co158  1  0.89534439  0.33544151  0.92000128  1
  Co  Co159  1  0.38449267  0.39886497  0.77824366  1
  Co  Co160  1  0.52813687  0.25008911  0.18658669  1
  Co  Co161  1  0.64420361  0.86061550  0.36200685  1
  Ni  Ni162  1  0.78202471  0.92628695  0.45876681  1
  Ni  Ni163  1  0.22304183  0.43724602  0.28768651  1
  Ni  Ni164  1  0.11750736  0.74304127  0.06602698  1
  Ni  Ni165  1  0.17572410  0.87453505  0.79956284  1
  Ni  Ni166  1  0.90194079  0.59895567  0.69278836  1
  Ni  Ni167  1  0.55283885  0.84457856  0.03617150  1
  Ni  Ni168  1  0.94989269  0.35212637  0.09251487  1
  Ni  Ni169  1  0.58390301  0.70757794  0.26592084  1
  Ni  Ni170  1  0.82164805  0.16600549  0.86012162  1
  Ni  Ni171  1  0.08756194  0.52388237  0.27087995  1
  Ni  Ni172  1  0.03114097  0.73347426  0.41870372  1
  Ni  Ni173  1  0.78219795  0.06689680  -0.01140030  1
  Ni  Ni174  1  0.49811965  0.68869407  0.04712011  1
  Ni  Ni175  1  0.87425980  0.06079157  0.27070263  1
  Ni  Ni176  1  0.40140979  0.35061337  0.08807371  1
  Ni  Ni177  1  0.70634030  0.86741252  0.22291540  1
  Ni  Ni178  1  0.32709206  0.84145054  0.33360528  1
  Ni  Ni179  1  0.83888496  0.81642015  0.15581804  1
  Ni  Ni180  1  0.20882232  0.32033168  0.46883034  1
  Ni  Ni181  1  0.04362254  0.24252904  0.21446937  1
  Ni  Ni182  1  0.55997165  0.47921559  0.50920015  1
  Ni  Ni183  1  0.96241343  0.28353338  0.37496020  1
  Ni  Ni184  1  0.22924918  0.45327688  0.54675908  1
  Ni  Ni185  1  0.88723824  0.95811452  0.74508587  1
  Ni  Ni186  1  0.37030766  0.23400552  0.77957899  1
  Ni  Ni187  1  0.01990868  0.89104268  0.65571867  1
  Ni  Ni188  1  0.21479381  0.18585029  0.04239020  1
  Ni  Ni189  1  0.80817874  0.74687491  0.00296658  1
  Ni  Ni190  1  0.48227132  0.22390393  0.89870502  1
  Ni  Ni191  1  0.81130809  0.36815213  0.32191149  1
  Ni  Ni192  1  0.11697646  0.86665811  0.95991126  1
  Ni  Ni193  1  0.07230268  0.07236894  0.74388388  1
  Ni  Ni194  1  0.06594179  0.14844114  0.59146402  1
  Ni  Ni195  1  0.61341494  0.97124541  0.74189646  1
  Ni  Ni196  1  0.64727551  0.73975568  0.91494449  1
  Ni  Ni197  1  0.61171896  0.20618792  0.42846924  1
  Ni  Ni198  1  0.93400448  0.62100190  0.44958268  1
  Ni  Ni199  1  0.91550328  1.01269887  0.42749689  1
  Ni  Ni200  1  0.77455197  0.70033079  0.67376029  1
  Ni  Ni201  1  0.38283277  0.16951006  0.63246165  1
  Ni  Ni202  1  0.66296378  0.43962730  0.74208886  1
  Ni  Ni203  1  0.61971683  0.55074739  0.29739710  1
  Ni  Ni204  1  0.72534812  0.14247072  0.72209414  1
  Ni  Ni205  1  0.80019731  0.28548177  0.62971658  1
  Ni  Ni206  1  0.26644140  0.67149800  0.62926895  1
  Ni  Ni207  1  0.60966967  0.28257112  0.72862709  1
  Ni  Ni208  1  0.62089600  0.03736139  1.04003559  1
  Ni  Ni209  1  0.36799723  0.51856510  0.31750942  1
  Ni  Ni210  1  0.13292316  0.43205038  0.14104861  1
  Ni  Ni211  1  0.66520536  0.54847097  0.61633450  1
  Ni  Ni212  1  0.74353545  0.59649642  0.19755794  1
  Ni  Ni213  1  0.60008414  0.57490048  0.12578489  1
  Ni  Ni214  1  0.29640271  0.76524900  0.89713360  1
  Ni  Ni215  1  0.23215811  0.57901741  0.38809331  1
