# generated using pymatgen
data_Ti2CoNi
_symmetry_space_group_name_H-M   'P 1'
_cell_length_a   14.48711263
_cell_length_b   14.49609253
_cell_length_c   14.50607808
_cell_angle_alpha   89.75557860
_cell_angle_beta   90.34080969
_cell_angle_gamma   89.96616022
_symmetry_Int_Tables_number   1
_chemical_formula_structural   Ti2CoNi
_chemical_formula_sum   'Ti108 Co54 Ni54'
_cell_volume   3046.28886397
_cell_formula_units_Z   54
loop_
 _symmetry_equiv_pos_site_id
 _symmetry_equiv_pos_as_xyz
  1  'x, y, z'
loop_
 _atom_site_type_symbol
 _atom_site_label
 _atom_site_symmetry_multiplicity
 _atom_site_fract_x
 _atom_site_fract_y
 _atom_site_fract_z
 _atom_site_occupancy
  Ti  Ti0  1  -0.01450294  -0.06642423  0.02322546  1
  Ti  Ti1  1  0.03371215  0.07054626  0.41711964  1
  Ti  Ti2  1  -0.08104353  0.04361222  0.72594281  1
  Ti  Ti3  1  -0.07737915  0.31640626  0.05879500  1
  Ti  Ti4  1  0.03861489  0.37429431  0.35654130  1
  Ti  Ti5  1  -0.01111008  0.33623343  0.66883136  1
  Ti  Ti6  1  0.05517194  0.66267315  0.01161209  1
  Ti  Ti7  1  0.04801745  0.58386470  0.34942777  1
  Ti  Ti8  1  0.02775723  0.64450108  0.69946390  1
  Ti  Ti9  1  0.30361382  0.04692651  0.00315128  1
  Ti  Ti10  1  0.30500693  -0.00786748  0.32017065  1
  Ti  Ti11  1  0.37911209  0.03762766  0.62628375  1
  Ti  Ti12  1  0.37356191  0.28750420  0.05969102  1
  Ti  Ti13  1  0.43122162  0.22379707  0.33912785  1
  Ti  Ti14  1  0.27999797  0.37130930  0.69837338  1
  Ti  Ti15  1  0.34939374  0.69726387  -0.02729328  1
  Ti  Ti16  1  0.32418661  0.70670456  0.37790486  1
  Ti  Ti17  1  0.33340718  0.67444777  0.70647532  1
  Ti  Ti18  1  0.54913725  0.01187278  0.01568663  1
  Ti  Ti19  1  0.64535065  -0.00144749  0.30492240  1
  Ti  Ti20  1  0.60742776  -0.01245291  0.67771619  1
  Ti  Ti21  1  0.70824408  0.33470310  0.03987170  1
  Ti  Ti22  1  0.72811121  0.39916259  0.28238182  1
  Ti  Ti23  1  0.66213620  0.38985923  0.61654465  1
  Ti  Ti24  1  0.72866608  0.64471581  -0.04885393  1
  Ti  Ti25  1  0.57995429  0.72948058  0.34100241  1
  Ti  Ti26  1  0.64635506  0.64450860  0.60218833  1
  Ti  Ti27  1  -0.00786422  0.16987437  0.22052022  1
  Ti  Ti28  1  -0.08871268  0.16863830  0.54050473  1
  Ti  Ti29  1  -0.01413342  0.21275490  0.83549035  1
  Ti  Ti30  1  -0.02707141  0.49635860  0.10955846  1
  Ti  Ti31  1  -0.07773084  0.50524822  0.50323201  1
  Ti  Ti32  1  0.01001543  0.53991806  0.88601298  1
  Ti  Ti33  1  0.00023580  0.92750096  0.23758849  1
  Ti  Ti34  1  0.00440591  0.78177932  0.56511288  1
  Ti  Ti35  1  0.01265449  0.87132053  0.85126300  1
  Ti  Ti36  1  0.30064342  0.13355244  0.18940491  1
  Ti  Ti37  1  0.42643496  0.17912662  0.52179945  1
  Ti  Ti38  1  0.35722948  0.10231434  0.79794763  1
  Ti  Ti39  1  0.33638107  0.44462861  0.15377786  1
  Ti  Ti40  1  0.38007494  0.50475225  0.44771002  1
  Ti  Ti41  1  0.33716665  0.49272984  0.95264176  1
  Ti  Ti42  1  0.26643002  0.76991651  0.15431224  1
  Ti  Ti43  1  0.29081170  0.81895961  0.57722293  1
  Ti  Ti44  1  0.29933845  0.88599899  0.85180214  1
  Ti  Ti45  1  0.62572747  0.17308026  0.08830881  1
  Ti  Ti46  1  0.67064970  0.10576319  0.45239547  1
  Ti  Ti47  1  0.67498456  0.22362284  0.84197189  1
  Ti  Ti48  1  0.63457959  0.53878716  0.19938443  1
  Ti  Ti49  1  0.70761533  0.46804767  0.45222966  1
  Ti  Ti50  1  0.67396358  0.49726008  0.85705276  1
  Ti  Ti51  1  0.69003523  0.84161006  0.17272892  1
  Ti  Ti52  1  0.68013478  0.91209416  0.50889438  1
  Ti  Ti53  1  0.71218664  0.79643051  0.78984084  1
  Ti  Ti54  1  0.16480856  -0.03834887  0.12044545  1
  Ti  Ti55  1  0.18375068  -0.01308919  0.52900354  1
  Ti  Ti56  1  0.11710137  0.00242430  0.76993718  1
  Ti  Ti57  1  0.17397933  0.27743423  0.14841573  1
  Ti  Ti58  1  0.15054857  0.32240268  0.54703657  1
  Ti  Ti59  1  0.18171851  0.25844733  0.86177152  1
  Ti  Ti60  1  0.12720765  0.64158944  0.17400804  1
  Ti  Ti61  1  0.12821826  0.72641054  0.44780275  1
  Ti  Ti62  1  0.19862546  0.64254321  0.83147945  1
  Ti  Ti63  1  0.47135664  0.04663951  0.21574584  1
  Ti  Ti64  1  0.49489591  -0.04281242  0.50428848  1
  Ti  Ti65  1  0.51424657  -0.09448122  0.81437481  1
  Ti  Ti66  1  0.54000584  0.36343733  0.18657239  1
  Ti  Ti67  1  0.49790523  0.37294085  0.49012345  1
  Ti  Ti68  1  0.51596416  0.41521588  0.91278535  1
  Ti  Ti69  1  0.45015238  0.63208662  0.16457713  1
  Ti  Ti70  1  0.45412061  0.66658872  0.53282413  1
  Ti  Ti71  1  0.54154704  0.67829603  0.76280420  1
  Ti  Ti72  1  0.82058629  0.02225934  0.12255439  1
  Ti  Ti73  1  0.92494945  -0.03745341  0.55469566  1
  Ti  Ti74  1  0.82382141  -0.05708376  0.86206338  1
  Ti  Ti75  1  0.88292811  0.31520963  0.24669266  1
  Ti  Ti76  1  0.74986068  0.27373667  0.45746958  1
  Ti  Ti77  1  0.80853771  0.34271662  0.76207816  1
  Ti  Ti78  1  0.94691872  0.69857308  0.16587926  1
  Ti  Ti79  1  0.76834306  0.69212619  0.42943236  1
  Ti  Ti80  1  0.86999796  0.73406710  0.87476501  1
  Ti  Ti81  1  0.08891866  0.10136141  -0.02056195  1
  Ti  Ti82  1  0.23395695  0.16349838  0.38098646  1
  Ti  Ti83  1  0.19459741  0.14498866  0.66939904  1
  Ti  Ti84  1  0.14992797  0.46106614  0.06583666  1
  Ti  Ti85  1  0.23038820  0.44517605  0.34207468  1
  Ti  Ti86  1  0.14464068  0.51201545  0.63274010  1
  Ti  Ti87  1  0.16359444  0.79416487  -0.04958270  1
  Ti  Ti88  1  0.15877921  0.82216806  0.28374874  1
  Ti  Ti89  1  0.15947272  0.80894284  0.72981095  1
  Ti  Ti90  1  0.49869551  0.20792825  -0.10103433  1
  Ti  Ti91  1  0.60669791  0.18862080  0.27840320  1
  Ti  Ti92  1  0.51125471  0.27699317  0.67390468  1
  Ti  Ti93  1  0.52998530  0.61571302  -0.03807909  1
  Ti  Ti94  1  0.52412749  0.54607515  0.34732902  1
  Ti  Ti95  1  0.44892462  0.48287619  0.69582996  1
  Ti  Ti96  1  0.47961138  0.83918318  -0.00741882  1
  Ti  Ti97  1  0.41958917  0.84544927  0.28620660  1
  Ti  Ti98  1  0.45886959  0.83184050  0.65472546  1
  Ti  Ti99  1  0.86674447  0.13025760  -0.03904448  1
  Ti  Ti100  1  0.79989739  0.14662132  0.29476258  1
  Ti  Ti101  1  0.76223754  0.06506757  0.60544541  1
  Ti  Ti102  1  0.84044937  0.46101165  -0.04303804  1
  Ti  Ti103  1  0.82270663  0.58374872  0.28835419  1
  Ti  Ti104  1  0.92017272  0.49951523  0.70318945  1
  Ti  Ti105  1  0.75527579  0.84859053  0.00368073  1
  Ti  Ti106  1  0.88538155  0.87222348  0.39402185  1
  Ti  Ti107  1  0.80014192  0.78127259  0.60235324  1
  Co  Co108  1  0.43100701  0.13425804  0.03850460  1
  Co  Co109  1  0.46286121  0.21424434  0.17732423  1
  Co  Co110  1  0.84178190  0.56264565  0.84168535  1
  Co  Co111  1  0.36682914  0.33643435  0.57082854  1
  Co  Co112  1  0.40334285  0.35296378  0.81011941  1
  Co  Co113  1  0.77596096  0.54451714  0.57276548  1
  Co  Co114  1  0.89818540  0.61436038  0.00559125  1
  Co  Co115  1  0.71141687  0.63935887  0.75516455  1
  Co  Co116  1  0.21308619  0.08106781  0.85742196  1
  Co  Co117  1  0.96698981  0.03109973  0.87884341  1
  Co  Co118  1  0.93574060  0.78992495  1.00190213  1
  Co  Co119  1  0.42131026  0.99738244  0.91107920  1
  Co  Co120  1  0.62364211  0.66539313  0.08498485  1
  Co  Co121  1  0.13622326  0.29318004  0.71284931  1
  Co  Co122  1  1.06019580  0.06921497  0.59061796  1
  Co  Co123  1  0.04836430  0.61068387  0.53107642  1
  Co  Co124  1  0.00855853  0.76195610  0.30102985  1
  Co  Co125  1  0.70612533  0.69090341  0.24305143  1
  Co  Co126  1  0.54587186  0.51285770  0.54711514  1
  Co  Co127  1  0.66640621  0.50267714  1.02513498  1
  Co  Co128  1  0.87411048  0.86961948  0.13534141  1
  Co  Co129  1  0.20273761  0.62835125  0.30460575  1
  Co  Co130  1  0.82852348  0.18780324  0.11127157  1
  Co  Co131  1  0.35790033  0.22158738  0.68744133  1
  Co  Co132  1  0.32144215  0.30960780  0.42041810  1
  Co  Co133  1  0.51934255  0.90868585  0.14989243  1
  Co  Co134  1  0.85983260  0.20188150  0.70107936  1
  Co  Co135  1  0.41159088  0.78312636  0.11466746  1
  Co  Co136  1  0.34050786  0.96492525  0.48062485  1
  Co  Co137  1  0.08762164  0.79951923  0.11131774  1
  Co  Co138  1  0.03208520  0.33757922  0.18474820  1
  Co  Co139  1  0.63062855  0.61124089  0.44773828  1
  Co  Co140  1  0.55121306  0.75783635  0.18591670  1
  Co  Co141  1  0.29573766  0.88025636  0.01135926  1
  Co  Co142  1  0.65729578  0.01281238  0.14531282  1
  Co  Co143  1  0.72359230  0.26672635  0.19886129  1
  Co  Co144  1  0.52862936  0.30089314  0.03514769  1
  Co  Co145  1  0.21575400  0.57928306  0.45902690  1
  Co  Co146  1  0.75893924  0.48697288  0.71406984  1
  Co  Co147  1  0.71463215  0.83894644  0.36855733  1
  Co  Co148  1  0.02473975  0.17919048  0.68977208  1
  Co  Co149  1  0.25296172  0.43299224  0.51374359  1
  Co  Co150  1  0.57616452  0.77740772  0.49800527  1
  Co  Co151  1  0.42042921  0.81618767  0.45785656  1
  Co  Co152  1  0.88824515  0.65500224  0.56952725  1
  Co  Co153  1  0.55326792  0.89653547  0.36907317  1
  Co  Co154  1  1.05515657  0.88287933  0.44780392  1
  Co  Co155  1  0.15527294  0.95396955  0.94941204  1
  Co  Co156  1  0.33278132  0.20931638  0.90740896  1
  Co  Co157  1  0.79352390  0.95277850  0.26856166  1
  Co  Co158  1  0.93791513  0.24244262  0.39176593  1
  Co  Co159  1  0.07990328  0.20990053  0.47988583  1
  Co  Co160  1  0.92229064  0.04290047  0.30822170  1
  Co  Co161  1  0.83870684  0.77877765  0.27117204  1
  Ni  Ni162  1  0.86463422  0.66634020  0.72480022  1
  Ni  Ni163  1  0.06647523  0.91474970  0.64142845  1
  Ni  Ni164  1  0.24346860  0.34843916  0.98755267  1
  Ni  Ni165  1  0.81823423  0.03155014  0.43344764  1
  Ni  Ni166  1  0.22251842  0.18356270  0.02572010  1
  Ni  Ni167  1  0.08890656  0.46401803  0.47963650  1
  Ni  Ni168  1  0.93127517  0.68065166  0.41440378  1
  Ni  Ni169  1  0.50431561  0.08030939  0.39554273  1
  Ni  Ni170  1  0.72634232  0.23183639  0.62028407  1
  Ni  Ni171  1  0.28208075  0.59494267  0.14579048  1
  Ni  Ni172  1  0.70531420  0.10341940  -0.04432035  1
  Ni  Ni173  1  0.57290392  0.11530218  0.57494029  1
  Ni  Ni174  1  0.61127587  0.36652975  0.77646190  1
  Ni  Ni175  1  0.50300805  0.49032955  0.07517403  1
  Ni  Ni176  1  0.56792947  0.37654444  0.34298807  1
  Ni  Ni177  1  0.80162857  0.45168068  0.13718791  1
  Ni  Ni178  1  0.79460952  0.70849702  0.09950317  1
  Ni  Ni179  1  0.34221881  0.93572930  0.15578993  1
  Ni  Ni180  1  0.96401789  0.37438520  0.87310053  1
  Ni  Ni181  1  -0.01952070  0.07500912  0.10083306  1
  Ni  Ni182  1  0.60116558  0.75879173  0.91618849  1
  Ni  Ni183  1  0.32554158  0.54466253  0.60138767  1
  Ni  Ni184  1  0.14663659  0.97567958  0.35135968  1
  Ni  Ni185  1  0.62407717  0.80658835  0.65515928  1
  Ni  Ni186  1  0.42291505  0.75914719  0.83328624  1
  Ni  Ni187  1  0.28233621  0.51699940  0.77283393  1
  Ni  Ni188  1  0.93582443  0.47389460  0.26598996  1
  Ni  Ni189  1  0.30462593  0.29121054  0.24873159  1
  Ni  Ni190  1  0.21376071  0.61186834  1.00441847  1
  Ni  Ni191  1  0.83475907  0.37324578  0.57843529  1
  Ni  Ni192  1  0.65143387  0.92322375  0.89910235  1
  Ni  Ni193  1  0.28057165  0.94513964  0.70562463  1
  Ni  Ni194  1  0.42153862  0.57702492  0.83695025  1
  Ni  Ni195  1  0.24543345  0.85469758  0.41836507  1
  Ni  Ni196  1  0.17590969  0.48617212  0.90462883  1
  Ni  Ni197  1  0.17252175  0.68926595  0.62170254  1
  Ni  Ni198  1  0.10991730  0.23620609  0.31086194  1
  Ni  Ni199  1  0.82043683  0.28759703  0.91623768  1
  Ni  Ni200  1  0.13346722  0.08246473  0.23144555  1
  Ni  Ni201  1  0.60027925  0.52374586  0.70798600  1
  Ni  Ni202  1  0.73101223  0.05731612  0.78811501  1
  Ni  Ni203  1  0.50643296  0.11822651  0.72127136  1
  Ni  Ni204  1  0.93633901  0.81163110  0.71520522  1
  Ni  Ni205  1  0.57923803  0.24108108  0.43646943  1
  Ni  Ni206  1  0.79807439  0.92194406  0.68464719  1
  Ni  Ni207  1  0.35476384  0.56754280  0.29047957  1
  Ni  Ni208  1  0.07468138  0.27934474  1.00471232  1
  Ni  Ni209  1  0.26396934  0.19959938  0.53748304  1
  Ni  Ni210  1  0.10814101  0.43728551  0.77249571  1
  Ni  Ni211  1  0.85750295  0.39844324  0.39752779  1
  Ni  Ni212  1  0.57842469  0.06654530  0.85323089  1
  Ni  Ni213  1  0.11706096  0.46568654  0.22682548  1
  Ni  Ni214  1  0.04100922  0.70770586  0.85183732  1
  Ni  Ni215  1  0.40374152  0.40899836  0.30335699  1
