# generated using pymatgen
data_Ti2CoNi
_symmetry_space_group_name_H-M   'P 1'
_cell_length_a   14.50090664
_cell_length_b   14.55762996
_cell_length_c   14.50125171
_cell_angle_alpha   90.42172469
_cell_angle_beta   89.55151461
_cell_angle_gamma   89.90728266
_symmetry_Int_Tables_number   1
_chemical_formula_structural   Ti2CoNi
_chemical_formula_sum   'Ti108 Co54 Ni54'
_cell_volume   3061.01631387
_cell_formula_units_Z   54
loop_
 _symmetry_equiv_pos_site_id
 _symmetry_equiv_pos_as_xyz
  1  'x, y, z'
loop_
 _atom_site_type_symbol
 _atom_site_label
 _atom_site_symmetry_multiplicity
 _atom_site_fract_x
 _atom_site_fract_y
 _atom_site_fract_z
 _atom_site_occupancy
  Ti  Ti0  1  0.00358051  0.01357986  -0.06418957  1
  Ti  Ti1  1  -0.07380142  0.03255082  0.37331314  1
  Ti  Ti2  1  -0.01239395  0.02742274  0.67201524  1
  Ti  Ti3  1  0.02184967  0.39736197  0.04313473  1
  Ti  Ti4  1  -0.07803203  0.34785971  0.35732274  1
  Ti  Ti5  1  0.04272984  0.37499902  0.72427207  1
  Ti  Ti6  1  0.03665914  0.72010728  0.04618715  1
  Ti  Ti7  1  -0.01486670  0.72637568  0.32026172  1
  Ti  Ti8  1  0.03782639  0.58637194  0.67468023  1
  Ti  Ti9  1  0.36749938  -0.02088919  0.01852662  1
  Ti  Ti10  1  0.28334596  -0.05949398  0.32014844  1
  Ti  Ti11  1  0.34126900  0.01611276  0.70689854  1
  Ti  Ti12  1  0.32183041  0.30622191  -0.05000243  1
  Ti  Ti13  1  0.34581775  0.31143433  0.37213812  1
  Ti  Ti14  1  0.38460079  0.33799345  0.66144038  1
  Ti  Ti15  1  0.37232129  0.66966432  -0.04374489  1
  Ti  Ti16  1  0.35340038  0.70166386  0.31753012  1
  Ti  Ti17  1  0.34692995  0.65200047  0.63010102  1
  Ti  Ti18  1  0.59651689  0.03029609  -0.01437538  1
  Ti  Ti19  1  0.72462988  -0.08824442  0.37719802  1
  Ti  Ti20  1  0.66681572  0.01757262  0.68309280  1
  Ti  Ti21  1  0.60670225  0.39348247  0.01451136  1
  Ti  Ti22  1  0.73948666  0.38853615  0.32288685  1
  Ti  Ti23  1  0.59056496  0.37573429  0.63941884  1
  Ti  Ti24  1  0.61379734  0.59906637  -0.01556023  1
  Ti  Ti25  1  0.68232681  0.70502264  0.35393071  1
  Ti  Ti26  1  0.70559054  0.68672902  0.68125840  1
  Ti  Ti27  1  0.09444905  0.15978385  0.18659191  1
  Ti  Ti28  1  0.06427333  0.22191229  0.38689700  1
  Ti  Ti29  1  -0.02668628  0.25443142  0.91628809  1
  Ti  Ti30  1  -0.01471851  0.58463454  0.14077187  1
  Ti  Ti31  1  0.00461675  0.42553461  0.53736996  1
  Ti  Ti32  1  -0.06954272  0.45350133  0.84633998  1
  Ti  Ti33  1  0.01254295  0.90705822  0.13123986  1
  Ti  Ti34  1  -0.04504497  0.83530435  0.61869758  1
  Ti  Ti35  1  0.07080219  0.78137259  0.88552630  1
  Ti  Ti36  1  0.27424581  0.17185422  0.10141406  1
  Ti  Ti37  1  0.33194240  0.08311999  0.47560917  1
  Ti  Ti38  1  0.38688442  0.17438106  0.80213175  1
  Ti  Ti39  1  0.37945372  0.56725364  0.15992547  1
  Ti  Ti40  1  0.30839475  0.54682498  0.48395603  1
  Ti  Ti41  1  0.29273611  0.48984567  0.88362552  1
  Ti  Ti42  1  0.37084798  0.76790313  0.12348472  1
  Ti  Ti43  1  0.25463779  0.82905430  0.56774307  1
  Ti  Ti44  1  0.32240994  0.79175631  0.78916039  1
  Ti  Ti45  1  0.65049712  0.10896356  0.16917320  1
  Ti  Ti46  1  0.65536174  0.22985011  0.51233163  1
  Ti  Ti47  1  0.70048385  0.14389586  0.80766833  1
  Ti  Ti48  1  0.68157888  0.53052755  0.18995065  1
  Ti  Ti49  1  0.70222669  0.53016109  0.44343133  1
  Ti  Ti50  1  0.71117704  0.47138381  0.85612070  1
  Ti  Ti51  1  0.70587533  0.81046482  0.18071177  1
  Ti  Ti52  1  0.76535884  0.78514419  0.52695706  1
  Ti  Ti53  1  0.67325840  0.82031195  0.86886293  1
  Ti  Ti54  1  0.15798918  0.01315777  0.05988108  1
  Ti  Ti55  1  0.09963198  0.06115602  0.49183468  1
  Ti  Ti56  1  0.13658264  0.08279600  0.77400071  1
  Ti  Ti57  1  0.22514764  0.33266957  0.20465814  1
  Ti  Ti58  1  0.18094904  0.36059936  0.43114506  1
  Ti  Ti59  1  0.23604471  0.32525823  0.77387666  1
  Ti  Ti60  1  0.19035840  0.62987114  0.16965066  1
  Ti  Ti61  1  0.14448660  0.67055920  0.52506679  1
  Ti  Ti62  1  0.20977089  0.64026751  0.79936968  1
  Ti  Ti63  1  0.46388424  -0.02268244  0.18646703  1
  Ti  Ti64  1  0.52794525  -0.03695631  0.43399584  1
  Ti  Ti65  1  0.48528371  -0.07755794  0.82779788  1
  Ti  Ti66  1  0.44682989  0.34951040  0.10904512  1
  Ti  Ti67  1  0.48476252  0.30578891  0.48673740  1
  Ti  Ti68  1  0.54482686  0.25968470  0.77651203  1
  Ti  Ti69  1  0.52806750  0.70122165  0.23660093  1
  Ti  Ti70  1  0.50738453  0.64020488  0.45638602  1
  Ti  Ti71  1  0.50279419  0.73025737  0.73223240  1
  Ti  Ti72  1  0.90627544  0.08129209  0.16291930  1
  Ti  Ti73  1  0.82340617  -0.01891958  0.53866346  1
  Ti  Ti74  1  0.77979813  0.00213330  0.90409764  1
  Ti  Ti75  1  0.84594944  0.27639907  0.20293603  1
  Ti  Ti76  1  0.79012434  0.35390095  0.53625881  1
  Ti  Ti77  1  0.80298152  0.29597821  0.82611945  1
  Ti  Ti78  1  0.80921721  0.64416018  0.08152259  1
  Ti  Ti79  1  0.87038395  0.62698893  0.51271346  1
  Ti  Ti80  1  0.78153808  0.64389572  0.88413122  1
  Ti  Ti81  1  0.21704409  0.13522146  -0.08476766  1
  Ti  Ti82  1  0.27087750  0.15001733  0.31102821  1
  Ti  Ti83  1  0.10754341  0.22372580  0.61325875  1
  Ti  Ti84  1  0.10494019  0.55559976  -0.03126429  1
  Ti  Ti85  1  0.23488967  0.51003088  0.31112630  1
  Ti  Ti86  1  0.17678694  0.46503371  0.62105055  1
  Ti  Ti87  1  0.18883582  0.82203848  0.07728499  1
  Ti  Ti88  1  0.10619522  0.85780573  0.38856533  1
  Ti  Ti89  1  0.08692309  0.89625339  0.75231213  1
  Ti  Ti90  1  0.46084350  0.15137752  0.09611747  1
  Ti  Ti91  1  0.50737306  0.18199721  0.30469414  1
  Ti  Ti92  1  0.46168539  0.12694696  0.61572699  1
  Ti  Ti93  1  0.45677855  0.49412633  -0.03378109  1
  Ti  Ti94  1  0.51234468  0.41226972  0.31553271  1
  Ti  Ti95  1  0.54605008  0.53180665  0.74263027  1
  Ti  Ti96  1  0.54775278  0.83985223  0.04806588  1
  Ti  Ti97  1  0.42652290  0.82031034  0.46669854  1
  Ti  Ti98  1  0.51486852  0.93578724  0.62809490  1
  Ti  Ti99  1  0.76465235  0.20972870  0.01925735  1
  Ti  Ti100  1  0.74464577  0.14042289  0.35217885  1
  Ti  Ti101  1  0.86701383  0.17472185  0.67556849  1
  Ti  Ti102  1  0.84801497  0.44676367  0.12792974  1
  Ti  Ti103  1  0.88331552  0.54535530  0.30892309  1
  Ti  Ti104  1  0.84948537  0.50497077  0.66206000  1
  Ti  Ti105  1  0.85668059  0.82212732  -0.02455066  1
  Ti  Ti106  1  0.87694639  0.87724822  0.26812192  1
  Ti  Ti107  1  0.79472480  0.86383480  0.70866583  1
  Co  Co108  1  0.13447259  0.48155328  0.80734108  1
  Co  Co109  1  0.87163662  0.77586945  0.81037573  1
  Co  Co110  1  0.72780834  0.26808874  0.66822699  1
  Co  Co111  1  0.70897342  0.90330649  1.02621034  1
  Co  Co112  1  0.62765109  0.84939784  0.71781123  1
  Co  Co113  1  0.22140531  0.04838664  0.20408742  1
  Co  Co114  1  0.93163268  0.68357155  0.93423090  1
  Co  Co115  1  0.76627102  0.99411142  0.23493927  1
  Co  Co116  1  0.40850584  0.55695593  0.32766602  1
  Co  Co117  1  0.41292723  0.85167446  0.27783487  1
  Co  Co118  1  0.47822049  0.30155131  0.93743838  1
  Co  Co119  1  0.36501949  0.42264832  0.24390313  1
  Co  Co120  1  0.91640807  0.53429744  -0.01979025  1
  Co  Co121  1  0.52864956  0.06587997  0.77214134  1
  Co  Co122  1  0.39820088  0.82974024  0.64775269  1
  Co  Co123  1  0.88667257  0.95883675  0.04625087  1
  Co  Co124  1  0.00614261  0.73198896  0.73965514  1
  Co  Co125  1  0.03747291  0.60957374  0.84311625  1
  Co  Co126  1  0.44266772  0.46712594  0.45833872  1
  Co  Co127  1  0.57351571  0.85096028  0.28783866  1
  Co  Co128  1  0.57100220  0.40349172  0.84522373  1
  Co  Co129  1  0.18383441  0.41311589  0.97896934  1
  Co  Co130  1  0.30020013  0.92193503  0.15039624  1
  Co  Co131  1  0.90351571  0.12530827  1.00706400  1
  Co  Co132  1  0.59819812  0.42823801  0.48974422  1
  Co  Co133  1  0.13893937  0.91456847  0.22777855  1
  Co  Co134  1  0.96783700  0.25717583  0.10451078  1
  Co  Co135  1  0.30161203  0.71301786  0.46538236  1
  Co  Co136  1  0.67076900  0.90036663  0.56555701  1
  Co  Co137  1  0.61887516  0.94707209  0.15866397  1
  Co  Co138  1  0.76123759  0.05124791  0.06714906  1
  Co  Co139  1  0.23368949  0.90266183  0.71225678  1
  Co  Co140  1  0.60526072  0.80833922  0.44441213  1
  Co  Co141  1  0.86633028  0.69911271  0.65202921  1
  Co  Co142  1  0.37023539  0.96127222  0.55295525  1
  Co  Co143  1  0.68318665  0.24629558  0.23018956  1
  Co  Co144  1  0.06200312  0.31310305  0.24143585  1
  Co  Co145  1  0.89343922  0.60954531  0.77812137  1
  Co  Co146  1  0.95579119  0.18622417  0.27346973  1
  Co  Co147  1  0.18874213  0.04581317  0.62515600  1
  Co  Co148  1  0.30442188  0.38510167  0.52691833  1
  Co  Co149  1  0.24641499  0.79024825  0.23438792  1
  Co  Co150  1  0.14007337  0.52210702  0.46997965  1
  Co  Co151  1  0.59978895  0.37145633  0.19393081  1
  Co  Co152  1  0.97604536  0.43883030  0.21584968  1
  Co  Co153  1  0.13408392  0.28986942  0.88784889  1
  Co  Co154  1  0.53029472  0.14934667  0.91496563  1
  Co  Co155  1  0.39684537  0.61829529  0.80308200  1
  Co  Co156  1  0.72553697  0.34554105  0.10642495  1
  Co  Co157  1  0.49527532  0.55371038  0.58805893  1
  Co  Co158  1  0.58911180  0.23812315  0.08115115  1
  Co  Co159  1  0.72836197  0.41851800  0.71533298  1
  Co  Co160  1  0.09773498  0.04875609  0.32841202  1
  Co  Co161  1  0.15082101  0.28654722  0.06531370  1
  Ni  Ni162  1  0.41273542  0.83900050  0.94902100  1
  Ni  Ni163  1  0.55727197  0.76288238  0.58532877  1
  Ni  Ni164  1  0.42190610  0.04237813  0.33648507  1
  Ni  Ni165  1  0.25830272  0.81479463  0.93878916  1
  Ni  Ni166  1  0.42160487  0.43119806  0.79158973  1
  Ni  Ni167  1  0.78555505  0.14224796  0.53716347  1
  Ni  Ni168  1  0.90984401  0.75819940  0.15321937  1
  Ni  Ni169  1  0.61306042  0.02477832  0.31061187  1
  Ni  Ni170  1  0.30839671  0.43332521  0.07689442  1
  Ni  Ni171  1  0.27395631  0.18005913  0.67332091  1
  Ni  Ni172  1  0.29507062  0.50803072  0.71492344  1
  Ni  Ni173  1  0.35443784  0.23169560  0.53588868  1
  Ni  Ni174  1  0.52617514  0.50522220  0.13488691  1
  Ni  Ni175  1  0.65112726  0.04952553  0.50533220  1
  Ni  Ni176  1  0.10177353  0.90364577  0.57794324  1
  Ni  Ni177  1  0.74580043  0.50004999  1.01518320  1
  Ni  Ni178  1  0.62551183  0.64499135  0.82443326  1
  Ni  Ni179  1  0.07290515  0.57478225  0.27901127  1
  Ni  Ni180  1  0.86931226  0.47265653  0.45667098  1
  Ni  Ni181  1  0.08626713  0.75389663  0.20498636  1
  Ni  Ni182  1  0.80418533  0.66846269  0.24538717  1
  Ni  Ni183  1  0.93041664  0.93188675  0.81424711  1
  Ni  Ni184  1  0.15641727  0.94163127  0.90983590  1
  Ni  Ni185  1  0.37825698  0.25112591  0.21713669  1
  Ni  Ni186  1  1.01950411  0.20995825  0.76042441  1
  Ni  Ni187  1  0.88571060  0.33851308  0.68284197  1
  Ni  Ni188  1  0.00279521  0.73945334  0.49419091  1
  Ni  Ni189  1  0.25759164  0.58266170  0.02954406  1
  Ni  Ni190  1  0.60759751  0.16845201  0.65263703  1
  Ni  Ni191  1  0.68712672  0.74123997  0.02194241  1
  Ni  Ni192  1  0.37489513  0.13300372  -0.04147991  1
  Ni  Ni193  1  0.61710887  0.29338576  0.37168670  1
  Ni  Ni194  1  0.51708147  0.72999957  0.90379927  1
  Ni  Ni195  1  0.22207146  0.95477019  0.47106813  1
  Ni  Ni196  1  0.58040182  0.56188338  0.31641241  1
  Ni  Ni197  1  0.05854796  0.43464989  0.36086741  1
  Ni  Ni198  1  -0.03490667  0.26935040  0.53981637  1
  Ni  Ni199  1  0.21006832  0.20222974  0.48022574  1
  Ni  Ni200  1  0.13791888  0.46243920  0.14819243  1
  Ni  Ni201  1  0.92265084  0.87418033  0.44741785  1
  Ni  Ni202  1  0.07777407  0.15839084  0.00736104  1
  Ni  Ni203  1  0.88542587  0.19757764  0.41775516  1
  Ni  Ni204  1  0.64723919  0.26262197  0.91464515  1
  Ni  Ni205  1  0.50065702  0.66046010  0.07578491  1
  Ni  Ni206  1  0.66452233  0.54008131  0.61167696  1
  Ni  Ni207  1  0.82068837  0.02474246  0.73496358  1
  Ni  Ni208  1  0.30689809  -0.02335556  0.86149288  1
  Ni  Ni209  1  0.94898108  0.10715918  0.53631590  1
  Ni  Ni210  1  -0.09978634  0.12074868  0.83834875  1
  Ni  Ni211  1  0.84397671  0.35999453  0.98098984  1
  Ni  Ni212  1  0.84127532  0.73882347  0.39004295  1
  Ni  Ni213  1  0.18429055  0.67865912  0.34956930  1
  Ni  Ni214  1  1.00218866  0.58646583  0.42650116  1
  Ni  Ni215  1  0.15444140  0.74234775  0.67966077  1
