# generated using pymatgen
data_Ti2CoNi
_symmetry_space_group_name_H-M   'P 1'
_cell_length_a   14.43348021
_cell_length_b   14.47306099
_cell_length_c   14.51976004
_cell_angle_alpha   89.88482681
_cell_angle_beta   89.60771377
_cell_angle_gamma   90.19458151
_symmetry_Int_Tables_number   1
_chemical_formula_structural   Ti2CoNi
_chemical_formula_sum   'Ti108 Co54 Ni54'
_cell_volume   3033.03422219
_cell_formula_units_Z   54
loop_
 _symmetry_equiv_pos_site_id
 _symmetry_equiv_pos_as_xyz
  1  'x, y, z'
loop_
 _atom_site_type_symbol
 _atom_site_label
 _atom_site_symmetry_multiplicity
 _atom_site_fract_x
 _atom_site_fract_y
 _atom_site_fract_z
 _atom_site_occupancy
  Ti  Ti0  1  -0.03106912  -0.08578117  -0.02529313  1
  Ti  Ti1  1  0.02704976  -0.07463145  0.31303612  1
  Ti  Ti2  1  -0.00132250  0.00182560  0.72886075  1
  Ti  Ti3  1  -0.04231420  0.37609428  -0.10645056  1
  Ti  Ti4  1  -0.10210095  0.33051124  0.37761041  1
  Ti  Ti5  1  0.05011061  0.33226686  0.71975858  1
  Ti  Ti6  1  0.05854237  0.61029364  0.02096566  1
  Ti  Ti7  1  -0.01638580  0.74345888  0.33207202  1
  Ti  Ti8  1  -0.02291163  0.67557040  0.66696929  1
  Ti  Ti9  1  0.36571937  -0.12329877  0.00224831  1
  Ti  Ti10  1  0.30341102  0.02978543  0.27723822  1
  Ti  Ti11  1  0.37237826  -0.01592779  0.78253918  1
  Ti  Ti12  1  0.41744419  0.35171981  -0.01648933  1
  Ti  Ti13  1  0.39176459  0.32275722  0.29516806  1
  Ti  Ti14  1  0.28849619  0.39327058  0.61271372  1
  Ti  Ti15  1  0.30166506  0.62067580  -0.06697949  1
  Ti  Ti16  1  0.36085565  0.66445596  0.31696104  1
  Ti  Ti17  1  0.33468692  0.68814322  0.75640563  1
  Ti  Ti18  1  0.68348896  0.00150021  0.03323150  1
  Ti  Ti19  1  0.62686065  0.00635154  0.45470537  1
  Ti  Ti20  1  0.59221403  -0.04544490  0.64457969  1
  Ti  Ti21  1  0.62071482  0.28650637  -0.06516917  1
  Ti  Ti22  1  0.58248777  0.36532429  0.28282116  1
  Ti  Ti23  1  0.61370755  0.28874034  0.64791459  1
  Ti  Ti24  1  0.75155030  0.73316331  -0.11097578  1
  Ti  Ti25  1  0.66363911  0.66204631  0.41319256  1
  Ti  Ti26  1  0.66215862  0.68459618  0.70473337  1
  Ti  Ti27  1  -0.01921558  0.21908594  0.26184401  1
  Ti  Ti28  1  -0.02048585  0.12565002  0.42043443  1
  Ti  Ti29  1  -0.07037783  0.19601003  0.85749511  1
  Ti  Ti30  1  0.10402275  0.49823519  0.18660945  1
  Ti  Ti31  1  -0.02206675  0.44145050  0.53683937  1
  Ti  Ti32  1  -0.04951360  0.48861275  0.72601954  1
  Ti  Ti33  1  0.05463427  0.81384741  0.11321001  1
  Ti  Ti34  1  0.08821784  0.86168883  0.50111879  1
  Ti  Ti35  1  -0.07012681  0.84151235  0.81226362  1
  Ti  Ti36  1  0.32347623  0.15551033  0.07203763  1
  Ti  Ti37  1  0.27816611  0.16146080  0.52373444  1
  Ti  Ti38  1  0.30205894  0.12869342  0.88293423  1
  Ti  Ti39  1  0.31434797  0.47442703  0.19375661  1
  Ti  Ti40  1  0.31995800  0.55351117  0.49687846  1
  Ti  Ti41  1  0.38387249  0.50202578  0.77532320  1
  Ti  Ti42  1  0.31301261  0.85423722  0.19487926  1
  Ti  Ti43  1  0.32508092  0.91618751  0.47807045  1
  Ti  Ti44  1  0.28722020  0.83539631  0.85467290  1
  Ti  Ti45  1  0.66797989  0.21465050  0.16108387  1
  Ti  Ti46  1  0.69226540  0.16942931  0.54037639  1
  Ti  Ti47  1  0.74782541  0.21393715  0.79111167  1
  Ti  Ti48  1  0.67629574  0.44783983  0.14230484  1
  Ti  Ti49  1  0.61693611  0.46179991  0.43927093  1
  Ti  Ti50  1  0.63298823  0.51961985  0.92632771  1
  Ti  Ti51  1  0.69166428  0.83896773  0.18879601  1
  Ti  Ti52  1  0.73778659  0.83687477  0.44771932  1
  Ti  Ti53  1  0.74072834  0.89517931  0.79722891  1
  Ti  Ti54  1  0.02350619  0.03633819  0.14616072  1
  Ti  Ti55  1  0.14853720  0.03994887  0.45433577  1
  Ti  Ti56  1  0.06757754  0.06520408  0.87786276  1
  Ti  Ti57  1  0.13837783  0.32872261  0.07320754  1
  Ti  Ti58  1  0.12404163  0.26757596  0.51552763  1
  Ti  Ti59  1  0.18197337  0.26125442  0.82723320  1
  Ti  Ti60  1  0.23288621  0.65138241  0.17875430  1
  Ti  Ti61  1  0.18432642  0.70760451  0.56232014  1
  Ti  Ti62  1  0.13550016  0.74648698  0.77453341  1
  Ti  Ti63  1  0.52036767  -0.05372089  0.22620443  1
  Ti  Ti64  1  0.47463435  0.10880072  0.51288804  1
  Ti  Ti65  1  0.56010829  -0.05861500  0.87397195  1
  Ti  Ti66  1  0.47398812  0.24590737  0.13005220  1
  Ti  Ti67  1  0.53844183  0.29965295  0.46749408  1
  Ti  Ti68  1  0.51829687  0.39473752  0.80559545  1
  Ti  Ti69  1  0.50477620  0.73048598  0.18213736  1
  Ti  Ti70  1  0.45386907  0.72224655  0.47377225  1
  Ti  Ti71  1  0.53108849  0.65250123  0.82791428  1
  Ti  Ti72  1  0.79425409  0.03648450  0.17652239  1
  Ti  Ti73  1  0.78107488  0.01317214  0.57321510  1
  Ti  Ti74  1  0.84687195  0.03966765  0.89999750  1
  Ti  Ti75  1  0.88493601  0.48104409  0.23752973  1
  Ti  Ti76  1  0.75968064  0.34139750  0.50580532  1
  Ti  Ti77  1  0.79021692  0.49816867  0.85004642  1
  Ti  Ti78  1  0.78216090  0.64233049  0.19523846  1
  Ti  Ti79  1  0.80727139  0.68730389  0.53420123  1
  Ti  Ti80  1  0.91754707  0.65922197  0.86039596  1
  Ti  Ti81  1  0.15128736  0.13319249  0.01441907  1
  Ti  Ti82  1  0.19717519  0.20432863  0.34359007  1
  Ti  Ti83  1  0.19060059  0.13169895  0.68615329  1
  Ti  Ti84  1  0.12132826  0.46553449  -0.10315036  1
  Ti  Ti85  1  0.20836866  0.44818971  0.35612971  1
  Ti  Ti86  1  0.13486719  0.52135617  0.68524680  1
  Ti  Ti87  1  0.19910307  0.76497028  0.03323917  1
  Ti  Ti88  1  0.16624498  0.76942796  0.28060877  1
  Ti  Ti89  1  0.26501262  0.86534712  0.66611547  1
  Ti  Ti90  1  0.44695343  0.06300664  -0.02610338  1
  Ti  Ti91  1  0.54421188  0.14622634  0.31549372  1
  Ti  Ti92  1  0.41474405  0.18098188  0.69950922  1
  Ti  Ti93  1  0.44633322  0.57502494  0.07600748  1
  Ti  Ti94  1  0.42902239  0.49486844  0.35373851  1
  Ti  Ti95  1  0.48770287  0.52351307  0.57300793  1
  Ti  Ti96  1  0.56789960  0.80983637  0.02941575  1
  Ti  Ti97  1  0.55796110  0.80388138  0.35076630  1
  Ti  Ti98  1  0.45723025  0.82530310  0.64945622  1
  Ti  Ti99  1  0.87774912  0.21378763  0.05173277  1
  Ti  Ti100  1  0.76229843  0.13861342  0.33372552  1
  Ti  Ti101  1  0.88861350  0.13582970  0.65644376  1
  Ti  Ti102  1  0.83326859  0.44698193  0.01393812  1
  Ti  Ti103  1  0.81225810  0.53608444  0.43213356  1
  Ti  Ti104  1  0.79516711  0.45115472  0.65801625  1
  Ti  Ti105  1  0.90237049  0.73477308  0.04011965  1
  Ti  Ti106  1  0.83266519  0.89039529  0.29438940  1
  Ti  Ti107  1  0.90212303  0.84389961  0.61527888  1
  Co  Co108  1  0.07630446  0.59790498  0.31533045  1
  Co  Co109  1  0.11348135  0.71829654  0.41991521  1
  Co  Co110  1  0.26466208  0.33156665  0.44356738  1
  Co  Co111  1  0.81695633  0.61416153  0.68598965  1
  Co  Co112  1  0.60311555  0.77870469  0.88169069  1
  Co  Co113  1  0.63615666  0.67288220  0.22505464  1
  Co  Co114  1  0.92045130  0.35798675  0.13850662  1
  Co  Co115  1  0.61703885  0.58629614  0.07797061  1
  Co  Co116  1  0.70882613  0.07522054  0.73282140  1
  Co  Co117  1  0.32607016  0.19486671  0.22300595  1
  Co  Co118  1  0.19918139  0.33736533  0.22553147  1
  Co  Co119  1  0.09063797  0.07092966  0.28795789  1
  Co  Co120  1  0.84155764  0.98519525  0.72809086  1
  Co  Co121  1  0.03297207  0.22343928  0.11810755  1
  Co  Co122  1  0.44601540  0.70632755  0.95750952  1
  Co  Co123  1  0.79554792  0.26508108  0.64507159  1
  Co  Co124  1  0.32213406  0.32135990  0.11960144  1
  Co  Co125  1  0.44978896  0.20976451  0.91199099  1
  Co  Co126  1  0.37900180  0.26826909  0.54340287  1
  Co  Co127  1  0.45681314  0.40405176  0.17639921  1
  Co  Co128  1  0.45108117  0.82355810  0.85015203  1
  Co  Co129  1  0.43959402  1.00863026  0.62213241  1
  Co  Co130  1  0.95986578  0.60139338  0.43257798  1
  Co  Co131  1  0.60324341  0.82389046  0.73316905  1
  Co  Co132  1  0.19905569  0.90615471  0.35422051  1
  Co  Co133  1  0.99390421  0.72838627  0.52484083  1
  Co  Co134  1  0.39429003  0.85645781  0.33636185  1
  Co  Co135  1  0.17392814  0.68436224  0.89915470  1
  Co  Co136  1  0.27955836  0.76414794  0.42608468  1
  Co  Co137  1  0.56996983  0.22559750  0.79225042  1
  Co  Co138  1  0.88248660  0.34188737  0.76059665  1
  Co  Co139  1  0.65213939  0.07827080  0.87366672  1
  Co  Co140  1  0.45177567  1.00241154  0.37961875  1
  Co  Co141  1  0.92301575  0.58735504  0.10600509  1
  Co  Co142  1  0.40726596  0.40515749  0.47151859  1
  Co  Co143  1  0.40104278  0.15774510  0.37246664  1
  Co  Co144  1  0.80988002  0.30781641  0.91057774  1
  Co  Co145  1  0.73144590  0.85238978  0.62449661  1
  Co  Co146  1  0.70141992  0.36813225  0.78402815  1
  Co  Co147  1  0.07572221  0.58350429  0.54115383  1
  Co  Co148  1  0.83786049  0.75502246  0.73878925  1
  Co  Co149  1  0.94784030  0.52406118  0.93389174  1
  Co  Co150  1  0.04711451  0.67434724  0.18116293  1
  Co  Co151  1  0.49273644  0.88542971  0.49488333  1
  Co  Co152  1  0.21900156  0.61031140  0.39147242  1
  Co  Co153  1  0.50616896  0.07870542  0.80633905  1
  Co  Co154  1  1.01268761  0.46518719  0.35993612  1
  Co  Co155  1  0.15265420  0.45304189  0.52470496  1
  Co  Co156  1  0.64337759  0.43185201  0.58855154  1
  Co  Co157  1  0.04588768  0.36698032  0.23994159  1
  Co  Co158  1  0.13883946  0.93722555  0.21075797  1
  Co  Co159  1  0.06085016  0.24274547  0.92510435  1
  Co  Co160  1  0.05815746  0.31711592  0.39362053  1
  Co  Co161  1  0.04892660  0.16486482  0.74874740  1
  Ni  Ni162  1  0.78634271  0.58530794  1.02707947  1
  Ni  Ni163  1  0.63479455  0.06538689  0.18766913  1
  Ni  Ni164  1  0.67230867  0.95713641  0.30819947  1
  Ni  Ni165  1  0.84083995  0.00791259  0.41839609  1
  Ni  Ni166  1  0.48228806  0.66253026  0.66736616  1
  Ni  Ni167  1  0.75989359  0.40491735  0.32804482  1
  Ni  Ni168  1  0.66064093  0.51828847  0.73405916  1
  Ni  Ni169  1  0.34166273  0.71752029  0.59217032  1
  Ni  Ni170  1  0.04946619  0.60521638  0.82346511  1
  Ni  Ni171  1  0.81434408  0.28211991  0.23950594  1
  Ni  Ni172  1  0.17190130  0.15985602  0.17337190  1
  Ni  Ni173  1  0.67277245  0.59362392  0.55236452  1
  Ni  Ni174  1  0.68133965  0.26502723  0.37577944  1
  Ni  Ni175  1  0.91057700  0.91474465  0.14077102  1
  Ni  Ni176  1  0.24138385  -0.01695327  0.90964811  1
  Ni  Ni177  1  0.75464883  0.31669851  0.06295432  1
  Ni  Ni178  1  0.55568276  0.41627490  1.03578402  1
  Ni  Ni179  1  0.57571811  0.16121164  0.03561109  1
  Ni  Ni180  1  0.57251463  0.11511575  0.67237426  1
  Ni  Ni181  1  0.31028065  0.44686365  0.91393440  1
  Ni  Ni182  1  0.38072995  -0.00437394  0.12328867  1
  Ni  Ni183  1  0.35970586  0.71264549  0.09690290  1
  Ni  Ni184  1  0.21295002  0.96589763  0.06809709  1
  Ni  Ni185  1  0.94905651  0.28779080  0.55024494  1
  Ni  Ni186  1  0.11532530  0.99402283  0.60337360  1
  Ni  Ni187  1  0.16950681  0.98464926  0.75513588  1
  Ni  Ni188  1  0.01089891  0.44455358  0.05679722  1
  Ni  Ni189  1  0.09588674  0.88974980  0.86565259  1
  Ni  Ni190  1  0.82398302  0.72458328  0.34749272  1
  Ni  Ni191  1  0.52879474  0.96171242  0.06958868  1
  Ni  Ni192  1  0.07133735  0.84535488  0.67038626  1
  Ni  Ni193  1  0.83667940  0.17703718  0.48163732  1
  Ni  Ni194  1  0.46689545  0.36985026  0.64374051  1
  Ni  Ni195  1  0.71425628  0.74127687  0.07074830  1
  Ni  Ni196  1  0.03894993  0.13931199  0.58567511  1
  Ni  Ni197  1  0.60773203  0.77492008  0.55367068  1
  Ni  Ni198  1  0.19837252  0.52003583  0.05160003  1
  Ni  Ni199  1  0.67440419  0.53173687  0.29653229  1
  Ni  Ni200  1  0.91874447  0.04985438  0.27925935  1
  Ni  Ni201  1  1.03480011  0.75130255  0.92013690  1
  Ni  Ni202  1  0.21397118  0.41206474  0.76167098  1
  Ni  Ni203  1  0.53110450  0.54320994  0.21557477  1
  Ni  Ni204  1  0.29622255  0.57205047  0.64585743  1
  Ni  Ni205  1  0.74525432  0.17048279  -0.02185700  1
  Ni  Ni206  1  0.26483037  0.29164267  -0.03286002  1
  Ni  Ni207  1  0.96954945  -0.00799789  0.53405228  1
  Ni  Ni208  1  0.47035158  0.52010206  0.91391226  1
  Ni  Ni209  1  0.28133044  0.01673543  0.61651604  1
  Ni  Ni210  1  0.79030618  0.87895346  0.98501534  1
  Ni  Ni211  1  0.51708310  0.62519877  0.35242822  1
  Ni  Ni212  1  0.91851718  0.86832047  0.45174598  1
  Ni  Ni213  1  0.97379050  0.09280421  1.00331601  1
  Ni  Ni214  1  0.34865372  0.31977502  0.76317322  1
  Ni  Ni215  1  0.90265864  0.76880939  0.19540422  1
