# generated using pymatgen
data_Ti2CoNi
_symmetry_space_group_name_H-M   'P 1'
_cell_length_a   14.54126422
_cell_length_b   14.58473316
_cell_length_c   14.49733179
_cell_angle_alpha   90.11132416
_cell_angle_beta   90.02105632
_cell_angle_gamma   90.02365444
_symmetry_Int_Tables_number   1
_chemical_formula_structural   Ti2CoNi
_chemical_formula_sum   'Ti108 Co54 Ni54'
_cell_volume   3074.59449887
_cell_formula_units_Z   54
loop_
 _symmetry_equiv_pos_site_id
 _symmetry_equiv_pos_as_xyz
  1  'x, y, z'
loop_
 _atom_site_type_symbol
 _atom_site_label
 _atom_site_symmetry_multiplicity
 _atom_site_fract_x
 _atom_site_fract_y
 _atom_site_fract_z
 _atom_site_occupancy
  Ti  Ti0  1  0.03099619  -0.02292181  -0.06117858  1
  Ti  Ti1  1  -0.03675531  0.01059161  0.42201104  1
  Ti  Ti2  1  -0.02863788  0.08278061  0.65809688  1
  Ti  Ti3  1  -0.05091002  0.28797990  0.02829355  1
  Ti  Ti4  1  0.03400431  0.33343031  0.27012432  1
  Ti  Ti5  1  -0.02884048  0.35392464  0.69493233  1
  Ti  Ti6  1  0.01458424  0.57391260  0.03721763  1
  Ti  Ti7  1  0.00060852  0.67982008  0.34148217  1
  Ti  Ti8  1  0.01379715  0.70257184  0.64918957  1
  Ti  Ti9  1  0.33360738  -0.00609186  0.00501376  1
  Ti  Ti10  1  0.33033421  0.01704733  0.42486937  1
  Ti  Ti11  1  0.38007578  0.01209519  0.74738899  1
  Ti  Ti12  1  0.35724313  0.28570138  0.01848036  1
  Ti  Ti13  1  0.26742701  0.36324475  0.31741558  1
  Ti  Ti14  1  0.24689978  0.38199840  0.66125857  1
  Ti  Ti15  1  0.35183077  0.62888372  -0.01464805  1
  Ti  Ti16  1  0.32570894  0.68254414  0.30496390  1
  Ti  Ti17  1  0.30498646  0.57058611  0.64624258  1
  Ti  Ti18  1  0.66781565  0.02433399  0.01655243  1
  Ti  Ti19  1  0.67434270  -0.01847782  0.32075104  1
  Ti  Ti20  1  0.71741215  -0.01478697  0.65626912  1
  Ti  Ti21  1  0.68986527  0.31571392  -0.07430341  1
  Ti  Ti22  1  0.60502994  0.37742699  0.32269568  1
  Ti  Ti23  1  0.70882385  0.32392276  0.64794377  1
  Ti  Ti24  1  0.71720960  0.67538758  -0.02692891  1
  Ti  Ti25  1  0.69032992  0.68612991  0.40855355  1
  Ti  Ti26  1  0.70734908  0.71016761  0.63780134  1
  Ti  Ti27  1  0.07350665  0.17254546  0.17925659  1
  Ti  Ti28  1  0.09515725  0.18796568  0.42868895  1
  Ti  Ti29  1  0.05188911  0.16517596  0.81878903  1
  Ti  Ti30  1  -0.05762183  0.50815771  0.22732264  1
  Ti  Ti31  1  0.03119378  0.58126744  0.50298107  1
  Ti  Ti32  1  0.03964888  0.57374270  0.82780209  1
  Ti  Ti33  1  -0.03587171  0.88024566  0.24874757  1
  Ti  Ti34  1  0.03341721  0.83433528  0.52555181  1
  Ti  Ti35  1  -0.00890664  0.78557148  0.83525759  1
  Ti  Ti36  1  0.32335760  0.19651869  0.20505789  1
  Ti  Ti37  1  0.35912042  0.12070961  0.57643735  1
  Ti  Ti38  1  0.31706649  0.19971353  0.75394450  1
  Ti  Ti39  1  0.31311641  0.52912624  0.18021035  1
  Ti  Ti40  1  0.32832570  0.44035375  0.48997813  1
  Ti  Ti41  1  0.38573555  0.50015392  0.81450507  1
  Ti  Ti42  1  0.36377297  0.75897874  0.14126754  1
  Ti  Ti43  1  0.36504175  0.82652954  0.47837769  1
  Ti  Ti44  1  0.32039163  0.85507934  0.85253695  1
  Ti  Ti45  1  0.65846160  0.20637018  0.19076592  1
  Ti  Ti46  1  0.62654650  0.15386902  0.51335460  1
  Ti  Ti47  1  0.65122969  0.09643964  0.83462454  1
  Ti  Ti48  1  0.63508758  0.53683106  0.13116292  1
  Ti  Ti49  1  0.78192558  0.38628405  0.47285642  1
  Ti  Ti50  1  0.61638068  0.55003623  0.82982126  1
  Ti  Ti51  1  0.62640779  0.85320672  0.16632570  1
  Ti  Ti52  1  0.59196845  0.83371208  0.49436905  1
  Ti  Ti53  1  0.65648237  0.87117900  0.83711837  1
  Ti  Ti54  1  0.15351090  0.02044143  0.12333956  1
  Ti  Ti55  1  0.15343408  0.00849123  0.42088582  1
  Ti  Ti56  1  0.22301644  0.05534690  0.86926981  1
  Ti  Ti57  1  0.20051429  0.32634773  0.13378737  1
  Ti  Ti58  1  0.13980669  0.39802470  0.45793944  1
  Ti  Ti59  1  0.25615737  0.36244111  0.84549599  1
  Ti  Ti60  1  0.18986372  0.68102710  0.12509449  1
  Ti  Ti61  1  0.17235570  0.71599414  0.45420434  1
  Ti  Ti62  1  0.17889965  0.72710396  0.82159507  1
  Ti  Ti63  1  0.43336345  -0.07276360  0.17417082  1
  Ti  Ti64  1  0.47007847  -0.05708168  0.59550685  1
  Ti  Ti65  1  0.49918669  -0.03658772  0.89893813  1
  Ti  Ti66  1  0.56398826  0.32013554  0.06001034  1
  Ti  Ti67  1  0.48480174  0.31876541  0.48926810  1
  Ti  Ti68  1  0.47703761  0.28138703  0.86753314  1
  Ti  Ti69  1  0.54689994  0.67257779  0.24795514  1
  Ti  Ti70  1  0.48111248  0.68992917  0.42968863  1
  Ti  Ti71  1  0.51037159  0.61077579  0.67397446  1
  Ti  Ti72  1  0.82522442  -0.06321416  0.09547469  1
  Ti  Ti73  1  0.78610412  0.04197086  0.47920133  1
  Ti  Ti74  1  0.81858350  -0.03539181  0.89725920  1
  Ti  Ti75  1  0.83854232  0.34465047  0.19221845  1
  Ti  Ti76  1  0.96938146  0.31466178  0.49959237  1
  Ti  Ti77  1  0.86789970  0.35188163  0.84938323  1
  Ti  Ti78  1  0.82409666  0.60944692  0.12401787  1
  Ti  Ti79  1  0.83735565  0.60682778  0.55884137  1
  Ti  Ti80  1  0.86904935  0.66311085  0.76974160  1
  Ti  Ti81  1  0.10313889  0.17383400  0.00237110  1
  Ti  Ti82  1  0.31396507  0.20217353  0.40745089  1
  Ti  Ti83  1  0.18206642  0.11305437  0.64060985  1
  Ti  Ti84  1  0.13770963  0.43385987  -0.03801947  1
  Ti  Ti85  1  0.18867239  0.55368438  0.35039819  1
  Ti  Ti86  1  0.09889966  0.46984175  0.63531894  1
  Ti  Ti87  1  0.12656874  0.83336307  0.02213792  1
  Ti  Ti88  1  0.18077350  0.87822596  0.24702131  1
  Ti  Ti89  1  0.21536991  0.80368096  0.63571753  1
  Ti  Ti90  1  0.47286991  0.13112365  0.09680680  1
  Ti  Ti91  1  0.48199598  0.18051312  0.32433788  1
  Ti  Ti92  1  0.50765318  0.22917072  0.65457150  1
  Ti  Ti93  1  0.45251835  0.46945673  0.04340653  1
  Ti  Ti94  1  0.53558266  0.51789600  0.41100140  1
  Ti  Ti95  1  0.54782934  0.41111576  0.69425439  1
  Ti  Ti96  1  0.53708547  0.75821151  0.02801892  1
  Ti  Ti97  1  0.49479822  0.96215415  0.36550434  1
  Ti  Ti98  1  0.48219928  0.77279144  0.78438844  1
  Ti  Ti99  1  0.82530512  0.15426017  -0.03690877  1
  Ti  Ti100  1  0.81758117  0.13885440  0.29588914  1
  Ti  Ti101  1  0.81283948  0.18688894  0.60665675  1
  Ti  Ti102  1  0.82800476  0.53266055  -0.08478245  1
  Ti  Ti103  1  0.75265438  0.51595569  0.29818595  1
  Ti  Ti104  1  0.80919358  0.49333181  0.70915448  1
  Ti  Ti105  1  0.90974948  0.78954999  0.04173757  1
  Ti  Ti106  1  0.84817430  0.83943205  0.40158781  1
  Ti  Ti107  1  0.87424182  0.85525101  0.66568649  1
  Co  Co108  1  0.74805538  0.30850493  0.31718578  1
  Co  Co109  1  0.30002000  -0.04121554  0.58390799  1
  Co  Co110  1  0.60174712  0.62758468  0.53594965  1
  Co  Co111  1  0.19371654  0.55935969  0.52093928  1
  Co  Co112  1  0.64156004  0.14336830  0.34472453  1
  Co  Co113  1  0.36635060  0.84090276  0.68378976  1
  Co  Co114  1  0.22291521  0.07810777  0.28348715  1
  Co  Co115  1  0.32159495  0.92383464  0.30238143  1
  Co  Co116  1  0.14797982  0.45298448  0.23051053  1
  Co  Co117  1  0.25977619  0.15856679  0.05758989  1
  Co  Co118  1  0.97343592  0.44193868  0.92857163  1
  Co  Co119  1  0.17998919  0.51682244  0.08974349  1
  Co  Co120  1  0.53697152  0.94537455  0.05370076  1
  Co  Co121  1  0.40772093  0.84737621  1.00664811  1
  Co  Co122  1  0.32991867  0.63462091  0.46397010  1
  Co  Co123  1  0.83266263  0.67096054  0.35111403  1
  Co  Co124  1  0.10649628  0.98579515  0.57246726  1
  Co  Co125  1  0.18249090  0.61568909  0.96183988  1
  Co  Co126  1  0.90789439  0.21849099  0.73407927  1
  Co  Co127  1  0.09166013  0.02316663  0.76196715  1
  Co  Co128  1  0.38471699  0.70662595  0.59755901  1
  Co  Co129  1  -0.00670033  0.14687535  0.31414105  1
  Co  Co130  1  0.25940734  0.87429494  0.10350815  1
  Co  Co131  1  0.45821699  0.51359913  0.55309809  1
  Co  Co132  1  0.67273178  0.51975326  0.64362101  1
  Co  Co133  1  0.67403511  0.38659925  0.17422021  1
  Co  Co134  1  0.90323192  0.25522279  0.36480507  1
  Co  Co135  1  0.29872239  0.45810601  0.98105627  1
  Co  Co136  1  0.03356568  0.47980835  0.36076970  1
  Co  Co137  1  0.23272797  0.94878438  0.73197301  1
  Co  Co138  1  0.77078741  0.22366113  0.80849383  1
  Co  Co139  1  0.92527673  0.03940864  0.21388018  1
  Co  Co140  1  0.07682251  0.59403136  0.21807247  1
  Co  Co141  1  0.91202972  0.96669849  0.56615231  1
  Co  Co142  1  0.36847924  0.13429643  0.91424442  1
  Co  Co143  1  0.31381981  0.03068301  0.16356055  1
  Co  Co144  1  0.26759242  0.76118074  0.97971021  1
  Co  Co145  1  0.61904203  0.24292742  0.76723418  1
  Co  Co146  1  0.77796803  0.20882695  0.44750756  1
  Co  Co147  1  0.89140972  0.40438379  0.34740457  1
  Co  Co148  1  1.01058235  0.91734146  0.10618308  1
  Co  Co149  1  0.58944052  0.71967838  0.88058451  1
  Co  Co150  1  0.66009948  0.18590968  0.02426709  1
  Co  Co151  1  0.14386629  0.89249200  0.85690018  1
  Co  Co152  1  0.20766760  0.87047433  0.47459076  1
  Co  Co153  1  0.64307515  0.29093640  0.45038997  1
  Co  Co154  1  0.46060403  0.62345525  0.86110412  1
  Co  Co155  1  0.92582276  0.45405170  0.54562958  1
  Co  Co156  1  0.93076909  0.08697449  0.86095705  1
  Co  Co157  1  0.08880513  0.42273129  0.80117450  1
  Co  Co158  1  0.92971635  0.15272097  0.49127280  1
  Co  Co159  1  0.60525037  0.42285582  0.53187276  1
  Co  Co160  1  0.17440220  0.22956556  0.30119049  1
  Co  Co161  1  0.71814891  0.53103192  0.47500015  1
  Ni  Ni162  1  0.87719337  0.75667947  0.53531510  1
  Ni  Ni163  1  0.71809261  0.67917586  0.80196247  1
  Ni  Ni164  1  0.77270262  0.08596826  0.13522134  1
  Ni  Ni165  1  -0.03420977  0.07207772  0.05523256  1
  Ni  Ni166  1  0.69530961  0.85358825  0.99258456  1
  Ni  Ni167  1  0.70845621  0.67967121  0.23344044  1
  Ni  Ni168  1  0.06909138  1.00736136  0.27995348  1
  Ni  Ni169  1  0.38122605  0.52755104  0.34210544  1
  Ni  Ni170  1  0.48317025  0.12984359  0.78975109  1
  Ni  Ni171  1  0.04366296  0.39622251  0.10652397  1
  Ni  Ni172  1  0.90004800  0.18986232  0.15020728  1
  Ni  Ni173  1  0.43894488  0.80350549  0.30267732  1
  Ni  Ni174  1  0.50011516  0.29663423  0.20420528  1
  Ni  Ni175  1  0.06113805  0.84999334  0.37148541  1
  Ni  Ni176  1  0.94620306  0.94047830  0.79146280  1
  Ni  Ni177  1  0.74886408  0.87021875  0.53540635  1
  Ni  Ni178  1  0.55418090  0.59151727  -0.01251946  1
  Ni  Ni179  1  0.60067050  0.82102652  0.33278824  1
  Ni  Ni180  1  0.48161478  0.08797875  0.47858759  1
  Ni  Ni181  1  0.50192402  0.47972147  0.22722793  1
  Ni  Ni182  1  0.15834996  0.72005494  0.28698381  1
  Ni  Ni183  1  0.36384453  0.28477123  0.59443224  1
  Ni  Ni184  1  0.69635311  0.40953616  0.79460555  1
  Ni  Ni185  1  0.22201418  0.54654714  0.81076417  1
  Ni  Ni186  1  0.92244501  0.67065116  0.93892524  1
  Ni  Ni187  1  0.52918116  0.12486934  0.94961832  1
  Ni  Ni188  1  0.75725025  0.76801893  0.11229308  1
  Ni  Ni189  1  0.54591716  0.42716833  0.91393071  1
  Ni  Ni190  1  0.57901125  0.08512812  0.65855552  1
  Ni  Ni191  1  0.36891868  0.37825666  0.15933937  1
  Ni  Ni192  1  0.21993156  0.22001038  0.90110580  1
  Ni  Ni193  1  0.15832889  0.63598125  0.67799784  1
  Ni  Ni194  1  0.22897045  0.27215406  0.51723190  1
  Ni  Ni195  1  0.88707304  0.44835041  0.06454052  1
  Ni  Ni196  1  0.45520571  0.61434713  0.13268517  1
  Ni  Ni197  1  0.14572288  0.27253754  0.74732793  1
  Ni  Ni198  1  0.54706913  0.77014202  0.63198425  1
  Ni  Ni199  1  0.96022978  0.54655150  0.67568781  1
  Ni  Ni200  1  0.42955327  0.36228308  0.33852960  1
  Ni  Ni201  1  0.80090846  0.91437670  0.25430406  1
  Ni  Ni202  1  0.81079798  0.82283907  0.81114614  1
  Ni  Ni203  1  0.88248661  0.54216592  0.41343608  1
  Ni  Ni204  1  0.06134403  0.87958735  0.68916609  1
  Ni  Ni205  1  0.61631289  0.99225953  0.50385663  1
  Ni  Ni206  1  0.33576633  0.68510198  0.76771450  1
  Ni  Ni207  1  0.88320449  0.73951047  0.22089589  1
  Ni  Ni208  1  0.09458556  0.28109555  0.59677179  1
  Ni  Ni209  1  0.56009006  0.95140194  0.73694252  1
  Ni  Ni210  1  0.80907364  0.07552175  0.75782670  1
  Ni  Ni211  1  0.04016904  0.75229376  0.16144112  1
  Ni  Ni212  1  0.39491327  0.35309274  0.74049113  1
  Ni  Ni213  1  0.56318399  0.04776486  0.20440447  1
  Ni  Ni214  1  0.72208702  0.45786019  0.01335811  1
  Ni  Ni215  1  0.05017101  0.30182128  0.89689903  1
