# generated using pymatgen
data_Ti2CoNi
_symmetry_space_group_name_H-M   'P 1'
_cell_length_a   14.67287146
_cell_length_b   14.60958777
_cell_length_c   14.60243568
_cell_angle_alpha   89.86806580
_cell_angle_beta   89.71451541
_cell_angle_gamma   90.01266956
_symmetry_Int_Tables_number   1
_chemical_formula_structural   Ti2CoNi
_chemical_formula_sum   'Ti108 Co54 Ni54'
_cell_volume   3130.19809380
_cell_formula_units_Z   54
loop_
 _symmetry_equiv_pos_site_id
 _symmetry_equiv_pos_as_xyz
  1  'x, y, z'
loop_
 _atom_site_type_symbol
 _atom_site_label
 _atom_site_symmetry_multiplicity
 _atom_site_fract_x
 _atom_site_fract_y
 _atom_site_fract_z
 _atom_site_occupancy
  Ti  Ti0  1  0.03873274  0.01237437  -0.06049814  1
  Ti  Ti1  1  0.08921310  -0.04800933  0.34800117  1
  Ti  Ti2  1  -0.00678522  0.00154349  0.74817213  1
  Ti  Ti3  1  0.01760467  0.27266568  -0.02521490  1
  Ti  Ti4  1  -0.04227220  0.34160517  0.39607455  1
  Ti  Ti5  1  0.04003069  0.33066817  0.70922634  1
  Ti  Ti6  1  -0.02800658  0.69164191  -0.07287944  1
  Ti  Ti7  1  -0.00556956  0.65377288  0.38140555  1
  Ti  Ti8  1  -0.06757874  0.68234471  0.65591363  1
  Ti  Ti9  1  0.23037237  -0.07888427  0.04289434  1
  Ti  Ti10  1  0.32574139  0.04078376  0.34503361  1
  Ti  Ti11  1  0.30240703  -0.01415145  0.64625998  1
  Ti  Ti12  1  0.40486908  0.34837420  0.10919191  1
  Ti  Ti13  1  0.38214504  0.36798077  0.30741687  1
  Ti  Ti14  1  0.39586748  0.36441087  0.62483884  1
  Ti  Ti15  1  0.30947717  0.72135378  0.04006264  1
  Ti  Ti16  1  0.30072974  0.62014852  0.30965713  1
  Ti  Ti17  1  0.25648826  0.66992025  0.65590980  1
  Ti  Ti18  1  0.70975727  0.01988942  -0.04515961  1
  Ti  Ti19  1  0.63345206  -0.07529372  0.28275051  1
  Ti  Ti20  1  0.63906519  -0.04092483  0.63828720  1
  Ti  Ti21  1  0.59455229  0.37301147  0.06670806  1
  Ti  Ti22  1  0.68353044  0.30940693  0.34315947  1
  Ti  Ti23  1  0.65063088  0.28876840  0.66001463  1
  Ti  Ti24  1  0.66835116  0.74406585  -0.02944679  1
  Ti  Ti25  1  0.69374745  0.63228055  0.28994330  1
  Ti  Ti26  1  0.71438242  0.67791565  0.61203027  1
  Ti  Ti27  1  -0.01139575  0.19191642  0.19222672  1
  Ti  Ti28  1  -0.04089301  0.21565140  0.54639141  1
  Ti  Ti29  1  0.06376942  0.16627843  0.80501727  1
  Ti  Ti30  1  0.01570517  0.38129009  0.17951248  1
  Ti  Ti31  1  0.06320339  0.48446316  0.46710351  1
  Ti  Ti32  1  -0.04231214  0.46478425  0.91090587  1
  Ti  Ti33  1  0.00835494  0.90257860  0.11650693  1
  Ti  Ti34  1  0.00589180  0.84082128  0.50896379  1
  Ti  Ti35  1  -0.05576370  0.85302154  0.84050884  1
  Ti  Ti36  1  0.29977051  0.19648234  0.18114022  1
  Ti  Ti37  1  0.34060145  0.23943493  0.47592187  1
  Ti  Ti38  1  0.34804492  0.23395969  0.82697854  1
  Ti  Ti39  1  0.34531737  0.52405942  0.13687473  1
  Ti  Ti40  1  0.31526077  0.54792333  0.50898292  1
  Ti  Ti41  1  0.34083372  0.51481708  0.86040782  1
  Ti  Ti42  1  0.43372315  0.85089823  0.14083712  1
  Ti  Ti43  1  0.38494660  0.81786581  0.48335727  1
  Ti  Ti44  1  0.37011116  0.90438697  0.81744014  1
  Ti  Ti45  1  0.64300125  0.10837993  0.26301687  1
  Ti  Ti46  1  0.74313944  0.08932121  0.45484357  1
  Ti  Ti47  1  0.71227614  0.19221597  0.82613427  1
  Ti  Ti48  1  0.67558043  0.46159364  0.22305371  1
  Ti  Ti49  1  0.66365140  0.49018541  0.59436779  1
  Ti  Ti50  1  0.57138902  0.53338417  0.79683987  1
  Ti  Ti51  1  0.70220693  0.89649807  0.11063759  1
  Ti  Ti52  1  0.55791919  0.80188447  0.53399046  1
  Ti  Ti53  1  0.61893382  0.86682146  0.83406375  1
  Ti  Ti54  1  0.14821135  0.05322946  0.16841672  1
  Ti  Ti55  1  0.12959032  -0.00690621  0.54146238  1
  Ti  Ti56  1  0.18911808  -0.02437132  0.82428196  1
  Ti  Ti57  1  0.18841103  0.33371625  0.07257582  1
  Ti  Ti58  1  0.22691394  0.41954716  0.40768673  1
  Ti  Ti59  1  0.17205364  0.40513265  0.87596443  1
  Ti  Ti60  1  0.10570374  0.71756842  0.23809335  1
  Ti  Ti61  1  0.10234976  0.65283772  0.54833440  1
  Ti  Ti62  1  0.14767597  0.72593179  0.83018054  1
  Ti  Ti63  1  0.54560722  0.03108022  0.10809968  1
  Ti  Ti64  1  0.50969854  -0.02309029  0.42874270  1
  Ti  Ti65  1  0.50268649  0.02309746  0.89709306  1
  Ti  Ti66  1  0.51478140  0.24930030  0.23274999  1
  Ti  Ti67  1  0.53506352  0.36585028  0.47187134  1
  Ti  Ti68  1  0.55850383  0.34156554  0.86437607  1
  Ti  Ti69  1  0.59137260  0.72988350  0.14722892  1
  Ti  Ti70  1  0.57661622  0.62304552  0.46859446  1
  Ti  Ti71  1  0.35724255  0.70905894  0.80530311  1
  Ti  Ti72  1  0.83841158  0.03264627  0.15018731  1
  Ti  Ti73  1  0.83232613  -0.03418002  0.58040746  1
  Ti  Ti74  1  0.79306884  0.00378041  0.77764705  1
  Ti  Ti75  1  0.73863787  0.26697798  0.14726701  1
  Ti  Ti76  1  0.78835070  0.37914028  0.50848871  1
  Ti  Ti77  1  0.80615743  0.36037988  0.93189257  1
  Ti  Ti78  1  0.87400183  0.69816437  0.24396242  1
  Ti  Ti79  1  0.81099507  0.66122775  0.44636926  1
  Ti  Ti80  1  0.77341822  0.56866632  0.77542533  1
  Ti  Ti81  1  0.17965040  0.13896395  -0.00506385  1
  Ti  Ti82  1  0.12138888  0.22870726  0.41525580  1
  Ti  Ti83  1  0.16500966  0.21041146  0.62043117  1
  Ti  Ti84  1  0.19618806  0.55126544  0.01233751  1
  Ti  Ti85  1  0.13325092  0.51971206  0.24221349  1
  Ti  Ti86  1  0.17971647  0.47683990  0.64942891  1
  Ti  Ti87  1  0.11984969  0.74192976  0.05072279  1
  Ti  Ti88  1  0.26570159  0.83628049  0.33029938  1
  Ti  Ti89  1  0.20194862  0.82126680  0.55818561  1
  Ti  Ti90  1  0.43790051  0.17119479  0.01967780  1
  Ti  Ti91  1  0.52678201  0.16802028  0.40813466  1
  Ti  Ti92  1  0.52058710  0.11477906  0.68168200  1
  Ti  Ti93  1  0.53727022  0.55596266  -0.00805085  1
  Ti  Ti94  1  0.50556489  0.58778421  0.27422761  1
  Ti  Ti95  1  0.40873002  0.55194641  0.68638754  1
  Ti  Ti96  1  0.46340352  0.79320863  -0.04975538  1
  Ti  Ti97  1  0.54172523  0.77570844  0.34323190  1
  Ti  Ti98  1  0.51459500  0.76909289  0.71022096  1
  Ti  Ti99  1  0.84601364  0.16633916  -0.00127709  1
  Ti  Ti100  1  0.92124682  0.12322037  0.35488614  1
  Ti  Ti101  1  0.87737253  0.16462321  0.70625990  1
  Ti  Ti102  1  0.81305725  0.58656765  0.00585368  1
  Ti  Ti103  1  0.87068930  0.47975788  0.29416825  1
  Ti  Ti104  1  0.86186046  0.40118608  0.71971915  1
  Ti  Ti105  1  0.85620886  0.81596368  0.02383507  1
  Ti  Ti106  1  0.83586370  0.85683480  0.37378496  1
  Ti  Ti107  1  0.78548279  0.81325226  0.72737301  1
  Co  Co108  1  0.52932323  0.68388865  0.85181642  1
  Co  Co109  1  0.53373245  0.40168354  0.27942722  1
  Co  Co110  1  0.22234254  0.63294652  0.15176168  1
  Co  Co111  1  0.68762026  0.26528649  0.97955293  1
  Co  Co112  1  0.54904120  0.42049023  0.68298716  1
  Co  Co113  1  0.68634511  0.76246588  0.42438293  1
  Co  Co114  1  0.49621520  0.27242744  0.71766812  1
  Co  Co115  1  0.30625135  0.95468294  0.19366292  1
  Co  Co116  1  0.60349089  0.48552411  0.39381157  1
  Co  Co117  1  0.70467029  0.10505279  0.09869458  1
  Co  Co118  1  0.14060224  0.23922134  0.21049269  1
  Co  Co119  1  -0.01965906  0.56973506  0.20496524  1
  Co  Co120  1  0.25937008  0.79043498  0.17579470  1
  Co  Co121  1  0.92287444  0.98049938  0.44156036  1
  Co  Co122  1  0.41184700  0.08527851  0.51369845  1
  Co  Co123  1  0.14171003  0.88921362  0.20547129  1
  Co  Co124  1  0.10695169  0.90810868  0.67804710  1
  Co  Co125  1  -0.03527747  0.73781955  0.11649349  1
  Co  Co126  1  0.14708095  0.06513593  0.69171395  1
  Co  Co127  1  0.66490986  0.57200540  0.08902562  1
  Co  Co128  1  0.49384673  0.22699689  0.56123689  1
  Co  Co129  1  0.38720053  0.18986534  0.32519749  1
  Co  Co130  1  0.24856878  0.26450439  0.32996692  1
  Co  Co131  1  0.91567007  0.46582402  1.07756743  1
  Co  Co132  1  0.67266500  0.45207728  0.94115672  1
  Co  Co133  1  0.75814386  0.71874296  0.11945391  1
  Co  Co134  1  0.17843436  0.25047183  0.87572010  1
  Co  Co135  1  0.76183978  0.42535195  0.08082010  1
  Co  Co136  1  0.27114752  0.69878738  0.47002868  1
  Co  Co137  1  0.58865992  0.07968294  0.53516997  1
  Co  Co138  1  0.66991383  0.94175694  0.44371799  1
  Co  Co139  1  0.93339117  0.38891322  0.57298126  1
  Co  Co140  1  1.00831731  0.59273170  0.04767356  1
  Co  Co141  1  0.99206781  0.82106134  0.29567401  1
  Co  Co142  1  0.78512856  0.00145764  0.32151732  1
  Co  Co143  1  0.48909373  0.50899534  0.54974166  1
  Co  Co144  1  0.67944073  0.60607753  0.90473852  1
  Co  Co145  1  0.30493619  0.25119117  -0.01009487  1
  Co  Co146  1  0.10169883  0.36280519  0.31940327  1
  Co  Co147  1  0.71702812  0.78876215  0.26442102  1
  Co  Co148  1  0.58073696  0.20805164  0.10492658  1
  Co  Co149  1  0.80911231  0.56361963  0.17017742  1
  Co  Co150  1  0.66870066  0.70369496  0.77151931  1
  Co  Co151  1  0.60262524  0.13339848  0.96586678  1
  Co  Co152  1  0.30866872  0.07227553  0.07985049  1
  Co  Co153  1  0.23729364  0.82843089  0.73626650  1
  Co  Co154  1  0.84820105  0.86364063  0.19373859  1
  Co  Co155  1  0.37334468  0.81668216  0.65033273  1
  Co  Co156  1  0.41974360  0.67434616  0.57803248  1
  Co  Co157  1  0.42740151  0.67175551  0.41263345  1
  Co  Co158  1  0.08278343  0.75460231  0.67629173  1
  Co  Co159  1  0.56590265  0.62461235  0.64878980  1
  Co  Co160  1  0.45347781  0.66028953  0.10797613  1
  Co  Co161  1  0.07170915  0.44242808  0.02717536  1
  Ni  Ni162  1  0.26137175  0.82465770  0.91119487  1
  Ni  Ni163  1  0.29091449  0.95301655  0.47783068  1
  Ni  Ni164  1  0.81575270  0.23938999  0.41827037  1
  Ni  Ni165  1  0.50995290  0.49438204  0.14380920  1
  Ni  Ni166  1  0.31324891  0.42365238  0.99214715  1
  Ni  Ni167  1  0.70975940  0.11102950  0.66630241  1
  Ni  Ni168  1  0.91962835  0.27679693  0.83313530  1
  Ni  Ni169  1  0.75101223  0.50975470  0.41339001  1
  Ni  Ni170  1  0.89231834  0.30517490  0.09075975  1
  Ni  Ni171  1  0.81570777  0.71407657  0.86726232  1
  Ni  Ni172  1  0.50795066  0.95071202  0.74319920  1
  Ni  Ni173  1  0.85861470  0.78291506  0.54865647  1
  Ni  Ni174  1  0.46453075  0.94617661  0.58859104  1
  Ni  Ni175  1  0.05870572  0.47745489  0.77234904  1
  Ni  Ni176  1  0.97524272  0.04845115  0.59573976  1
  Ni  Ni177  1  0.94474438  0.86153923  0.66916541  1
  Ni  Ni178  1  0.90688101  0.51827205  0.46257832  1
  Ni  Ni179  1  0.65649209  0.23640177  0.49778621  1
  Ni  Ni180  1  0.40208917  0.62881177  0.95100537  1
  Ni  Ni181  1  0.23427526  0.32360500  0.73017769  1
  Ni  Ni182  1  0.47642065  0.06391917  0.25835519  1
  Ni  Ni183  1  0.71583064  0.84008489  0.56437781  1
  Ni  Ni184  1  0.82763175  0.53812519  0.60545122  1
  Ni  Ni185  1  0.90410174  0.10762457  0.86027655  1
  Ni  Ni186  1  0.40656830  0.73462704  0.25575397  1
  Ni  Ni187  1  0.38220479  0.07069002  0.76899045  1
  Ni  Ni188  1  0.16057667  0.60152302  0.39268441  1
  Ni  Ni189  1  0.40902618  0.95857304  1.01654058  1
  Ni  Ni190  1  0.24273260  0.35433835  0.56035049  1
  Ni  Ni191  1  0.04564050  0.09255565  0.45293501  1
  Ni  Ni192  1  0.41514619  0.39502094  0.78620991  1
  Ni  Ni193  1  -0.00980723  0.07953290  0.07621388  1
  Ni  Ni194  1  0.08814878  0.85201057  0.93364854  1
  Ni  Ni195  1  0.94717040  -0.01886282  0.26443101  1
  Ni  Ni196  1  0.51776470  0.17925864  0.84302613  1
  Ni  Ni197  1  0.12280777  0.77027320  0.40662019  1
  Ni  Ni198  1  0.24824861  0.10782234  0.51739319  1
  Ni  Ni199  1  0.00261936  0.52532217  0.62771284  1
  Ni  Ni200  1  0.79509491  0.23038357  0.58480567  1
  Ni  Ni201  1  0.86841540  0.30430668  0.26322868  1
  Ni  Ni202  1  0.57346697  0.89675595  0.00697592  1
  Ni  Ni203  1  0.17643181  0.10583380  0.32115971  1
  Ni  Ni204  1  0.43594412  0.90460101  0.29659464  1
  Ni  Ni205  1  0.93779112  0.58528483  0.78907156  1
  Ni  Ni206  1  0.24285038  0.39025979  0.21881257  1
  Ni  Ni207  1  0.20548712  0.56834141  0.78791617  1
  Ni  Ni208  1  0.31692732  0.06040367  0.91782452  1
  Ni  Ni209  1  0.08533991  0.57448060  0.89972697  1
  Ni  Ni210  1  0.43035825  0.49790333  0.39372386  1
  Ni  Ni211  1  0.79072028  0.16254154  0.26752268  1
  Ni  Ni212  1  0.87747418  0.98433409  -0.02318864  1
  Ni  Ni213  1  0.69900760  0.40311502  0.77796733  1
  Ni  Ni214  1  0.08412058  0.33862970  0.53683838  1
  Ni  Ni215  1  0.77397880  0.87564849  0.89334911  1
