# generated using pymatgen
data_Ti2CoNi
_symmetry_space_group_name_H-M   'P 1'
_cell_length_a   14.65115034
_cell_length_b   14.63908513
_cell_length_c   14.73222858
_cell_angle_alpha   89.88131619
_cell_angle_beta   90.14559244
_cell_angle_gamma   90.09342675
_symmetry_Int_Tables_number   1
_chemical_formula_structural   Ti2CoNi
_chemical_formula_sum   'Ti108 Co54 Ni54'
_cell_volume   3159.73893968
_cell_formula_units_Z   54
loop_
 _symmetry_equiv_pos_site_id
 _symmetry_equiv_pos_as_xyz
  1  'x, y, z'
loop_
 _atom_site_type_symbol
 _atom_site_label
 _atom_site_symmetry_multiplicity
 _atom_site_fract_x
 _atom_site_fract_y
 _atom_site_fract_z
 _atom_site_occupancy
  Ti  Ti0  1  0.03030924  -0.02939135  -0.03658129  1
  Ti  Ti1  1  -0.09290104  -0.01892588  0.38884661  1
  Ti  Ti2  1  0.00909149  0.11574004  0.66344856  1
  Ti  Ti3  1  0.03245146  0.38898162  -0.03996117  1
  Ti  Ti4  1  0.04966340  0.27737904  0.37756316  1
  Ti  Ti5  1  -0.02323869  0.31108828  0.68290928  1
  Ti  Ti6  1  -0.03445199  0.72012096  -0.01991841  1
  Ti  Ti7  1  0.08047900  0.69848038  0.39006286  1
  Ti  Ti8  1  -0.01208856  0.59717973  0.62062244  1
  Ti  Ti9  1  0.37586820  -0.00573082  -0.05390606  1
  Ti  Ti10  1  0.36636757  -0.05737575  0.36090138  1
  Ti  Ti11  1  0.30708345  0.07540559  0.65396359  1
  Ti  Ti12  1  0.39759582  0.33302852  -0.01767065  1
  Ti  Ti13  1  0.25199747  0.26953346  0.32329012  1
  Ti  Ti14  1  0.29718643  0.39569261  0.65359718  1
  Ti  Ti15  1  0.38807398  0.69411993  0.00537412  1
  Ti  Ti16  1  0.29724298  0.74940253  0.38231058  1
  Ti  Ti17  1  0.26036341  0.60467046  0.64077805  1
  Ti  Ti18  1  0.65155352  -0.01962147  0.00747385  1
  Ti  Ti19  1  0.68242565  0.00631953  0.34799331  1
  Ti  Ti20  1  0.70522312  0.02307970  0.70057012  1
  Ti  Ti21  1  0.62815419  0.31881009  0.03399416  1
  Ti  Ti22  1  0.62621335  0.31515204  0.30679695  1
  Ti  Ti23  1  0.68820971  0.28788653  0.62786608  1
  Ti  Ti24  1  0.66473879  0.64919032  -0.05200727  1
  Ti  Ti25  1  0.74867298  0.60166058  0.33927091  1
  Ti  Ti26  1  0.72122103  0.76248386  0.61496782  1
  Ti  Ti27  1  -0.04218087  0.17516171  0.14465071  1
  Ti  Ti28  1  -0.08460566  0.16567525  0.49925061  1
  Ti  Ti29  1  0.06827689  0.13392354  0.84589230  1
  Ti  Ti30  1  0.06047933  0.41687336  0.23313841  1
  Ti  Ti31  1  0.06582939  0.50683244  0.42763717  1
  Ti  Ti32  1  0.09955766  0.55376756  0.81736484  1
  Ti  Ti33  1  0.01389963  0.86787785  0.12438452  1
  Ti  Ti34  1  -0.01144955  0.80022991  0.60081971  1
  Ti  Ti35  1  -0.01628507  0.83531032  0.82330292  1
  Ti  Ti36  1  0.30665340  0.19893035  0.14706659  1
  Ti  Ti37  1  0.36192956  0.21631430  0.51626057  1
  Ti  Ti38  1  0.39611709  0.17422917  0.82768553  1
  Ti  Ti39  1  0.35386772  0.53484540  0.14702594  1
  Ti  Ti40  1  0.33180072  0.45153572  0.40139935  1
  Ti  Ti41  1  0.37552067  0.49179683  0.88335339  1
  Ti  Ti42  1  0.34795300  0.74263776  0.19360439  1
  Ti  Ti43  1  0.32937557  0.87094357  0.54684642  1
  Ti  Ti44  1  0.40147197  0.84305601  0.80952467  1
  Ti  Ti45  1  0.74226948  0.22073152  0.16237466  1
  Ti  Ti46  1  0.63663943  0.10310057  0.53517834  1
  Ti  Ti47  1  0.62903831  0.22128140  0.78694786  1
  Ti  Ti48  1  0.67580703  0.54349636  0.13701306  1
  Ti  Ti49  1  0.64099160  0.45233263  0.48528076  1
  Ti  Ti50  1  0.59306665  0.52616651  0.79275584  1
  Ti  Ti51  1  0.65298765  0.77238865  0.12590875  1
  Ti  Ti52  1  0.64778658  0.83479968  0.44472757  1
  Ti  Ti53  1  0.66125371  0.85062979  0.79322775  1
  Ti  Ti54  1  0.19693446  -0.02504705  0.17018075  1
  Ti  Ti55  1  0.13951743  -0.03452451  0.58233079  1
  Ti  Ti56  1  0.19696623  -0.05267603  0.84695415  1
  Ti  Ti57  1  0.20088436  0.32905539  0.05528269  1
  Ti  Ti58  1  0.19595814  0.31169999  0.51094068  1
  Ti  Ti59  1  0.13561791  0.36158460  0.80300749  1
  Ti  Ti60  1  0.15559483  0.73524199  0.20821758  1
  Ti  Ti61  1  0.17829937  0.76311027  0.53379362  1
  Ti  Ti62  1  0.25977976  0.66741031  0.85164477  1
  Ti  Ti63  1  0.46725776  0.06278614  0.22320328  1
  Ti  Ti64  1  0.45018041  0.02544831  0.52146304  1
  Ti  Ti65  1  0.55615741  0.05130450  0.86738230  1
  Ti  Ti66  1  0.50315008  0.26224040  0.17552365  1
  Ti  Ti67  1  0.46447172  0.37957519  0.55109783  1
  Ti  Ti68  1  0.47543890  0.35090798  0.76135351  1
  Ti  Ti69  1  0.52078422  0.64063184  0.22520109  1
  Ti  Ti70  1  0.44666997  0.63670562  0.42951573  1
  Ti  Ti71  1  0.43820651  0.65132464  0.76148731  1
  Ti  Ti72  1  0.82242134  0.03750319  0.21048680  1
  Ti  Ti73  1  0.90416446  -0.01930031  0.58378115  1
  Ti  Ti74  1  0.82996145  -0.04523784  0.89479908  1
  Ti  Ti75  1  0.85087725  0.37485794  0.10155532  1
  Ti  Ti76  1  0.83710768  0.36852091  0.54925840  1
  Ti  Ti77  1  0.84723522  0.40270843  0.87659253  1
  Ti  Ti78  1  0.89316117  0.65323604  0.17378461  1
  Ti  Ti79  1  0.85814207  0.67344697  0.49975719  1
  Ti  Ti80  1  0.89491499  0.60506143  0.80756353  1
  Ti  Ti81  1  0.18309504  0.10445141  0.00883540  1
  Ti  Ti82  1  0.10605737  0.10949374  0.28732591  1
  Ti  Ti83  1  0.19084815  0.21973221  0.70430892  1
  Ti  Ti84  1  0.13569234  0.51718493  0.07530854  1
  Ti  Ti85  1  0.20484180  0.56315220  0.27518408  1
  Ti  Ti86  1  0.10336151  0.44999702  0.63600789  1
  Ti  Ti87  1  0.16230922  0.79350185  0.02693284  1
  Ti  Ti88  1  0.07447591  0.89394986  0.31482801  1
  Ti  Ti89  1  0.16056427  0.80396712  0.71167859  1
  Ti  Ti90  1  0.46933895  0.13955513  0.02582427  1
  Ti  Ti91  1  0.51893947  0.15604016  0.39104257  1
  Ti  Ti92  1  0.50822595  0.09286314  0.68423972  1
  Ti  Ti93  1  0.50964956  0.49117547  0.04514920  1
  Ti  Ti94  1  0.50244297  0.47137444  0.31885761  1
  Ti  Ti95  1  0.52820691  0.56515049  0.60054018  1
  Ti  Ti96  1  0.52666010  0.83212088  -0.03723563  1
  Ti  Ti97  1  0.53362941  0.86885537  0.27180533  1
  Ti  Ti98  1  0.50826201  0.79730782  0.63819235  1
  Ti  Ti99  1  0.79728951  0.11837679  0.01874949  1
  Ti  Ti100  1  0.78129686  0.18475269  0.34430407  1
  Ti  Ti101  1  0.83277570  0.20993331  0.76700528  1
  Ti  Ti102  1  0.83322952  0.55418821  0.00828121  1
  Ti  Ti103  1  0.88593837  0.45297833  0.35687945  1
  Ti  Ti104  1  0.75218391  0.53118306  0.66830639  1
  Ti  Ti105  1  0.81379188  0.88013805  0.06888591  1
  Ti  Ti106  1  0.87218980  0.84434000  0.25253581  1
  Ti  Ti107  1  0.83827762  0.86512444  0.71897787  1
  Co  Co108  1  0.61213853  0.67063493  0.68751472  1
  Co  Co109  1  0.98137733  0.54202014  0.94500453  1
  Co  Co110  1  0.21327327  0.43490922  0.93064025  1
  Co  Co111  1  0.87414868  0.70915860  0.67699003  1
  Co  Co112  1  0.90966145  0.46566317  0.65871727  1
  Co  Co113  1  0.25225280  0.60626094  0.43629760  1
  Co  Co114  1  0.58903414  -0.05958898  0.60451018  1
  Co  Co115  1  0.36997157  0.53119345  0.54446642  1
  Co  Co116  1  0.12285832  0.61313211  0.54014909  1
  Co  Co117  1  0.01660546  0.32971605  0.10299937  1
  Co  Co118  1  0.34055229  0.04329589  0.09835960  1
  Co  Co119  1  0.83458467  0.84787952  0.52182319  1
  Co  Co120  1  -0.02063087  1.00025701  0.23018256  1
  Co  Co121  1  0.15256188  0.04838662  0.72320200  1
  Co  Co122  1  0.74238677  0.35932170  0.41440602  1
  Co  Co123  1  1.00277951  0.74653298  0.24971992  1
  Co  Co124  1  0.04265004  0.58179542  0.25276152  1
  Co  Co125  1  0.69303429  0.82232049  0.95280843  1
  Co  Co126  1  0.80903407  0.13235278  0.62674944  1
  Co  Co127  1  0.24402416  0.11372553  0.84333083  1
  Co  Co128  1  0.54513170  0.96633796  0.41724098  1
  Co  Co129  1  0.48775635  0.79660084  0.13149474  1
  Co  Co130  1  0.55682836  0.42325144  0.17948440  1
  Co  Co131  1  0.38161837  0.92090492  0.20298660  1
  Co  Co132  1  0.74372748  0.69742298  0.78541869  1
  Co  Co133  1  0.28422300  0.08337366  0.25816317  1
  Co  Co134  1  0.38033085  0.01400231  0.79046843  1
  Co  Co135  1  0.91167130  1.01039096  0.06398356  1
  Co  Co136  1  0.53472108  0.93680407  0.76912846  1
  Co  Co137  1  0.17909735  0.41062399  0.36629658  1
  Co  Co138  1  0.42421994  0.93869917  0.65647018  1
  Co  Co139  1  0.36611494  0.59929126  0.29653920  1
  Co  Co140  1  0.88881027  0.29485583  0.39959345  1
  Co  Co141  1  0.75128932  0.53549533  0.84163642  1
  Co  Co142  1  0.36038758  0.70707981  0.54240432  1
  Co  Co143  1  0.94537510  0.14117231  0.32635833  1
  Co  Co144  1  0.41847772  0.49431220  0.70576041  1
  Co  Co145  1  0.06617671  0.05102757  0.10734009  1
  Co  Co146  1  0.52991772  0.24164550  0.62773939  1
  Co  Co147  1  0.53972166  0.65661037  0.06763295  1
  Co  Co148  1  0.78607721  0.34762588  0.26028241  1
  Co  Co149  1  0.05219207  0.66187983  0.10684706  1
  Co  Co150  1  0.29154397  0.81560267  0.91796333  1
  Co  Co151  1  0.18960038  0.16267696  0.42474735  1
  Co  Co152  1  0.83738583  0.78780970  0.89330286  1
  Co  Co153  1  -0.01529722  0.43935927  0.79444904  1
  Co  Co154  1  0.17380229  0.12640772  0.57467543  1
  Co  Co155  1  0.26859892  0.92203802  0.70154491  1
  Co  Co156  1  0.21511658  0.47528157  0.52319149  1
  Co  Co157  1  0.57050663  0.72423591  0.83184820  1
  Co  Co158  1  0.93774566  0.29774434  0.24600201  1
  Co  Co159  1  0.16561704  0.25180837  0.91316939  1
  Co  Co160  1  0.59130133  0.41594221  0.65822036  1
  Co  Co161  1  0.75850121  0.21593154  0.49817037  1
  Ni  Ni162  1  0.31353628  0.19302167  -0.02699466  1
  Ni  Ni163  1  0.52519913  0.24762294  0.90809843  1
  Ni  Ni164  1  0.54597824  0.40916176  0.90553783  1
  Ni  Ni165  1  0.03945775  0.89815769  0.47539215  1
  Ni  Ni166  1  0.12848856  0.77564632  0.87087759  1
  Ni  Ni167  1  0.23587242  0.40730010  0.20633486  1
  Ni  Ni168  1  0.69847090  0.38417657  0.78723066  1
  Ni  Ni169  1  0.90931322  0.11661110  0.89766687  1
  Ni  Ni170  1  0.34367468  0.10220660  0.40494504  1
  Ni  Ni171  1  0.71154799  0.86777399  0.25494080  1
  Ni  Ni172  1  0.20385749  0.89231179  0.42866423  1
  Ni  Ni173  1  0.74321111  0.09543412  0.85127087  1
  Ni  Ni174  1  0.63047693  0.14174297  0.26716300  1
  Ni  Ni175  1  0.23933453  0.65088434  0.08155155  1
  Ni  Ni176  1  0.39818635  0.21018482  0.29142635  1
  Ni  Ni177  1  0.32273017  0.76177161  0.68788927  1
  Ni  Ni178  1  0.66520833  -0.00349294  0.17150624  1
  Ni  Ni179  1  0.12245800  0.63590974  0.95912262  1
  Ni  Ni180  1  0.79460913  0.71424399  0.04602685  1
  Ni  Ni181  1  0.78500012  0.76851203  0.37325657  1
  Ni  Ni182  1  0.96765693  0.50585773  0.11178989  1
  Ni  Ni183  1  0.24278103  0.86177553  0.27332740  1
  Ni  Ni184  1  0.05005212  0.07001788  0.46126441  1
  Ni  Ni185  1  0.68998626  0.46438767  -0.02459556  1
  Ni  Ni186  1  0.25400117  0.49546984  0.77617309  1
  Ni  Ni187  1  0.91750964  0.63629347  0.34625831  1
  Ni  Ni188  1  0.57500898  0.70803352  0.52050686  1
  Ni  Ni189  1  0.78201475  0.04147115  0.48301651  1
  Ni  Ni190  1  0.97820496  0.27283572  0.84758571  1
  Ni  Ni191  1  0.74491503  0.27236899  0.91062606  1
  Ni  Ni192  1  0.49806454  0.60491224  0.91784349  1
  Ni  Ni193  1  0.87780846  1.03785527  0.75115801  1
  Ni  Ni194  1  0.13200188  0.25496774  0.19936071  1
  Ni  Ni195  1  0.36827958  0.24551091  0.68002436  1
  Ni  Ni196  1  0.22495534  0.94329474  0.01180246  1
  Ni  Ni197  1  0.38464617  0.37318038  0.13981028  1
  Ni  Ni198  1  0.82393393  0.50506124  0.20608477  1
  Ni  Ni199  1  0.60084224  0.27552177  0.47791798  1
  Ni  Ni200  1  0.64375515  0.15527546  0.96426643  1
  Ni  Ni201  1  0.46165009  0.32403394  0.39348667  1
  Ni  Ni202  1  0.70502722  0.60598578  0.52455351  1
  Ni  Ni203  1  0.46287934  0.81904549  0.44794793  1
  Ni  Ni204  1  0.89529344  0.25749227  -0.00994084  1
  Ni  Ni205  1  0.36792807  0.86484469  1.05051235  1
  Ni  Ni206  1  0.99788501  0.37980507  0.51357062  1
  Ni  Ni207  1  0.01794352  0.94498887  0.70797495  1
  Ni  Ni208  1  0.59846507  0.59216608  0.39689266  1
  Ni  Ni209  1  0.60288660  0.13162376  0.11330099  1
  Ni  Ni210  1  0.94168261  0.79618131  0.40245121  1
  Ni  Ni211  1  0.30072959  0.31910194  0.83110099  1
  Ni  Ni212  1  0.03712091  0.69406351  0.75209415  1
  Ni  Ni213  1  0.64218425  0.72711419  0.29937602  1
  Ni  Ni214  1  0.06066792  0.23476346  0.55344527  1
  Ni  Ni215  1  0.50505274  0.96461007  0.09182869  1
