# generated using pymatgen
data_Ti2CoNi
_symmetry_space_group_name_H-M   'P 1'
_cell_length_a   14.50470066
_cell_length_b   14.53090070
_cell_length_c   14.54067275
_cell_angle_alpha   89.64709431
_cell_angle_beta   89.94491772
_cell_angle_gamma   89.79036196
_symmetry_Int_Tables_number   1
_chemical_formula_structural   Ti2CoNi
_chemical_formula_sum   'Ti108 Co54 Ni54'
_cell_volume   3064.60474068
_cell_formula_units_Z   54
loop_
 _symmetry_equiv_pos_site_id
 _symmetry_equiv_pos_as_xyz
  1  'x, y, z'
loop_
 _atom_site_type_symbol
 _atom_site_label
 _atom_site_symmetry_multiplicity
 _atom_site_fract_x
 _atom_site_fract_y
 _atom_site_fract_z
 _atom_site_occupancy
  Ti  Ti0  1  -0.03641917  -0.00921795  0.05537208  1
  Ti  Ti1  1  0.03282974  0.08317087  0.33935840  1
  Ti  Ti2  1  0.07023825  -0.02192537  0.65374562  1
  Ti  Ti3  1  0.05969817  0.29357431  0.03559659  1
  Ti  Ti4  1  -0.04509744  0.27103018  0.30352484  1
  Ti  Ti5  1  -0.03196584  0.28388162  0.65247420  1
  Ti  Ti6  1  0.02623366  0.66475225  0.02112939  1
  Ti  Ti7  1  -0.01061062  0.59483134  0.32592553  1
  Ti  Ti8  1  0.03065031  0.69703791  0.69949144  1
  Ti  Ti9  1  0.37914276  0.09838671  0.00314508  1
  Ti  Ti10  1  0.34449305  0.05035542  0.43176644  1
  Ti  Ti11  1  0.27433847  0.01885180  0.72767593  1
  Ti  Ti12  1  0.31809515  0.27962741  0.01923996  1
  Ti  Ti13  1  0.32269835  0.32325695  0.21353804  1
  Ti  Ti14  1  0.41236329  0.42856398  0.64509111  1
  Ti  Ti15  1  0.21977244  0.59431550  -0.01384471  1
  Ti  Ti16  1  0.36953684  0.61476879  0.29928471  1
  Ti  Ti17  1  0.30522446  0.61827244  0.67637387  1
  Ti  Ti18  1  0.63999013  -0.02154910  0.05847382  1
  Ti  Ti19  1  0.56020163  0.03393964  0.37917793  1
  Ti  Ti20  1  0.69918130  -0.07184092  0.62869034  1
  Ti  Ti21  1  0.59645454  0.39892607  0.02137306  1
  Ti  Ti22  1  0.64682781  0.29521283  0.39643339  1
  Ti  Ti23  1  0.72850352  0.36074136  0.63956341  1
  Ti  Ti24  1  0.66926397  0.70333742  -0.02981471  1
  Ti  Ti25  1  0.73471120  0.61104450  0.35713027  1
  Ti  Ti26  1  0.62898919  0.63466061  0.68856042  1
  Ti  Ti27  1  -0.08550864  0.14980578  0.13556922  1
  Ti  Ti28  1  -0.01480271  0.05388593  0.50717032  1
  Ti  Ti29  1  0.03130017  0.23547456  0.85361881  1
  Ti  Ti30  1  -0.07738106  0.49600138  0.14717845  1
  Ti  Ti31  1  -0.00538767  0.43311853  0.45165196  1
  Ti  Ti32  1  0.02085862  0.42125122  0.76811365  1
  Ti  Ti33  1  0.03331417  0.85743171  0.17512148  1
  Ti  Ti34  1  -0.01027573  0.87678836  0.47320812  1
  Ti  Ti35  1  0.06161262  0.85813622  0.77774635  1
  Ti  Ti36  1  0.37314002  0.07700453  0.23347593  1
  Ti  Ti37  1  0.36160904  0.26704690  0.49615049  1
  Ti  Ti38  1  0.37471922  0.18756645  0.77669125  1
  Ti  Ti39  1  0.34261536  0.47273024  0.10283067  1
  Ti  Ti40  1  0.34741812  0.48465250  0.43979102  1
  Ti  Ti41  1  0.34399273  0.50210946  0.83685906  1
  Ti  Ti42  1  0.29455950  0.80834234  0.11204018  1
  Ti  Ti43  1  0.29912657  0.86322985  0.48721410  1
  Ti  Ti44  1  0.35415462  0.89281076  0.85984977  1
  Ti  Ti45  1  0.70844476  0.14610904  0.14662547  1
  Ti  Ti46  1  0.66717664  0.13971525  0.50602502  1
  Ti  Ti47  1  0.73433637  0.12859616  0.82299930  1
  Ti  Ti48  1  0.70027001  0.53408380  0.14300184  1
  Ti  Ti49  1  0.66692376  0.51572862  0.53821825  1
  Ti  Ti50  1  0.58435286  0.50880614  0.86382949  1
  Ti  Ti51  1  0.60811181  0.87987424  0.22990321  1
  Ti  Ti52  1  0.64281305  0.73525008  0.51945657  1
  Ti  Ti53  1  0.66817882  0.86128805  0.83213635  1
  Ti  Ti54  1  0.23228090  -0.02243784  0.13923257  1
  Ti  Ti55  1  0.21627112  0.01680974  0.56054995  1
  Ti  Ti56  1  0.09624580  0.05298280  0.85763569  1
  Ti  Ti57  1  0.13032986  0.42365193  0.28981294  1
  Ti  Ti58  1  0.15099699  0.28167286  0.51355785  1
  Ti  Ti59  1  0.19956853  0.37160806  0.80946773  1
  Ti  Ti60  1  0.21201664  0.62686156  0.19014121  1
  Ti  Ti61  1  0.07227347  0.69381844  0.50717455  1
  Ti  Ti62  1  0.18459713  0.70669127  0.83009614  1
  Ti  Ti63  1  0.44265110  -0.05866621  0.15151454  1
  Ti  Ti64  1  0.48995960  -0.11130078  0.52973216  1
  Ti  Ti65  1  0.51520994  -0.00649655  0.92128352  1
  Ti  Ti66  1  0.60386863  0.30219604  0.21152497  1
  Ti  Ti67  1  0.50983365  0.41601662  0.47500299  1
  Ti  Ti68  1  0.50788500  0.35164264  0.79034318  1
  Ti  Ti69  1  0.46153886  0.75122904  0.17262620  1
  Ti  Ti70  1  0.51096957  0.66526156  0.39626919  1
  Ti  Ti71  1  0.52565516  0.68757391  0.82891666  1
  Ti  Ti72  1  0.81136820  -0.05854890  0.15195250  1
  Ti  Ti73  1  0.79862767  -0.02401608  0.45920704  1
  Ti  Ti74  1  0.90618970  0.10053229  0.87794013  1
  Ti  Ti75  1  0.76776170  0.35423526  0.09721585  1
  Ti  Ti76  1  0.85370563  0.32281386  0.50023895  1
  Ti  Ti77  1  0.73403216  0.37760433  0.89027613  1
  Ti  Ti78  1  0.80341550  0.68980368  0.12253862  1
  Ti  Ti79  1  0.86267017  0.70823336  0.44378001  1
  Ti  Ti80  1  0.85250342  0.68826405  0.84796735  1
  Ti  Ti81  1  0.17944177  0.11476369  0.03330402  1
  Ti  Ti82  1  0.17111329  0.22078043  0.30446284  1
  Ti  Ti83  1  0.19276360  0.18871036  0.73676302  1
  Ti  Ti84  1  0.08693209  0.45466343  -0.03794920  1
  Ti  Ti85  1  0.16920053  0.59621189  0.37951364  1
  Ti  Ti86  1  0.08468016  0.51532863  0.61792683  1
  Ti  Ti87  1  0.11605741  0.86837569  -0.00635248  1
  Ti  Ti88  1  0.19501544  0.78498408  0.35444613  1
  Ti  Ti89  1  0.27158360  0.83170080  0.68687525  1
  Ti  Ti90  1  0.51985392  0.23451830  -0.07748755  1
  Ti  Ti91  1  0.46139041  0.19487102  0.33851762  1
  Ti  Ti92  1  0.55750227  0.14921205  0.71467825  1
  Ti  Ti93  1  0.51522360  0.55869230  0.06476654  1
  Ti  Ti94  1  0.47851882  0.45108599  0.25019367  1
  Ti  Ti95  1  0.49299443  0.59206237  0.55603390  1
  Ti  Ti96  1  0.43095275  0.72997865  -0.00213503  1
  Ti  Ti97  1  0.44984062  0.87092125  0.33710469  1
  Ti  Ti98  1  0.47259717  0.89011479  0.72582334  1
  Ti  Ti99  1  0.87243628  0.24082315  -0.01250571  1
  Ti  Ti100  1  0.83958188  0.14647916  0.39356194  1
  Ti  Ti101  1  0.87901652  0.11427490  0.63926290  1
  Ti  Ti102  1  0.87918927  0.50090540  -0.10747400  1
  Ti  Ti103  1  0.84749700  0.42533945  0.29797365  1
  Ti  Ti104  1  0.84081903  0.56609641  0.68338212  1
  Ti  Ti105  1  0.82887724  0.85347004  -0.03354274  1
  Ti  Ti106  1  0.86859352  0.82033924  0.28726357  1
  Ti  Ti107  1  0.88615689  0.85625252  0.73614444  1
  Co  Co108  1  0.56767776  0.32873967  0.61311420  1
  Co  Co109  1  0.17333795  0.95617949  0.41619212  1
  Co  Co110  1  0.38491829  0.75100511  0.41222349  1
  Co  Co111  1  0.57868303  0.46900174  0.68420208  1
  Co  Co112  1  0.73649411  0.98365576  0.92212106  1
  Co  Co113  1  0.00713193  0.14307586  0.72255250  1
  Co  Co114  1  0.43101957  0.40898984  0.96373606  1
  Co  Co115  1  0.16723965  0.43743977  0.44742203  1
  Co  Co116  1  0.81109678  0.83892012  0.53087123  1
  Co  Co117  1  0.21267197  0.06737819  0.29336456  1
  Co  Co118  1  0.11486218  0.93840851  0.27839180  1
  Co  Co119  1  0.74889411  0.78713940  0.38946724  1
  Co  Co120  1  0.43310518  0.03618476  0.78445520  1
  Co  Co121  1  0.51663077  0.08124706  0.07014224  1
  Co  Co122  1  0.61439108  0.99007704  0.77654203  1
  Co  Co123  1  0.79805802  0.08553946  0.03094233  1
  Co  Co124  1  0.16718760  0.12061623  0.43696478  1
  Co  Co125  1  0.50469996  0.82534329  0.88488778  1
  Co  Co126  1  0.22176186  0.72656369  0.52003437  1
  Co  Co127  1  0.97388587  0.56989978  0.76339809  1
  Co  Co128  1  0.31750913  0.75797290  0.25604614  1
  Co  Co129  1  0.19050374  0.46129162  0.11794808  1
  Co  Co130  1  0.61585026  0.73219330  0.28894564  1
  Co  Co131  1  0.54679205  0.12478015  0.22300249  1
  Co  Co132  1  0.46402592  0.35790086  0.12376468  1
  Co  Co133  1  0.91510672  0.95899540  0.35645719  1
  Co  Co134  1  0.25002270  0.41165367  0.57453753  1
  Co  Co135  1  1.02645824  0.12053300  0.98741344  1
  Co  Co136  1  0.38801048  0.97311232  0.59852643  1
  Co  Co137  1  0.70384751  0.25180336  0.99903756  1
  Co  Co138  1  0.37646056  0.63276171  0.13018923  1
  Co  Co139  1  0.28271652  0.46693189  0.28224156  1
  Co  Co140  1  0.90041982  0.34534795  0.86808540  1
  Co  Co141  1  0.94401830  1.00121822  0.77504344  1
  Co  Co142  1  0.91679203  0.30949625  0.14424891  1
  Co  Co143  1  0.28978160  0.31611415  0.68088212  1
  Co  Co144  1  0.41608039  0.19520920  0.14576322  1
  Co  Co145  1  0.25696256  0.43354455  0.96191410  1
  Co  Co146  1  0.77947097  0.27269558  0.24690778  1
  Co  Co147  1  0.73469599  0.47142329  0.74367938  1
  Co  Co148  1  0.16432843  0.68116026  0.66554793  1
  Co  Co149  1  0.62211201  0.11751657  0.95014141  1
  Co  Co150  1  0.26322963  0.78949561  0.94691686  1
  Co  Co151  1  0.56606574  0.22799923  0.07952829  1
  Co  Co152  1  0.83746448  0.58553899  0.25532770  1
  Co  Co153  1  0.46573952  0.55667461  0.73692172  1
  Co  Co154  1  0.34517279  0.62657669  0.49908642  1
  Co  Co155  1  0.93381002  0.40255671  0.00958366  1
  Co  Co156  1  0.20796001  0.55827272  0.53824948  1
  Co  Co157  1  0.72953274  0.95365943  0.30697746  1
  Co  Co158  1  0.89743847  -0.04136679  0.61725231  1
  Co  Co159  1  0.04810248  0.39474505  0.16165221  1
  Co  Co160  1  0.39690895  0.89466778  1.01283404  1
  Co  Co161  1  0.41676938  0.34759840  0.35393476  1
  Ni  Ni162  1  0.45500874  0.71354897  0.66835696  1
  Ni  Ni163  1  0.71227126  0.60476836  0.83162924  1
  Ni  Ni164  1  0.88164211  0.58401538  0.02545298  1
  Ni  Ni165  1  0.25977208  0.97111687  -0.01833239  1
  Ni  Ni166  1  0.73332531  0.17848956  0.65240800  1
  Ni  Ni167  1  0.72649557  0.40912842  0.43708917  1
  Ni  Ni168  1  0.58815428  0.79970443  0.67206019  1
  Ni  Ni169  1  0.19414229  0.89428958  0.84315227  1
  Ni  Ni170  1  0.26118291  0.17191894  0.15653733  1
  Ni  Ni171  1  0.84826787  0.50241596  0.45071276  1
  Ni  Ni172  1  0.28890559  0.15864945  0.60622932  1
  Ni  Ni173  1  0.77578115  0.64085129  0.54720182  1
  Ni  Ni174  1  0.69844240  0.13982309  0.31432893  1
  Ni  Ni175  1  -0.01654544  0.93294363  0.91977852  1
  Ni  Ni176  1  0.71601567  0.52393218  -0.02261642  1
  Ni  Ni177  1  0.26335780  0.10174597  0.87724121  1
  Ni  Ni178  1  0.88961420  0.71994286  0.63830617  1
  Ni  Ni179  1  0.97788365  0.23098704  0.47741519  1
  Ni  Ni180  1  0.35354769  0.33110168  0.86210135  1
  Ni  Ni181  1  0.51789028  0.24426265  0.50446564  1
  Ni  Ni182  1  0.08457344  0.04822036  0.17524802  1
  Ni  Ni183  1  0.74575023  0.75486518  0.72318938  1
  Ni  Ni184  1  0.29637265  0.92734270  0.29902600  1
  Ni  Ni185  1  -0.05791680  0.57053147  0.54351849  1
  Ni  Ni186  1  0.83718795  0.24655809  0.76700059  1
  Ni  Ni187  1  0.78705036  -0.01295510  0.75274508  1
  Ni  Ni188  1  0.06459842  0.21088758  0.19005183  1
  Ni  Ni189  1  0.12656526  0.83220864  0.60061095  1
  Ni  Ni190  1  0.54922905  0.61088434  0.22716355  1
  Ni  Ni191  1  0.84996554  0.05790405  0.26158776  1
  Ni  Ni192  1  0.90065211  0.43063041  0.61386255  1
  Ni  Ni193  1  0.17057544  0.23789431  0.92753276  1
  Ni  Ni194  1  0.71605360  0.82704188  0.09962104  1
  Ni  Ni195  1  0.57686783  0.02035567  0.58787390  1
  Ni  Ni196  1  0.58955918  0.51515120  0.36808725  1
  Ni  Ni197  1  0.01910930  0.75485835  0.35695404  1
  Ni  Ni198  1  0.38199753  0.57914912  0.95964236  1
  Ni  Ni199  1  0.97479173  0.68562591  0.17872775  1
  Ni  Ni200  1  0.18611223  0.54246419  0.80292410  1
  Ni  Ni201  1  0.89743845  0.81624586  0.10255450  1
  Ni  Ni202  1  0.14054501  0.75108445  0.10797943  1
  Ni  Ni203  1  0.64070546  0.69791231  0.13731062  1
  Ni  Ni204  1  0.25952491  0.32736800  0.38099500  1
  Ni  Ni205  1  0.10690428  0.14687268  0.59909840  1
  Ni  Ni206  1  0.05756819  0.60069728  0.88977248  1
  Ni  Ni207  1  0.55521131  0.83565027  0.04442351  1
  Ni  Ni208  1  0.98340651  0.77963412  0.90447395  1
  Ni  Ni209  1  0.12446333  0.34339388  0.65432123  1
  Ni  Ni210  1  0.45144842  0.10296618  0.55708202  1
  Ni  Ni211  1  0.42177997  0.24556330  0.64789523  1
  Ni  Ni212  1  0.62702641  0.86918922  0.39984525  1
  Ni  Ni213  1  0.68702845  0.42697238  0.28782474  1
  Ni  Ni214  1  0.07665901  0.55591963  0.17162527  1
  Ni  Ni215  1  0.66085807  0.27795883  0.76479595  1
