# generated using pymatgen
data_Ti2CoNi
_symmetry_space_group_name_H-M   'P 1'
_cell_length_a   14.53416046
_cell_length_b   14.48834856
_cell_length_c   14.56581328
_cell_angle_alpha   90.11672412
_cell_angle_beta   89.94128221
_cell_angle_gamma   89.86055039
_symmetry_Int_Tables_number   1
_chemical_formula_structural   Ti2CoNi
_chemical_formula_sum   'Ti108 Co54 Ni54'
_cell_volume   3067.19337139
_cell_formula_units_Z   54
loop_
 _symmetry_equiv_pos_site_id
 _symmetry_equiv_pos_as_xyz
  1  'x, y, z'
loop_
 _atom_site_type_symbol
 _atom_site_label
 _atom_site_symmetry_multiplicity
 _atom_site_fract_x
 _atom_site_fract_y
 _atom_site_fract_z
 _atom_site_occupancy
  Ti  Ti0  1  0.05620641  -0.04186393  -0.01476260  1
  Ti  Ti1  1  0.01062589  -0.04596635  0.36935429  1
  Ti  Ti2  1  0.01235076  0.03999778  0.54506153  1
  Ti  Ti3  1  0.02433544  0.24256443  0.03832202  1
  Ti  Ti4  1  0.02971356  0.35081253  0.30297083  1
  Ti  Ti5  1  0.00223345  0.31702721  0.65691686  1
  Ti  Ti6  1  -0.07153015  0.60857788  0.00297592  1
  Ti  Ti7  1  0.03463293  0.64501513  0.31230597  1
  Ti  Ti8  1  0.00255543  0.74160392  0.66315678  1
  Ti  Ti9  1  0.30791320  -0.02625306  -0.05973429  1
  Ti  Ti10  1  0.34567842  0.02112379  0.44059500  1
  Ti  Ti11  1  0.31747994  -0.00210205  0.63626714  1
  Ti  Ti12  1  0.29256410  0.42724597  0.01860009  1
  Ti  Ti13  1  0.37688391  0.24545055  0.32957643  1
  Ti  Ti14  1  0.37378141  0.31536967  0.72005358  1
  Ti  Ti15  1  0.36354748  0.72322940  0.11010576  1
  Ti  Ti16  1  0.28460037  0.68561386  0.29971666  1
  Ti  Ti17  1  0.26865497  0.64585418  0.64592882  1
  Ti  Ti18  1  0.73746180  0.02610178  -0.04420190  1
  Ti  Ti19  1  0.70865804  -0.00211252  0.40685161  1
  Ti  Ti20  1  0.67343496  0.02025708  0.61719170  1
  Ti  Ti21  1  0.60562762  0.43209148  -0.01543921  1
  Ti  Ti22  1  0.70851652  0.32962246  0.35816821  1
  Ti  Ti23  1  0.64990915  0.37169033  0.65513862  1
  Ti  Ti24  1  0.70058052  0.63581102  -0.03667850  1
  Ti  Ti25  1  0.63705768  0.66902835  0.30629356  1
  Ti  Ti26  1  0.65461297  0.67610653  0.61683299  1
  Ti  Ti27  1  0.02279498  0.04569315  0.18747221  1
  Ti  Ti28  1  0.03684288  0.23058369  0.47188738  1
  Ti  Ti29  1  -0.01996937  0.25164955  0.84139183  1
  Ti  Ti30  1  -0.05765939  0.48620395  0.17211262  1
  Ti  Ti31  1  -0.02809148  0.56047264  0.56216775  1
  Ti  Ti32  1  -0.04540829  0.44808895  0.85932436  1
  Ti  Ti33  1  -0.04742191  0.84852195  0.15076078  1
  Ti  Ti34  1  -0.06816881  0.79919418  0.48270488  1
  Ti  Ti35  1  0.04178809  0.83829628  0.83089470  1
  Ti  Ti36  1  0.25027184  0.10332011  0.11912594  1
  Ti  Ti37  1  0.33824017  0.26487307  0.51498564  1
  Ti  Ti38  1  0.33922377  0.14256585  0.82857900  1
  Ti  Ti39  1  0.32512571  0.51561951  0.19565112  1
  Ti  Ti40  1  0.39646974  0.53183669  0.51583984  1
  Ti  Ti41  1  0.35107729  0.50147555  0.77466524  1
  Ti  Ti42  1  0.32183991  0.92479422  0.12488529  1
  Ti  Ti43  1  0.29342257  0.82737822  0.53665744  1
  Ti  Ti44  1  0.36369002  0.85247484  0.78383040  1
  Ti  Ti45  1  0.57112343  0.16689446  0.15103144  1
  Ti  Ti46  1  0.75583089  0.17214765  0.48401828  1
  Ti  Ti47  1  0.68774943  0.15645057  0.81399146  1
  Ti  Ti48  1  0.64205792  0.41507144  0.18615837  1
  Ti  Ti49  1  0.58507950  0.49581639  0.50308138  1
  Ti  Ti50  1  0.65836048  0.48724434  0.81911360  1
  Ti  Ti51  1  0.64891524  0.87220973  0.09676537  1
  Ti  Ti52  1  0.74693392  0.82962392  0.52735530  1
  Ti  Ti53  1  0.68601988  0.76633637  0.81261502  1
  Ti  Ti54  1  0.20240433  -0.01701189  0.29992340  1
  Ti  Ti55  1  0.17778436  -0.01814722  0.49646134  1
  Ti  Ti56  1  0.09559936  0.05844360  0.78103156  1
  Ti  Ti57  1  0.19645252  0.31578407  0.15379728  1
  Ti  Ti58  1  0.18303388  0.36363323  0.44125780  1
  Ti  Ti59  1  0.16126769  0.37561135  0.78232625  1
  Ti  Ti60  1  0.14676993  0.70570107  0.16929087  1
  Ti  Ti61  1  0.19141224  0.59146911  0.47252584  1
  Ti  Ti62  1  0.21994790  0.67162459  0.90257603  1
  Ti  Ti63  1  0.49551904  -0.01666213  0.18580280  1
  Ti  Ti64  1  0.51757771  -0.04689193  0.50357498  1
  Ti  Ti65  1  0.60138803  -0.01646473  0.83116609  1
  Ti  Ti66  1  0.41479223  0.34421442  0.14868323  1
  Ti  Ti67  1  0.54097149  0.28382586  0.46738125  1
  Ti  Ti68  1  0.53187842  0.26967536  0.87115890  1
  Ti  Ti69  1  0.58109378  0.70133134  0.11716963  1
  Ti  Ti70  1  0.48878701  0.73413786  0.49034548  1
  Ti  Ti71  1  0.47751483  0.68312760  0.92118076  1
  Ti  Ti72  1  0.78280225  0.00073313  0.13498100  1
  Ti  Ti73  1  0.84573383  -0.00470552  0.57568915  1
  Ti  Ti74  1  0.90688795  0.03347257  0.82509621  1
  Ti  Ti75  1  0.87066646  0.28593120  0.16120708  1
  Ti  Ti76  1  0.87902306  0.32987720  0.46980232  1
  Ti  Ti77  1  0.77732132  0.34487467  0.89146996  1
  Ti  Ti78  1  0.82995335  0.64640109  0.25339677  1
  Ti  Ti79  1  0.75436175  0.59234821  0.46461716  1
  Ti  Ti80  1  0.89186379  0.71636429  0.85123064  1
  Ti  Ti81  1  0.16896420  0.22267855  -0.09425158  1
  Ti  Ti82  1  0.18273125  0.19741119  0.30339671  1
  Ti  Ti83  1  0.15452503  0.14034349  0.60900652  1
  Ti  Ti84  1  0.11279485  0.51680176  0.00728290  1
  Ti  Ti85  1  0.17255842  0.49629482  0.30352046  1
  Ti  Ti86  1  0.16395784  0.46947554  0.61712217  1
  Ti  Ti87  1  0.18432190  0.82036578  0.02429487  1
  Ti  Ti88  1  0.14359372  0.78683658  0.39497597  1
  Ti  Ti89  1  0.16244689  0.88162915  0.68039547  1
  Ti  Ti90  1  0.43036263  0.18917614  -0.00004144  1
  Ti  Ti91  1  0.50688271  0.10591056  0.33929091  1
  Ti  Ti92  1  0.50425900  0.08758539  0.65424263  1
  Ti  Ti93  1  0.46937878  0.53911167  0.07669246  1
  Ti  Ti94  1  0.49490502  0.44213839  0.31089031  1
  Ti  Ti95  1  0.51799489  0.53767084  0.68263869  1
  Ti  Ti96  1  0.48462929  0.88394809  -0.02080775  1
  Ti  Ti97  1  0.45257029  0.79012180  0.30680453  1
  Ti  Ti98  1  0.50998123  0.75439566  0.72302746  1
  Ti  Ti99  1  0.84702010  0.17931236  -0.02774785  1
  Ti  Ti100  1  0.79787889  0.13068270  0.27611523  1
  Ti  Ti101  1  0.82608834  0.15791552  0.69330564  1
  Ti  Ti102  1  0.79662048  0.47863144  0.04892788  1
  Ti  Ti103  1  0.89776118  0.48439995  0.37777354  1
  Ti  Ti104  1  0.85080413  0.44554822  0.61562271  1
  Ti  Ti105  1  0.81967142  0.82915504  0.00272081  1
  Ti  Ti106  1  0.76819988  0.86177368  0.27121285  1
  Ti  Ti107  1  0.86391379  0.85515566  0.70294417  1
  Co  Co108  1  0.48447707  0.39050812  0.59431185  1
  Co  Co109  1  1.01448858  0.11019873  0.92276986  1
  Co  Co110  1  0.24687903  0.82461848  0.22295497  1
  Co  Co111  1  0.09890289  0.61914464  0.64908958  1
  Co  Co112  1  0.55804862  0.31006631  0.07671120  1
  Co  Co113  1  0.90022009  0.12763774  0.12568957  1
  Co  Co114  1  0.60200669  0.10451698  0.49426225  1
  Co  Co115  1  0.22065167  0.47701831  0.88818255  1
  Co  Co116  1  0.18031932  0.06697606  0.93000030  1
  Co  Co117  1  0.04458775  0.60177282  0.86175262  1
  Co  Co118  1  0.41454338  0.00906242  0.76513865  1
  Co  Co119  1  0.72901686  0.15276318  0.09463402  1
  Co  Co120  1  0.29473867  0.84239215  0.38073535  1
  Co  Co121  1  0.82372923  0.56969170  0.88197070  1
  Co  Co122  1  0.04031650  0.48889316  0.72751654  1
  Co  Co123  1  0.88486977  0.08639395  0.41998599  1
  Co  Co124  1  0.03987815  0.22203675  0.20083778  1
  Co  Co125  1  0.18798287  0.56531434  0.76775593  1
  Co  Co126  1  0.78137630  0.75325374  0.38646201  1
  Co  Co127  1  0.51831956  0.39686241  0.77241157  1
  Co  Co128  1  0.65157645  0.17074136  0.34957509  1
  Co  Co129  1  0.10454895  0.10857585  0.06555792  1
  Co  Co130  1  0.61663135  1.02589149  0.07693662  1
  Co  Co131  1  0.67086456  0.24239546  0.95498268  1
  Co  Co132  1  0.58814557  0.11705406  0.95682608  1
  Co  Co133  1  0.69403162  0.26003882  0.21338654  1
  Co  Co134  1  1.02117024  0.39549484  0.51666700  1
  Co  Co135  1  0.79275084  0.69428332  0.71877151  1
  Co  Co136  1  0.47938918  0.83009044  0.14214148  1
  Co  Co137  1  0.34615574  0.67879102  0.79276905  1
  Co  Co138  1  0.90149099  0.64793328  0.41192379  1
  Co  Co139  1  0.44246885  0.13027556  0.49345346  1
  Co  Co140  1  0.23355807  0.14833085  0.45654780  1
  Co  Co141  1  0.34128044  0.79936037  0.94195556  1
  Co  Co142  1  0.88922555  -0.01998262  0.26450450  1
  Co  Co143  1  0.90920084  0.17628192  0.55781209  1
  Co  Co144  1  0.16880496  0.73295867  0.75576693  1
  Co  Co145  1  0.53561593  0.27852474  0.27728004  1
  Co  Co146  1  0.93161566  0.78794735  0.30502618  1
  Co  Co147  1  0.46860950  0.23899523  0.61558887  1
  Co  Co148  1  0.04546253  0.67835269  0.48581061  1
  Co  Co149  1  0.85332536  0.92065420  0.41162187  1
  Co  Co150  1  0.35587879  0.56924691  0.93187275  1
  Co  Co151  1  0.19786408  0.86139417  0.86417052  1
  Co  Co152  1  0.64716737  1.02135360  0.24989958  1
  Co  Co153  1  -0.00990579  0.14639464  0.69710990  1
  Co  Co154  1  0.16161922  0.74295787  0.57205107  1
  Co  Co155  1  0.89391789  0.24958629  0.33891333  1
  Co  Co156  1  0.84108576  0.68641091  0.57137546  1
  Co  Co157  1  0.42281551  0.03917172  0.06100886  1
  Co  Co158  1  0.90744994  0.35711581  1.00301306  1
  Co  Co159  1  0.32212249  0.09640597  0.28472283  1
  Co  Co160  1  0.82118791  0.40230569  0.26171149  1
  Co  Co161  1  0.49993922  0.51518315  0.88467987  1
  Ni  Ni162  1  0.34553768  0.54533301  0.35874308  1
  Ni  Ni163  1  0.44347087  0.37477317  -0.02741931  1
  Ni  Ni164  1  0.51642025  0.59297031  0.38978505  1
  Ni  Ni165  1  0.32593383  0.68638008  0.46634998  1
  Ni  Ni166  1  0.59034328  0.82932433  0.58197020  1
  Ni  Ni167  1  0.70861112  0.53217916  0.65172663  1
  Ni  Ni168  1  0.58575236  0.23784387  0.71623369  1
  Ni  Ni169  1  0.85428609  0.30662329  0.74727115  1
  Ni  Ni170  1  0.78042837  0.28899744  0.60140543  1
  Ni  Ni171  1  0.66882292  0.49997856  0.33824543  1
  Ni  Ni172  1  0.54224181  0.92503077  0.70237526  1
  Ni  Ni173  1  0.05633989  0.38528070  0.11761529  1
  Ni  Ni174  1  0.45621294  0.62949660  0.23683288  1
  Ni  Ni175  1  0.05816173  0.51080574  0.41932645  1
  Ni  Ni176  1  0.08593284  0.67926628  0.01576168  1
  Ni  Ni177  1  0.46244626  1.04337996  0.90496259  1
  Ni  Ni178  1  0.39647227  0.17893374  0.16828290  1
  Ni  Ni179  1  0.37371343  0.39563301  0.41927089  1
  Ni  Ni180  1  0.72860770  0.42143683  0.49725191  1
  Ni  Ni181  1  0.97069580  0.66308265  0.15569246  1
  Ni  Ni182  1  0.37800858  0.94500409  0.29248707  1
  Ni  Ni183  1  0.73723540  0.32475196  0.06836986  1
  Ni  Ni184  1  0.67002971  0.56467461  0.12048588  1
  Ni  Ni185  1  0.53679311  -0.06398645  0.34927462  1
  Ni  Ni186  1  0.62024020  0.80747587  0.41346113  1
  Ni  Ni187  1  0.28138237  0.37058082  0.28677190  1
  Ni  Ni188  1  0.08303021  0.85106508  0.25519059  1
  Ni  Ni189  1  0.06921964  0.86464425  0.53059604  1
  Ni  Ni190  1  0.98310762  0.79500222  0.98571941  1
  Ni  Ni191  1  0.22168669  0.22339235  0.73841570  1
  Ni  Ni192  1  0.28330998  0.24960711  0.03078962  1
  Ni  Ni193  1  0.76205442  0.01086129  0.75501362  1
  Ni  Ni194  1  0.31312195  0.41252794  0.58979620  1
  Ni  Ni195  1  0.14342090  0.94070343  0.13643347  1
  Ni  Ni196  1  0.91123898  0.58773509  0.72632252  1
  Ni  Ni197  1  0.65139172  0.85951575  0.93716691  1
  Ni  Ni198  1  0.79835721  0.89128348  0.85445958  1
  Ni  Ni199  1  0.80863575  0.45881699  0.76614329  1
  Ni  Ni200  1  0.70341524  0.86985139  0.69019028  1
  Ni  Ni201  1  0.59179323  0.63401550  0.80617959  1
  Ni  Ni202  1  0.42527931  0.86274230  0.61476775  1
  Ni  Ni203  1  0.17224523  0.30493942  0.59686627  1
  Ni  Ni204  1  0.32734969  0.15219436  0.63110625  1
  Ni  Ni205  1  0.89956624  0.99814409  0.01484184  1
  Ni  Ni206  1  0.26620827  0.59841303  0.06792290  1
  Ni  Ni207  1  1.00323550  0.94772064  0.68567031  1
  Ni  Ni208  1  0.08927650  0.36728427  0.94576187  1
  Ni  Ni209  1  0.11095341  0.54374082  0.16795992  1
  Ni  Ni210  1  0.24643429  0.99891501  0.78613840  1
  Ni  Ni211  1  0.76780054  0.74706475  0.13776323  1
  Ni  Ni212  1  0.31369232  0.31556688  0.87812758  1
  Ni  Ni213  1  0.08521520  0.09636666  0.38972208  1
  Ni  Ni214  1  0.42191955  0.66344912  0.62048114  1
  Ni  Ni215  1  0.60865117  0.82964577  0.24817716  1
