# generated using pymatgen
data_Ti2CoNi
_symmetry_space_group_name_H-M   'P 1'
_cell_length_a   14.61384773
_cell_length_b   14.59690558
_cell_length_c   14.56657587
_cell_angle_alpha   89.85790946
_cell_angle_beta   90.26806691
_cell_angle_gamma   89.80424466
_symmetry_Int_Tables_number   1
_chemical_formula_structural   Ti2CoNi
_chemical_formula_sum   'Ti108 Co54 Ni54'
_cell_volume   3107.23579270
_cell_formula_units_Z   54
loop_
 _symmetry_equiv_pos_site_id
 _symmetry_equiv_pos_as_xyz
  1  'x, y, z'
loop_
 _atom_site_type_symbol
 _atom_site_label
 _atom_site_symmetry_multiplicity
 _atom_site_fract_x
 _atom_site_fract_y
 _atom_site_fract_z
 _atom_site_occupancy
  Ti  Ti0  1  0.01307533  -0.02326175  -0.01966482  1
  Ti  Ti1  1  0.02744300  -0.03458592  0.33209462  1
  Ti  Ti2  1  0.07396132  0.01652553  0.65443649  1
  Ti  Ti3  1  -0.07680476  0.30365352  -0.05088133  1
  Ti  Ti4  1  0.00218515  0.31595815  0.37839635  1
  Ti  Ti5  1  0.01640340  0.37661068  0.64716904  1
  Ti  Ti6  1  -0.04244821  0.66623201  0.03225888  1
  Ti  Ti7  1  -0.03002268  0.61007421  0.33663087  1
  Ti  Ti8  1  -0.01309066  0.59882455  0.71526572  1
  Ti  Ti9  1  0.24331019  -0.05847471  0.00081377  1
  Ti  Ti10  1  0.30969300  -0.12337562  0.33344058  1
  Ti  Ti11  1  0.37136559  0.05840375  0.69225150  1
  Ti  Ti12  1  0.27980369  0.31264688  -0.01508404  1
  Ti  Ti13  1  0.34394149  0.32533451  0.40134983  1
  Ti  Ti14  1  0.34994866  0.42845649  0.65382748  1
  Ti  Ti15  1  0.28015736  0.67039692  0.01718566  1
  Ti  Ti16  1  0.33143994  0.67050046  0.28253031  1
  Ti  Ti17  1  0.32626052  0.62327227  0.70958389  1
  Ti  Ti18  1  0.69224417  -0.01993929  0.03739271  1
  Ti  Ti19  1  0.66336297  0.03845149  0.24601179  1
  Ti  Ti20  1  0.74500881  -0.02325327  0.65400446  1
  Ti  Ti21  1  0.67626122  0.37601508  0.04764131  1
  Ti  Ti22  1  0.63790879  0.37179165  0.33060174  1
  Ti  Ti23  1  0.68781811  0.38281658  0.70336304  1
  Ti  Ti24  1  0.63326673  0.68305872  0.07857486  1
  Ti  Ti25  1  0.63860160  0.72488663  0.32729364  1
  Ti  Ti26  1  0.65680769  0.64636031  0.66626614  1
  Ti  Ti27  1  0.00013703  0.11856824  0.21156372  1
  Ti  Ti28  1  0.01860735  0.14066393  0.52120597  1
  Ti  Ti29  1  0.03177628  0.14752774  0.86808498  1
  Ti  Ti30  1  0.02741759  0.53137675  0.15634462  1
  Ti  Ti31  1  0.01084454  0.56998953  0.52138456  1
  Ti  Ti32  1  -0.01323568  0.44652309  0.83981380  1
  Ti  Ti33  1  -0.05880001  0.83113856  0.11027338  1
  Ti  Ti34  1  0.01304248  0.87070341  0.51978266  1
  Ti  Ti35  1  0.02758268  0.84420715  0.74931068  1
  Ti  Ti36  1  0.33600957  0.17942169  0.17274804  1
  Ti  Ti37  1  0.34134767  0.14179869  0.48873580  1
  Ti  Ti38  1  0.36783030  0.19099703  0.83785189  1
  Ti  Ti39  1  0.37249590  0.38561856  0.13784800  1
  Ti  Ti40  1  0.25180012  0.44611031  0.49501266  1
  Ti  Ti41  1  0.28190409  0.46928278  0.85471257  1
  Ti  Ti42  1  0.40281748  0.83581299  0.14966851  1
  Ti  Ti43  1  0.31953711  0.87322079  0.56514704  1
  Ti  Ti44  1  0.37352070  0.90478209  0.81083038  1
  Ti  Ti45  1  0.64420354  0.16181332  0.10572184  1
  Ti  Ti46  1  0.72266408  0.13769200  0.53609550  1
  Ti  Ti47  1  0.68763110  0.10942350  0.87326988  1
  Ti  Ti48  1  0.66917015  0.54419325  0.24490000  1
  Ti  Ti49  1  0.69268552  0.63680504  0.48978486  1
  Ti  Ti50  1  0.68335165  0.53120607  0.84349430  1
  Ti  Ti51  1  0.61157577  0.85325008  0.19023629  1
  Ti  Ti52  1  0.65671322  0.83011922  0.53367547  1
  Ti  Ti53  1  0.62701952  0.81866935  0.80055077  1
  Ti  Ti54  1  0.18768970  0.03774249  0.19840181  1
  Ti  Ti55  1  0.17993747  -0.01302318  0.47335060  1
  Ti  Ti56  1  0.20408634  0.01164046  0.82714914  1
  Ti  Ti57  1  0.16787731  0.36981811  0.16204194  1
  Ti  Ti58  1  0.16442070  0.26000062  0.52085148  1
  Ti  Ti59  1  0.13523121  0.31804051  0.82463758  1
  Ti  Ti60  1  0.22923679  0.54739074  0.16529570  1
  Ti  Ti61  1  0.19493560  0.65508140  0.43857060  1
  Ti  Ti62  1  0.08824860  0.71255218  0.88368688  1
  Ti  Ti63  1  0.50178898  0.01362319  0.10934121  1
  Ti  Ti64  1  0.55426402  0.04989320  0.41259146  1
  Ti  Ti65  1  0.53540502  -0.03079108  0.89109507  1
  Ti  Ti66  1  0.54966906  0.30687838  0.17142433  1
  Ti  Ti67  1  0.56201306  0.37096607  0.53254722  1
  Ti  Ti68  1  0.49243779  0.32757699  0.72841691  1
  Ti  Ti69  1  0.50662010  0.64691504  0.20855489  1
  Ti  Ti70  1  0.46986174  0.64817882  0.42895384  1
  Ti  Ti71  1  0.51063882  0.65274472  0.78021511  1
  Ti  Ti72  1  0.85429887  -0.01970009  0.15845127  1
  Ti  Ti73  1  0.87344942  0.02437399  0.49488374  1
  Ti  Ti74  1  0.86643743  0.01272496  0.80759378  1
  Ti  Ti75  1  0.87067761  0.29804909  0.13666137  1
  Ti  Ti76  1  0.75424148  0.33076326  0.49887564  1
  Ti  Ti77  1  0.73833324  0.31477251  0.87135234  1
  Ti  Ti78  1  0.82953528  0.64371897  0.18073125  1
  Ti  Ti79  1  0.88536773  0.72639124  0.48668832  1
  Ti  Ti80  1  0.89167752  0.71883827  0.82993285  1
  Ti  Ti81  1  0.23734450  0.13500724  -0.02071628  1
  Ti  Ti82  1  0.19442427  0.21472624  0.29721511  1
  Ti  Ti83  1  0.19889696  0.17069627  0.72797293  1
  Ti  Ti84  1  0.12129751  0.55049518  -0.03003177  1
  Ti  Ti85  1  0.12655301  0.49427418  0.33570874  1
  Ti  Ti86  1  0.16837641  0.55342906  0.62463893  1
  Ti  Ti87  1  0.12308071  0.81495360  0.05856711  1
  Ti  Ti88  1  0.12591149  0.81454741  0.26167431  1
  Ti  Ti89  1  0.22979501  0.80376638  0.74881800  1
  Ti  Ti90  1  0.44508797  0.20299044  0.02079586  1
  Ti  Ti91  1  0.50557393  0.22869495  0.40807086  1
  Ti  Ti92  1  0.53190065  0.14380557  0.62991949  1
  Ti  Ti93  1  0.48670237  0.53557815  -0.02936741  1
  Ti  Ti94  1  0.45515082  0.47070545  0.30317115  1
  Ti  Ti95  1  0.49231612  0.55646570  0.59867459  1
  Ti  Ti96  1  0.46755948  0.76400891  -0.07302925  1
  Ti  Ti97  1  0.48453391  0.86454117  0.45120966  1
  Ti  Ti98  1  0.51075022  0.89520933  0.65720812  1
  Ti  Ti99  1  0.86029193  0.10928452  -0.00792280  1
  Ti  Ti100  1  0.82589074  0.19574607  0.33637435  1
  Ti  Ti101  1  0.85624150  0.24493391  0.65912057  1
  Ti  Ti102  1  0.82885023  0.50853100  0.06065526  1
  Ti  Ti103  1  0.84508406  0.45913760  0.33868855  1
  Ti  Ti104  1  0.83214801  0.48173898  0.62274704  1
  Ti  Ti105  1  0.76800607  0.79060802  -0.02086511  1
  Ti  Ti106  1  0.88043645  0.78551582  0.28627096  1
  Ti  Ti107  1  0.80218013  0.79924478  0.68212318  1
  Co  Co108  1  0.97488817  0.46530062  0.00967987  1
  Co  Co109  1  0.33008802  0.58330708  0.54424315  1
  Co  Co110  1  0.56918986  0.49015537  0.72372829  1
  Co  Co111  1  0.56120911  0.10142745  0.97605736  1
  Co  Co112  1  0.84747532  0.17941331  0.83781240  1
  Co  Co113  1  0.62212677  0.89869522  0.36281726  1
  Co  Co114  1  0.95754135  0.74502617  0.64473371  1
  Co  Co115  1  0.11821141  0.69548603  0.70205526  1
  Co  Co116  1  0.24660974  0.89894791  0.16476165  1
  Co  Co117  1  0.08307751  0.71287736  0.54200832  1
  Co  Co118  1  0.03116542  0.34233822  0.08249739  1
  Co  Co119  1  0.28064953  0.42646043  0.28242604  1
  Co  Co120  1  0.03160314  0.75389870  0.38579735  1
  Co  Co121  1  0.23728721  0.97123073  0.67494196  1
  Co  Co122  1  0.61755763  0.68314979  0.91546918  1
  Co  Co123  1  0.82460261  0.45313800  0.91412601  1
  Co  Co124  1  0.33812798  0.74578709  0.44102944  1
  Co  Co125  1  0.10739249  0.24226530  0.97490378  1
  Co  Co126  1  0.66017839  0.49541859  0.58508226  1
  Co  Co127  1  0.83496730  0.55366689  0.78069009  1
  Co  Co128  1  0.32552474  0.54406072  0.38379965  1
  Co  Co129  1  0.82907066  0.64269019  0.63634512  1
  Co  Co130  1  0.75706806  0.79718501  0.40556785  1
  Co  Co131  1  1.00151290  0.70433518  0.20026948  1
  Co  Co132  1  0.78861335  0.63592535  0.34090166  1
  Co  Co133  1  0.91606449  0.92535404  0.65823942  1
  Co  Co134  1  0.82284445  0.86986601  0.53585259  1
  Co  Co135  1  0.49101314  0.37427001  0.02320134  1
  Co  Co136  1  0.42448193  0.45069760  0.48444687  1
  Co  Co137  1  0.89213709  0.08967416  0.64915865  1
  Co  Co138  1  0.12407056  0.66434839  0.09783945  1
  Co  Co139  1  0.60838415  -0.00791223  0.55856060  1
  Co  Co140  1  0.89665327  0.89717498  0.39461830  1
  Co  Co141  1  0.75466705  0.22611720  1.01044837  1
  Co  Co142  1  0.64891951  0.25367806  0.61926765  1
  Co  Co143  1  0.98253652  0.18394638  0.06463538  1
  Co  Co144  1  0.42775851  0.50028042  0.78618326  1
  Co  Co145  1  0.78472699  0.63101889  0.95414980  1
  Co  Co146  1  0.05341811  0.20222160  0.66816758  1
  Co  Co147  1  0.50260410  0.11734335  0.80758955  1
  Co  Co148  1  0.76410621  0.90927999  0.27979610  1
  Co  Co149  1  0.03877750  0.27411221  0.22716513  1
  Co  Co150  1  0.43751641  0.69344224  0.06703999  1
  Co  Co151  1  0.25557424  0.73994278  0.16800420  1
  Co  Co152  1  0.18176892  0.82573794  0.44078801  1
  Co  Co153  1  -0.05549737  0.58455561  0.90273907  1
  Co  Co154  1  0.02920818  -0.00377643  0.80958483  1
  Co  Co155  1  0.04873471  0.94832625  0.16115183  1
  Co  Co156  1  0.14021746  0.39961546  0.96827693  1
  Co  Co157  1  0.86672199  0.04201167  0.30746266  1
  Co  Co158  1  0.24791854  0.72114738  0.58873247  1
  Co  Co159  1  0.59069686  0.26021104  -0.04176762  1
  Co  Co160  1  0.57979308  0.40135751  0.87144063  1
  Co  Co161  1  0.14886200  0.85464460  0.60753929  1
  Ni  Ni162  1  0.17050401  0.34674254  0.37549014  1
  Ni  Ni163  1  0.24942515  0.06510555  0.34802774  1
  Ni  Ni164  1  0.71918388  0.93815104  0.86654907  1
  Ni  Ni165  1  0.34297406  0.03448805  0.09005379  1
  Ni  Ni166  1  0.89022738  0.23588585  0.48616046  1
  Ni  Ni167  1  0.29460695  0.31780129  0.76814948  1
  Ni  Ni168  1  0.41071185  0.90238941  0.99312207  1
  Ni  Ni169  1  0.39039734  0.55321031  0.13692944  1
  Ni  Ni170  1  0.72725635  0.03591087  0.39919635  1
  Ni  Ni171  1  0.84717979  0.93781124  -0.02296320  1
  Ni  Ni172  1  0.73709127  0.13590485  0.71465578  1
  Ni  Ni173  1  0.54710305  0.48287366  0.14052853  1
  Ni  Ni174  1  0.72020748  0.47810198  0.43655748  1
  Ni  Ni175  1  0.41569940  0.28823293  0.55934412  1
  Ni  Ni176  1  0.71630927  0.26791961  0.21859625  1
  Ni  Ni177  1  0.50138027  0.12289806  0.24196310  1
  Ni  Ni178  1  0.56808679  0.51565107  0.42440402  1
  Ni  Ni179  1  0.21361563  0.62711907  0.83188138  1
  Ni  Ni180  1  0.16683509  0.20837517  0.12752229  1
  Ni  Ni181  1  0.65629315  0.53403740  0.00856289  1
  Ni  Ni182  1  0.27482923  0.79888129  0.91221386  1
  Ni  Ni183  1  0.13998736  0.64746943  0.27030818  1
  Ni  Ni184  1  0.29125645  0.48082150  0.01974178  1
  Ni  Ni185  1  0.08902008  0.42077927  0.50309566  1
  Ni  Ni186  1  0.96989297  0.27881363  0.78368024  1
  Ni  Ni187  1  0.85326865  0.56505744  0.47547559  1
  Ni  Ni188  1  0.37066143  0.62945497  0.88168784  1
  Ni  Ni189  1  0.91940353  0.40681811  0.49679065  1
  Ni  Ni190  1  0.12109713  0.87710191  0.89159158  1
  Ni  Ni191  1  0.61528118  0.23703363  0.78290832  1
  Ni  Ni192  1  0.96421169  0.82065904  0.94056579  1
  Ni  Ni193  1  0.46656372  0.78451861  0.30638392  1
  Ni  Ni194  1  0.41678621  0.35421815  0.87993749  1
  Ni  Ni195  1  0.76866427  0.42283729  0.19730791  1
  Ni  Ni196  1  0.81267740  0.14003986  0.16482707  1
  Ni  Ni197  1  0.20519841  0.10960323  0.57934363  1
  Ni  Ni198  1  0.66751632  0.20881202  0.38976805  1
  Ni  Ni199  1  0.44275205  1.01126449  0.54629902  1
  Ni  Ni200  1  0.95535204  0.41416765  0.23095204  1
  Ni  Ni201  1  0.52046268  0.73166632  0.58330435  1
  Ni  Ni202  1  0.37543029  0.04384294  0.91606200  1
  Ni  Ni203  1  0.08996658  0.11539889  0.37459169  1
  Ni  Ni204  1  0.73420585  0.69237044  0.80361074  1
  Ni  Ni205  1  0.39535809  0.77509702  0.69619240  1
  Ni  Ni206  1  0.10448889  0.07637483  0.05663175  1
  Ni  Ni207  1  0.76596549  0.80370833  0.14568184  1
  Ni  Ni208  1  0.42382779  0.28024353  0.26826097  1
  Ni  Ni209  1  0.49021934  0.94918235  0.26942932  1
  Ni  Ni210  1  0.60756150  1.00743967  0.73987097  1
  Ni  Ni211  1  0.58499008  0.84995271  0.01669901  1
  Ni  Ni212  1  0.13169990  0.49181846  0.77481619  1
  Ni  Ni213  1  0.18297959  0.36902329  0.65211908  1
  Ni  Ni214  1  0.85076375  0.38622305  0.75952437  1
  Ni  Ni215  1  0.39183712  0.00773104  0.39274751  1
