# generated using pymatgen
data_Ti2CoNi
_symmetry_space_group_name_H-M   'P 1'
_cell_length_a   14.61295629
_cell_length_b   14.71026879
_cell_length_c   14.57543361
_cell_angle_alpha   89.75332382
_cell_angle_beta   90.25928743
_cell_angle_gamma   90.42374894
_symmetry_Int_Tables_number   1
_chemical_formula_structural   Ti2CoNi
_chemical_formula_sum   'Ti108 Co54 Ni54'
_cell_volume   3132.99635408
_cell_formula_units_Z   54
loop_
 _symmetry_equiv_pos_site_id
 _symmetry_equiv_pos_as_xyz
  1  'x, y, z'
loop_
 _atom_site_type_symbol
 _atom_site_label
 _atom_site_symmetry_multiplicity
 _atom_site_fract_x
 _atom_site_fract_y
 _atom_site_fract_z
 _atom_site_occupancy
  Ti  Ti0  1  -0.03520843  -0.02448737  0.06565241  1
  Ti  Ti1  1  0.03207793  -0.03518637  0.29763550  1
  Ti  Ti2  1  0.03766686  0.03782540  0.70180670  1
  Ti  Ti3  1  -0.05199012  0.29788886  -0.05558328  1
  Ti  Ti4  1  0.04050959  0.35052833  0.38439713  1
  Ti  Ti5  1  0.02797469  0.24833190  0.74435592  1
  Ti  Ti6  1  -0.01731224  0.73265734  0.05878218  1
  Ti  Ti7  1  0.07417586  0.64286015  0.37941167  1
  Ti  Ti8  1  0.11513101  0.62404770  0.68205384  1
  Ti  Ti9  1  0.34960470  -0.00945769  0.08441000  1
  Ti  Ti10  1  0.27687499  -0.02556770  0.36215804  1
  Ti  Ti11  1  0.32681244  0.01774950  0.55504561  1
  Ti  Ti12  1  0.37078000  0.31057307  -0.02932957  1
  Ti  Ti13  1  0.34033767  0.40272228  0.36648555  1
  Ti  Ti14  1  0.34565757  0.42811626  0.64172585  1
  Ti  Ti15  1  0.31235409  0.66038701  0.00794308  1
  Ti  Ti16  1  0.30007734  0.61351906  0.23660555  1
  Ti  Ti17  1  0.33495453  0.67372133  0.77476405  1
  Ti  Ti18  1  0.66845384  0.10385773  -0.07789881  1
  Ti  Ti19  1  0.67950147  -0.07748350  0.37739176  1
  Ti  Ti20  1  0.61085432  0.01930444  0.58082196  1
  Ti  Ti21  1  0.59011092  0.28730936  -0.02833222  1
  Ti  Ti22  1  0.59571221  0.36915100  0.34323790  1
  Ti  Ti23  1  0.69835603  0.30874928  0.60025885  1
  Ti  Ti24  1  0.67934538  0.61411296  0.03490495  1
  Ti  Ti25  1  0.67075999  0.68915238  0.28274056  1
  Ti  Ti26  1  0.64989520  0.69433844  0.68556105  1
  Ti  Ti27  1  0.01686752  0.11428703  0.16535813  1
  Ti  Ti28  1  -0.02174462  0.16621898  0.56706111  1
  Ti  Ti29  1  0.01576846  0.10676757  0.89297084  1
  Ti  Ti30  1  0.00243425  0.55405324  0.13631992  1
  Ti  Ti31  1  -0.01310032  0.48720445  0.55229750  1
  Ti  Ti32  1  -0.02332909  0.52633940  0.78260643  1
  Ti  Ti33  1  0.01440668  0.77840798  0.25194101  1
  Ti  Ti34  1  -0.04370457  0.85477848  0.47458614  1
  Ti  Ti35  1  0.01562489  0.86295623  0.76769839  1
  Ti  Ti36  1  0.31900806  0.19557963  0.13714053  1
  Ti  Ti37  1  0.34329303  0.22463165  0.50741821  1
  Ti  Ti38  1  0.30905512  0.19247398  0.81850926  1
  Ti  Ti39  1  0.32748637  0.47213521  0.11288453  1
  Ti  Ti40  1  0.36114413  0.54670851  0.46894192  1
  Ti  Ti41  1  0.36417849  0.50149505  0.85285809  1
  Ti  Ti42  1  0.34523371  0.80322863  0.17430723  1
  Ti  Ti43  1  0.39651473  0.84311336  0.48454936  1
  Ti  Ti44  1  0.36262354  0.86495693  0.79755531  1
  Ti  Ti45  1  0.64518984  0.12711370  0.12888299  1
  Ti  Ti46  1  0.62031061  0.19926051  0.46497851  1
  Ti  Ti47  1  0.67503783  0.25299553  0.78608423  1
  Ti  Ti48  1  0.69690408  0.47740955  0.19650942  1
  Ti  Ti49  1  0.78838360  0.52839106  0.48122497  1
  Ti  Ti50  1  0.66987440  0.46997062  0.78055871  1
  Ti  Ti51  1  0.68378315  0.80428481  0.11686744  1
  Ti  Ti52  1  0.75830447  0.83979195  0.53818409  1
  Ti  Ti53  1  0.69482921  0.83434604  0.81449236  1
  Ti  Ti54  1  0.17688218  0.02058035  0.16185731  1
  Ti  Ti55  1  0.13439181  0.00506316  0.52375622  1
  Ti  Ti56  1  0.20495150  -0.00053244  0.84651507  1
  Ti  Ti57  1  0.10101515  0.30197577  0.17101015  1
  Ti  Ti58  1  0.20532473  0.35107623  0.50499204  1
  Ti  Ti59  1  0.20603045  0.37010688  0.84264012  1
  Ti  Ti60  1  0.17122598  0.74456073  0.12839643  1
  Ti  Ti61  1  0.25690116  0.70036683  0.50753521  1
  Ti  Ti62  1  0.16734948  0.58536372  0.87094563  1
  Ti  Ti63  1  0.52945533  -0.09394926  0.20614968  1
  Ti  Ti64  1  0.49661388  -0.00088710  0.40476979  1
  Ti  Ti65  1  0.53612571  -0.03011934  0.78810838  1
  Ti  Ti66  1  0.56981531  0.30144755  0.16886522  1
  Ti  Ti67  1  0.49413591  0.36341411  0.53379838  1
  Ti  Ti68  1  0.51647635  0.33922645  0.73443088  1
  Ti  Ti69  1  0.50580653  0.71816099  0.05333981  1
  Ti  Ti70  1  0.51612048  0.63159363  0.51031337  1
  Ti  Ti71  1  0.52723140  0.65036092  0.85767902  1
  Ti  Ti72  1  0.83666714  0.02268967  0.22324556  1
  Ti  Ti73  1  0.81994878  0.03076814  0.52393551  1
  Ti  Ti74  1  0.84198963  -0.01956318  0.79544231  1
  Ti  Ti75  1  0.87404327  0.38017342  0.12759650  1
  Ti  Ti76  1  0.87737632  0.34154398  0.51637821  1
  Ti  Ti77  1  0.83841601  0.38496035  0.80688562  1
  Ti  Ti78  1  0.84655832  0.65892150  0.20831983  1
  Ti  Ti79  1  0.93376270  0.67051206  0.52564352  1
  Ti  Ti80  1  0.84529290  0.63280694  0.91086344  1
  Ti  Ti81  1  0.16430916  0.16516461  0.02187181  1
  Ti  Ti82  1  0.09875169  0.16848035  0.33208567  1
  Ti  Ti83  1  0.16800708  0.17890678  0.60581796  1
  Ti  Ti84  1  0.07156032  0.44763024  -0.01088709  1
  Ti  Ti85  1  0.16557226  0.46233117  0.29026027  1
  Ti  Ti86  1  0.13011121  0.42362841  0.67156502  1
  Ti  Ti87  1  0.10953920  0.83322968  -0.05011781  1
  Ti  Ti88  1  0.13640105  0.84253622  0.40580065  1
  Ti  Ti89  1  0.18155522  0.80050662  0.69448792  1
  Ti  Ti90  1  0.47512612  0.08960056  -0.05027376  1
  Ti  Ti91  1  0.46871611  0.15800721  0.26867662  1
  Ti  Ti92  1  0.43922855  0.11292101  0.68553393  1
  Ti  Ti93  1  0.53684985  0.46086117  0.06454787  1
  Ti  Ti94  1  0.49109789  0.59174545  0.31130769  1
  Ti  Ti95  1  0.50105280  0.54697829  0.68949508  1
  Ti  Ti96  1  0.52372901  0.88414651  -0.03330733  1
  Ti  Ti97  1  0.54167947  0.78391188  0.38018501  1
  Ti  Ti98  1  0.49146038  0.77042685  0.64751354  1
  Ti  Ti99  1  0.81656014  0.17154635  0.04034673  1
  Ti  Ti100  1  0.80537294  0.19886818  0.34167977  1
  Ti  Ti101  1  0.84325103  0.22526690  0.69532050  1
  Ti  Ti102  1  0.74784123  0.43570850  -0.01742393  1
  Ti  Ti103  1  0.85663246  0.40226583  0.32240292  1
  Ti  Ti104  1  0.81251601  0.58711118  0.70695478  1
  Ti  Ti105  1  0.83477534  0.86414259  -0.02815490  1
  Ti  Ti106  1  0.82765019  0.82562601  0.30852314  1
  Ti  Ti107  1  0.84026196  0.78053231  0.71606606  1
  Co  Co108  1  0.37191962  0.10805817  0.39041716  1
  Co  Co109  1  0.79956975  0.19322908  0.51747874  1
  Co  Co110  1  0.15590477  0.45661787  0.13028670  1
  Co  Co111  1  0.23576690  0.87508251  0.53048585  1
  Co  Co112  1  0.99909566  0.75161388  0.64893244  1
  Co  Co113  1  0.36180025  0.34665133  0.79616724  1
  Co  Co114  1  0.90733687  0.90345996  0.62914010  1
  Co  Co115  1  0.23385039  0.58531188  0.38048840  1
  Co  Co116  1  0.29987236  0.09957855  0.96696530  1
  Co  Co117  1  0.23662185  0.29431190  0.68710600  1
  Co  Co118  1  0.60957820  0.43607781  0.63196129  1
  Co  Co119  1  0.12944198  0.47240600  0.45022496  1
  Co  Co120  1  -0.04703277  0.26639813  0.26030224  1
  Co  Co121  1  0.59192795  0.60524899  0.16733249  1
  Co  Co122  1  0.61596045  0.87308999  0.67395236  1
  Co  Co123  1  0.45847620  0.94512790  0.62142571  1
  Co  Co124  1  0.49477050  0.46789409  0.41060557  1
  Co  Co125  1  0.64153956  0.58083157  0.41040043  1
  Co  Co126  1  0.23012956  0.87931754  0.05953701  1
  Co  Co127  1  1.00446724  0.42658235  0.22990979  1
  Co  Co128  1  0.87671072  0.07217801  0.66929487  1
  Co  Co129  1  0.64214930  0.72715757  0.50844595  1
  Co  Co130  1  0.56671903  0.87136298  0.51608089  1
  Co  Co131  1  0.04843852  0.31528484  0.55769201  1
  Co  Co132  1  0.37448274  0.95434040  0.92961288  1
  Co  Co133  1  0.39369314  0.26545392  0.65438859  1
  Co  Co134  1  0.95649780  0.51415889  0.39470379  1
  Co  Co135  1  0.01534701  0.61578515  0.94427029  1
  Co  Co136  1  0.78285777  0.68006485  0.57769358  1
  Co  Co137  1  0.36935135  0.81346713  0.00506150  1
  Co  Co138  1  0.10472773  0.75526570  0.53387599  1
  Co  Co139  1  0.42833559  0.31882357  0.27483079  1
  Co  Co140  1  0.25791860  0.53370112  0.72978758  1
  Co  Co141  1  0.95241689  0.67616554  0.77865895  1
  Co  Co142  1  0.71052425  0.12361803  0.66060914  1
  Co  Co143  1  0.76900552  0.69811723  0.41257819  1
  Co  Co144  1  0.93811190  0.10881815  0.31064329  1
  Co  Co145  1  0.47420191  0.25193571  0.40901675  1
  Co  Co146  1  0.06993819  0.89259488  0.60552134  1
  Co  Co147  1  0.23534108  0.52348071  0.56413639  1
  Co  Co148  1  0.66150555  0.57128075  0.58514624  1
  Co  Co149  1  0.57255766  0.12808031  0.78366678  1
  Co  Co150  1  0.47578607  0.19837741  0.07261459  1
  Co  Co151  1  0.06653350  0.87831393  0.12870712  1
  Co  Co152  1  0.75186078  0.95233995  0.66563495  1
  Co  Co153  1  0.36107035  0.03692275  0.79987817  1
  Co  Co154  1  0.10328328  0.59979512  0.53081684  1
  Co  Co155  1  0.50028874  0.45644488  0.22219257  1
  Co  Co156  1  0.94742084  0.77469093  0.90112142  1
  Co  Co157  1  0.78563279  0.55735661  0.31929212  1
  Co  Co158  1  0.09634002  0.72082094  0.82677292  1
  Co  Co159  1  0.41425038  0.33961527  0.12114071  1
  Co  Co160  1  0.94898132  0.22484136  0.42145989  1
  Co  Co161  1  0.91540608  0.68535402  0.35975291  1
  Ni  Ni162  1  0.70689043  0.07794274  0.40806185  1
  Ni  Ni163  1  -0.01158656  0.94757378  0.90190653  1
  Ni  Ni164  1  0.22022678  0.96504225  0.68028472  1
  Ni  Ni165  1  0.24301021  0.26431414  0.35275925  1
  Ni  Ni166  1  0.91153831  0.47577988  0.94375419  1
  Ni  Ni167  1  0.40302470  0.87016088  0.31541795  1
  Ni  Ni168  1  0.15161019  0.59733498  0.04774331  1
  Ni  Ni169  1  0.15416545  0.15144766  0.77573452  1
  Ni  Ni170  1  0.77043259  0.00673652  0.07198908  1
  Ni  Ni171  1  0.12780804  -0.00012272  -0.00196947  1
  Ni  Ni172  1  0.87254665  0.96946347  0.38228772  1
  Ni  Ni173  1  0.65489511  0.76003580  0.95689275  1
  Ni  Ni174  1  0.60820769  0.51826303  0.92193351  1
  Ni  Ni175  1  0.95486870  0.23822043  0.09572801  1
  Ni  Ni176  1  0.79264204  0.43887480  0.64126529  1
  Ni  Ni177  1  0.19004333  0.87882073  0.24002993  1
  Ni  Ni178  1  0.25451242  0.11736751  0.27647521  1
  Ni  Ni179  1  0.83577680  0.54860935  0.07715246  1
  Ni  Ni180  1  0.21657565  0.12583170  0.44516371  1
  Ni  Ni181  1  0.12920379  0.61720381  0.22271344  1
  Ni  Ni182  1  0.60626734  0.04940051  0.27535810  1
  Ni  Ni183  1  0.75893754  0.27907638  0.92435192  1
  Ni  Ni184  1  0.72776381  0.31255291  0.24851948  1
  Ni  Ni185  1  0.56661963  0.20980699  0.63106898  1
  Ni  Ni186  1  0.87617279  0.84908204  0.14634225  1
  Ni  Ni187  1  0.61220908  0.97491328  0.07168973  1
  Ni  Ni188  1  0.43207767  0.59936605  0.14207299  1
  Ni  Ni189  1  0.71779026  0.30741696  0.08537018  1
  Ni  Ni190  1  0.49188813  0.73744220  0.22395196  1
  Ni  Ni191  1  0.69667593  0.63867532  0.83616968  1
  Ni  Ni192  1  0.21980096  0.32555814  0.04506995  1
  Ni  Ni193  1  0.49755630  0.40673583  0.88626975  1
  Ni  Ni194  1  0.47821104  0.23703735  0.86086306  1
  Ni  Ni195  1  0.01027061  0.06026240  0.44303901  1
  Ni  Ni196  1  0.33541110  0.80446030  0.63795885  1
  Ni  Ni197  1  0.37612289  0.70736612  0.36957209  1
  Ni  Ni198  1  0.86995885  0.18120684  0.85037643  1
  Ni  Ni199  1  0.85524926  0.04283584  0.94306871  1
  Ni  Ni200  1  0.03526768  0.38947412  0.83052758  1
  Ni  Ni201  1  0.24939721  0.76687810  0.88710115  1
  Ni  Ni202  1  0.49010128  0.05281665  0.14012868  1
  Ni  Ni203  1  0.44818055  0.56421164  0.97966164  1
  Ni  Ni204  1  0.10717389  0.25809395  0.90547250  1
  Ni  Ni205  1  0.47687727  0.12102660  0.51869867  1
  Ni  Ni206  1  0.70440715  0.93164705  0.20974462  1
  Ni  Ni207  1  0.73259895  0.33100367  0.42977492  1
  Ni  Ni208  1  0.81253923  0.71890579  0.05223584  1
  Ni  Ni209  1  0.26907457  0.34726249  0.21013831  1
  Ni  Ni210  1  0.94780205  0.37854446  0.67773217  1
  Ni  Ni211  1  0.52979681  0.80141164  0.81137897  1
  Ni  Ni212  1  0.69752671  0.94885201  0.92791036  1
  Ni  Ni213  1  0.21611077  0.73703847  0.30732517  1
  Ni  Ni214  1  0.24502615  0.47589215  0.97278260  1
  Ni  Ni215  1  0.36669818  0.62562275  0.62124586  1
