# generated using pymatgen
data_Ti2CoNi
_symmetry_space_group_name_H-M   'P 1'
_cell_length_a   14.60722051
_cell_length_b   14.67212257
_cell_length_c   14.70611414
_cell_angle_alpha   90.29374231
_cell_angle_beta   90.13254204
_cell_angle_gamma   89.89381522
_symmetry_Int_Tables_number   1
_chemical_formula_structural   Ti2CoNi
_chemical_formula_sum   'Ti108 Co54 Ni54'
_cell_volume   3151.74344648
_cell_formula_units_Z   54
loop_
 _symmetry_equiv_pos_site_id
 _symmetry_equiv_pos_as_xyz
  1  'x, y, z'
loop_
 _atom_site_type_symbol
 _atom_site_label
 _atom_site_symmetry_multiplicity
 _atom_site_fract_x
 _atom_site_fract_y
 _atom_site_fract_z
 _atom_site_occupancy
  Ti  Ti0  1  0.06562195  0.03442402  -0.03378132  1
  Ti  Ti1  1  0.02961298  -0.03078016  0.30021597  1
  Ti  Ti2  1  -0.02020117  -0.02520797  0.64404324  1
  Ti  Ti3  1  -0.02900900  0.31914191  0.05615758  1
  Ti  Ti4  1  -0.02313555  0.17720873  0.34312536  1
  Ti  Ti5  1  0.00862925  0.30170552  0.75176617  1
  Ti  Ti6  1  0.00934214  0.74097345  -0.05893786  1
  Ti  Ti7  1  0.02155728  0.68124805  0.37444894  1
  Ti  Ti8  1  0.06150718  0.64417691  0.63984560  1
  Ti  Ti9  1  0.30947486  0.02172525  0.04534650  1
  Ti  Ti10  1  0.35777324  0.00473188  0.26237042  1
  Ti  Ti11  1  0.28898920  0.00212493  0.68993384  1
  Ti  Ti12  1  0.28462369  0.31598697  0.05303597  1
  Ti  Ti13  1  0.24100062  0.30302412  0.33429128  1
  Ti  Ti14  1  0.35755168  0.31282250  0.73601930  1
  Ti  Ti15  1  0.36092791  0.60234090  -0.02988934  1
  Ti  Ti16  1  0.33429760  0.57907997  0.31883632  1
  Ti  Ti17  1  0.32337445  0.68944332  0.64613439  1
  Ti  Ti18  1  0.64680687  -0.03791815  -0.01604636  1
  Ti  Ti19  1  0.58281857  0.04205220  0.35721552  1
  Ti  Ti20  1  0.70512154  -0.01153259  0.67227556  1
  Ti  Ti21  1  0.73166302  0.36401068  0.04127088  1
  Ti  Ti22  1  0.58255624  0.35853160  0.31646077  1
  Ti  Ti23  1  0.70964496  0.31759051  0.70164369  1
  Ti  Ti24  1  0.69736199  0.65921174  -0.00219599  1
  Ti  Ti25  1  0.62971625  0.73400442  0.39713708  1
  Ti  Ti26  1  0.60057406  0.62929901  0.65807748  1
  Ti  Ti27  1  0.00197232  0.13436385  0.13647653  1
  Ti  Ti28  1  0.01002228  0.14842295  0.53597410  1
  Ti  Ti29  1  0.01677598  0.10869210  0.79380698  1
  Ti  Ti30  1  0.02395782  0.50183792  0.09371027  1
  Ti  Ti31  1  0.00002429  0.51222885  0.49222076  1
  Ti  Ti32  1  -0.00075700  0.52475179  0.79113728  1
  Ti  Ti33  1  -0.06476739  0.80393297  0.14588025  1
  Ti  Ti34  1  -0.02058331  0.82045486  0.52255489  1
  Ti  Ti35  1  -0.02778641  0.91496853  0.84643437  1
  Ti  Ti36  1  0.26845623  0.17109316  0.18414148  1
  Ti  Ti37  1  0.35848676  0.26372986  0.47202068  1
  Ti  Ti38  1  0.31513665  0.19984432  0.88169000  1
  Ti  Ti39  1  0.38797593  0.47309727  0.12984303  1
  Ti  Ti40  1  0.32627344  0.47567103  0.60284887  1
  Ti  Ti41  1  0.31884390  0.51180651  0.81135819  1
  Ti  Ti42  1  0.38405264  0.75972343  0.08611450  1
  Ti  Ti43  1  0.36365124  0.88598503  0.44218978  1
  Ti  Ti44  1  0.38900105  0.75302754  0.85417933  1
  Ti  Ti45  1  0.70639161  0.17172600  0.13172320  1
  Ti  Ti46  1  0.62521431  0.12391411  0.55051456  1
  Ti  Ti47  1  0.64454118  0.15865280  0.84141697  1
  Ti  Ti48  1  0.73087428  0.53512733  0.13158853  1
  Ti  Ti49  1  0.65071217  0.55299039  0.49511302  1
  Ti  Ti50  1  0.61938280  0.49137619  0.80422196  1
  Ti  Ti51  1  0.70738985  0.84500501  0.12459045  1
  Ti  Ti52  1  0.68937448  0.92233100  0.48449363  1
  Ti  Ti53  1  0.72283311  0.85520457  0.81970836  1
  Ti  Ti54  1  0.10728319  -0.06020426  0.12793519  1
  Ti  Ti55  1  0.13772425  -0.03235555  0.52768926  1
  Ti  Ti56  1  0.18606839  -0.07058417  0.84080001  1
  Ti  Ti57  1  0.13043847  0.38686640  0.20933280  1
  Ti  Ti58  1  0.15399254  0.38064662  0.50554843  1
  Ti  Ti59  1  0.18083293  0.36949179  0.87195909  1
  Ti  Ti60  1  0.15288992  0.63250825  0.23134372  1
  Ti  Ti61  1  0.20169648  0.72052967  0.46928056  1
  Ti  Ti62  1  0.17866123  0.70534569  0.82118256  1
  Ti  Ti63  1  0.57116790  -0.01715878  0.17602456  1
  Ti  Ti64  1  0.50543661  -0.02580086  0.55155793  1
  Ti  Ti65  1  0.45363733  -0.05283980  0.74698501  1
  Ti  Ti66  1  0.55089712  0.33989817  0.11331580  1
  Ti  Ti67  1  0.58806916  0.31136177  0.53334087  1
  Ti  Ti68  1  0.51478167  0.28790196  0.85164837  1
  Ti  Ti69  1  0.50575020  0.64508631  0.24882141  1
  Ti  Ti70  1  0.48217246  0.74480424  0.52060040  1
  Ti  Ti71  1  0.58274706  0.69257192  0.83681614  1
  Ti  Ti72  1  0.83243988  0.00525459  0.10563308  1
  Ti  Ti73  1  0.84163405  0.00304412  0.37028266  1
  Ti  Ti74  1  0.81671677  0.06526580  0.83887658  1
  Ti  Ti75  1  0.91528912  0.36173407  0.28836929  1
  Ti  Ti76  1  0.88450413  0.33887590  0.55900184  1
  Ti  Ti77  1  0.87125553  0.37167543  0.86018835  1
  Ti  Ti78  1  0.90102621  0.58615502  0.21168122  1
  Ti  Ti79  1  0.82039192  0.64734823  0.41659007  1
  Ti  Ti80  1  0.82295808  0.63128562  0.84445259  1
  Ti  Ti81  1  0.12231403  0.22026182  -0.03698627  1
  Ti  Ti82  1  0.25576965  0.12182985  0.38971224  1
  Ti  Ti83  1  0.20024896  0.14787929  0.58555228  1
  Ti  Ti84  1  0.16334014  0.59538728  0.00473044  1
  Ti  Ti85  1  0.16907052  0.51475657  0.38219516  1
  Ti  Ti86  1  0.16398143  0.42565787  0.69585537  1
  Ti  Ti87  1  0.17505950  0.76800155  0.10319906  1
  Ti  Ti88  1  0.21406721  0.83355772  0.29088519  1
  Ti  Ti89  1  0.13128625  0.84336091  0.67794264  1
  Ti  Ti90  1  0.52174089  0.11173104  0.02260765  1
  Ti  Ti91  1  0.43809252  0.19070356  0.30575480  1
  Ti  Ti92  1  0.42259518  0.14762590  0.62052373  1
  Ti  Ti93  1  0.54435773  0.54447651  0.05021982  1
  Ti  Ti94  1  0.46354883  0.46357247  0.45895446  1
  Ti  Ti95  1  0.51897023  0.44375843  0.65807246  1
  Ti  Ti96  1  0.46066973  0.89932133  -0.03636226  1
  Ti  Ti97  1  0.44322029  0.83609615  0.26373390  1
  Ti  Ti98  1  0.59610090  0.83335598  0.66399172  1
  Ti  Ti99  1  0.82072357  0.21559882  -0.02498732  1
  Ti  Ti100  1  0.74562729  0.23023193  0.31781619  1
  Ti  Ti101  1  0.85989837  0.13327810  0.65992445  1
  Ti  Ti102  1  0.86837584  0.50175375  -0.01436061  1
  Ti  Ti103  1  0.74759902  0.47456293  0.32234619  1
  Ti  Ti104  1  0.86416310  0.51625118  0.65152371  1
  Ti  Ti105  1  0.82671652  0.79885490  -0.02422483  1
  Ti  Ti106  1  0.76730941  0.83940436  0.30143565  1
  Ti  Ti107  1  0.82050715  0.79955437  0.63951731  1
  Co  Co108  1  0.72709522  0.70397115  0.73166130  1
  Co  Co109  1  0.71355235  0.35854369  0.20521675  1
  Co  Co110  1  0.54426369  0.24288313  0.69107383  1
  Co  Co111  1  0.91298932  0.07731463  0.97571430  1
  Co  Co112  1  0.43037912  0.10849151  0.15508027  1
  Co  Co113  1  0.50745094  0.70300279  -0.00860763  1
  Co  Co114  1  0.81841688  0.49480147  0.49095549  1
  Co  Co115  1  0.46836620  0.74768657  0.71399823  1
  Co  Co116  1  0.12577417  0.24859010  0.12594382  1
  Co  Co117  1  0.88659042  0.72901931  0.28366538  1
  Co  Co118  1  0.74847871  0.23223900  0.54510423  1
  Co  Co119  1  0.13082670  0.23012687  0.44692105  1
  Co  Co120  1  0.41924590  0.42134954  -0.02130553  1
  Co  Co121  1  0.16466780  0.09567689  0.08355268  1
  Co  Co122  1  0.13145702  0.38792323  0.03615355  1
  Co  Co123  1  0.61495226  0.67980094  0.13963523  1
  Co  Co124  1  0.09555665  0.84621153  0.41002308  1
  Co  Co125  1  0.42957756  0.93818650  0.11815801  1
  Co  Co126  1  0.06376730  0.36920906  0.36002660  1
  Co  Co127  1  0.03835071  0.66786034  0.11806703  1
  Co  Co128  1  0.14797089  0.53334270  0.85341450  1
  Co  Co129  1  0.85204342  0.95021436  0.73278266  1
  Co  Co130  1  0.86963930  0.78941126  0.81259172  1
  Co  Co131  1  0.90120851  0.66913970  0.70359169  1
  Co  Co132  1  0.60321204  0.80568031  0.25519068  1
  Co  Co133  1  0.91658694  0.50971013  0.35973127  1
  Co  Co134  1  0.26462429  0.46787560  0.98001218  1
  Co  Co135  1  0.92941745  0.66469445  0.54131938  1
  Co  Co136  1  0.72002369  0.10492416  0.41589144  1
  Co  Co137  1  0.28212498  0.88755982  0.15503993  1
  Co  Co138  1  0.10099047  0.07677496  0.40471893  1
  Co  Co139  1  0.00785953  0.58188489  0.94276342  1
  Co  Co140  1  0.71705674  0.09694937  -0.01320288  1
  Co  Co141  1  0.80814688  0.95232471  0.95091602  1
  Co  Co142  1  0.04445412  0.51563854  0.27156187  1
  Co  Co143  1  0.57308087  0.40554841  0.95349780  1
  Co  Co144  1  0.77510853  0.62975406  0.58387951  1
  Co  Co145  1  1.02264540  0.40720163  0.91565383  1
  Co  Co146  1  0.70511232  0.15622845  0.69293603  1
  Co  Co147  1  0.12312488  0.19943866  0.27998377  1
  Co  Co148  1  0.43236340  0.32481478  0.59148367  1
  Co  Co149  1  0.50265463  0.56399591  0.89720928  1
  Co  Co150  1  0.62434296  0.24434825  -0.00893308  1
  Co  Co151  1  -0.02156829  0.98654575  0.46482522  1
  Co  Co152  1  0.86178761  0.24808875  0.42901581  1
  Co  Co153  1  0.93564853  0.85323126  0.36398472  1
  Co  Co154  1  0.45228483  0.58684002  0.74412921  1
  Co  Co155  1  0.45997599  0.43444216  0.81353765  1
  Co  Co156  1  0.05660949  0.79047407  0.24962182  1
  Co  Co157  1  0.30954525  0.43237178  0.42630351  1
  Co  Co158  1  0.54317050  0.82441680  0.10395300  1
  Co  Co159  1  1.01719448  0.43471467  0.63522516  1
  Co  Co160  1  0.83907962  0.94968259  0.55994660  1
  Co  Co161  1  0.80915463  0.80747385  0.46422777  1
  Ni  Ni162  1  0.85355819  0.10221506  0.50236556  1
  Ni  Ni163  1  0.36982139  0.72754789  0.39145260  1
  Ni  Ni164  1  0.40518313  0.85984734  0.61264209  1
  Ni  Ni165  1  0.31694757  0.02628844  0.53223627  1
  Ni  Ni166  1  0.02412577  0.76053197  0.76891314  1
  Ni  Ni167  1  0.08455450  0.27668542  0.61110614  1
  Ni  Ni168  1  0.78511561  0.70464124  0.14854961  1
  Ni  Ni169  1  0.17937980  0.24073091  0.75443919  1
  Ni  Ni170  1  0.55618159  0.85990263  0.83378480  1
  Ni  Ni171  1  0.53514486  0.88512982  0.39999085  1
  Ni  Ni172  1  0.63463264  0.80301400  0.96495577  1
  Ni  Ni173  1  0.28880801  0.60607944  0.12645249  1
  Ni  Ni174  1  0.12616886  0.03124574  0.69669676  1
  Ni  Ni175  1  0.70715011  0.50239688  0.94401562  1
  Ni  Ni176  1  0.45926314  0.58893736  0.57733647  1
  Ni  Ni177  1  0.17395693  0.55308423  0.54725698  1
  Ni  Ni178  1  0.89038653  0.65408113  0.03635544  1
  Ni  Ni179  1  0.42508479  0.05623556  0.41695914  1
  Ni  Ni180  1  0.70483226  0.44919552  0.60969063  1
  Ni  Ni181  1  0.18363488  0.03474787  0.24689039  1
  Ni  Ni182  1  0.45132470  0.45707312  0.28520732  1
  Ni  Ni183  1  0.53746276  0.02941071  0.86972253  1
  Ni  Ni184  1  0.11446599  0.86222445  0.97271083  1
  Ni  Ni185  1  0.42586339  0.12674745  0.78606929  1
  Ni  Ni186  1  0.70181812  0.33470097  0.86922412  1
  Ni  Ni187  1  0.28792126  0.43288757  0.25195945  1
  Ni  Ni188  1  0.32284441  0.59901526  0.48483974  1
  Ni  Ni189  1  0.59127691  0.48816585  0.20050304  1
  Ni  Ni190  1  0.25389099  0.84505037  0.57095434  1
  Ni  Ni191  1  0.67253952  0.74680041  0.55243537  1
  Ni  Ni192  1  0.29957205  0.83774781  0.74009377  1
  Ni  Ni193  1  0.72693135  0.36245664  0.44519780  1
  Ni  Ni194  1  0.40513682  0.28691341  0.17265617  1
  Ni  Ni195  1  0.25160607  0.74729299  0.95936149  1
  Ni  Ni196  1  0.86176733  0.42464010  0.14293270  1
  Ni  Ni197  1  0.31891676  0.72266495  0.23293686  1
  Ni  Ni198  1  0.77933266  0.47747849  0.78631859  1
  Ni  Ni199  1  0.86391073  0.10937707  0.23528337  1
  Ni  Ni200  1  0.43969711  0.25490211  1.00171638  1
  Ni  Ni201  1  0.55931403  0.07369814  0.70376771  1
  Ni  Ni202  1  0.34821552  0.99232244  0.86852401  1
  Ni  Ni203  1  0.58949689  0.21176277  0.39647636  1
  Ni  Ni204  1  0.22322171  0.95945031  0.39277575  1
  Ni  Ni205  1  0.58141204  0.53981133  0.35195617  1
  Ni  Ni206  1  0.71927977  1.02972913  0.24885416  1
  Ni  Ni207  1  0.70749559  0.64140704  0.27914837  1
  Ni  Ni208  1  0.21582246  0.07906756  0.91621597  1
  Ni  Ni209  1  0.82845599  0.22848186  0.79293792  1
  Ni  Ni210  1  0.58091740  0.15514342  0.23027661  1
  Ni  Ni211  1  0.20863581  0.58680210  0.70646065  1
  Ni  Ni212  1  0.26081944  0.29703386  0.60777535  1
  Ni  Ni213  1  -0.03211158  0.22767793  0.90127853  1
  Ni  Ni214  1  0.85084727  0.25675636  0.15741418  1
  Ni  Ni215  1  0.95806545  0.91523053  0.02249946  1
