# generated using pymatgen
data_Ti2CoNi
_symmetry_space_group_name_H-M   'P 1'
_cell_length_a   14.55352414
_cell_length_b   14.51971294
_cell_length_c   14.52417571
_cell_angle_alpha   90.00638923
_cell_angle_beta   90.00135109
_cell_angle_gamma   90.03488120
_symmetry_Int_Tables_number   1
_chemical_formula_structural   Ti2CoNi
_chemical_formula_sum   'Ti108 Co54 Ni54'
_cell_volume   3069.14644806
_cell_formula_units_Z   54
loop_
 _symmetry_equiv_pos_site_id
 _symmetry_equiv_pos_as_xyz
  1  'x, y, z'
loop_
 _atom_site_type_symbol
 _atom_site_label
 _atom_site_symmetry_multiplicity
 _atom_site_fract_x
 _atom_site_fract_y
 _atom_site_fract_z
 _atom_site_occupancy
  Ti  Ti0  1  -0.04740233  0.05405450  0.01774383  1
  Ti  Ti1  1  -0.03494154  0.01212510  0.36834448  1
  Ti  Ti2  1  -0.01508796  0.04543437  0.58824108  1
  Ti  Ti3  1  0.03106828  0.39642446  0.09866952  1
  Ti  Ti4  1  -0.05501618  0.29250254  0.35138356  1
  Ti  Ti5  1  -0.00912327  0.34322188  0.59856417  1
  Ti  Ti6  1  0.04978207  0.69308830  -0.00126977  1
  Ti  Ti7  1  0.03899341  0.70922906  0.31844462  1
  Ti  Ti8  1  0.01086673  0.67207577  0.65509613  1
  Ti  Ti9  1  0.39219398  -0.06605644  0.02942038  1
  Ti  Ti10  1  0.32375705  -0.00395788  0.37678749  1
  Ti  Ti11  1  0.29081089  -0.03513928  0.58632278  1
  Ti  Ti12  1  0.32850362  0.27279611  -0.04314654  1
  Ti  Ti13  1  0.30963853  0.36463771  0.31875635  1
  Ti  Ti14  1  0.28435293  0.27865167  0.65549134  1
  Ti  Ti15  1  0.43979655  0.73764518  -0.00993964  1
  Ti  Ti16  1  0.39779943  0.61508253  0.45018290  1
  Ti  Ti17  1  0.29223985  0.62632951  0.70058998  1
  Ti  Ti18  1  0.69613477  0.03023499  -0.03085802  1
  Ti  Ti19  1  0.66707574  -0.02978286  0.40021858  1
  Ti  Ti20  1  0.62690911  0.06963136  0.69622279  1
  Ti  Ti21  1  0.68615258  0.32978211  -0.02991430  1
  Ti  Ti22  1  0.72326608  0.29121333  0.29219726  1
  Ti  Ti23  1  0.62832502  0.28947566  0.68503358  1
  Ti  Ti24  1  0.64756799  0.68042750  0.00716365  1
  Ti  Ti25  1  0.58838563  0.63653725  0.35340874  1
  Ti  Ti26  1  0.71307113  0.72787706  0.73442433  1
  Ti  Ti27  1  0.05550269  0.17967425  0.12332577  1
  Ti  Ti28  1  0.06823765  0.17931007  0.46400885  1
  Ti  Ti29  1  -0.00031358  0.15959928  0.87381057  1
  Ti  Ti30  1  -0.02581737  0.58418276  0.14894993  1
  Ti  Ti31  1  -0.05355463  0.52870572  0.53075842  1
  Ti  Ti32  1  0.00038736  0.48945044  0.76857599  1
  Ti  Ti33  1  -0.09076367  0.76792247  0.12677759  1
  Ti  Ti34  1  0.02774368  0.86444496  0.54869586  1
  Ti  Ti35  1  0.05017609  0.83938312  0.85229237  1
  Ti  Ti36  1  0.36518149  0.22188663  0.17287567  1
  Ti  Ti37  1  0.41084280  0.16743666  0.48938081  1
  Ti  Ti38  1  0.35642730  0.09933885  0.88547751  1
  Ti  Ti39  1  0.30931212  0.48555730  0.16397165  1
  Ti  Ti40  1  0.34819679  0.43731149  0.51760156  1
  Ti  Ti41  1  0.32248913  0.52390991  0.86708426  1
  Ti  Ti42  1  0.31710394  0.80369910  0.14609389  1
  Ti  Ti43  1  0.33999645  0.78650342  0.49592710  1
  Ti  Ti44  1  0.34994192  0.82882441  0.77746909  1
  Ti  Ti45  1  0.67524228  0.13719380  0.18506288  1
  Ti  Ti46  1  0.60195322  0.11951219  0.51816472  1
  Ti  Ti47  1  0.57116599  0.15254718  0.85054990  1
  Ti  Ti48  1  0.63651702  0.47027970  0.25912779  1
  Ti  Ti49  1  0.72655314  0.53796270  0.48611400  1
  Ti  Ti50  1  0.67151008  0.45354213  0.80679598  1
  Ti  Ti51  1  0.67340859  0.84458634  0.21727777  1
  Ti  Ti52  1  0.69825033  0.81881169  0.50410124  1
  Ti  Ti53  1  0.72356099  0.86490012  0.87966634  1
  Ti  Ti54  1  0.13620168  0.02298832  0.24816639  1
  Ti  Ti55  1  0.13790864  0.00632106  0.45635136  1
  Ti  Ti56  1  0.17351452  0.05474582  0.77668681  1
  Ti  Ti57  1  0.21065623  0.31838896  0.10681710  1
  Ti  Ti58  1  0.13171156  0.36393307  0.40566995  1
  Ti  Ti59  1  0.15716503  0.36033944  0.87445814  1
  Ti  Ti60  1  0.19429293  0.65547413  0.17675261  1
  Ti  Ti61  1  0.15197631  0.74321211  0.49830769  1
  Ti  Ti62  1  0.22486951  0.70509881  0.88893139  1
  Ti  Ti63  1  0.52736959  0.04053450  0.11549497  1
  Ti  Ti64  1  0.49474049  -0.09489995  0.48297317  1
  Ti  Ti65  1  0.43828024  -0.00723408  0.75732900  1
  Ti  Ti66  1  0.57266246  0.30575134  0.14537671  1
  Ti  Ti67  1  0.54419824  0.40687098  0.51682898  1
  Ti  Ti68  1  0.46426827  0.44770980  0.73503940  1
  Ti  Ti69  1  0.44066311  0.62265196  0.15440374  1
  Ti  Ti70  1  0.52803806  0.73076205  0.55360328  1
  Ti  Ti71  1  0.47021836  0.64255103  0.83246721  1
  Ti  Ti72  1  0.85267576  -0.05564427  0.15707125  1
  Ti  Ti73  1  0.79887836  0.04632867  0.52628177  1
  Ti  Ti74  1  0.88901886  -0.03017619  0.84176809  1
  Ti  Ti75  1  0.84225050  0.43354405  0.17848468  1
  Ti  Ti76  1  0.75372150  0.24419670  0.50274397  1
  Ti  Ti77  1  0.84708387  0.35810843  0.82849583  1
  Ti  Ti78  1  0.74709416  0.61616894  0.17692540  1
  Ti  Ti79  1  0.83483669  0.69902471  0.42139804  1
  Ti  Ti80  1  0.80606985  0.62268130  0.87061130  1
  Ti  Ti81  1  0.16862842  0.14778944  -0.04813536  1
  Ti  Ti82  1  0.20210568  0.19639289  0.31854175  1
  Ti  Ti83  1  0.06913217  0.20466145  0.69429160  1
  Ti  Ti84  1  0.12478054  0.52790917  -0.04720514  1
  Ti  Ti85  1  0.21851896  0.54691535  0.37469413  1
  Ti  Ti86  1  0.15982020  0.46169277  0.58230116  1
  Ti  Ti87  1  0.15868581  0.86262314  0.02442075  1
  Ti  Ti88  1  0.17530902  0.84956923  0.25989876  1
  Ti  Ti89  1  0.14925821  0.78054057  0.70170132  1
  Ti  Ti90  1  0.49681751  0.21011325  0.00491679  1
  Ti  Ti91  1  0.51385839  0.18968870  0.31239483  1
  Ti  Ti92  1  0.45240990  0.15937191  0.67660196  1
  Ti  Ti93  1  0.51475895  0.43387539  -0.02719247  1
  Ti  Ti94  1  0.45062328  0.49478463  0.32291083  1
  Ti  Ti95  1  0.57678928  0.59441054  0.68138354  1
  Ti  Ti96  1  0.58793277  0.86846113  0.01429268  1
  Ti  Ti97  1  0.48010632  0.89690717  0.28640730  1
  Ti  Ti98  1  0.57183574  0.85678526  0.70928185  1
  Ti  Ti99  1  0.87968213  0.26594443  0.00811432  1
  Ti  Ti100  1  0.85229245  0.13391826  0.27138264  1
  Ti  Ti101  1  0.87395407  0.16633865  0.74094276  1
  Ti  Ti102  1  0.85094718  0.46761799  -0.00136964  1
  Ti  Ti103  1  0.84040649  0.43966258  0.36193905  1
  Ti  Ti104  1  0.81747772  0.48465694  0.67189828  1
  Ti  Ti105  1  0.87600826  0.78120574  -0.05505885  1
  Ti  Ti106  1  0.84549401  0.86657757  0.33083680  1
  Ti  Ti107  1  0.84820971  0.79427305  0.61417427  1
  Co  Co108  1  0.09088140  0.55308651  0.27232981  1
  Co  Co109  1  0.83061705  0.94133549  0.99737090  1
  Co  Co110  1  0.87133724  0.71662433  0.25966609  1
  Co  Co111  1  -0.00339295  0.88180508  0.22338255  1
  Co  Co112  1  0.27554824  0.29134593  0.46969556  1
  Co  Co113  1  0.43796097  0.30039862  0.58256494  1
  Co  Co114  1  0.71668120  0.73185035  0.31527797  1
  Co  Co115  1  0.10478771  0.01759588  0.07333196  1
  Co  Co116  1  0.30814465  0.09887906  0.70699038  1
  Co  Co117  1  0.74409727  0.05690511  0.80715250  1
  Co  Co118  1  0.24574965  0.96506675  0.12168918  1
  Co  Co119  1  0.86689290  0.63085690  0.72401649  1
  Co  Co120  1  0.41796518  0.55886770  0.62154328  1
  Co  Co121  1  0.02273386  0.47005664  0.40519305  1
  Co  Co122  1  0.02598877  0.15887927  0.29667020  1
  Co  Co123  1  0.82713046  0.11086139  0.10668786  1
  Co  Co124  1  0.96284123  0.71021746  0.82133430  1
  Co  Co125  1  0.84328220  0.63789539  0.57134973  1
  Co  Co126  1  0.99917241  0.30979531  0.81129976  1
  Co  Co127  1  0.15007648  0.51587897  0.10928412  1
  Co  Co128  1  0.98551163  0.41552309  0.93395187  1
  Co  Co129  1  0.90304889  0.20224891  0.57577222  1
  Co  Co130  1  0.83361660  0.12386153  0.92461751  1
  Co  Co131  1  0.14755760  0.28157062  0.56507769  1
  Co  Co132  1  0.90228729  0.14963711  0.43095685  1
  Co  Co133  1  0.17785105  0.42165903  0.23915213  1
  Co  Co134  1  0.57085733  0.35139930  0.33078240  1
  Co  Co135  1  0.22843289  0.13837644  0.09141005  1
  Co  Co136  1  0.28820260  0.08842053  0.23370187  1
  Co  Co137  1  0.38532343  0.97353383  0.19463630  1
  Co  Co138  1  0.37767994  0.09679249  0.06008719  1
  Co  Co139  1  0.23975978  -0.00422848  0.95521283  1
  Co  Co140  1  0.85071499  0.81277416  0.77869357  1
  Co  Co141  1  0.70666398  0.13880335  0.37152699  1
  Co  Co142  1  0.91719716  0.26151187  0.17471577  1
  Co  Co143  1  0.13090456  0.94556182  0.65330248  1
  Co  Co144  1  0.42595853  0.87036803  0.63099207  1
  Co  Co145  1  0.28724417  0.77694712  0.63448573  1
  Co  Co146  1  0.75792664  0.57229154  0.32868690  1
  Co  Co147  1  0.13229785  0.36494807  0.71341033  1
  Co  Co148  1  0.29759074  0.45150467  0.68280316  1
  Co  Co149  1  0.44972172  0.36130607  0.23009541  1
  Co  Co150  1  0.43982515  0.71757490  0.68656759  1
  Co  Co151  1  0.75443218  1.00610850  0.27072242  1
  Co  Co152  1  0.43493638  0.32586988  0.41660493  1
  Co  Co153  1  0.98073483  0.04336968  0.18874316  1
  Co  Co154  1  -0.03738969  0.58122008  0.92914805  1
  Co  Co155  1  0.98337897  0.42655758  0.25613230  1
  Co  Co156  1  0.09722105  0.64164568  0.82408457  1
  Co  Co157  1  0.15165790  0.09741623  0.60212227  1
  Co  Co158  1  0.74198368  0.16267947  0.65135469  1
  Co  Co159  1  0.58514871  0.25694229  0.45814222  1
  Co  Co160  1  0.68852682  0.97423382  0.12244353  1
  Co  Co161  1  0.92353608  0.57413809  0.30653942  1
  Ni  Ni162  1  0.65915370  0.46021670  0.62649347  1
  Ni  Ni163  1  0.00975482  0.03181805  0.75030105  1
  Ni  Ni164  1  0.26984457  0.43934550  0.99746034  1
  Ni  Ni165  1  0.49618891  0.02423744  0.94311011  1
  Ni  Ni166  1  0.25381653  0.61686366  0.53415416  1
  Ni  Ni167  1  0.42941490  0.75945007  0.36348625  1
  Ni  Ni168  1  0.33499029  0.62820774  0.27609589  1
  Ni  Ni169  1  0.69044990  0.42795254  0.10611463  1
  Ni  Ni170  1  0.07401922  0.99661474  0.90950628  1
  Ni  Ni171  1  0.47321952  0.86692712  0.87573251  1
  Ni  Ni172  1  0.55001394  0.56909281  0.50640740  1
  Ni  Ni173  1  0.75044810  0.80664207  0.06790535  1
  Ni  Ni174  1  0.58809282  0.80372271  0.37934426  1
  Ni  Ni175  1  0.69525768  0.38490365  0.43573129  1
  Ni  Ni176  1  0.69496608  0.52150490  0.97327317  1
  Ni  Ni177  1  0.44239290  0.57109648  0.99531883  1
  Ni  Ni178  1  0.63713220  0.60799733  0.84391731  1
  Ni  Ni179  1  0.56326974  0.71912415  0.21510754  1
  Ni  Ni180  1  0.66562611  0.17573051  0.01738386  1
  Ni  Ni181  1  0.98072735  0.87333547  0.70216727  1
  Ni  Ni182  1  0.59169222  0.76295071  0.85882977  1
  Ni  Ni183  1  0.72544427  0.23064639  0.83580477  1
  Ni  Ni184  1  0.64446234  0.95906872  0.57503338  1
  Ni  Ni185  1  0.28232161  0.61375156  0.03289803  1
  Ni  Ni186  1  0.68567598  0.66858787  0.57676151  1
  Ni  Ni187  1  0.32636601  0.36329882  0.81590866  1
  Ni  Ni188  1  0.30451120  0.83357800  0.94533632  1
  Ni  Ni189  1  0.47946652  0.83214214  0.13505434  1
  Ni  Ni190  1  0.85630643  0.38422885  0.51526350  1
  Ni  Ni191  1  0.09385288  0.58743850  0.48826140  1
  Ni  Ni192  1  0.60020001  0.97168664  0.83191242  1
  Ni  Ni193  1  0.83347546  0.63185501  0.04036971  1
  Ni  Ni194  1  0.98305499  0.71161617  0.48407614  1
  Ni  Ni195  1  0.24089321  0.72463978  0.35494305  1
  Ni  Ni196  1  0.25384456  0.12745522  0.48179453  1
  Ni  Ni197  1  0.75707856  0.27433680  0.12312670  1
  Ni  Ni198  1  0.06127419  0.27754622  0.98273054  1
  Ni  Ni199  1  0.56754219  0.33110631  0.85350789  1
  Ni  Ni200  1  0.07927723  0.29753984  0.23565037  1
  Ni  Ni201  1  0.20324988  0.89902063  0.81251373  1
  Ni  Ni202  1  0.48189974  0.02171348  0.59194115  1
  Ni  Ni203  1  0.24354247  0.21651455  0.81240414  1
  Ni  Ni204  1  0.48125007  0.04467036  0.39519155  1
  Ni  Ni205  1  0.58717969  0.02901764  0.27137505  1
  Ni  Ni206  1  0.40026834  0.36517759  0.07734244  1
  Ni  Ni207  1  0.07899967  0.76807872  0.14384971  1
  Ni  Ni208  1  0.17434931  0.51494516  0.76969669  1
  Ni  Ni209  1  0.45669775  0.28719685  0.75594247  1
  Ni  Ni210  1  0.21812557  0.87453448  0.41839379  1
  Ni  Ni211  1  0.99252226  0.88290805  0.02572350  1
  Ni  Ni212  1  0.04035049  0.86566052  0.38453333  1
  Ni  Ni213  1  0.81364809  0.31411823  0.66555636  1
  Ni  Ni214  1  0.87291209  0.90154188  0.48815554  1
  Ni  Ni215  1  0.59006820  0.56373829  0.11627856  1
