# generated using pymatgen
data_Ti2CoNi
_symmetry_space_group_name_H-M   'P 1'
_cell_length_a   14.53398894
_cell_length_b   14.53629198
_cell_length_c   14.54431335
_cell_angle_alpha   90.13338847
_cell_angle_beta   90.03956157
_cell_angle_gamma   90.17982934
_symmetry_Int_Tables_number   1
_chemical_formula_structural   Ti2CoNi
_chemical_formula_sum   'Ti108 Co54 Ni54'
_cell_volume   3072.75733467
_cell_formula_units_Z   54
loop_
 _symmetry_equiv_pos_site_id
 _symmetry_equiv_pos_as_xyz
  1  'x, y, z'
loop_
 _atom_site_type_symbol
 _atom_site_label
 _atom_site_symmetry_multiplicity
 _atom_site_fract_x
 _atom_site_fract_y
 _atom_site_fract_z
 _atom_site_occupancy
  Ti  Ti0  1  -0.01916656  0.05216890  -0.01332273  1
  Ti  Ti1  1  0.07270696  -0.05332714  0.31900976  1
  Ti  Ti2  1  0.03275860  0.01811724  0.66940248  1
  Ti  Ti3  1  -0.05016283  0.39991571  -0.08106425  1
  Ti  Ti4  1  -0.04134218  0.33356745  0.31163935  1
  Ti  Ti5  1  -0.01882278  0.44517735  0.71298751  1
  Ti  Ti6  1  -0.00900675  0.74647570  0.07234896  1
  Ti  Ti7  1  0.00127150  0.65894062  0.39100556  1
  Ti  Ti8  1  0.04500322  0.65671283  0.67870328  1
  Ti  Ti9  1  0.34501779  0.01087726  0.06145286  1
  Ti  Ti10  1  0.40960213  0.02465403  0.34054648  1
  Ti  Ti11  1  0.36763978  0.01011752  0.62289341  1
  Ti  Ti12  1  0.33152529  0.41712636  -0.03329990  1
  Ti  Ti13  1  0.35267367  0.32406705  0.33166645  1
  Ti  Ti14  1  0.34103986  0.28755311  0.66645608  1
  Ti  Ti15  1  0.27237221  0.63596468  -0.01981414  1
  Ti  Ti16  1  0.24836689  0.70756605  0.37817383  1
  Ti  Ti17  1  0.37149209  0.62509510  0.63361140  1
  Ti  Ti18  1  0.67143395  -0.05463980  -0.04387679  1
  Ti  Ti19  1  0.63797278  0.02317266  0.36045439  1
  Ti  Ti20  1  0.63024516  0.04316309  0.68408646  1
  Ti  Ti21  1  0.69303271  0.40594812  0.09019747  1
  Ti  Ti22  1  0.59174360  0.36579004  0.38731626  1
  Ti  Ti23  1  0.66425221  0.35389177  0.71426418  1
  Ti  Ti24  1  0.73043769  0.65909216  -0.00269423  1
  Ti  Ti25  1  0.69570660  0.63660215  0.32624061  1
  Ti  Ti26  1  0.59421820  0.68920029  0.59886756  1
  Ti  Ti27  1  0.01835462  0.13750512  0.24844439  1
  Ti  Ti28  1  -0.01631615  0.10035319  0.47994080  1
  Ti  Ti29  1  -0.02365612  0.15683283  0.80742600  1
  Ti  Ti30  1  0.04066471  0.44500811  0.13156743  1
  Ti  Ti31  1  -0.04021265  0.56139891  0.54255595  1
  Ti  Ti32  1  0.01364402  0.60633303  0.88079969  1
  Ti  Ti33  1  -0.02796309  0.80034424  0.25707555  1
  Ti  Ti34  1  -0.02925082  0.78527056  0.54613719  1
  Ti  Ti35  1  0.00353817  0.79156199  0.84398757  1
  Ti  Ti36  1  0.25248968  0.15962749  0.11581967  1
  Ti  Ti37  1  0.27273280  0.14979323  0.49783512  1
  Ti  Ti38  1  0.35558620  0.14140435  0.91863669  1
  Ti  Ti39  1  0.38372302  0.52899232  0.12812787  1
  Ti  Ti40  1  0.24495631  0.46037343  0.47956095  1
  Ti  Ti41  1  0.40506527  0.46895181  0.79681107  1
  Ti  Ti42  1  0.35227411  0.78883526  0.06943505  1
  Ti  Ti43  1  0.35270724  0.78365696  0.53233017  1
  Ti  Ti44  1  0.31591465  0.93567939  0.79201795  1
  Ti  Ti45  1  0.66585744  0.19978122  0.13751797  1
  Ti  Ti46  1  0.73007210  0.15029516  0.49070530  1
  Ti  Ti47  1  0.71285353  0.24210653  0.96180508  1
  Ti  Ti48  1  0.59568413  0.53912946  0.18421458  1
  Ti  Ti49  1  0.66944638  0.52528275  0.48787097  1
  Ti  Ti50  1  0.67712208  0.52376426  0.83539296  1
  Ti  Ti51  1  0.69320596  0.82345083  0.08929452  1
  Ti  Ti52  1  0.69426167  0.86834192  0.53601061  1
  Ti  Ti53  1  0.62972730  0.78027998  0.83822688  1
  Ti  Ti54  1  0.11565287  0.01190021  0.12415486  1
  Ti  Ti55  1  0.24307713  -0.04075385  0.42779724  1
  Ti  Ti56  1  0.09909175  -0.03580420  0.83302897  1
  Ti  Ti57  1  0.28159092  0.34170847  0.14269999  1
  Ti  Ti58  1  0.11722550  0.29747397  0.53761040  1
  Ti  Ti59  1  0.13340194  0.30115115  0.82417550  1
  Ti  Ti60  1  0.10787601  0.64124422  0.20487770  1
  Ti  Ti61  1  0.14712096  0.65470715  0.52481007  1
  Ti  Ti62  1  0.19850095  0.77032567  0.81249333  1
  Ti  Ti63  1  0.52560860  -0.05713688  0.09005276  1
  Ti  Ti64  1  0.53370913  0.06506599  0.52623417  1
  Ti  Ti65  1  0.46857331  0.02900635  0.81892763  1
  Ti  Ti66  1  0.49538811  0.30923236  0.19149953  1
  Ti  Ti67  1  0.49152092  0.32153697  0.53920235  1
  Ti  Ti68  1  0.46410157  0.29950039  0.90181645  1
  Ti  Ti69  1  0.48203185  0.66618477  0.23704378  1
  Ti  Ti70  1  0.47211836  0.59149895  0.49134100  1
  Ti  Ti71  1  0.46878583  0.67559226  0.77142793  1
  Ti  Ti72  1  0.76841996  -0.00652828  0.15220950  1
  Ti  Ti73  1  0.80376567  -0.02338353  0.41219480  1
  Ti  Ti74  1  0.80816307  0.05580153  0.83092613  1
  Ti  Ti75  1  0.80646870  0.29558951  0.21906858  1
  Ti  Ti76  1  0.89301719  0.26851804  0.49237018  1
  Ti  Ti77  1  0.82688361  0.29779381  0.81362003  1
  Ti  Ti78  1  0.91693665  0.60852289  0.19529058  1
  Ti  Ti79  1  0.79225690  0.67795706  0.59820799  1
  Ti  Ti80  1  0.79675014  0.70635008  0.81539109  1
  Ti  Ti81  1  0.15789138  0.13149917  -0.03599842  1
  Ti  Ti82  1  0.22581258  0.16360685  0.30558070  1
  Ti  Ti83  1  0.17101727  0.17527067  0.66638813  1
  Ti  Ti84  1  0.14343971  0.46460007  -0.02346122  1
  Ti  Ti85  1  0.13927136  0.38671837  0.30055632  1
  Ti  Ti86  1  0.20534344  0.53857339  0.69890275  1
  Ti  Ti87  1  0.19204041  0.87458693  -0.02104331  1
  Ti  Ti88  1  0.19169706  0.82575177  0.25246995  1
  Ti  Ti89  1  0.20099372  0.86841583  0.60998891  1
  Ti  Ti90  1  0.54250787  0.10424485  -0.01521225  1
  Ti  Ti91  1  0.53930250  0.16624711  0.28926773  1
  Ti  Ti92  1  0.49811005  0.18681868  0.72080386  1
  Ti  Ti93  1  0.54646995  0.51212234  -0.00257140  1
  Ti  Ti94  1  0.35467105  0.56873351  0.34385284  1
  Ti  Ti95  1  0.54719692  0.49358304  0.63465012  1
  Ti  Ti96  1  0.50673213  0.78999272  -0.02455367  1
  Ti  Ti97  1  0.51811683  0.85526662  0.34781245  1
  Ti  Ti98  1  0.51719926  0.87460227  0.65752628  1
  Ti  Ti99  1  0.87523186  0.15939079  0.10287219  1
  Ti  Ti100  1  0.86042681  0.14033843  0.33095380  1
  Ti  Ti101  1  0.87307384  0.12276265  0.64891705  1
  Ti  Ti102  1  0.87357130  0.53282470  0.03390364  1
  Ti  Ti103  1  0.83497456  0.50040135  0.33115776  1
  Ti  Ti104  1  0.81992531  0.44486481  0.57849034  1
  Ti  Ti105  1  0.85575246  0.88431365  -0.02278697  1
  Ti  Ti106  1  0.77330116  0.83603297  0.27312542  1
  Ti  Ti107  1  0.86465748  0.89914435  0.68875959  1
  Co  Co108  1  0.33073489  0.84985525  0.34534485  1
  Co  Co109  1  0.26652054  0.61717220  0.21437238  1
  Co  Co110  1  0.11048527  0.31542982  0.03886879  1
  Co  Co111  1  0.42907915  0.71328551  0.38530335  1
  Co  Co112  1  0.00404396  0.24501785  0.93975653  1
  Co  Co113  1  0.55470966  0.92302220  0.49184093  1
  Co  Co114  1  0.27915247  0.45628335  0.26210837  1
  Co  Co115  1  0.31138585  0.65289395  0.79224989  1
  Co  Co116  1  0.71342361  0.16975193  0.74134322  1
  Co  Co117  1  0.45128220  0.65506327  0.04898136  1
  Co  Co118  1  0.15108229  0.57882183  0.35212008  1
  Co  Co119  1  0.13325513  0.12074884  0.80825470  1
  Co  Co120  1  1.05249290  0.59006198  0.05127796  1
  Co  Co121  1  0.02018486  0.20447067  0.62733033  1
  Co  Co122  1  0.85182969  0.69321274  0.31969748  1
  Co  Co123  1  0.72815119  0.11705374  0.26853691  1
  Co  Co124  1  0.51024952  0.77411479  0.50841176  1
  Co  Co125  1  0.21024522  1.01203432  0.70766069  1
  Co  Co126  1  0.40006644  0.24189832  1.06472264  1
  Co  Co127  1  0.98398369  0.38611838  0.53078695  1
  Co  Co128  1  0.10480782  0.48383980  0.59316472  1
  Co  Co129  1  0.24278053  0.01042001  0.90837098  1
  Co  Co130  1  0.82331616  0.44924552  0.76905282  1
  Co  Co131  1  0.51048601  0.79413510  0.14636590  1
  Co  Co132  1  0.90305892  0.70808733  0.95992238  1
  Co  Co133  1  0.83873679  0.56837654  0.88404814  1
  Co  Co134  1  0.60644609  0.67111666  0.09779107  1
  Co  Co135  1  0.62824328  0.90788164  0.22875460  1
  Co  Co136  1  0.84344752  0.32624468  1.03903408  1
  Co  Co137  1  0.16808228  0.04454700  0.56225177  1
  Co  Co138  1  0.21756399  0.49604327  0.11140299  1
  Co  Co139  1  0.62734454  0.74698965  0.24885517  1
  Co  Co140  1  0.05403576  0.16413005  0.08553370  1
  Co  Co141  1  0.90177836  -0.01491734  0.27536613  1
  Co  Co142  1  0.70641966  0.83263366  0.68318938  1
  Co  Co143  1  0.20183175  0.72841551  0.10387836  1
  Co  Co144  1  0.57278445  0.19368905  0.43379731  1
  Co  Co145  1  0.47305319  0.39954426  0.07380071  1
  Co  Co146  1  0.96598725  0.29097690  0.13625261  1
  Co  Co147  1  0.08331828  0.85841688  0.13922831  1
  Co  Co148  1  0.76060023  0.55294506  0.16923299  1
  Co  Co149  1  0.24783733  0.27169020  -0.01956792  1
  Co  Co150  1  0.34951382  0.74713324  0.21935679  1
  Co  Co151  1  0.66192495  0.36366175  0.54593762  1
  Co  Co152  1  0.73566336  0.08260964  0.01297991  1
  Co  Co153  1  0.39933950  0.92401878  0.94666029  1
  Co  Co154  1  0.39778328  0.92525321  0.48164059  1
  Co  Co155  1  0.41503024  0.58035071  0.91506706  1
  Co  Co156  1  0.59681047  0.20318115  0.59484996  1
  Co  Co157  1  0.77451034  0.43190029  0.93873385  1
  Co  Co158  1  0.87983074  0.43412750  0.17097350  1
  Co  Co159  1  0.81675715  0.60314862  0.45589595  1
  Co  Co160  1  0.71239493  0.52778913  0.66416762  1
  Co  Co161  1  0.56882476  0.27963184  0.02509802  1
  Ni  Ni162  1  0.60077023  0.92681644  0.80017406  1
  Ni  Ni163  1  0.90714610  0.74549372  0.70249702  1
  Ni  Ni164  1  0.35850173  0.77348652  0.89222793  1
  Ni  Ni165  1  0.61409005  0.05182772  0.17448734  1
  Ni  Ni166  1  0.69775485  0.42400371  0.27181173  1
  Ni  Ni167  1  0.38181105  0.44813844  0.59916377  1
  Ni  Ni168  1  0.76012325  0.24815838  0.61360262  1
  Ni  Ni169  1  0.24694985  0.52737939  0.86016633  1
  Ni  Ni170  1  0.05857253  0.83112473  0.68817118  1
  Ni  Ni171  1  0.12705742  0.72192657  0.96143228  1
  Ni  Ni172  1  0.55201958  0.54983612  0.35187072  1
  Ni  Ni173  1  0.21930747  0.30243750  0.41652778  1
  Ni  Ni174  1  0.91144463  -0.03931289  0.54124452  1
  Ni  Ni175  1  1.07180612  0.23868829  0.37495528  1
  Ni  Ni176  1  0.64725786  0.07337732  0.85549091  1
  Ni  Ni177  1  0.40686695  0.18318981  0.40015470  1
  Ni  Ni178  1  0.07028551  0.93409283  0.49606843  1
  Ni  Ni179  1  0.02816989  0.89686218  0.98290266  1
  Ni  Ni180  1  0.11771895  0.79465356  0.41943170  1
  Ni  Ni181  1  0.37502423  0.18030164  0.23333727  1
  Ni  Ni182  1  0.10389416  0.46588244  0.81227079  1
  Ni  Ni183  1  0.92727039  0.87340280  0.39231149  1
  Ni  Ni184  1  0.93038586  0.94092484  0.12532214  1
  Ni  Ni185  1  0.82545451  0.76877048  0.45571279  1
  Ni  Ni186  1  0.88943263  0.58488671  0.71406560  1
  Ni  Ni187  1  0.36333948  0.80306104  0.70821704  1
  Ni  Ni188  1  0.30885734  0.28251857  0.82611746  1
  Ni  Ni189  1  0.41988729  0.17750929  0.56339658  1
  Ni  Ni190  1  0.39865836  0.91543461  0.20457228  1
  Ni  Ni191  1  0.76570836  0.88617894  0.82196122  1
  Ni  Ni192  1  0.70239156  0.25047119  0.34764202  1
  Ni  Ni193  1  0.77146246  0.38024673  0.42076453  1
  Ni  Ni194  1  0.32919289  0.11812088  0.75279030  1
  Ni  Ni195  1  0.45660726  0.45128647  0.26650370  1
  Ni  Ni196  1  0.62507890  0.37947085  0.89326031  1
  Ni  Ni197  1  0.90223699  0.29283254  0.67225941  1
  Ni  Ni198  1  0.57112635  0.64413467  0.90044401  1
  Ni  Ni199  1  0.79574787  0.71764183  0.16409037  1
  Ni  Ni200  1  0.48006108  0.11724931  0.13711903  1
  Ni  Ni201  1  0.42871289  0.43924670  0.43180033  1
  Ni  Ni202  1  0.07740731  0.47319161  0.43727004  1
  Ni  Ni203  1  0.85712687  0.17918526  0.93398741  1
  Ni  Ni204  1  0.00694385  0.50413432  0.28827505  1
  Ni  Ni205  1  0.64854475  0.65508179  0.73856667  1
  Ni  Ni206  1  0.59627137  0.22688298  0.84228739  1
  Ni  Ni207  1  0.93391670  0.94773747  0.82969939  1
  Ni  Ni208  1  0.24992938  0.89805352  0.12634775  1
  Ni  Ni209  1  0.21598572  0.37838876  0.65369802  1
  Ni  Ni210  1  0.75918334  1.01670834  0.58606520  1
  Ni  Ni211  1  0.23245220  0.71621300  0.66223250  1
  Ni  Ni212  1  0.12348482  0.08308385  0.40020925  1
  Ni  Ni213  1  0.25778016  0.00272237  0.24604080  1
  Ni  Ni214  1  0.12202875  0.25867861  0.19747409  1
  Ni  Ni215  1  0.49679757  0.35350950  0.72582489  1
