# generated using pymatgen
data_Ti2CoNi
_symmetry_space_group_name_H-M   'P 1'
_cell_length_a   14.66004067
_cell_length_b   14.66596489
_cell_length_c   14.65575551
_cell_angle_alpha   89.71662217
_cell_angle_beta   90.12399487
_cell_angle_gamma   90.06897638
_symmetry_Int_Tables_number   1
_chemical_formula_structural   Ti2CoNi
_chemical_formula_sum   'Ti108 Co54 Ni54'
_cell_volume   3150.99264624
_cell_formula_units_Z   54
loop_
 _symmetry_equiv_pos_site_id
 _symmetry_equiv_pos_as_xyz
  1  'x, y, z'
loop_
 _atom_site_type_symbol
 _atom_site_label
 _atom_site_symmetry_multiplicity
 _atom_site_fract_x
 _atom_site_fract_y
 _atom_site_fract_z
 _atom_site_occupancy
  Ti  Ti0  1  -0.07357743  0.05942476  -0.05659800  1
  Ti  Ti1  1  -0.06905867  -0.04183913  0.34386756  1
  Ti  Ti2  1  0.02435764  -0.03168737  0.60779443  1
  Ti  Ti3  1  0.05913838  0.35127775  0.04138923  1
  Ti  Ti4  1  0.02943202  0.38638145  0.33042965  1
  Ti  Ti5  1  -0.00436476  0.30057462  0.76110849  1
  Ti  Ti6  1  0.02444045  0.65502702  -0.03421437  1
  Ti  Ti7  1  0.00650847  0.71516719  0.27474137  1
  Ti  Ti8  1  0.03345595  0.63732644  0.65902286  1
  Ti  Ti9  1  0.32170976  0.00072947  0.02511964  1
  Ti  Ti10  1  0.29851414  -0.02549786  0.35303969  1
  Ti  Ti11  1  0.34091122  0.06744261  0.70684326  1
  Ti  Ti12  1  0.28440289  0.39218336  0.00714231  1
  Ti  Ti13  1  0.34040623  0.28681462  0.31432010  1
  Ti  Ti14  1  0.30093064  0.28045432  0.71597560  1
  Ti  Ti15  1  0.31827116  0.74153263  0.02304382  1
  Ti  Ti16  1  0.37160770  0.62401453  0.32472353  1
  Ti  Ti17  1  0.37760485  0.64966931  0.66001842  1
  Ti  Ti18  1  0.62616085  0.04942708  -0.00528314  1
  Ti  Ti19  1  0.74541383  0.02831475  0.31584209  1
  Ti  Ti20  1  0.70661273  -0.01469962  0.62100585  1
  Ti  Ti21  1  0.64518472  0.41437031  -0.04182171  1
  Ti  Ti22  1  0.54747639  0.33202612  0.31339078  1
  Ti  Ti23  1  0.72216398  0.27777194  0.65552406  1
  Ti  Ti24  1  0.67255021  0.74445899  0.03042193  1
  Ti  Ti25  1  0.62901050  0.68389841  0.33279491  1
  Ti  Ti26  1  0.70070592  0.67703353  0.66152682  1
  Ti  Ti27  1  0.04995247  0.16157767  0.11927429  1
  Ti  Ti28  1  -0.00897939  0.17934544  0.58700280  1
  Ti  Ti29  1  0.03978673  0.08038783  0.77800448  1
  Ti  Ti30  1  -0.09987426  0.51065468  0.24281948  1
  Ti  Ti31  1  -0.00239871  0.50604204  0.47667435  1
  Ti  Ti32  1  -0.03814812  0.50793621  0.82008877  1
  Ti  Ti33  1  0.00803810  0.90004491  0.19331421  1
  Ti  Ti34  1  0.05464911  0.83680401  0.45481339  1
  Ti  Ti35  1  -0.03022345  0.77248114  0.81993094  1
  Ti  Ti36  1  0.32856188  0.19002285  0.09403338  1
  Ti  Ti37  1  0.36015874  0.11045678  0.46083222  1
  Ti  Ti38  1  0.44129472  0.20625082  0.83659201  1
  Ti  Ti39  1  0.36973458  0.52860855  0.13868296  1
  Ti  Ti40  1  0.30363958  0.49218629  0.48483754  1
  Ti  Ti41  1  0.34775548  0.53364674  0.81488367  1
  Ti  Ti42  1  0.32576938  0.78507822  0.21430351  1
  Ti  Ti43  1  0.35627235  0.82695055  0.57543227  1
  Ti  Ti44  1  0.33910907  0.78065872  0.80651388  1
  Ti  Ti45  1  0.63877347  0.19269679  0.19136819  1
  Ti  Ti46  1  0.61335101  0.23427938  0.49014328  1
  Ti  Ti47  1  0.69672584  0.23364695  0.85851543  1
  Ti  Ti48  1  0.70721825  0.49204880  0.13780346  1
  Ti  Ti49  1  0.62704942  0.50141786  0.53115220  1
  Ti  Ti50  1  0.67835084  0.54147870  0.80421040  1
  Ti  Ti51  1  0.60891265  0.90266201  0.13644423  1
  Ti  Ti52  1  0.64659064  0.81084756  0.51547217  1
  Ti  Ti53  1  0.63313942  0.82913942  0.76860127  1
  Ti  Ti54  1  0.17738625  0.01115169  0.17062651  1
  Ti  Ti55  1  0.15633296  0.02063648  0.47021345  1
  Ti  Ti56  1  0.21604247  -0.03129930  0.83281211  1
  Ti  Ti57  1  0.18899615  0.33263787  0.18935239  1
  Ti  Ti58  1  0.14338765  0.32888956  0.51394000  1
  Ti  Ti59  1  0.20219747  0.25707102  0.88798560  1
  Ti  Ti60  1  0.13197114  0.61543372  0.14133379  1
  Ti  Ti61  1  0.19099351  0.71035706  0.55557392  1
  Ti  Ti62  1  0.22071912  0.66469040  0.87631847  1
  Ti  Ti63  1  0.47077159  0.05038713  0.14703696  1
  Ti  Ti64  1  0.57104642  0.00035488  0.44908598  1
  Ti  Ti65  1  0.46454330  -0.02372382  0.84554811  1
  Ti  Ti66  1  0.53323297  0.39683570  0.13749975  1
  Ti  Ti67  1  0.46949371  0.39917158  0.46891959  1
  Ti  Ti68  1  0.57108274  0.37095482  0.78028479  1
  Ti  Ti69  1  0.47457712  0.68536376  0.12274344  1
  Ti  Ti70  1  0.48488731  0.71962583  0.46703486  1
  Ti  Ti71  1  0.51599058  0.66144817  0.80741531  1
  Ti  Ti72  1  0.88723958  0.05231914  0.15006656  1
  Ti  Ti73  1  0.86882084  0.01063016  0.50986936  1
  Ti  Ti74  1  0.79474187  -0.05044736  0.80965575  1
  Ti  Ti75  1  0.84846483  0.23821079  0.22364328  1
  Ti  Ti76  1  0.84332778  0.33755265  0.50855587  1
  Ti  Ti77  1  0.80447714  0.38057618  0.81387360  1
  Ti  Ti78  1  0.83009322  0.65487274  0.10289584  1
  Ti  Ti79  1  0.89632350  0.67252830  0.54369328  1
  Ti  Ti80  1  0.83536458  0.63885996  0.88227094  1
  Ti  Ti81  1  0.14372499  0.08457675  -0.04292131  1
  Ti  Ti82  1  0.10565698  0.18062306  0.33323106  1
  Ti  Ti83  1  0.20694056  0.15937036  0.59594784  1
  Ti  Ti84  1  0.15971878  0.50543866  -0.07283110  1
  Ti  Ti85  1  0.22276477  0.49770921  0.27963198  1
  Ti  Ti86  1  0.12749801  0.47649913  0.72455420  1
  Ti  Ti87  1  0.08837413  0.84836817  0.01504188  1
  Ti  Ti88  1  0.16859343  0.85074882  0.29122515  1
  Ti  Ti89  1  0.14301374  0.79955433  0.73755072  1
  Ti  Ti90  1  0.57295066  0.23801276  0.01049877  1
  Ti  Ti91  1  0.49737547  0.14278672  0.32135513  1
  Ti  Ti92  1  0.45608798  0.21985473  0.61491103  1
  Ti  Ti93  1  0.55884260  0.57922287  0.00539559  1
  Ti  Ti94  1  0.65155044  0.49674452  0.31404738  1
  Ti  Ti95  1  0.41928396  0.43075214  0.66421415  1
  Ti  Ti96  1  0.50456889  0.79635405  -0.05262536  1
  Ti  Ti97  1  0.46990334  0.89930433  0.30203898  1
  Ti  Ti98  1  0.52270368  0.92488766  0.63544636  1
  Ti  Ti99  1  0.77571486  0.17794704  0.04123850  1
  Ti  Ti100  1  0.85187569  0.17313412  0.40706318  1
  Ti  Ti101  1  0.85965460  0.16589540  0.75679021  1
  Ti  Ti102  1  0.85492542  0.47324895  0.00746226  1
  Ti  Ti103  1  0.80380513  0.51910090  0.42394760  1
  Ti  Ti104  1  0.88579603  0.46742739  0.64857058  1
  Ti  Ti105  1  0.77671310  0.92023152  0.02943692  1
  Ti  Ti106  1  0.80378732  0.79626868  0.33010836  1
  Ti  Ti107  1  0.84049013  0.84081316  0.63253847  1
  Co  Co108  1  0.00974858  0.49290119  0.97812587  1
  Co  Co109  1  0.53755179  0.54216562  0.69738947  1
  Co  Co110  1  0.64168724  0.89399396  0.93357937  1
  Co  Co111  1  0.84028433  0.38076117  0.15096436  1
  Co  Co112  1  0.64227857  0.63742164  0.16240477  1
  Co  Co113  1  1.00804013  0.79614747  0.61849538  1
  Co  Co114  1  0.00953433  0.28852388  0.20748289  1
  Co  Co115  1  0.57871929  0.12593889  0.86191577  1
  Co  Co116  1  0.07331547  0.46002020  0.18376370  1
  Co  Co117  1  0.68580692  0.32403530  0.09969367  1
  Co  Co118  1  0.08854572  0.37408485  0.86879837  1
  Co  Co119  1  0.03633920  0.21153945  0.92884890  1
  Co  Co120  1  0.33293279  0.95931053  0.19651727  1
  Co  Co121  1  0.46636794  0.81577388  0.73886496  1
  Co  Co122  1  0.35945495  0.87966079  0.93961329  1
  Co  Co123  1  0.77438933  0.55893531  0.58097969  1
  Co  Co124  1  0.06102728  0.56450832  0.31511088  1
  Co  Co125  1  0.97331627  0.57161013  0.11312085  1
  Co  Co126  1  0.44875727  1.04992083  0.57393638  1
  Co  Co127  1  0.92156142  0.25457259  0.06168526  1
  Co  Co128  1  0.60335339  0.10746283  0.59565983  1
  Co  Co129  1  0.50572110  0.08217941  0.72178803  1
  Co  Co130  1  0.14854844  0.45743623  0.41942557  1
  Co  Co131  1  0.92659819  0.89969145  0.05306298  1
  Co  Co132  1  0.29389363  -0.01303017  0.55424688  1
  Co  Co133  1  0.58520746  0.22170959  0.71911807  1
  Co  Co134  1  0.20482458  0.60549034  0.41709137  1
  Co  Co135  1  0.13585424  0.29088373  0.68285889  1
  Co  Co136  1  0.24201208  0.86993131  0.09200356  1
  Co  Co137  1  0.71059414  0.78086298  0.18980473  1
  Co  Co138  1  0.44751897  0.24384877  0.43772012  1
  Co  Co139  1  0.62886083  0.98743088  0.78783504  1
  Co  Co140  1  0.70544857  0.35221733  0.25236867  1
  Co  Co141  1  0.33649878  0.65853173  0.49407504  1
  Co  Co142  1  0.93619932  0.35470154  0.91652320  1
  Co  Co143  1  0.17916290  0.23005134  0.04828195  1
  Co  Co144  1  0.75543234  0.07681121  0.89603432  1
  Co  Co145  1  0.98314446  0.26404272  0.42634501  1
  Co  Co146  1  0.09045344  0.99843897  0.32060286  1
  Co  Co147  1  0.71114810  0.11020493  0.72689150  1
  Co  Co148  1  0.16072278  0.87557241  0.59484837  1
  Co  Co149  1  0.16721964  0.01571306  0.67007816  1
  Co  Co150  1  0.22988455  0.86194442  0.45629077  1
  Co  Co151  1  0.78489660  0.32924824  0.97951998  1
  Co  Co152  1  0.43214566  0.85574267  0.11229755  1
  Co  Co153  1  0.42635344  -0.07758300  0.46444665  1
  Co  Co154  1  0.80353713  0.92260137  0.20688479  1
  Co  Co155  1  0.96004693  0.11989206  0.28199726  1
  Co  Co156  1  0.07672381  0.62967056  0.81143132  1
  Co  Co157  1  0.05020874  0.94198320  0.88603586  1
  Co  Co158  1  0.86923877  0.21304356  0.90209948  1
  Co  Co159  1  0.87309629  0.78925061  0.17496637  1
  Co  Co160  1  0.49572889  0.95497716  0.00610942  1
  Co  Co161  1  0.21680147  0.63494819  0.71258283  1
  Ni  Ni162  1  0.46268265  0.55832447  0.54914448  1
  Ni  Ni163  1  0.00486572  0.08769674  0.44265705  1
  Ni  Ni164  1  0.36315676  0.36128472  0.15912716  1
  Ni  Ni165  1  0.00547670  0.73739330  0.10740917  1
  Ni  Ni166  1  0.71307164  0.04751679  0.14392127  1
  Ni  Ni167  1  0.88558286  0.76672778  0.97929028  1
  Ni  Ni168  1  0.70689592  0.44309397  0.67433051  1
  Ni  Ni169  1  0.45101833  0.11769845  -0.01768451  1
  Ni  Ni170  1  0.30952781  0.10900235  0.88673542  1
  Ni  Ni171  1  0.74692266  0.68813617  0.47055949  1
  Ni  Ni172  1  0.77553962  0.62687873  0.26913385  1
  Ni  Ni173  1  0.04177286  0.00541321  0.05672927  1
  Ni  Ni174  1  0.59094273  0.01911063  0.26503176  1
  Ni  Ni175  1  0.42202000  0.28938591  1.00417024  1
  Ni  Ni176  1  0.51014591  0.55341651  0.39357593  1
  Ni  Ni177  1  0.23556893  0.21319117  0.42950720  1
  Ni  Ni178  1  0.88947833  0.82942111  0.47311339  1
  Ni  Ni179  1  0.51432761  0.55179261  0.22718850  1
  Ni  Ni180  1  0.20703965  0.82618759  0.91424013  1
  Ni  Ni181  1  0.40359168  0.61345999  0.95337001  1
  Ni  Ni182  1  0.14549919  0.54170486  0.56415959  1
  Ni  Ni183  1  0.81241601  0.16009884  0.58319621  1
  Ni  Ni184  1  0.21355772  0.16751666  0.20911807  1
  Ni  Ni185  1  0.64310021  0.86877497  0.32951048  1
  Ni  Ni186  1  0.87093668  0.02728130  0.67359425  1
  Ni  Ni187  1  0.32812940  0.30657772  0.53928957  1
  Ni  Ni188  1  0.34973988  0.78821681  0.38296079  1
  Ni  Ni189  1  0.99513601  0.35138008  0.58653516  1
  Ni  Ni190  1  0.54018291  0.72167150  0.62958343  1
  Ni  Ni191  1  0.57250355  0.36105091  0.61066504  1
  Ni  Ni192  1  0.50957082  0.50138176  0.86069290  1
  Ni  Ni193  1  0.29356993  0.90403558  0.70227410  1
  Ni  Ni194  1  0.39792699  0.45198173  0.30709180  1
  Ni  Ni195  1  0.40430563  0.36965823  0.85119259  1
  Ni  Ni196  1  0.05583642  0.66293429  0.46088315  1
  Ni  Ni197  1  0.24860066  0.42050322  0.63177604  1
  Ni  Ni198  1  0.24691083  0.40246003  0.81726396  1
  Ni  Ni199  1  0.25677481  0.58250107  0.03480687  1
  Ni  Ni200  1  0.90537140  0.64382633  0.38027970  1
  Ni  Ni201  1  0.85151944  0.36883192  0.34215098  1
  Ni  Ni202  1  0.54606481  0.77703464  0.22549787  1
  Ni  Ni203  1  0.69620291  0.36933419  0.41993361  1
  Ni  Ni204  1  0.19381170  0.68412777  0.28037644  1
  Ni  Ni205  1  0.19319016  0.14444295  0.76921004  1
  Ni  Ni206  1  0.74659694  0.91960286  0.45158588  1
  Ni  Ni207  1  0.44613464  0.44933645  0.00292639  1
  Ni  Ni208  1  0.86307635  0.62781865  0.71386366  1
  Ni  Ni209  1  0.69241443  0.20557980  0.34642912  1
  Ni  Ni210  1  0.71413896  0.08743990  0.47307142  1
  Ni  Ni211  1  0.79854224  0.77406398  0.78087708  1
  Ni  Ni212  1  0.47159908  0.23539237  0.17851095  1
  Ni  Ni213  1  0.67225183  0.69888736  0.86772610  1
  Ni  Ni214  1  0.95850677  0.91627989  0.75160454  1
  Ni  Ni215  1  0.71951390  0.57649881  0.98216209  1
