# generated using pymatgen
data_Ti2CoNi
_symmetry_space_group_name_H-M   'P 1'
_cell_length_a   14.60368070
_cell_length_b   14.64290870
_cell_length_c   14.68500848
_cell_angle_alpha   90.40912229
_cell_angle_beta   89.99536537
_cell_angle_gamma   89.87204149
_symmetry_Int_Tables_number   1
_chemical_formula_structural   Ti2CoNi
_chemical_formula_sum   'Ti108 Co54 Ni54'
_cell_volume   3140.15964466
_cell_formula_units_Z   54
loop_
 _symmetry_equiv_pos_site_id
 _symmetry_equiv_pos_as_xyz
  1  'x, y, z'
loop_
 _atom_site_type_symbol
 _atom_site_label
 _atom_site_symmetry_multiplicity
 _atom_site_fract_x
 _atom_site_fract_y
 _atom_site_fract_z
 _atom_site_occupancy
  Ti  Ti0  1  -0.01632493  0.00462822  0.01258452  1
  Ti  Ti1  1  0.03994807  -0.04127123  0.38885906  1
  Ti  Ti2  1  -0.02786490  0.03446780  0.61293291  1
  Ti  Ti3  1  -0.00543884  0.27518143  0.10360087  1
  Ti  Ti4  1  0.00749473  0.29142716  0.39699342  1
  Ti  Ti5  1  -0.05075592  0.35641105  0.64689910  1
  Ti  Ti6  1  -0.01568803  0.72994003  0.00592099  1
  Ti  Ti7  1  -0.10284752  0.64003734  0.28249208  1
  Ti  Ti8  1  -0.02434520  0.63929044  0.65537666  1
  Ti  Ti9  1  0.34007697  -0.01156829  0.05044975  1
  Ti  Ti10  1  0.33120105  -0.01836412  0.41904698  1
  Ti  Ti11  1  0.37677273  0.00552522  0.66970246  1
  Ti  Ti12  1  0.31477709  0.40741423  -0.02332332  1
  Ti  Ti13  1  0.31051698  0.40324920  0.37293643  1
  Ti  Ti14  1  0.27013631  0.24054298  0.63464710  1
  Ti  Ti15  1  0.29230481  0.65948543  0.04813318  1
  Ti  Ti16  1  0.31878082  0.66132941  0.25297620  1
  Ti  Ti17  1  0.31578709  0.66109150  0.65018350  1
  Ti  Ti18  1  0.65475605  0.10681204  -0.11640734  1
  Ti  Ti19  1  0.73713289  -0.02325577  0.35333932  1
  Ti  Ti20  1  0.66275188  0.02707867  0.69244964  1
  Ti  Ti21  1  0.52378095  0.37017040  0.03307759  1
  Ti  Ti22  1  0.64563933  0.44720208  0.33060732  1
  Ti  Ti23  1  0.61707162  0.39764783  0.71967711  1
  Ti  Ti24  1  0.65323179  0.67042412  0.03979270  1
  Ti  Ti25  1  0.68177865  0.70982418  0.32513667  1
  Ti  Ti26  1  0.76985050  0.65085482  0.67728446  1
  Ti  Ti27  1  -0.00058379  0.11552543  0.21202886  1
  Ti  Ti28  1  0.12745458  0.17216853  0.49461445  1
  Ti  Ti29  1  0.03961069  0.11860145  0.85930463  1
  Ti  Ti30  1  -0.03058011  0.47459016  0.17100902  1
  Ti  Ti31  1  -0.03262765  0.59950937  0.45470791  1
  Ti  Ti32  1  -0.06676087  0.56931910  0.88544829  1
  Ti  Ti33  1  0.07977700  0.85758453  0.17720488  1
  Ti  Ti34  1  0.02717217  0.80109180  0.50539925  1
  Ti  Ti35  1  0.05482307  0.85467805  0.88268130  1
  Ti  Ti36  1  0.37108138  0.21003061  0.23706811  1
  Ti  Ti37  1  0.32441011  0.20154004  0.43284889  1
  Ti  Ti38  1  0.36276122  0.17943148  0.78768851  1
  Ti  Ti39  1  0.29386729  0.47259472  0.15828410  1
  Ti  Ti40  1  0.31200522  0.51727041  0.53522913  1
  Ti  Ti41  1  0.35471711  0.47495609  0.78397622  1
  Ti  Ti42  1  0.31498873  0.87326729  0.21900765  1
  Ti  Ti43  1  0.30974941  0.81472976  0.54432042  1
  Ti  Ti44  1  0.39953790  0.72357927  0.84589322  1
  Ti  Ti45  1  0.66267637  0.12626481  0.19526416  1
  Ti  Ti46  1  0.66076561  0.13638711  0.52988694  1
  Ti  Ti47  1  0.83629493  0.17805091  0.82073246  1
  Ti  Ti48  1  0.64743262  0.51318432  0.13368804  1
  Ti  Ti49  1  0.65887577  0.59844516  0.50310908  1
  Ti  Ti50  1  0.75441006  0.50070978  0.81490657  1
  Ti  Ti51  1  0.63769182  0.89662339  0.20240152  1
  Ti  Ti52  1  0.60881388  0.87267954  0.56225250  1
  Ti  Ti53  1  0.61544159  0.89768810  0.82737081  1
  Ti  Ti54  1  0.17214554  0.04077191  0.12698408  1
  Ti  Ti55  1  0.18655444  -0.04618115  0.57961785  1
  Ti  Ti56  1  0.25304555  0.02266901  0.82020144  1
  Ti  Ti57  1  0.19749662  0.25777385  0.11040314  1
  Ti  Ti58  1  0.16448216  0.38247880  0.52782105  1
  Ti  Ti59  1  0.11175089  0.34057160  0.77944270  1
  Ti  Ti60  1  0.06698686  0.65780354  0.17747230  1
  Ti  Ti61  1  0.14989240  0.61088871  0.51107504  1
  Ti  Ti62  1  0.10083955  0.65513820  0.81895664  1
  Ti  Ti63  1  0.46882974  0.03389108  0.18582996  1
  Ti  Ti64  1  0.53573423  0.01439675  0.44644665  1
  Ti  Ti65  1  0.45630387  -0.02122147  0.89519383  1
  Ti  Ti66  1  0.46953827  0.40057763  0.22151515  1
  Ti  Ti67  1  0.52116278  0.28916309  0.53484314  1
  Ti  Ti68  1  0.48070593  0.32949003  0.84297984  1
  Ti  Ti69  1  0.48133326  0.60906849  0.16694205  1
  Ti  Ti70  1  0.39222201  0.67504140  0.43972681  1
  Ti  Ti71  1  0.61576613  0.64279702  0.80993275  1
  Ti  Ti72  1  0.81575217  0.02237630  0.11968106  1
  Ti  Ti73  1  0.85694418  0.08020491  0.47143201  1
  Ti  Ti74  1  0.79905927  -0.03765880  0.84060207  1
  Ti  Ti75  1  0.79056560  0.36144711  0.17242491  1
  Ti  Ti76  1  0.80645334  0.27959529  0.47020316  1
  Ti  Ti77  1  0.92196937  0.36817117  0.84473737  1
  Ti  Ti78  1  0.84760187  0.63729360  0.09145526  1
  Ti  Ti79  1  0.83097714  0.72376134  0.49516497  1
  Ti  Ti80  1  0.89225125  0.74842868  0.80794826  1
  Ti  Ti81  1  0.21889086  0.19011931  -0.05939897  1
  Ti  Ti82  1  0.17692772  0.15490881  0.29464207  1
  Ti  Ti83  1  0.13469393  0.10266858  0.67767070  1
  Ti  Ti84  1  0.11809449  0.44084031  -0.04646036  1
  Ti  Ti85  1  0.13755852  0.45018741  0.27425043  1
  Ti  Ti86  1  0.16717292  0.51850189  0.68305663  1
  Ti  Ti87  1  0.23778365  0.86564361  -0.07691899  1
  Ti  Ti88  1  0.18181804  0.73758552  0.35297615  1
  Ti  Ti89  1  0.21559311  0.82229644  0.73654265  1
  Ti  Ti90  1  0.49139576  0.16590068  0.03822847  1
  Ti  Ti91  1  0.54554476  0.20371889  0.34443355  1
  Ti  Ti92  1  0.54902630  0.19468970  0.69924503  1
  Ti  Ti93  1  0.50248874  0.53208706  -0.08364235  1
  Ti  Ti94  1  0.48683796  0.49907528  0.44612288  1
  Ti  Ti95  1  0.46809143  0.47198515  0.63148996  1
  Ti  Ti96  1  0.53476811  0.85884590  0.04312542  1
  Ti  Ti97  1  0.48554157  0.77392127  0.29241138  1
  Ti  Ti98  1  0.49582118  0.75086840  0.66647740  1
  Ti  Ti99  1  0.83172748  0.25570856  -0.00205519  1
  Ti  Ti100  1  0.83873635  0.17093582  0.30743480  1
  Ti  Ti101  1  0.81297102  0.18943166  0.64203296  1
  Ti  Ti102  1  0.81291130  0.47642776  0.00776291  1
  Ti  Ti103  1  0.88359052  0.44833602  0.34049716  1
  Ti  Ti104  1  0.76392206  0.44131241  0.60802544  1
  Ti  Ti105  1  0.76709174  0.82581393  0.03057811  1
  Ti  Ti106  1  0.87331905  0.83016531  0.33105677  1
  Ti  Ti107  1  0.78283854  0.86155650  0.66259935  1
  Co  Co108  1  0.91636581  0.79439205  0.62483996  1
  Co  Co109  1  0.37673937  0.31492036  0.10814484  1
  Co  Co110  1  0.50827434  0.90784887  0.70778750  1
  Co  Co111  1  0.05408363  0.90467543  0.63406619  1
  Co  Co112  1  0.67637264  0.24131792  0.78234362  1
  Co  Co113  1  0.23612545  0.71162826  0.89630508  1
  Co  Co114  1  0.14027386  0.60000836  0.95923487  1
  Co  Co115  1  0.69580941  0.13731736  0.38048119  1
  Co  Co116  1  0.51867307  0.05498013  0.77337976  1
  Co  Co117  1  0.26454791  0.60938550  0.78417660  1
  Co  Co118  1  0.75536207  0.73302172  0.18393110  1
  Co  Co119  1  0.17412606  0.30306835  0.38302243  1
  Co  Co120  1  0.80124738  0.88657395  0.20149030  1
  Co  Co121  1  0.65238205  0.30822203  0.43671290  1
  Co  Co122  1  0.18245218  0.04673832  0.41731136  1
  Co  Co123  1  0.69395306  0.37142219  0.02996559  1
  Co  Co124  1  0.59295766  0.86992102  0.37067524  1
  Co  Co125  1  0.84140375  0.56627203  0.54733458  1
  Co  Co126  1  0.79946709  0.33827955  0.72828750  1
  Co  Co127  1  0.61798429  0.40020889  0.88446479  1
  Co  Co128  1  0.50752494  0.17375549  0.87915532  1
  Co  Co129  1  0.46008145  0.60350981  0.74802256  1
  Co  Co130  1  0.36149210  0.10166922  0.93627248  1
  Co  Co131  1  0.08776011  0.29299421  0.23929725  1
  Co  Co132  1  0.20717071  0.73970068  0.17056838  1
  Co  Co133  1  0.42254738  0.09387284  0.34412100  1
  Co  Co134  1  0.36638792  0.87941692  0.79718048  1
  Co  Co135  1  0.42500111  0.50489674  0.05945398  1
  Co  Co136  1  0.58424949  0.74690379  0.16138252  1
  Co  Co137  1  0.87823478  0.51632828  0.71172810  1
  Co  Co138  1  0.58708168  0.02680856  0.29801229  1
  Co  Co139  1  0.32082563  0.14748883  0.09194006  1
  Co  Co140  1  0.46669562  0.62354933  0.57337117  1
  Co  Co141  1  0.16411616  0.55211044  0.11080861  1
  Co  Co142  1  0.33356969  0.81508698  0.37257477  1
  Co  Co143  1  0.75879597  0.44132919  0.44423312  1
  Co  Co144  1  0.52746672  0.04205896  0.60685698  1
  Co  Co145  1  0.78664368  0.58893530  0.38755391  1
  Co  Co146  1  0.30845553  0.04687250  0.23321891  1
  Co  Co147  1  0.37992812  0.25993913  0.95330301  1
  Co  Co148  1  0.68100123  0.28449496  0.60837082  1
  Co  Co149  1  0.18317105  0.19864124  0.78460405  1
  Co  Co150  1  0.45154591  0.93206594  0.31230455  1
  Co  Co151  1  0.76293646  0.33693615  0.88270538  1
  Co  Co152  1  0.25891637  0.32607740  0.24203272  1
  Co  Co153  1  0.61626200  0.56482465  0.66080952  1
  Co  Co154  1  0.62415781  0.36262173  0.17601329  1
  Co  Co155  1  0.93614859  0.90801965  0.75675473  1
  Co  Co156  1  0.66442543  0.53236198  -0.04084074  1
  Co  Co157  1  0.93218937  0.76250035  0.18792006  1
  Co  Co158  1  0.13822368  0.75200854  0.02075763  1
  Co  Co159  1  0.11238529  0.40124527  0.11204112  1
  Co  Co160  1  0.33649922  0.56846077  0.92310439  1
  Co  Co161  1  0.22104184  0.87560723  0.08313408  1
  Ni  Ni162  1  0.18639774  0.87715685  0.43397894  1
  Ni  Ni163  1  0.10110587  -0.03149781  0.77827329  1
  Ni  Ni164  1  0.27380831  0.09218607  0.55463945  1
  Ni  Ni165  1  0.42173476  0.31371828  0.68456532  1
  Ni  Ni166  1  0.06022358  0.45660448  0.42394862  1
  Ni  Ni167  1  0.38599693  0.83046116  0.97690117  1
  Ni  Ni168  1  0.17725006  0.95329035  0.28270575  1
  Ni  Ni169  1  0.53728692  0.61431067  0.33715354  1
  Ni  Ni170  1  0.61329384  0.43277470  0.53773559  1
  Ni  Ni171  1  0.72713099  0.83504197  0.45030268  1
  Ni  Ni172  1  0.41169022  0.76121250  0.12647765  1
  Ni  Ni173  1  0.70774893  0.13869836  0.03896071  1
  Ni  Ni174  1  0.04698375  0.27514849  0.93617468  1
  Ni  Ni175  1  0.89858582  0.00438544  0.30205293  1
  Ni  Ni176  1  0.09543715  0.26792346  0.63006499  1
  Ni  Ni177  1  0.97767387  0.19756669  0.72203085  1
  Ni  Ni178  1  0.47119913  0.34480399  0.38531724  1
  Ni  Ni179  1  0.24811709  0.56715507  0.38106315  1
  Ni  Ni180  1  0.36469574  0.35094364  0.52579394  1
  Ni  Ni181  1  0.73037790  0.77476421  0.80539672  1
  Ni  Ni182  1  0.88617771  0.91025074  0.48188836  1
  Ni  Ni183  1  0.78079403  0.65271414  0.91574991  1
  Ni  Ni184  1  0.84064858  0.18963555  0.14781506  1
  Ni  Ni185  1  0.53169768  0.23823970  0.17834761  1
  Ni  Ni186  1  0.84102349  0.08218560  0.95581761  1
  Ni  Ni187  1  0.27645561  0.33045367  0.82651537  1
  Ni  Ni188  1  0.56236737  0.73210312  0.46958898  1
  Ni  Ni189  1  0.07618469  0.59309990  0.33200936  1
  Ni  Ni190  1  0.04616346  0.77917075  0.72526327  1
  Ni  Ni191  1  0.39882376  0.52914789  0.30571813  1
  Ni  Ni192  1  0.96139894  0.40296857  1.00633499  1
  Ni  Ni193  1  0.57419590  1.02397908  0.05387521  1
  Ni  Ni194  1  0.70683653  0.97303646  0.98501047  1
  Ni  Ni195  1  0.27701872  0.39833301  0.66103671  1
  Ni  Ni196  1  0.74481982  0.98132004  0.54467972  1
  Ni  Ni197  1  0.41726097  0.16809262  0.58654376  1
  Ni  Ni198  1  0.92619808  0.30307864  0.25236527  1
  Ni  Ni199  1  0.91565183  0.41164496  0.49655500  1
  Ni  Ni200  1  0.78795526  0.53132925  0.22020823  1
  Ni  Ni201  1  0.69729080  0.27150541  0.28420951  1
  Ni  Ni202  1  0.44519677  0.90359858  0.55029314  1
  Ni  Ni203  1  1.00194667  0.56158337  0.03935021  1
  Ni  Ni204  1  0.92057921  0.87770789  0.08661834  1
  Ni  Ni205  1  0.07366277  0.14295525  0.03385731  1
  Ni  Ni206  1  0.96258494  0.20221677  0.54726966  1
  Ni  Ni207  1  0.15781995  0.75797840  0.59359096  1
  Ni  Ni208  1  0.14718977  1.00760036  0.95660319  1
  Ni  Ni209  1  0.89735783  0.87062647  0.92633974  1
  Ni  Ni210  1  0.02850115  0.49124001  0.76943674  1
  Ni  Ni211  1  0.02394047  0.49715733  0.58658285  1
  Ni  Ni212  1  1.00053193  0.12077121  0.38930734  1
  Ni  Ni213  1  0.83020480  0.02772730  0.69035470  1
  Ni  Ni214  1  0.01749954  0.75012766  0.34075469  1
  Ni  Ni215  1  0.60989559  0.76812876  0.92093536  1
