# generated using pymatgen
data_Ti2CoNi
_symmetry_space_group_name_H-M   'P 1'
_cell_length_a   14.63757379
_cell_length_b   14.60248417
_cell_length_c   14.69161637
_cell_angle_alpha   90.04621235
_cell_angle_beta   89.87664329
_cell_angle_gamma   89.93919808
_symmetry_Int_Tables_number   1
_chemical_formula_structural   Ti2CoNi
_chemical_formula_sum   'Ti108 Co54 Ni54'
_cell_volume   3140.24858108
_cell_formula_units_Z   54
loop_
 _symmetry_equiv_pos_site_id
 _symmetry_equiv_pos_as_xyz
  1  'x, y, z'
loop_
 _atom_site_type_symbol
 _atom_site_label
 _atom_site_symmetry_multiplicity
 _atom_site_fract_x
 _atom_site_fract_y
 _atom_site_fract_z
 _atom_site_occupancy
  Ti  Ti0  1  -0.00652927  0.09250688  0.09101532  1
  Ti  Ti1  1  0.02412988  -0.05993794  0.29843118  1
  Ti  Ti2  1  -0.05060177  0.05244654  0.65288575  1
  Ti  Ti3  1  -0.03694864  0.29327962  0.06781235  1
  Ti  Ti4  1  -0.08042561  0.34788676  0.28651896  1
  Ti  Ti5  1  0.01775197  0.38767834  0.71537241  1
  Ti  Ti6  1  -0.00891211  0.64788307  -0.00116361  1
  Ti  Ti7  1  0.01185581  0.64935713  0.34568671  1
  Ti  Ti8  1  0.01584361  0.59489108  0.68407969  1
  Ti  Ti9  1  0.27072372  0.00285926  0.07980815  1
  Ti  Ti10  1  0.41100772  -0.04182255  0.35537525  1
  Ti  Ti11  1  0.35412967  -0.01922100  0.63038397  1
  Ti  Ti12  1  0.32243605  0.38390334  -0.03048534  1
  Ti  Ti13  1  0.39423970  0.33182843  0.27510261  1
  Ti  Ti14  1  0.34717449  0.30808372  0.67575479  1
  Ti  Ti15  1  0.29772271  0.68137246  0.03132743  1
  Ti  Ti16  1  0.23910254  0.63065489  0.30642074  1
  Ti  Ti17  1  0.38941873  0.59728727  0.66526333  1
  Ti  Ti18  1  0.74400364  -0.03456832  0.01255769  1
  Ti  Ti19  1  0.64595758  0.02160128  0.34747342  1
  Ti  Ti20  1  0.60870054  0.01551259  0.67504767  1
  Ti  Ti21  1  0.62783269  0.34174332  -0.04797198  1
  Ti  Ti22  1  0.58886441  0.32188082  0.35096612  1
  Ti  Ti23  1  0.62601281  0.27918690  0.72557050  1
  Ti  Ti24  1  0.61376570  0.66696886  -0.02443869  1
  Ti  Ti25  1  0.68227363  0.76954502  0.37630850  1
  Ti  Ti26  1  0.68533796  0.68200747  0.75811866  1
  Ti  Ti27  1  0.04841265  0.22145397  0.24956409  1
  Ti  Ti28  1  0.05493979  0.15621056  0.53047747  1
  Ti  Ti29  1  0.00787826  0.17936188  0.80222605  1
  Ti  Ti30  1  -0.02978794  0.48215928  0.15240788  1
  Ti  Ti31  1  0.03957277  0.43756806  0.44583447  1
  Ti  Ti32  1  -0.08081751  0.52570321  0.84496626  1
  Ti  Ti33  1  0.02788151  0.83205743  0.11068403  1
  Ti  Ti34  1  0.01086540  0.78148109  0.62198246  1
  Ti  Ti35  1  0.02397225  0.92173878  0.81044418  1
  Ti  Ti36  1  0.30209545  0.15645899  0.22744676  1
  Ti  Ti37  1  0.24587685  0.18152707  0.53490449  1
  Ti  Ti38  1  0.43734506  0.10618260  0.91183538  1
  Ti  Ti39  1  0.25646875  0.44823271  0.18223870  1
  Ti  Ti40  1  0.33269458  0.55843690  0.46803781  1
  Ti  Ti41  1  0.32074523  0.55580022  0.86443649  1
  Ti  Ti42  1  0.36251589  0.84212476  0.16992167  1
  Ti  Ti43  1  0.32734357  0.77932786  0.42475686  1
  Ti  Ti44  1  0.28441898  0.86523685  0.81618187  1
  Ti  Ti45  1  0.74348714  0.09081517  0.17309681  1
  Ti  Ti46  1  0.71111509  0.19466656  0.57806486  1
  Ti  Ti47  1  0.69738526  0.11210319  0.82594522  1
  Ti  Ti48  1  0.67029171  0.58246356  0.15126523  1
  Ti  Ti49  1  0.66796006  0.47656135  0.50303284  1
  Ti  Ti50  1  0.71987674  0.44509366  0.79252153  1
  Ti  Ti51  1  0.69460990  0.88367547  0.20890003  1
  Ti  Ti52  1  0.61883341  0.82731384  0.56141435  1
  Ti  Ti53  1  0.65649788  0.84842248  0.89236605  1
  Ti  Ti54  1  0.13475259  0.04138558  0.19964544  1
  Ti  Ti55  1  0.10641337  -0.05687854  0.47477278  1
  Ti  Ti56  1  0.15900078  0.08107489  0.83763250  1
  Ti  Ti57  1  0.13967565  0.37550305  0.06351693  1
  Ti  Ti58  1  0.23813638  0.37313176  0.53083497  1
  Ti  Ti59  1  0.10520998  0.34377304  0.88551446  1
  Ti  Ti60  1  0.13426625  0.58525183  0.13335821  1
  Ti  Ti61  1  0.14758809  0.71543146  0.48871133  1
  Ti  Ti62  1  0.21026805  0.66319453  0.74905191  1
  Ti  Ti63  1  0.43823583  0.02980062  0.15393821  1
  Ti  Ti64  1  0.51658397  0.04265423  0.50241057  1
  Ti  Ti65  1  0.47948581  -0.06520622  0.81684134  1
  Ti  Ti66  1  0.54352776  0.37230906  0.13700172  1
  Ti  Ti67  1  0.44157591  0.26106392  0.49363955  1
  Ti  Ti68  1  0.44937343  0.30474970  0.84277477  1
  Ti  Ti69  1  0.39955562  0.62037110  0.18417660  1
  Ti  Ti70  1  0.47559808  0.71090308  0.50831890  1
  Ti  Ti71  1  0.51997589  0.59459082  0.80476438  1
  Ti  Ti72  1  0.87726747  -0.05274936  0.17280984  1
  Ti  Ti73  1  0.80700127  -0.01874421  0.51784024  1
  Ti  Ti74  1  0.85290753  0.01275775  0.83172893  1
  Ti  Ti75  1  0.77805255  0.38340301  0.13166147  1
  Ti  Ti76  1  0.88241313  0.31526982  0.52334496  1
  Ti  Ti77  1  0.90710422  0.33316288  0.87844879  1
  Ti  Ti78  1  0.80924541  0.70853137  0.23399611  1
  Ti  Ti79  1  0.81351283  0.62368089  0.44307472  1
  Ti  Ti80  1  0.82036401  0.70486385  0.89243440  1
  Ti  Ti81  1  0.23933062  0.22190863  -0.01853055  1
  Ti  Ti82  1  0.14754354  0.11318215  0.37501733  1
  Ti  Ti83  1  0.16830849  0.25414072  0.70893041  1
  Ti  Ti84  1  0.13253115  0.53874081  -0.06965904  1
  Ti  Ti85  1  0.21266336  0.40789761  0.35081875  1
  Ti  Ti86  1  0.17942497  0.54490390  0.59725396  1
  Ti  Ti87  1  0.14533936  0.76631011  -0.08106557  1
  Ti  Ti88  1  0.19782189  0.84620915  0.31136129  1
  Ti  Ti89  1  0.21995808  0.84321785  0.61392175  1
  Ti  Ti90  1  0.56700895  0.13894853  0.04344198  1
  Ti  Ti91  1  0.48064307  0.14707760  0.32488647  1
  Ti  Ti92  1  0.45348512  0.14110984  0.72434838  1
  Ti  Ti93  1  0.49119925  0.47807573  -0.03909955  1
  Ti  Ti94  1  0.52922710  0.50657536  0.34025462  1
  Ti  Ti95  1  0.52002655  0.41114716  0.63751087  1
  Ti  Ti96  1  0.49571815  0.86768156  0.01379946  1
  Ti  Ti97  1  0.50006770  0.77682539  0.29451224  1
  Ti  Ti98  1  0.43436664  0.79822251  0.68325731  1
  Ti  Ti99  1  0.76459479  0.21665311  0.01232669  1
  Ti  Ti100  1  0.83891616  0.17995474  0.33164991  1
  Ti  Ti101  1  0.83369723  0.22845537  0.71866631  1
  Ti  Ti102  1  0.82688623  0.56537477  0.04194213  1
  Ti  Ti103  1  0.76831610  0.43849175  0.35079946  1
  Ti  Ti104  1  0.81425042  0.54980550  0.64991371  1
  Ti  Ti105  1  0.84190578  0.78309134  0.06156709  1
  Ti  Ti106  1  0.86759027  0.85304197  0.37083921  1
  Ti  Ti107  1  0.82065847  0.75132347  0.63480251  1
  Co  Co108  1  0.87751188  0.14875217  0.53909141  1
  Co  Co109  1  0.37843091  0.14882806  0.05713451  1
  Co  Co110  1  0.73985235  0.29376362  0.43497951  1
  Co  Co111  1  0.46547405  0.28305635  1.00404492  1
  Co  Co112  1  0.85717543  0.39755922  0.71669183  1
  Co  Co113  1  0.33242291  0.29830177  0.11392131  1
  Co  Co114  1  0.19975032  0.03135919  0.57259021  1
  Co  Co115  1  0.94600152  0.89564347  0.51864487  1
  Co  Co116  1  0.11906529  0.50354118  0.77690148  1
  Co  Co117  1  0.49471434  0.73215489  0.10850063  1
  Co  Co118  1  0.39095191  0.12754537  0.57500496  1
  Co  Co119  1  0.97578060  0.21341733  0.40271656  1
  Co  Co120  1  0.86162095  0.21293049  0.16308003  1
  Co  Co121  1  0.55215091  0.68775143  0.66017746  1
  Co  Co122  1  0.52456159  0.75778891  0.85021316  1
  Co  Co123  1  0.36326083  0.94213114  0.94462557  1
  Co  Co124  1  0.60229744  0.32058216  0.53004253  1
  Co  Co125  1  0.96105213  0.08395856  0.25879289  1
  Co  Co126  1  0.56210483  0.42872045  0.80353889  1
  Co  Co127  1  0.47280817  0.21807969  0.17278859  1
  Co  Co128  1  0.11023483  0.10381463  0.67975100  1
  Co  Co129  1  0.98256646  0.23041494  0.65378078  1
  Co  Co130  1  0.89754511  0.90324542  0.68517628  1
  Co  Co131  1  0.84917964  0.07778417  0.03096197  1
  Co  Co132  1  0.26371791  0.48709238  0.71122647  1
  Co  Co133  1  0.36580969  0.70159999  0.79870198  1
  Co  Co134  1  0.36796443  0.45232083  0.58993971  1
  Co  Co135  1  0.58343293  0.09543515  0.20618201  1
  Co  Co136  1  0.34935329  0.10793699  0.41042241  1
  Co  Co137  1  0.52428544  0.56847409  0.09256252  1
  Co  Co138  1  0.21311789  0.28888051  0.22845119  1
  Co  Co139  1  0.17460233  0.88189463  0.15775035  1
  Co  Co140  1  0.73274899  0.37206169  0.61364758  1
  Co  Co141  1  0.06235722  0.93521625  0.63528927  1
  Co  Co142  1  0.13815572  0.72991759  0.07213718  1
  Co  Co143  1  0.64955239  0.44321955  0.23758713  1
  Co  Co144  1  0.89667320  0.67902470  0.75760423  1
  Co  Co145  1  0.73371195  0.90726880  0.64083430  1
  Co  Co146  1  0.04793318  0.80767301  0.39832251  1
  Co  Co147  1  0.11958286  0.28222517  0.41412086  1
  Co  Co148  1  0.45301239  0.64591841  0.96180840  1
  Co  Co149  1  0.65443438  0.48343223  0.02531920  1
  Co  Co150  1  0.76962681  0.83156266  0.77315559  1
  Co  Co151  1  0.04966891  0.65546260  0.83534452  1
  Co  Co152  1  0.97726027  0.78693003  0.91903553  1
  Co  Co153  1  0.74946250  0.27789839  0.85408710  1
  Co  Co154  1  0.33639322  0.02650626  0.79058755  1
  Co  Co155  1  0.77981889  0.80782902  0.49853313  1
  Co  Co156  1  0.25560769  0.84610481  0.02359614  1
  Co  Co157  1  0.62834291  0.72213833  0.21895564  1
  Co  Co158  1  0.24829447  0.73172293  0.18672189  1
  Co  Co159  1  0.54868636  0.17738254  0.60164251  1
  Co  Co160  1  0.18784995  0.96228467  0.72709635  1
  Co  Co161  1  0.07838591  0.37639922  0.21070247  1
  Ni  Ni162  1  0.57560894  0.19777859  0.88281429  1
  Ni  Ni163  1  0.79804266  0.41172743  0.96747245  1
  Ni  Ni164  1  0.59944125  0.97440625  0.09109334  1
  Ni  Ni165  1  0.28069196  0.07434637  0.93605213  1
  Ni  Ni166  1  0.82898647  0.53842756  0.22010859  1
  Ni  Ni167  1  0.02246655  0.59819802  0.51653824  1
  Ni  Ni168  1  0.06269025  0.19844537  0.96358265  1
  Ni  Ni169  1  0.30490886  0.20237973  0.81547987  1
  Ni  Ni170  1  0.07791610  0.33210517  0.56851592  1
  Ni  Ni171  1  0.77817075  0.06310904  0.67534772  1
  Ni  Ni172  1  0.92302168  0.50572175  0.35496623  1
  Ni  Ni173  1  0.93206492  0.73040470  0.48363603  1
  Ni  Ni174  1  0.74742714  0.11349315  0.44003442  1
  Ni  Ni175  1  0.40332707  0.40670104  0.43088987  1
  Ni  Ni176  1  0.67232345  0.79196941  0.07045778  1
  Ni  Ni177  1  -0.04668127  0.04269774  0.42512181  1
  Ni  Ni178  1  0.42004373  0.64583377  0.35492760  1
  Ni  Ni179  1  0.40499193  0.45365354  0.11522293  1
  Ni  Ni180  1  0.28323971  0.93878871  0.46682751  1
  Ni  Ni181  1  0.29950042  0.70102910  0.57863003  1
  Ni  Ni182  1  0.81413690  1.00553298  0.31878836  1
  Ni  Ni183  1  0.25634879  0.36799056  0.81757165  1
  Ni  Ni184  1  0.36236496  0.50062411  0.30202129  1
  Ni  Ni185  1  0.56354454  0.88750453  0.40926372  1
  Ni  Ni186  1  0.73342951  0.56275734  0.90103298  1
  Ni  Ni187  1  0.58674175  0.64011565  0.41500654  1
  Ni  Ni188  1  0.87585796  0.16943138  0.90028603  1
  Ni  Ni189  1  0.60066842  0.18058048  0.43919341  1
  Ni  Ni190  1  0.13733345  0.19488848  0.11086652  1
  Ni  Ni191  1  0.95157973  0.65296072  0.15840645  1
  Ni  Ni192  1  -0.01360623  0.45406471  -0.01358892  1
  Ni  Ni193  1  0.51702157  0.55072132  0.54110851  1
  Ni  Ni194  1  0.43861094  0.87936619  0.52066366  1
  Ni  Ni195  1  0.68671937  0.65844287  0.55308519  1
  Ni  Ni196  1  0.73582175  0.29401798  0.26409859  1
  Ni  Ni197  1  0.37643562  0.78463152  0.93081778  1
  Ni  Ni198  1  0.70056814  0.59330170  0.31644931  1
  Ni  Ni199  1  0.94665680  0.46764308  0.58581744  1
  Ni  Ni200  1  0.15968735  0.55597645  0.43100330  1
  Ni  Ni201  1  0.59305241  0.01240756  0.92013621  1
  Ni  Ni202  1  0.63713853  0.53706979  0.66670836  1
  Ni  Ni203  1  -0.00161361  1.05243389  0.91803011  1
  Ni  Ni204  1  0.60218314  0.84461007  0.72921309  1
  Ni  Ni205  1  0.40655227  0.44928298  0.77081674  1
  Ni  Ni206  1  0.64845588  0.24275065  0.13995654  1
  Ni  Ni207  1  0.26596749  0.52027809  0.03470153  1
  Ni  Ni208  1  0.83726059  0.87021044  0.90897535  1
  Ni  Ni209  1  0.95972014  0.78533238  0.25309206  1
  Ni  Ni210  1  0.09730766  0.51612642  0.28399920  1
  Ni  Ni211  1  0.25855159  0.00273091  0.30920596  1
  Ni  Ni212  1  0.53728341  0.93455509  0.24399437  1
  Ni  Ni213  1  0.11818274  0.80113862  0.74903298  1
  Ni  Ni214  1  0.27955153  0.25436896  0.38190697  1
  Ni  Ni215  1  0.94002568  0.93335838  0.01221563  1
