# generated using pymatgen
data_Ti2CoNi
_symmetry_space_group_name_H-M   'P 1'
_cell_length_a   14.66695977
_cell_length_b   14.67005712
_cell_length_c   14.62299418
_cell_angle_alpha   90.00719286
_cell_angle_beta   89.93553025
_cell_angle_gamma   90.05253174
_symmetry_Int_Tables_number   1
_chemical_formula_structural   Ti2CoNi
_chemical_formula_sum   'Ti108 Co54 Ni54'
_cell_volume   3146.35521721
_cell_formula_units_Z   54
loop_
 _symmetry_equiv_pos_site_id
 _symmetry_equiv_pos_as_xyz
  1  'x, y, z'
loop_
 _atom_site_type_symbol
 _atom_site_label
 _atom_site_symmetry_multiplicity
 _atom_site_fract_x
 _atom_site_fract_y
 _atom_site_fract_z
 _atom_site_occupancy
  Ti  Ti0  1  -0.03007142  0.00127662  -0.05882542  1
  Ti  Ti1  1  0.06588749  -0.02894523  0.40052413  1
  Ti  Ti2  1  -0.00221902  0.01060520  0.72765207  1
  Ti  Ti3  1  0.04841645  0.38502403  -0.02250039  1
  Ti  Ti4  1  -0.03063421  0.30294477  0.34127463  1
  Ti  Ti5  1  -0.02877105  0.32349552  0.56483601  1
  Ti  Ti6  1  0.02993540  0.71650070  0.05880620  1
  Ti  Ti7  1  -0.02327142  0.70888846  0.26179321  1
  Ti  Ti8  1  -0.03405101  0.66392805  0.69906207  1
  Ti  Ti9  1  0.33857913  0.01989498  -0.04129460  1
  Ti  Ti10  1  0.29226086  0.03725105  0.37672991  1
  Ti  Ti11  1  0.30527530  0.02787195  0.71893929  1
  Ti  Ti12  1  0.27855614  0.36061665  -0.01902885  1
  Ti  Ti13  1  0.28913755  0.36935041  0.34614587  1
  Ti  Ti14  1  0.27539341  0.25463269  0.65348159  1
  Ti  Ti15  1  0.35259415  0.69514292  -0.06496582  1
  Ti  Ti16  1  0.30861878  0.60428277  0.28505212  1
  Ti  Ti17  1  0.36469005  0.61185332  0.65090409  1
  Ti  Ti18  1  0.65258589  -0.04616903  0.04646649  1
  Ti  Ti19  1  0.63785036  -0.01359305  0.36237120  1
  Ti  Ti20  1  0.72218582  -0.07364753  0.69869007  1
  Ti  Ti21  1  0.60597172  0.34331523  -0.00251693  1
  Ti  Ti22  1  0.70155354  0.33973524  0.31615424  1
  Ti  Ti23  1  0.65795568  0.33057497  0.68911970  1
  Ti  Ti24  1  0.59259889  0.73792991  0.04110498  1
  Ti  Ti25  1  0.61492800  0.72624616  0.36110834  1
  Ti  Ti26  1  0.72360011  0.69184599  0.71501590  1
  Ti  Ti27  1  -0.01316990  0.19277806  0.18234540  1
  Ti  Ti28  1  -0.00292285  0.14370990  0.46229254  1
  Ti  Ti29  1  -0.00674007  0.20380419  0.90582517  1
  Ti  Ti30  1  -0.01549061  0.53967134  0.12590809  1
  Ti  Ti31  1  -0.01886039  0.49474980  0.45774688  1
  Ti  Ti32  1  -0.01774327  0.42727851  0.77699447  1
  Ti  Ti33  1  -0.02337794  0.89130986  0.14129797  1
  Ti  Ti34  1  0.00495920  0.78906271  0.47365066  1
  Ti  Ti35  1  0.01942722  0.83736949  0.83244256  1
  Ti  Ti36  1  0.34604504  0.26620794  0.17159197  1
  Ti  Ti37  1  0.38405831  0.12768105  0.52310430  1
  Ti  Ti38  1  0.41141398  0.14670063  0.83960326  1
  Ti  Ti39  1  0.36233398  0.53507714  0.09513072  1
  Ti  Ti40  1  0.35169472  0.49178734  0.50200632  1
  Ti  Ti41  1  0.31464533  0.45824373  0.80751048  1
  Ti  Ti42  1  0.32146720  0.90625677  0.23850071  1
  Ti  Ti43  1  0.31561036  0.79675287  0.55752687  1
  Ti  Ti44  1  0.38032645  0.87036274  0.85904184  1
  Ti  Ti45  1  0.68136593  0.16751521  0.15796855  1
  Ti  Ti46  1  0.58344675  0.16898644  0.42979196  1
  Ti  Ti47  1  0.65270865  0.12348008  0.72250593  1
  Ti  Ti48  1  0.66595213  0.48647170  0.14247225  1
  Ti  Ti49  1  0.68086371  0.50688336  0.42895643  1
  Ti  Ti50  1  0.65441927  0.54003438  0.88639018  1
  Ti  Ti51  1  0.69990291  0.78123420  0.19299711  1
  Ti  Ti52  1  0.73258713  0.84681695  0.50064664  1
  Ti  Ti53  1  0.72330963  0.83487655  0.88172035  1
  Ti  Ti54  1  0.13748699  -0.01229313  0.21210789  1
  Ti  Ti55  1  0.20383475  -0.04801037  0.55087833  1
  Ti  Ti56  1  0.17901930  -0.05510431  0.84736573  1
  Ti  Ti57  1  0.14969470  0.25782763  0.09031871  1
  Ti  Ti58  1  0.18218107  0.37333876  0.51947751  1
  Ti  Ti59  1  0.15330859  0.34411301  0.80867707  1
  Ti  Ti60  1  0.23174244  0.67579426  0.09579643  1
  Ti  Ti61  1  0.17711821  0.65422662  0.51512685  1
  Ti  Ti62  1  0.13886140  0.65043070  0.92160112  1
  Ti  Ti63  1  0.46998116  0.01833810  0.11642394  1
  Ti  Ti64  1  0.54708648  -0.07118039  0.57919762  1
  Ti  Ti65  1  0.51976496  -0.02378429  0.77498156  1
  Ti  Ti66  1  0.53060684  0.34982679  0.17973074  1
  Ti  Ti67  1  0.55974712  0.37237893  0.48424351  1
  Ti  Ti68  1  0.44631583  0.32320678  0.88297554  1
  Ti  Ti69  1  0.52225302  0.60789036  0.20922686  1
  Ti  Ti70  1  0.48347703  0.71829121  0.52396507  1
  Ti  Ti71  1  0.54006641  0.70223395  0.85244298  1
  Ti  Ti72  1  0.84437481  0.04614413  0.13010640  1
  Ti  Ti73  1  0.85092658  0.04555902  0.53783133  1
  Ti  Ti74  1  0.81107493  0.10691564  0.85723043  1
  Ti  Ti75  1  0.86961446  0.38639236  0.18491197  1
  Ti  Ti76  1  0.76909227  0.36368471  0.52713528  1
  Ti  Ti77  1  0.77507841  0.37570525  0.82136095  1
  Ti  Ti78  1  0.80288870  0.61193098  0.15306489  1
  Ti  Ti79  1  0.77814933  0.67508333  0.45115389  1
  Ti  Ti80  1  0.85276737  0.58425580  0.85019214  1
  Ti  Ti81  1  0.16904525  0.07622828  0.01982090  1
  Ti  Ti82  1  0.14763541  0.19668719  0.34105623  1
  Ti  Ti83  1  0.11268127  0.17053070  0.72083573  1
  Ti  Ti84  1  0.16142897  0.50219691  0.06095901  1
  Ti  Ti85  1  0.15013061  0.48802185  0.25528286  1
  Ti  Ti86  1  0.16491683  0.53353502  0.68538801  1
  Ti  Ti87  1  0.23303774  0.85178056  0.02613286  1
  Ti  Ti88  1  0.17310155  0.76594406  0.32743361  1
  Ti  Ti89  1  0.10861813  0.82351157  0.65643759  1
  Ti  Ti90  1  0.57182688  0.15101950  -0.03801304  1
  Ti  Ti91  1  0.45559025  0.11525619  0.28816662  1
  Ti  Ti92  1  0.50964428  0.24456718  0.61634071  1
  Ti  Ti93  1  0.46953730  0.50030842  -0.06820335  1
  Ti  Ti94  1  0.48854377  0.57227219  0.39056147  1
  Ti  Ti95  1  0.51338548  0.46472632  0.72375844  1
  Ti  Ti96  1  0.42920270  0.85018364  0.06194088  1
  Ti  Ti97  1  0.41059206  0.78025635  0.35122446  1
  Ti  Ti98  1  0.46059186  0.79755837  0.69396236  1
  Ti  Ti99  1  0.78768740  0.26552129  0.00185199  1
  Ti  Ti100  1  0.84523839  0.10119374  0.33030301  1
  Ti  Ti101  1  0.82845550  0.22220861  0.67068596  1
  Ti  Ti102  1  0.83203594  0.46537280  0.00656309  1
  Ti  Ti103  1  0.83485638  0.53356455  0.31455338  1
  Ti  Ti104  1  0.85528905  0.48175901  0.65495906  1
  Ti  Ti105  1  0.88902060  0.81893931  -0.03037863  1
  Ti  Ti106  1  0.84962120  0.87553398  0.29695572  1
  Ti  Ti107  1  0.89740832  0.86590958  0.64374469  1
  Co  Co108  1  0.73479494  0.12256353  0.43445067  1
  Co  Co109  1  0.57486100  0.45984732  0.30361565  1
  Co  Co110  1  0.28501082  0.55034474  -0.04638918  1
  Co  Co111  1  0.35698373  0.12536713  0.10412469  1
  Co  Co112  1  0.72314422  0.11221154  -0.00167732  1
  Co  Co113  1  0.80525770  0.71291796  0.29647334  1
  Co  Co114  1  0.59153477  0.05196432  0.21709313  1
  Co  Co115  1  0.84610561  0.39064613  0.38736179  1
  Co  Co116  1  0.54269189  0.23276465  0.78327040  1
  Co  Co117  1  0.80320350  0.97543363  0.96292471  1
  Co  Co118  1  0.29676652  0.19898179  -0.02120800  1
  Co  Co119  1  0.88090162  0.63987700  0.01059959  1
  Co  Co120  1  0.21707861  0.78985834  0.85690582  1
  Co  Co121  1  0.22303944  0.70462812  0.66577993  1
  Co  Co122  1  0.15552112  0.48391693  0.88440377  1
  Co  Co123  1  0.03708926  0.38136941  0.15285018  1
  Co  Co124  1  0.08521029  0.07843788  0.85617689  1
  Co  Co125  1  0.79842301  0.88797200  0.10457056  1
  Co  Co126  1  0.51902981  0.18540835  0.15097132  1
  Co  Co127  1  0.85694293  0.22229893  0.48610485  1
  Co  Co128  1  0.25593194  0.22450925  0.47562812  1
  Co  Co129  1  0.43396862  0.39640729  0.05776212  1
  Co  Co130  1  0.24827042  0.61103385  0.80251023  1
  Co  Co131  1  0.97438138  0.69045069  0.88313107  1
  Co  Co132  1  0.47449115  0.94075542  0.28605265  1
  Co  Co133  1  0.29287238  0.26563903  0.82490394  1
  Co  Co134  1  0.58950642  0.89576046  0.18137776  1
  Co  Co135  1  0.15148496  0.22758667  0.91985540  1
  Co  Co136  1  1.04038086  0.56477998  0.80102358  1
  Co  Co137  1  0.23094954  0.10813866  0.59812622  1
  Co  Co138  1  0.27327485  0.86829949  0.70259851  1
  Co  Co139  1  0.10838609  0.34950942  0.65970880  1
  Co  Co140  1  0.43953789  0.40928306  0.38550269  1
  Co  Co141  1  0.15252002  0.31175923  0.23952519  1
  Co  Co142  1  0.75236636  0.74980262  0.02885129  1
  Co  Co143  1  0.96592091  0.14334682  0.62570855  1
  Co  Co144  1  0.10686229  0.70631989  0.77118576  1
  Co  Co145  1  0.00094444  0.54178766  0.95996454  1
  Co  Co146  1  0.44548984  0.24027843  1.02219445  1
  Co  Co147  1  0.34514787  0.73528853  0.77190170  1
  Co  Co148  1  0.85161641  0.76570586  0.78205432  1
  Co  Co149  1  0.87839014  0.75507853  0.13901537  1
  Co  Co150  1  0.71887505  0.59701118  1.01217688  1
  Co  Co151  1  0.60419294  0.83634663  0.76350299  1
  Co  Co152  1  0.86699014  0.92710981  0.81379264  1
  Co  Co153  1  0.89177426  0.13771082  1.01541942  1
  Co  Co154  1  0.60500669  0.38943671  0.84084923  1
  Co  Co155  1  0.24204355  0.10569903  0.85177149  1
  Co  Co156  1  0.16269978  0.08710964  0.45953432  1
  Co  Co157  1  0.94234624  0.29114268  0.05879387  1
  Co  Co158  1  0.68893825  0.23118132  0.85647278  1
  Co  Co159  1  0.28484415  0.98265537  0.10966915  1
  Co  Co160  1  0.11334679  0.21918397  0.55216332  1
  Co  Co161  1  0.03169827  0.85924767  0.29635457  1
  Ni  Ni162  1  0.54617832  0.85896771  0.42651842  1
  Ni  Ni163  1  0.42701210  0.59643354  0.80177914  1
  Ni  Ni164  1  0.41039706  0.32806594  0.71600491  1
  Ni  Ni165  1  0.02289060  0.95177585  0.56447689  1
  Ni  Ni166  1  0.32874732  0.66170450  0.44300977  1
  Ni  Ni167  1  0.82027040  0.23799758  0.23809149  1
  Ni  Ni168  1  1.02153569  0.48889827  0.61938751  1
  Ni  Ni169  1  0.62132022  0.77601018  0.61056038  1
  Ni  Ni170  1  0.53364026  0.28682545  0.32844849  1
  Ni  Ni171  1  0.43347739  0.68285810  0.08057268  1
  Ni  Ni172  1  0.47526597  0.01388955  0.43686526  1
  Ni  Ni173  1  0.68829649  0.21300079  0.56539138  1
  Ni  Ni174  1  0.49515074  0.77516386  0.20681902  1
  Ni  Ni175  1  0.75539882  0.58276273  0.58784269  1
  Ni  Ni176  1  0.63734022  0.47247383  0.59639012  1
  Ni  Ni177  1  0.32399726  0.20515976  0.33147298  1
  Ni  Ni178  1  0.37907838  0.32460401  0.52738333  1
  Ni  Ni179  1  0.08496017  0.61716707  0.37050825  1
  Ni  Ni180  1  0.90718952  0.34612943  0.90183158  1
  Ni  Ni181  1  0.49632148  0.54042820  0.56062745  1
  Ni  Ni182  1  0.38382670  0.95257224  0.58906253  1
  Ni  Ni183  1  0.07282604  0.88478796  1.00352934  1
  Ni  Ni184  1  0.56855802  0.09164334  0.57133667  1
  Ni  Ni185  1  0.89827454  0.91362556  0.45072946  1
  Ni  Ni186  1  0.55732705  0.57101840  0.04516061  1
  Ni  Ni187  1  0.10352305  0.39155814  0.38163724  1
  Ni  Ni188  1  0.32965603  0.75087865  0.19456891  1
  Ni  Ni189  1  0.28936985  0.42338195  0.64695633  1
  Ni  Ni190  1  0.26865192  0.40883876  0.16089272  1
  Ni  Ni191  1  0.55401272  0.85570904  0.92422923  1
  Ni  Ni192  1  0.45694877  0.09797409  0.68361727  1
  Ni  Ni193  1  0.93006006  0.64995707  0.40708041  1
  Ni  Ni194  1  0.83477492  0.05063368  0.70200476  1
  Ni  Ni195  1  0.11570246  0.64048474  0.20257275  1
  Ni  Ni196  1  0.70734390  0.50919536  0.73688184  1
  Ni  Ni197  1  0.65984700  0.00010208  0.87021390  1
  Ni  Ni198  1  0.21697151  0.52370013  0.41090977  1
  Ni  Ni199  1  0.97577312  0.02271068  0.25886192  1
  Ni  Ni200  1  0.69430640  1.00292399  0.53786068  1
  Ni  Ni201  1  0.01578554  0.63950160  0.54524308  1
  Ni  Ni202  1  0.97071041  0.26569536  0.74681648  1
  Ni  Ni203  1  0.71282321  0.33086448  0.13893274  1
  Ni  Ni204  1  0.23346586  0.12478467  0.20906859  1
  Ni  Ni205  1  0.85161806  0.72025442  0.59129468  1
  Ni  Ni206  1  0.49933096  1.00302264  0.94084160  1
  Ni  Ni207  1  0.13748483  0.81221206  0.16733651  1
  Ni  Ni208  1  0.02397960  0.05334288  0.09898260  1
  Ni  Ni209  1  0.67922944  0.59616879  0.28029098  1
  Ni  Ni210  1  0.40784990  0.46828119  0.24046565  1
  Ni  Ni211  1  0.26520444  0.87223472  0.41053473  1
  Ni  Ni212  1  0.62126330  0.63875035  0.51707360  1
  Ni  Ni213  1  0.56331442  0.62775824  0.68688159  1
  Ni  Ni214  1  0.73321271  0.97629356  0.22733863  1
  Ni  Ni215  1  0.98603744  0.47291881  0.28740670  1
