# generated using pymatgen
data_Ti2CoNi
_symmetry_space_group_name_H-M   'P 1'
_cell_length_a   14.52542727
_cell_length_b   14.56633456
_cell_length_c   14.47701432
_cell_angle_alpha   90.11889840
_cell_angle_beta   90.07724916
_cell_angle_gamma   89.94020300
_symmetry_Int_Tables_number   1
_chemical_formula_structural   Ti2CoNi
_chemical_formula_sum   'Ti108 Co54 Ni54'
_cell_volume   3063.06798233
_cell_formula_units_Z   54
loop_
 _symmetry_equiv_pos_site_id
 _symmetry_equiv_pos_as_xyz
  1  'x, y, z'
loop_
 _atom_site_type_symbol
 _atom_site_label
 _atom_site_symmetry_multiplicity
 _atom_site_fract_x
 _atom_site_fract_y
 _atom_site_fract_z
 _atom_site_occupancy
  Ti  Ti0  1  -0.01121637  0.04328031  0.01014191  1
  Ti  Ti1  1  -0.05055796  -0.04313458  0.37785515  1
  Ti  Ti2  1  -0.06538299  0.04658676  0.65851353  1
  Ti  Ti3  1  0.00363259  0.27360291  0.02081213  1
  Ti  Ti4  1  0.02939261  0.40386190  0.34819506  1
  Ti  Ti5  1  -0.06883073  0.36734144  0.69544859  1
  Ti  Ti6  1  0.01200916  0.60811420  -0.08768882  1
  Ti  Ti7  1  -0.00963156  0.62800731  0.34285008  1
  Ti  Ti8  1  -0.02685304  0.63371958  0.67916333  1
  Ti  Ti9  1  0.29073293  -0.03735773  -0.02700524  1
  Ti  Ti10  1  0.38549485  0.00553557  0.38956733  1
  Ti  Ti11  1  0.39471513  0.00294651  0.61754615  1
  Ti  Ti12  1  0.28361110  0.39443553  0.06830669  1
  Ti  Ti13  1  0.38399220  0.32375774  0.34809741  1
  Ti  Ti14  1  0.27146195  0.32514443  0.64399364  1
  Ti  Ti15  1  0.34795419  0.67304261  -0.04628879  1
  Ti  Ti16  1  0.27308460  0.68268981  0.32170018  1
  Ti  Ti17  1  0.35960057  0.74384965  0.68768141  1
  Ti  Ti18  1  0.61870601  0.02162316  -0.03379040  1
  Ti  Ti19  1  0.66995976  -0.02327211  0.27671084  1
  Ti  Ti20  1  0.72796919  0.01877328  0.71336560  1
  Ti  Ti21  1  0.67999582  0.23633147  0.03733783  1
  Ti  Ti22  1  0.65499676  0.39383151  0.28944570  1
  Ti  Ti23  1  0.63494011  0.29989569  0.67802436  1
  Ti  Ti24  1  0.60977366  0.68016778  -0.01082495  1
  Ti  Ti25  1  0.68569092  0.62438240  0.30733716  1
  Ti  Ti26  1  0.65929450  0.66206246  0.62488756  1
  Ti  Ti27  1  -0.00665277  0.16035035  0.17262503  1
  Ti  Ti28  1  -0.02277598  0.12574831  0.46577390  1
  Ti  Ti29  1  0.03099840  0.19832200  0.80540793  1
  Ti  Ti30  1  0.05205966  0.53123458  0.17693827  1
  Ti  Ti31  1  -0.07877125  0.49794082  0.49883238  1
  Ti  Ti32  1  0.06255967  0.41125343  0.85214657  1
  Ti  Ti33  1  -0.00527501  0.76902645  0.17369920  1
  Ti  Ti34  1  0.01922451  0.91092358  0.53345811  1
  Ti  Ti35  1  0.00901381  0.78599679  0.78274790  1
  Ti  Ti36  1  0.38813696  0.18643932  0.17790484  1
  Ti  Ti37  1  0.35579897  0.17724957  0.50614539  1
  Ti  Ti38  1  0.35176928  0.22654601  0.82392379  1
  Ti  Ti39  1  0.31325336  0.46923330  0.23392421  1
  Ti  Ti40  1  0.25671252  0.48789783  0.52540219  1
  Ti  Ti41  1  0.33494880  0.56417213  0.79307697  1
  Ti  Ti42  1  0.38401850  0.74435835  0.19674140  1
  Ti  Ti43  1  0.38143514  0.79707157  0.41047369  1
  Ti  Ti44  1  0.28159031  0.80435247  0.84842415  1
  Ti  Ti45  1  0.67208686  0.16926394  0.22482176  1
  Ti  Ti46  1  0.66863505  0.18637852  0.54123452  1
  Ti  Ti47  1  0.66309636  0.16436478  0.83027333  1
  Ti  Ti48  1  0.71304384  0.50489370  0.12724284  1
  Ti  Ti49  1  0.61821762  0.47985610  0.56417392  1
  Ti  Ti50  1  0.67068927  0.52851515  0.86944634  1
  Ti  Ti51  1  0.67496465  0.86819836  0.08536422  1
  Ti  Ti52  1  0.55982994  0.74875311  0.48913754  1
  Ti  Ti53  1  0.69686668  0.84000373  0.80363776  1
  Ti  Ti54  1  0.17270795  -0.00137204  0.22089450  1
  Ti  Ti55  1  0.16635442  0.05907944  0.41918852  1
  Ti  Ti56  1  0.12150264  -0.04375088  0.86958340  1
  Ti  Ti57  1  0.17810373  0.23829920  0.12344196  1
  Ti  Ti58  1  0.08615686  0.32760267  0.51482741  1
  Ti  Ti59  1  0.26768876  0.39213391  0.86638374  1
  Ti  Ti60  1  0.21453007  0.69608275  0.10222638  1
  Ti  Ti61  1  0.17910178  0.65409789  0.49683929  1
  Ti  Ti62  1  0.16262875  0.69063128  0.74894659  1
  Ti  Ti63  1  0.37534343  -0.00105630  0.14548855  1
  Ti  Ti64  1  0.53920853  -0.05871894  0.46744777  1
  Ti  Ti65  1  0.42319104  0.03798608  0.83969313  1
  Ti  Ti66  1  0.53518368  0.32372480  0.12926172  1
  Ti  Ti67  1  0.53072175  0.31561221  0.49444980  1
  Ti  Ti68  1  0.50452182  0.42975627  0.83980007  1
  Ti  Ti69  1  0.56613236  0.71173867  0.17212886  1
  Ti  Ti70  1  0.40668975  0.63745515  0.51908546  1
  Ti  Ti71  1  0.52092632  0.75383255  0.83071294  1
  Ti  Ti72  1  0.83964672  0.00798103  0.18411641  1
  Ti  Ti73  1  0.77742385  -0.05325284  0.48732532  1
  Ti  Ti74  1  0.92686838  -0.01070260  0.82769309  1
  Ti  Ti75  1  0.78853049  0.33344747  0.15249201  1
  Ti  Ti76  1  0.85566028  0.31480111  0.47884429  1
  Ti  Ti77  1  0.77655447  0.37166262  0.81924321  1
  Ti  Ti78  1  0.78263934  0.70434139  0.09390581  1
  Ti  Ti79  1  0.85072947  0.67746099  0.53693484  1
  Ti  Ti80  1  0.83545862  0.64634685  0.84197348  1
  Ti  Ti81  1  0.17049088  0.14136039  -0.05081424  1
  Ti  Ti82  1  0.20358029  0.23285322  0.33631010  1
  Ti  Ti83  1  0.16756417  0.17569550  0.61422698  1
  Ti  Ti84  1  0.18205219  0.53443915  -0.01078430  1
  Ti  Ti85  1  0.16135582  0.53750787  0.33558390  1
  Ti  Ti86  1  0.09290989  0.49969714  0.64192678  1
  Ti  Ti87  1  0.12632031  0.87084103  0.06210816  1
  Ti  Ti88  1  0.18256869  0.86922175  0.38514466  1
  Ti  Ti89  1  0.19541290  0.91389491  0.62266702  1
  Ti  Ti90  1  0.50297730  0.20146328  -0.04604582  1
  Ti  Ti91  1  0.53229949  0.13977815  0.36790241  1
  Ti  Ti92  1  0.53036292  0.11132572  0.69001239  1
  Ti  Ti93  1  0.56098226  0.49197924  0.02588928  1
  Ti  Ti94  1  0.50385312  0.51123307  0.38574354  1
  Ti  Ti95  1  0.52100891  0.58090196  0.71643713  1
  Ti  Ti96  1  0.45361233  0.82028104  0.04531579  1
  Ti  Ti97  1  0.50076613  0.87892869  0.27397968  1
  Ti  Ti98  1  0.57460839  0.90091785  0.65462735  1
  Ti  Ti99  1  0.79321475  0.07576615  0.01416427  1
  Ti  Ti100  1  0.80148870  0.12589202  0.39407999  1
  Ti  Ti101  1  0.82912619  0.18234482  0.76314203  1
  Ti  Ti102  1  0.91398832  0.44832884  0.07231589  1
  Ti  Ti103  1  0.82428924  0.45545424  0.33278960  1
  Ti  Ti104  1  0.78605161  0.55347221  0.69183078  1
  Ti  Ti105  1  0.82708218  0.89782116  -0.02649077  1
  Ti  Ti106  1  0.81449111  0.80706684  0.32756799  1
  Ti  Ti107  1  0.85295314  0.88193514  0.65902624  1
  Co  Co108  1  0.86307472  0.82812124  0.82998748  1
  Co  Co109  1  0.77698531  0.01803941  0.85780532  1
  Co  Co110  1  0.46767633  0.00783184  0.99634042  1
  Co  Co111  1  0.84214134  0.63379548  0.37769043  1
  Co  Co112  1  0.36644219  0.50867107  0.95805129  1
  Co  Co113  1  0.26038473  0.61634761  0.64625005  1
  Co  Co114  1  0.47175884  0.41737255  0.24292069  1
  Co  Co115  1  0.42269538  0.58623417  0.23549823  1
  Co  Co116  1  0.31424832  0.58205512  0.10054501  1
  Co  Co117  1  0.59176956  0.98830361  0.80855687  1
  Co  Co118  1  0.49929787  0.04707347  0.24996965  1
  Co  Co119  1  0.38230724  0.39923409  0.75197622  1
  Co  Co120  1  0.51120176  0.11441885  0.52622860  1
  Co  Co121  1  0.91804557  0.08994981  0.29611949  1
  Co  Co122  1  0.29839402  0.91502684  0.49356728  1
  Co  Co123  1  0.92192221  0.31438289  0.87095881  1
  Co  Co124  1  0.72708055  0.72716976  0.45104532  1
  Co  Co125  1  0.41888345  0.88484990  0.73691713  1
  Co  Co126  1  0.26187546  0.08074735  0.83002659  1
  Co  Co127  1  0.67659617  0.66782800  0.79534033  1
  Co  Co128  1  0.44647366  0.25229275  0.63927671  1
  Co  Co129  1  0.46733516  0.62512834  0.06888148  1
  Co  Co130  1  0.07184933  0.13473515  0.31501885  1
  Co  Co131  1  0.69672097  0.34336910  0.51990233  1
  Co  Co132  1  0.91601323  0.72667647  0.95695783  1
  Co  Co133  1  0.57387409  0.54673352  0.21004417  1
  Co  Co134  1  0.09086167  0.31521764  0.67756399  1
  Co  Co135  1  1.04604563  0.92270279  0.70218537  1
  Co  Co136  1  0.64651885  0.44879465  0.72686684  1
  Co  Co137  1  0.61081092  0.60703088  0.45299694  1
  Co  Co138  1  0.11130359  0.07133837  0.74405326  1
  Co  Co139  1  0.52696389  0.75507392  0.66869346  1
  Co  Co140  1  0.42904433  0.46953008  0.10435816  1
  Co  Co141  1  0.32454535  0.14406021  0.68514799  1
  Co  Co142  1  0.58731304  0.86554116  0.93865541  1
  Co  Co143  1  0.07215169  0.28234818  0.24338524  1
  Co  Co144  1  0.42147148  0.86916373  0.90167831  1
  Co  Co145  1  0.73471895  0.76035701  -0.05469878  1
  Co  Co146  1  0.12750547  0.76810944  0.61253697  1
  Co  Co147  1  0.35284112  0.10987620  -0.00784186  1
  Co  Co148  1  0.84186318  0.84993831  0.17218579  1
  Co  Co149  1  0.22742289  0.45672722  0.71453920  1
  Co  Co150  1  0.67121236  0.04882118  0.12455873  1
  Co  Co151  1  0.19158311  0.22684911  0.77793311  1
  Co  Co152  1  0.48105986  0.69243042  0.33908252  1
  Co  Co153  1  0.79134473  0.57061044  0.99565437  1
  Co  Co154  1  0.27577753  0.76324380  0.54573186  1
  Co  Co155  1  0.07983864  1.04835868  0.58035157  1
  Co  Co156  1  0.78622563  0.23496718  0.91792703  1
  Co  Co157  1  0.07060856  0.68540977  0.04476916  1
  Co  Co158  1  0.25396789  0.05452482  0.54730780  1
  Co  Co159  1  0.50302748  0.39928276  0.65105514  1
  Co  Co160  1  0.08139443  0.49262007  0.47154372  1
  Co  Co161  1  0.69572981  0.79317533  0.22430595  1
  Ni  Ni162  1  0.02061037  0.64548231  0.51773845  1
  Ni  Ni163  1  0.65861459  0.05979828  0.42607231  1
  Ni  Ni164  1  0.63019627  0.31978161  0.89472656  1
  Ni  Ni165  1  0.31513887  0.89973276  0.27453893  1
  Ni  Ni166  1  0.42801536  0.84215113  0.56674398  1
  Ni  Ni167  1  0.75347572  0.53668897  0.46934846  1
  Ni  Ni168  1  0.39232753  0.51789910  0.62985552  1
  Ni  Ni169  1  0.97201286  0.78068733  0.61573262  1
  Ni  Ni170  1  0.93632155  0.36872326  0.22129382  1
  Ni  Ni171  1  0.51786917  0.25751190  0.78789636  1
  Ni  Ni172  1  0.96317699  0.91144410  0.09105042  1
  Ni  Ni173  1  0.53725792  0.28571851  0.30967758  1
  Ni  Ni174  1  0.64521696  0.02777008  0.57958147  1
  Ni  Ni175  1  0.15701418  0.54820700  0.82707012  1
  Ni  Ni176  1  -0.03632209  0.19721451  0.61730254  1
  Ni  Ni177  1  0.87991006  0.47961042  0.90262200  1
  Ni  Ni178  1  0.88912861  0.81694444  0.47196236  1
  Ni  Ni179  1  0.92091348  0.14969327  0.91262233  1
  Ni  Ni180  1  0.53874531  0.94486289  0.12566913  1
  Ni  Ni181  1  0.80706257  0.73247097  0.69811196  1
  Ni  Ni182  1  0.86813406  0.69084968  0.23034581  1
  Ni  Ni183  1  0.85915945  0.53919124  0.21101833  1
  Ni  Ni184  1  0.15584398  0.30433598  0.94398261  1
  Ni  Ni185  1  0.14059758  0.03521152  0.06847739  1
  Ni  Ni186  1  0.92887161  0.61675982  0.08244943  1
  Ni  Ni187  1  0.31812560  0.25515298  0.00153721  1
  Ni  Ni188  1  0.17892981  0.81939694  0.22095677  1
  Ni  Ni189  1  0.25061504  0.93541982  0.76924480  1
  Ni  Ni190  1  0.53383334  0.12917305  0.09673113  1
  Ni  Ni191  1  0.11186943  0.67458784  0.23348691  1
  Ni  Ni192  1  0.95346757  0.51387564  0.77237685  1
  Ni  Ni193  1  0.95233348  0.24706201  0.35113874  1
  Ni  Ni194  1  0.80761097  0.26908887  0.63374806  1
  Ni  Ni195  1  0.85639314  0.21377636  0.06646740  1
  Ni  Ni196  1  0.05308292  0.78254994  0.42942432  1
  Ni  Ni197  1  0.17903143  0.39005803  0.22375909  1
  Ni  Ni198  1  0.29006095  0.85588607  0.10596686  1
  Ni  Ni199  1  0.09973800  0.41319141  0.06955936  1
  Ni  Ni200  1  0.74859775  0.40614959  -0.01326177  1
  Ni  Ni201  1  0.63398048  0.82959305  0.36655447  1
  Ni  Ni202  1  0.33509103  0.54280483  0.38486143  1
  Ni  Ni203  1  0.68127037  0.24585999  0.38492838  1
  Ni  Ni204  1  0.29607962  0.08794554  0.27970854  1
  Ni  Ni205  1  0.80827579  0.09773672  0.57044950  1
  Ni  Ni206  1  0.22531236  0.38538956  0.39811007  1
  Ni  Ni207  1  0.78914234  0.42994047  0.60867040  1
  Ni  Ni208  1  0.48652589  0.59657998  0.88733954  1
  Ni  Ni209  1  0.01347983  0.84810710  0.93085650  1
  Ni  Ni210  1  0.80784439  0.28558727  0.30248749  1
  Ni  Ni211  1  0.17272546  0.69560837  0.91628991  1
  Ni  Ni212  1  0.44313518  0.35550400  0.97329874  1
  Ni  Ni213  1  0.71656079  0.82042133  0.58393870  1
  Ni  Ni214  1  0.02864696  0.91636954  0.25003887  1
  Ni  Ni215  1  0.37111992  0.36276502  0.51109039  1
