# generated using pymatgen
data_Ti2CoNi
_symmetry_space_group_name_H-M   'P 1'
_cell_length_a   14.69398958
_cell_length_b   14.65157497
_cell_length_c   14.69673054
_cell_angle_alpha   89.99544592
_cell_angle_beta   90.30690588
_cell_angle_gamma   89.71703105
_symmetry_Int_Tables_number   1
_chemical_formula_structural   Ti2CoNi
_chemical_formula_sum   'Ti108 Co54 Ni54'
_cell_volume   3163.97644301
_cell_formula_units_Z   54
loop_
 _symmetry_equiv_pos_site_id
 _symmetry_equiv_pos_as_xyz
  1  'x, y, z'
loop_
 _atom_site_type_symbol
 _atom_site_label
 _atom_site_symmetry_multiplicity
 _atom_site_fract_x
 _atom_site_fract_y
 _atom_site_fract_z
 _atom_site_occupancy
  Ti  Ti0  1  0.06713048  -0.00175687  0.06365891  1
  Ti  Ti1  1  -0.07754332  -0.01413851  0.33002063  1
  Ti  Ti2  1  -0.03452798  -0.04860235  0.63837083  1
  Ti  Ti3  1  0.04056910  0.33375142  -0.01106911  1
  Ti  Ti4  1  0.08202773  0.28591500  0.35971098  1
  Ti  Ti5  1  -0.02285868  0.39160832  0.65718982  1
  Ti  Ti6  1  -0.01072110  0.71716978  -0.04208061  1
  Ti  Ti7  1  0.02876618  0.62125216  0.29638637  1
  Ti  Ti8  1  -0.02336012  0.71752545  0.66499777  1
  Ti  Ti9  1  0.29669749  0.02918697  -0.00761397  1
  Ti  Ti10  1  0.35407117  -0.03167238  0.30755749  1
  Ti  Ti11  1  0.30329159  0.02019263  0.64062688  1
  Ti  Ti12  1  0.34666987  0.24827818  0.02804205  1
  Ti  Ti13  1  0.37518038  0.40521731  0.28708307  1
  Ti  Ti14  1  0.39783820  0.27552667  0.70170719  1
  Ti  Ti15  1  0.43670829  0.72469964  -0.02329867  1
  Ti  Ti16  1  0.24326766  0.66672500  0.35914994  1
  Ti  Ti17  1  0.36462581  0.66117033  0.61106779  1
  Ti  Ti18  1  0.63386423  0.03040967  0.04497901  1
  Ti  Ti19  1  0.73145792  0.02421912  0.31022352  1
  Ti  Ti20  1  0.60470984  -0.02102514  0.64360933  1
  Ti  Ti21  1  0.66083256  0.33530850  -0.04258502  1
  Ti  Ti22  1  0.59031875  0.32946262  0.31163456  1
  Ti  Ti23  1  0.65119091  0.33734310  0.61836343  1
  Ti  Ti24  1  0.74210263  0.68051463  0.02144121  1
  Ti  Ti25  1  0.63693508  0.77547150  0.32527761  1
  Ti  Ti26  1  0.65484637  0.61137412  0.70956157  1
  Ti  Ti27  1  0.01320458  0.21169498  0.19816204  1
  Ti  Ti28  1  0.01647356  0.15666731  0.49894178  1
  Ti  Ti29  1  0.00274427  0.12381224  0.78846457  1
  Ti  Ti30  1  -0.04674577  0.46516492  0.13539007  1
  Ti  Ti31  1  0.02150480  0.53906644  0.53685364  1
  Ti  Ti32  1  0.02324470  0.52380915  0.93901846  1
  Ti  Ti33  1  -0.09360612  0.77485365  0.12726721  1
  Ti  Ti34  1  -0.03590170  0.83491777  0.46042909  1
  Ti  Ti35  1  0.03242972  0.90264409  0.89523611  1
  Ti  Ti36  1  0.36827864  0.12872184  0.17586397  1
  Ti  Ti37  1  0.26515371  0.24169618  0.43956050  1
  Ti  Ti38  1  0.23586886  0.13909270  0.82717742  1
  Ti  Ti39  1  0.40408984  0.57363395  0.15602878  1
  Ti  Ti40  1  0.31902663  0.44047265  0.48285697  1
  Ti  Ti41  1  0.36296953  0.48787722  0.81072045  1
  Ti  Ti42  1  0.34256394  0.77146812  0.21994666  1
  Ti  Ti43  1  0.37715039  0.85394095  0.48667149  1
  Ti  Ti44  1  0.27666237  0.81140391  0.86969027  1
  Ti  Ti45  1  0.79473205  0.18246128  0.16060927  1
  Ti  Ti46  1  0.61543370  0.15070215  0.56761413  1
  Ti  Ti47  1  0.69297987  0.14667509  0.89022533  1
  Ti  Ti48  1  0.66381775  0.46809628  0.14906441  1
  Ti  Ti49  1  0.69542484  0.56267037  0.49441703  1
  Ti  Ti50  1  0.68420660  0.44132647  0.79312776  1
  Ti  Ti51  1  0.65005478  0.88000617  0.17599985  1
  Ti  Ti52  1  0.56881807  0.81698312  0.51077806  1
  Ti  Ti53  1  0.71196972  0.76560312  0.83500553  1
  Ti  Ti54  1  0.21195443  -0.08819172  0.16647255  1
  Ti  Ti55  1  0.20698237  -0.06801519  0.47955790  1
  Ti  Ti56  1  0.13723776  -0.02436184  0.75680914  1
  Ti  Ti57  1  0.14108374  0.35059979  0.15478804  1
  Ti  Ti58  1  0.12252748  0.35695402  0.52703084  1
  Ti  Ti59  1  0.20261503  0.37251106  0.90062300  1
  Ti  Ti60  1  0.19324248  0.61532942  0.17437968  1
  Ti  Ti61  1  0.12845234  0.69661813  0.56308428  1
  Ti  Ti62  1  0.13142060  0.66673992  0.81646804  1
  Ti  Ti63  1  0.53036996  0.04069391  0.20275359  1
  Ti  Ti64  1  0.46479124  0.03951375  0.50114437  1
  Ti  Ti65  1  0.45777834  -0.05978964  0.78361898  1
  Ti  Ti66  1  0.55145241  0.27140824  0.11557195  1
  Ti  Ti67  1  0.47101802  0.30567331  0.52087538  1
  Ti  Ti68  1  0.50083880  0.34143410  0.85719005  1
  Ti  Ti69  1  0.59619687  0.66013637  0.15570155  1
  Ti  Ti70  1  0.41718264  0.62880556  0.43189773  1
  Ti  Ti71  1  0.40520493  0.67253131  0.79839681  1
  Ti  Ti72  1  0.81920138  -0.01870951  0.13685126  1
  Ti  Ti73  1  0.82908532  0.01694819  0.50676120  1
  Ti  Ti74  1  0.85306503  -0.01280948  0.85228413  1
  Ti  Ti75  1  0.80230501  0.35918433  0.23698762  1
  Ti  Ti76  1  0.77440689  0.33278027  0.44479318  1
  Ti  Ti77  1  0.89166100  0.42421986  0.82651569  1
  Ti  Ti78  1  0.81740066  0.58232564  0.19198075  1
  Ti  Ti79  1  0.85062127  0.65350239  0.53504152  1
  Ti  Ti80  1  0.85052259  0.62486351  0.86105454  1
  Ti  Ti81  1  0.16091895  0.17718823  0.05057299  1
  Ti  Ti82  1  0.16772722  0.08682547  0.34326700  1
  Ti  Ti83  1  0.18729445  0.19872847  0.63739985  1
  Ti  Ti84  1  0.26662299  0.51027972  0.02149260  1
  Ti  Ti85  1  0.18032934  0.49173608  0.37347114  1
  Ti  Ti86  1  0.20339190  0.44620545  0.67533627  1
  Ti  Ti87  1  0.15258910  0.77702423  0.04550911  1
  Ti  Ti88  1  0.09244705  0.91281605  0.31466902  1
  Ti  Ti89  1  0.23446907  0.82865808  0.65875816  1
  Ti  Ti90  1  0.50590244  0.17760738  -0.05103405  1
  Ti  Ti91  1  0.45000172  0.18105296  0.36562908  1
  Ti  Ti92  1  0.55346410  0.14871788  0.75840268  1
  Ti  Ti93  1  0.50860038  0.44774077  0.02481071  1
  Ti  Ti94  1  0.56288209  0.53301288  0.31515171  1
  Ti  Ti95  1  0.51714298  0.50480376  0.56418223  1
  Ti  Ti96  1  0.57336112  0.85342508  -0.05707960  1
  Ti  Ti97  1  0.54292940  0.94817381  0.36167011  1
  Ti  Ti98  1  0.55134482  0.77477724  0.70415745  1
  Ti  Ti99  1  0.87261604  0.22017127  -0.03588903  1
  Ti  Ti100  1  0.88349181  0.18879888  0.35482599  1
  Ti  Ti101  1  0.78484278  0.19151982  0.72847832  1
  Ti  Ti102  1  0.76668389  0.49717824  -0.00319192  1
  Ti  Ti103  1  0.87496689  0.51458145  0.37671523  1
  Ti  Ti104  1  0.82933931  0.53309139  0.67842908  1
  Ti  Ti105  1  0.75810553  0.86520525  0.01262212  1
  Ti  Ti106  1  0.84250003  0.72159591  0.34600874  1
  Ti  Ti107  1  0.77910442  0.88004529  0.69808007  1
  Co  Co108  1  0.80125620  0.35909809  0.68322843  1
  Co  Co109  1  0.85014649  0.81555570  0.56438756  1
  Co  Co110  1  0.25004317  0.46662089  0.19622731  1
  Co  Co111  1  0.47775870  0.67447180  0.27212812  1
  Co  Co112  1  0.74726541  0.13976418  0.43504747  1
  Co  Co113  1  0.89521432  0.60308342  0.04002910  1
  Co  Co114  1  0.02742051  0.24014009  0.63774968  1
  Co  Co115  1  0.55083505  0.02777329  0.88753792  1
  Co  Co116  1  0.82732560  0.70854307  0.71754345  1
  Co  Co117  1  0.25970262  0.59947263  0.72184153  1
  Co  Co118  1  0.30314701  0.67290765  0.06179916  1
  Co  Co119  1  0.08337901  0.47028507  0.25205743  1
  Co  Co120  1  0.41554286  0.91735430  0.94258632  1
  Co  Co121  1  0.27853498  0.63760260  0.89442897  1
  Co  Co122  1  0.63991992  0.28468871  0.77908789  1
  Co  Co123  1  0.51303357  0.42860762  0.19114239  1
  Co  Co124  1  0.44332374  0.27019663  0.22520341  1
  Co  Co125  1  0.23185864  0.06410901  0.15416560  1
  Co  Co126  1  0.69860651  0.73963089  0.62317365  1
  Co  Co127  1  0.61802765  0.24890899  0.45021855  1
  Co  Co128  1  0.49639815  0.57598356  0.71216896  1
  Co  Co129  1  0.46584427  0.75083739  0.12256568  1
  Co  Co130  1  0.78468897  0.30799732  0.85534841  1
  Co  Co131  1  0.08206445  0.05345478  0.21167809  1
  Co  Co132  1  0.57834456  0.65729959  0.42225539  1
  Co  Co133  1  0.46615997  0.78695449  0.37993415  1
  Co  Co134  1  0.14540131  0.62869728  0.98877523  1
  Co  Co135  1  0.92098478  0.91125765  0.01632418  1
  Co  Co136  1  0.62692533  0.90065420  0.78779615  1
  Co  Co137  1  0.45420613  0.07893943  0.66062737  1
  Co  Co138  1  0.51684710  0.89853854  0.08359419  1
  Co  Co139  1  0.49380734  0.85709673  0.23973337  1
  Co  Co140  1  0.72702487  0.22459553  0.30376401  1
  Co  Co141  1  0.92212729  0.30299368  0.11426545  1
  Co  Co142  1  0.41359607  0.56549528  0.96052282  1
  Co  Co143  1  0.98740085  0.66786961  0.44566710  1
  Co  Co144  1  0.53921680  0.51139458  0.85494535  1
  Co  Co145  1  0.54940137  0.66310291  0.57854894  1
  Co  Co146  1  0.72217368  0.73639418  0.46461210  1
  Co  Co147  1  0.29320154  0.32492490  0.58936553  1
  Co  Co148  1  0.76128642  0.33787057  0.08189361  1
  Co  Co149  1  0.69569247  0.58351196  0.87493155  1
  Co  Co150  1  0.07446709  0.07367252  0.63989393  1
  Co  Co151  1  0.37710343  0.39734282  0.11321638  1
  Co  Co152  1  0.70201094  0.96757703  0.90698172  1
  Co  Co153  1  0.26288025  0.74860160  0.49425572  1
  Co  Co154  1  0.92806693  0.26895870  0.77070104  1
  Co  Co155  1  0.18775553  0.91888201  0.95143296  1
  Co  Co156  1  -0.02106914  0.91730985  0.17908786  1
  Co  Co157  1  0.12024155  0.06864572  0.91500728  1
  Co  Co158  1  0.37721273  0.95120878  0.14822470  1
  Co  Co159  1  0.28965441  0.28185592  0.17303759  1
  Co  Co160  1  0.17369081  0.19772919  0.23090795  1
  Co  Co161  1  0.22512857  0.34465879  0.31832119  1
  Ni  Ni162  1  0.36388128  0.17185331  0.55950707  1
  Ni  Ni163  1  0.94540897  0.31737654  0.46998854  1
  Ni  Ni164  1  0.04266217  -0.00834905  0.46947248  1
  Ni  Ni165  1  0.38005271  0.81052441  0.71126124  1
  Ni  Ni166  1  0.22424258  0.30259216  0.75618277  1
  Ni  Ni167  1  0.40086899  0.09436871  0.83164208  1
  Ni  Ni168  1  0.67966644  0.19191001  0.04743480  1
  Ni  Ni169  1  0.74528445  0.73416960  0.18838884  1
  Ni  Ni170  1  0.10122243  0.23651953  0.86995464  1
  Ni  Ni171  1  0.46965923  0.44066420  0.41588657  1
  Ni  Ni172  1  0.23743599  0.57501815  0.53145198  1
  Ni  Ni173  1  0.10107784  0.57046410  0.67881264  1
  Ni  Ni174  1  0.11216068  0.76675574  0.40236925  1
  Ni  Ni175  1  0.82546542  0.86341233  0.25202907  1
  Ni  Ni176  1  0.78376123  0.88258066  0.40552533  1
  Ni  Ni177  1  0.31789845  0.07398064  0.43150332  1
  Ni  Ni178  1  0.31363459  0.83832035  0.04339863  1
  Ni  Ni179  1  0.03266529  0.65716843  0.12291826  1
  Ni  Ni180  1  0.86142930  0.80300444  0.90219037  1
  Ni  Ni181  1  0.60035823  0.12210862  0.34503925  1
  Ni  Ni182  1  0.09025159  0.81385992  0.74135911  1
  Ni  Ni183  1  0.70823877  0.04091271  0.75851001  1
  Ni  Ni184  1  0.08983239  0.86384581  0.57310593  1
  Ni  Ni185  1  0.29241850  0.96785994  0.80972505  1
  Ni  Ni186  1  0.78154135  0.22035873  0.56703844  1
  Ni  Ni187  1  0.98229552  0.78950840  0.28517189  1
  Ni  Ni188  1  0.17707517  0.09244391  0.51377641  1
  Ni  Ni189  1  0.86343974  0.45146058  0.53486019  1
  Ni  Ni190  1  0.95682362  0.36356434  0.27975554  1
  Ni  Ni191  1  0.06594608  0.41240921  0.80329453  1
  Ni  Ni192  1  0.88582604  0.39296852  0.98531827  1
  Ni  Ni193  1  0.14141149  0.76040621  0.23507796  1
  Ni  Ni194  1  0.91076905  0.11997629  0.63178973  1
  Ni  Ni195  1  0.58933555  0.59136917  0.00276889  1
  Ni  Ni196  1  0.97506866  0.56434867  0.76937479  1
  Ni  Ni197  1  0.24835621  0.84169648  0.34242613  1
  Ni  Ni198  1  0.71646714  0.46048573  0.33182777  1
  Ni  Ni199  1  0.46023788  0.04922452  0.03971908  1
  Ni  Ni200  1  0.45795684  0.91274327  0.61519958  1
  Ni  Ni201  1  0.02363482  0.44614997  0.40534987  1
  Ni  Ni202  1  0.92470928  0.07968339  0.19818513  1
  Ni  Ni203  1  0.36605914  0.39261688  0.94851788  1
  Ni  Ni204  1  0.71472060  0.62179975  0.32192108  1
  Ni  Ni205  1  0.96062257  0.07021889  0.95169014  1
  Ni  Ni206  1  0.93266686  0.84935836  0.76745888  1
  Ni  Ni207  1  0.71020307  0.88850281  0.54659648  1
  Ni  Ni208  1  0.62272493  0.41290728  0.46533927  1
  Ni  Ni209  1  0.10646268  0.49884221  0.08442219  1
  Ni  Ni210  1  0.52031508  0.40826784  0.70863945  1
  Ni  Ni211  1  0.37085608  0.47374258  0.64438026  1
  Ni  Ni212  1  0.64582885  1.01426290  0.47164798  1
  Ni  Ni213  1  0.80245428  0.06729956  -0.00044501  1
  Ni  Ni214  1  0.56606574  0.68353402  0.86108661  1
  Ni  Ni215  1  0.34994061  0.25536091  0.85997133  1
