# generated using pymatgen
data_Ti2CoNi
_symmetry_space_group_name_H-M   'P 1'
_cell_length_a   14.54360492
_cell_length_b   14.44140772
_cell_length_c   14.45032707
_cell_angle_alpha   89.64948736
_cell_angle_beta   89.90112819
_cell_angle_gamma   89.80719966
_symmetry_Int_Tables_number   1
_chemical_formula_structural   Ti2CoNi
_chemical_formula_sum   'Ti108 Co54 Ni54'
_cell_volume   3034.92566407
_cell_formula_units_Z   54
loop_
 _symmetry_equiv_pos_site_id
 _symmetry_equiv_pos_as_xyz
  1  'x, y, z'
loop_
 _atom_site_type_symbol
 _atom_site_label
 _atom_site_symmetry_multiplicity
 _atom_site_fract_x
 _atom_site_fract_y
 _atom_site_fract_z
 _atom_site_occupancy
  Ti  Ti0  1  -0.10463717  0.00237786  -0.00566119  1
  Ti  Ti1  1  -0.04759469  0.08386183  0.37188412  1
  Ti  Ti2  1  -0.02096897  -0.05057533  0.63444235  1
  Ti  Ti3  1  -0.02260232  0.40147156  0.04938718  1
  Ti  Ti4  1  0.06265464  0.29896010  0.33929504  1
  Ti  Ti5  1  -0.00014528  0.31262026  0.66889982  1
  Ti  Ti6  1  -0.04217801  0.67920087  -0.02685370  1
  Ti  Ti7  1  0.10462685  0.65016756  0.31708611  1
  Ti  Ti8  1  -0.02340468  0.71475159  0.68834526  1
  Ti  Ti9  1  0.35167706  -0.00811211  0.08137709  1
  Ti  Ti10  1  0.34106039  0.00263477  0.29835707  1
  Ti  Ti11  1  0.32294320  -0.00162540  0.63402234  1
  Ti  Ti12  1  0.37368095  0.35002960  -0.01340386  1
  Ti  Ti13  1  0.33318970  0.31872964  0.30325038  1
  Ti  Ti14  1  0.32738885  0.35715233  0.63471439  1
  Ti  Ti15  1  0.29107505  0.65268747  0.15073817  1
  Ti  Ti16  1  0.40346206  0.75023463  0.29166856  1
  Ti  Ti17  1  0.40193613  0.71806975  0.61699756  1
  Ti  Ti18  1  0.70821057  -0.00559970  0.03390621  1
  Ti  Ti19  1  0.67490579  0.06350856  0.30854219  1
  Ti  Ti20  1  0.71081263  0.01828403  0.67581272  1
  Ti  Ti21  1  0.68706686  0.32840539  -0.06263694  1
  Ti  Ti22  1  0.71461908  0.27110871  0.40082893  1
  Ti  Ti23  1  0.69362980  0.36028654  0.74033589  1
  Ti  Ti24  1  0.64957027  0.67476508  0.03419631  1
  Ti  Ti25  1  0.58972176  0.65774304  0.29578841  1
  Ti  Ti26  1  0.70309378  0.65192008  0.68475289  1
  Ti  Ti27  1  -0.03202659  0.07822272  0.15811186  1
  Ti  Ti28  1  0.01466848  0.20710650  0.51193610  1
  Ti  Ti29  1  0.00569333  0.07825835  0.82996021  1
  Ti  Ti30  1  0.02790798  0.48178205  0.24989042  1
  Ti  Ti31  1  0.00526963  0.48678985  0.48393220  1
  Ti  Ti32  1  0.02943828  0.56224444  0.81957862  1
  Ti  Ti33  1  0.08232711  0.81433818  0.20038794  1
  Ti  Ti34  1  0.02400504  0.79877832  0.40980732  1
  Ti  Ti35  1  -0.00753922  0.88576746  0.83230200  1
  Ti  Ti36  1  0.37376876  0.16899531  0.03888429  1
  Ti  Ti37  1  0.36738076  0.13881923  0.46946882  1
  Ti  Ti38  1  0.34855168  0.10842480  0.79191042  1
  Ti  Ti39  1  0.27755499  0.42629949  0.12937163  1
  Ti  Ti40  1  0.30089373  0.56984189  0.53932174  1
  Ti  Ti41  1  0.34016426  0.50276987  0.88161293  1
  Ti  Ti42  1  0.26290247  0.85293305  0.16222253  1
  Ti  Ti43  1  0.32719130  0.80605323  0.46707084  1
  Ti  Ti44  1  0.33575005  0.84485787  0.93427190  1
  Ti  Ti45  1  0.57043295  0.24100856  0.08254126  1
  Ti  Ti46  1  0.66244010  0.11154802  0.51584796  1
  Ti  Ti47  1  0.68202269  0.16272419  0.78776223  1
  Ti  Ti48  1  0.69917166  0.47131513  0.24900045  1
  Ti  Ti49  1  0.71841351  0.56497993  0.51753459  1
  Ti  Ti50  1  0.63694240  0.53491306  0.80980348  1
  Ti  Ti51  1  0.71727546  0.80252744  0.15640342  1
  Ti  Ti52  1  0.65795978  0.76339251  0.46161611  1
  Ti  Ti53  1  0.59869390  0.73819513  0.82844091  1
  Ti  Ti54  1  0.17635181  0.03985309  0.19027095  1
  Ti  Ti55  1  0.16116798  -0.08334000  0.53753571  1
  Ti  Ti56  1  0.19485997  -0.01632916  0.85300896  1
  Ti  Ti57  1  0.13860015  0.27950339  0.12961525  1
  Ti  Ti58  1  0.21690023  0.27091045  0.49040325  1
  Ti  Ti59  1  0.14912976  0.22610964  0.83512018  1
  Ti  Ti60  1  0.10930609  0.64249077  0.11522323  1
  Ti  Ti61  1  0.10873547  0.63295878  0.51960214  1
  Ti  Ti62  1  0.22549674  0.67312751  0.86637082  1
  Ti  Ti63  1  0.48829979  0.07630101  0.19241737  1
  Ti  Ti64  1  0.50665613  0.02681967  0.41038064  1
  Ti  Ti65  1  0.59197526  0.01441911  0.87056788  1
  Ti  Ti66  1  0.48828464  0.42191033  0.18596369  1
  Ti  Ti67  1  0.56572812  0.36860871  0.50573043  1
  Ti  Ti68  1  0.52282912  0.39839082  0.85528486  1
  Ti  Ti69  1  0.48018519  0.64519219  0.13419444  1
  Ti  Ti70  1  0.52489267  0.60508035  0.53222425  1
  Ti  Ti71  1  0.41745972  0.69641403  0.82340123  1
  Ti  Ti72  1  0.89792950  -0.10991795  0.17399676  1
  Ti  Ti73  1  0.80581349  -0.03723715  0.51690651  1
  Ti  Ti74  1  0.78273674  -0.05692733  0.83722888  1
  Ti  Ti75  1  0.78957725  0.29507210  0.10270081  1
  Ti  Ti76  1  0.75022428  0.38461129  0.56426848  1
  Ti  Ti77  1  0.92779294  0.37795780  0.84912201  1
  Ti  Ti78  1  0.85467426  0.62053609  0.24029231  1
  Ti  Ti79  1  0.84565878  0.70516847  0.43980352  1
  Ti  Ti80  1  0.77011354  0.62709207  0.89870854  1
  Ti  Ti81  1  0.10402287  0.11751179  0.01539788  1
  Ti  Ti82  1  0.14692652  0.07820447  0.38712870  1
  Ti  Ti83  1  0.12662896  0.15050286  0.66802957  1
  Ti  Ti84  1  0.15295062  0.42353855  -0.05904967  1
  Ti  Ti85  1  0.18625583  0.46933337  0.39062013  1
  Ti  Ti86  1  0.21404613  0.48953558  0.73114960  1
  Ti  Ti87  1  0.11097172  0.81408439  -0.01658852  1
  Ti  Ti88  1  0.18831807  0.89313448  0.34610456  1
  Ti  Ti89  1  0.15858549  0.82469373  0.72675070  1
  Ti  Ti90  1  0.50936008  0.19912807  -0.10772113  1
  Ti  Ti91  1  0.56102822  0.23723425  0.28137188  1
  Ti  Ti92  1  0.47567530  0.17761397  0.63697775  1
  Ti  Ti93  1  0.51699846  0.56985423  -0.05301729  1
  Ti  Ti94  1  0.42457624  0.50454557  0.38402386  1
  Ti  Ti95  1  0.43487972  0.50324748  0.71145016  1
  Ti  Ti96  1  0.51606821  0.90298610  0.03493282  1
  Ti  Ti97  1  0.57981020  0.86351171  0.30513533  1
  Ti  Ti98  1  0.47399064  0.87597730  0.69248840  1
  Ti  Ti99  1  0.89105118  0.20297966  -0.03443931  1
  Ti  Ti100  1  0.88309476  0.24198921  0.26185508  1
  Ti  Ti101  1  0.82193188  0.21259792  0.64462959  1
  Ti  Ti102  1  0.78893535  0.49755350  0.06447024  1
  Ti  Ti103  1  0.86262732  0.44417681  0.36758957  1
  Ti  Ti104  1  0.92145436  0.49339437  0.66164892  1
  Ti  Ti105  1  0.79806711  0.81008906  -0.02611192  1
  Ti  Ti106  1  0.81809585  0.90142765  0.34737765  1
  Ti  Ti107  1  0.75851768  0.80949029  0.62219748  1
  Co  Co108  1  0.18639132  0.74712463  0.44674732  1
  Co  Co109  1  0.59447006  0.95317661  0.16588423  1
  Co  Co110  1  0.91955336  0.76848750  0.29355893  1
  Co  Co111  1  0.05158106  0.97464720  0.95565127  1
  Co  Co112  1  0.78098793  0.45037611  0.86269036  1
  Co  Co113  1  0.41858837  0.16473113  0.31681967  1
  Co  Co114  1  0.72368164  0.21697852  0.23501353  1
  Co  Co115  1  0.25266527  0.09881318  0.95113159  1
  Co  Co116  1  0.70708970  0.43603722  0.41082459  1
  Co  Co117  1  0.86947521  0.59240056  0.78346811  1
  Co  Co118  1  0.86278061  0.05382899  0.72286205  1
  Co  Co119  1  0.53089362  0.03520357  0.58847064  1
  Co  Co120  1  0.43986446  0.90169527  0.21256357  1
  Co  Co121  1  0.65877734  0.49077023  0.97172678  1
  Co  Co122  1  0.24907078  0.35468664  0.81833563  1
  Co  Co123  1  0.80957463  0.10026641  0.87186495  1
  Co  Co124  1  0.28214835  0.21267084  0.69605754  1
  Co  Co125  1  0.65258884  0.10751895  0.14858724  1
  Co  Co126  1  0.54047579  0.19853550  0.44833065  1
  Co  Co127  1  0.23708569  0.73858185  1.02350855  1
  Co  Co128  1  0.05411588  -0.05147847  0.11456186  1
  Co  Co129  1  0.90119083  0.75163083  0.84041264  1
  Co  Co130  1  0.31418810  0.13373156  0.19048105  1
  Co  Co131  1  0.24747942  0.18026186  0.33011739  1
  Co  Co132  1  0.31417872  0.40607816  0.45968177  1
  Co  Co133  1  0.80575084  0.27190087  0.82808569  1
  Co  Co134  1  0.19855459  0.54464264  0.23681737  1
  Co  Co135  1  0.17155627  0.38399500  0.24781414  1
  Co  Co136  1  0.60548297  0.54184563  0.12308238  1
  Co  Co137  1  0.31362188  0.79244143  0.74238481  1
  Co  Co138  1  0.76549412  0.50263703  0.69404118  1
  Co  Co139  1  0.23477501  0.74627289  0.28855552  1
  Co  Co140  1  0.75034703  0.77746748  0.79860540  1
  Co  Co141  1  0.16111749  0.31671062  0.66173381  1
  Co  Co142  1  0.33077843  0.22991475  0.88186940  1
  Co  Co143  1  0.11689014  0.47662612  0.09949310  1
  Co  Co144  1  0.83498160  0.07047827  0.25991365  1
  Co  Co145  1  0.10400216  0.59887863  0.95971512  1
  Co  Co146  1  0.49386351  0.03289030  0.74687453  1
  Co  Co147  1  0.42052226  0.27019048  0.16746391  1
  Co  Co148  1  0.58550311  0.53792891  0.40120393  1
  Co  Co149  1  0.40224953  0.32642131  0.77937805  1
  Co  Co150  1  0.94723891  0.20915528  0.77959474  1
  Co  Co151  1  0.43994353  0.46061993  0.55320783  1
  Co  Co152  1  0.74934274  0.95942218  0.19161309  1
  Co  Co153  1  0.21767892  0.26924607  -0.01213717  1
  Co  Co154  1  0.28158991  0.61509795  0.37699645  1
  Co  Co155  1  0.39327217  0.79507981  0.09282787  1
  Co  Co156  1  0.07613911  0.78860642  0.57500225  1
  Co  Co157  1  0.24704259  0.55173297  0.00863135  1
  Co  Co158  1  0.55311411  0.78638027  0.15678170  1
  Co  Co159  1  0.52567236  0.39758096  0.01656114  1
  Co  Co160  1  0.07315724  0.34906964  0.50108448  1
  Co  Co161  1  0.73415906  0.59690543  0.35690646  1
  Ni  Ni162  1  0.85416026  0.64117819  0.59957801  1
  Ni  Ni163  1  0.48827600  0.75100148  0.44286679  1
  Ni  Ni164  1  0.07563050  0.16573199  0.24378425  1
  Ni  Ni165  1  0.95420568  0.84640637  0.02017604  1
  Ni  Ni166  1  0.55308706  0.26956035  0.74784346  1
  Ni  Ni167  1  0.29891154  0.97963143  0.45991830  1
  Ni  Ni168  1  0.95307733  0.55825541  0.10909384  1
  Ni  Ni169  1  0.22756895  0.72039273  0.60961986  1
  Ni  Ni170  1  0.65093859  0.38126676  0.11882172  1
  Ni  Ni171  1  0.40440035  0.51124153  0.05992417  1
  Ni  Ni172  1  0.63020527  0.89034494  0.75318104  1
  Ni  Ni173  1  0.53122198  0.63280039  0.71098586  1
  Ni  Ni174  1  0.21606279  0.10445210  0.53931222  1
  Ni  Ni175  1  0.89521566  0.09067078  0.55905641  1
  Ni  Ni176  1  0.80306226  0.13011160  0.41519718  1
  Ni  Ni177  1  0.35431836  0.93618391  0.79539612  1
  Ni  Ni178  1  0.30653061  0.62098576  0.72296229  1
  Ni  Ni179  1  0.81547315  0.66572738  0.07562565  1
  Ni  Ni180  1  0.95965803  0.60565578  0.37645102  1
  Ni  Ni181  1  0.05940393  0.05268612  0.53408080  1
  Ni  Ni182  1  0.08138286  0.40387381  0.77947325  1
  Ni  Ni183  1  0.96991450  0.94152372  0.45695259  1
  Ni  Ni184  1  0.57532644  0.75369584  0.61128623  1
  Ni  Ni185  1  0.44209923  0.91528172  0.52616566  1
  Ni  Ni186  1  0.90467167  0.36614229  0.54428209  1
  Ni  Ni187  1  -0.04312130  0.72273551  0.14185805  1
  Ni  Ni188  1  0.97035138  0.24722431  0.11800182  1
  Ni  Ni189  1  0.12572966  -0.00889007  0.70315803  1
  Ni  Ni190  1  0.42122452  1.01998555  0.92158801  1
  Ni  Ni191  1  0.02704777  0.94968142  0.29325436  1
  Ni  Ni192  1  0.56433533  0.39020604  0.33499608  1
  Ni  Ni193  1  0.37158195  0.65840173  0.98307665  1
  Ni  Ni194  1  0.04499788  0.27176003  0.95730453  1
  Ni  Ni195  1  0.54196950  0.07920066  0.02420937  1
  Ni  Ni196  1  0.18049000  0.45352537  0.56396376  1
  Ni  Ni197  1  0.64633357  0.24558470  0.60819016  1
  Ni  Ni198  1  0.91369217  0.80891720  0.55242758  1
  Ni  Ni199  1  0.41564799  0.29273687  0.50697771  1
  Ni  Ni200  1  0.62626047  0.90449446  0.58147361  1
  Ni  Ni201  1  0.60128726  0.48822276  0.64160074  1
  Ni  Ni202  1  0.74158483  0.75401942  0.30864158  1
  Ni  Ni203  1  0.37077419  0.53789637  0.23480174  1
  Ni  Ni204  1  0.19834828  0.95241522  0.03014472  1
  Ni  Ni205  1  0.65891539  0.94461142  0.43175067  1
  Ni  Ni206  1  0.64397553  0.85952887  0.93085674  1
  Ni  Ni207  1  0.07077351  0.72814507  0.83988529  1
  Ni  Ni208  1  0.87069053  0.87025934  0.71887222  1
  Ni  Ni209  1  0.07724333  0.54603342  0.65423384  1
  Ni  Ni210  1  0.87954401  0.41370322  0.19786853  1
  Ni  Ni211  1  0.81083899  0.12436238  0.10461093  1
  Ni  Ni212  1  0.91081474  0.52078719  0.94569603  1
  Ni  Ni213  1  0.89481767  0.27557130  0.41819254  1
  Ni  Ni214  1  0.69094311  0.15856506  0.97381937  1
  Ni  Ni215  1  0.50806897  0.74956087  0.97324578  1
