# generated using pymatgen
data_Ti2CoNi
_symmetry_space_group_name_H-M   'P 1'
_cell_length_a   14.62806032
_cell_length_b   14.58071723
_cell_length_c   14.55906916
_cell_angle_alpha   90.12593200
_cell_angle_beta   89.86204380
_cell_angle_gamma   89.97382072
_symmetry_Int_Tables_number   1
_chemical_formula_structural   Ti2CoNi
_chemical_formula_sum   'Ti108 Co54 Ni54'
_cell_volume   3105.25224731
_cell_formula_units_Z   54
loop_
 _symmetry_equiv_pos_site_id
 _symmetry_equiv_pos_as_xyz
  1  'x, y, z'
loop_
 _atom_site_type_symbol
 _atom_site_label
 _atom_site_symmetry_multiplicity
 _atom_site_fract_x
 _atom_site_fract_y
 _atom_site_fract_z
 _atom_site_occupancy
  Ti  Ti0  1  0.02435202  -0.03211824  0.05666736  1
  Ti  Ti1  1  0.00322041  -0.01199783  0.41427686  1
  Ti  Ti2  1  0.06262871  0.01432708  0.72290142  1
  Ti  Ti3  1  0.03848560  0.31543411  0.08240483  1
  Ti  Ti4  1  0.00937056  0.28769891  0.38550205  1
  Ti  Ti5  1  -0.04740342  0.37073660  0.60144750  1
  Ti  Ti6  1  -0.02905624  0.73770943  0.01816085  1
  Ti  Ti7  1  -0.06753897  0.68898368  0.20934437  1
  Ti  Ti8  1  -0.05226459  0.66216416  0.73316496  1
  Ti  Ti9  1  0.36940458  0.00156674  0.00765333  1
  Ti  Ti10  1  0.36356486  0.01652397  0.42019620  1
  Ti  Ti11  1  0.28193859  0.06540218  0.64511399  1
  Ti  Ti12  1  0.36850282  0.23041188  0.02103524  1
  Ti  Ti13  1  0.24967819  0.31016858  0.34908851  1
  Ti  Ti14  1  0.32220166  0.40017452  0.69355825  1
  Ti  Ti15  1  0.30884710  0.68261769  0.01742401  1
  Ti  Ti16  1  0.30011044  0.68104188  0.29330436  1
  Ti  Ti17  1  0.32258011  0.59660366  0.72075176  1
  Ti  Ti18  1  0.69068951  0.04282878  0.03842219  1
  Ti  Ti19  1  0.69729528  0.01612922  0.23822821  1
  Ti  Ti20  1  0.74567278  -0.06400971  0.67562432  1
  Ti  Ti21  1  0.69462851  0.26272013  0.02641449  1
  Ti  Ti22  1  0.71849350  0.41296148  0.35764076  1
  Ti  Ti23  1  0.61692367  0.37092472  0.72462768  1
  Ti  Ti24  1  0.65963993  0.69170024  -0.01834729  1
  Ti  Ti25  1  0.64008734  0.69084911  0.35607027  1
  Ti  Ti26  1  0.72116592  0.72570094  0.64622383  1
  Ti  Ti27  1  -0.08932872  0.22025174  0.20065641  1
  Ti  Ti28  1  -0.04869553  0.14087657  0.55028684  1
  Ti  Ti29  1  -0.05382701  0.15078121  0.82105831  1
  Ti  Ti30  1  0.07448257  0.49583552  0.19846749  1
  Ti  Ti31  1  -0.03276274  0.54800524  0.43711658  1
  Ti  Ti32  1  0.03175726  0.46074345  0.79771476  1
  Ti  Ti33  1  -0.04877072  0.86566038  0.27420734  1
  Ti  Ti34  1  -0.00370936  0.82364083  0.48448302  1
  Ti  Ti35  1  0.05895983  0.89155920  0.88185104  1
  Ti  Ti36  1  0.33426278  0.15526683  0.24369862  1
  Ti  Ti37  1  0.33563313  0.20032873  0.49740094  1
  Ti  Ti38  1  0.32603417  0.15576775  0.81309242  1
  Ti  Ti39  1  0.35290373  0.43114501  0.10245620  1
  Ti  Ti40  1  0.37612741  0.46587905  0.40661935  1
  Ti  Ti41  1  0.35303765  0.47683953  0.88593782  1
  Ti  Ti42  1  0.44246879  0.80697903  0.15958958  1
  Ti  Ti43  1  0.35015808  0.80697419  0.50164095  1
  Ti  Ti44  1  0.25875950  0.77070068  0.83989204  1
  Ti  Ti45  1  0.69942735  0.25843259  0.22832771  1
  Ti  Ti46  1  0.65459756  0.11518110  0.49571823  1
  Ti  Ti47  1  0.68120218  0.20755308  0.76550933  1
  Ti  Ti48  1  0.63706574  0.43999739  0.17433555  1
  Ti  Ti49  1  0.59329985  0.51155118  0.47435313  1
  Ti  Ti50  1  0.70561727  0.51975224  0.79010062  1
  Ti  Ti51  1  0.65902732  0.84110868  0.12328589  1
  Ti  Ti52  1  0.64031308  0.85859199  0.51190663  1
  Ti  Ti53  1  0.66049966  0.81715258  0.82393516  1
  Ti  Ti54  1  0.19426522  -0.03825108  0.15790526  1
  Ti  Ti55  1  0.18009976  0.00733663  0.48777821  1
  Ti  Ti56  1  0.24701484  -0.04898628  0.81044966  1
  Ti  Ti57  1  0.23327948  0.27702994  0.14136617  1
  Ti  Ti58  1  0.20886672  0.34867227  0.53227086  1
  Ti  Ti59  1  0.20291003  0.32412927  0.83303521  1
  Ti  Ti60  1  0.14155272  0.67599145  0.14400214  1
  Ti  Ti61  1  0.12043784  0.67793377  0.47288895  1
  Ti  Ti62  1  0.13256119  0.64972055  0.77525123  1
  Ti  Ti63  1  0.37275653  -0.03251893  0.21429882  1
  Ti  Ti64  1  0.49010482  -0.02930044  0.59406610  1
  Ti  Ti65  1  0.57891433  0.01533189  0.77619087  1
  Ti  Ti66  1  0.49570004  0.27261806  0.19267392  1
  Ti  Ti67  1  0.53161415  0.30098311  0.46262630  1
  Ti  Ti68  1  0.52889256  0.32693701  0.91002138  1
  Ti  Ti69  1  0.59371042  0.64847048  0.16895722  1
  Ti  Ti70  1  0.44761047  0.64384036  0.43854109  1
  Ti  Ti71  1  0.45647730  0.84368215  0.77997148  1
  Ti  Ti72  1  0.87540984  0.01675524  0.16545233  1
  Ti  Ti73  1  0.82665610  -0.00304270  0.51201266  1
  Ti  Ti74  1  0.78652043  0.05469035  0.80615441  1
  Ti  Ti75  1  0.82757292  0.38937210  0.15699429  1
  Ti  Ti76  1  0.73445878  0.38688805  0.54922339  1
  Ti  Ti77  1  0.82738777  0.34330379  0.86930088  1
  Ti  Ti78  1  0.79687467  0.58699736  0.10477846  1
  Ti  Ti79  1  0.89840803  0.68434787  0.53840113  1
  Ti  Ti80  1  0.81197720  0.67472946  0.86745196  1
  Ti  Ti81  1  0.14580441  0.14563816  0.00879533  1
  Ti  Ti82  1  0.12545461  0.14855417  0.25557376  1
  Ti  Ti83  1  0.10898026  0.20552355  0.69080990  1
  Ti  Ti84  1  0.15487497  0.51900670  -0.03855194  1
  Ti  Ti85  1  0.17302635  0.49742425  0.38823928  1
  Ti  Ti86  1  0.15409665  0.51933442  0.61574336  1
  Ti  Ti87  1  0.16607806  0.82536722  0.01967836  1
  Ti  Ti88  1  0.12969782  0.80804635  0.30505549  1
  Ti  Ti89  1  0.20970250  0.83692962  0.62456590  1
  Ti  Ti90  1  0.48439252  0.11651480  -0.07890059  1
  Ti  Ti91  1  0.51521284  0.07221463  0.29466872  1
  Ti  Ti92  1  0.46135789  0.24355057  0.64767166  1
  Ti  Ti93  1  0.49090364  0.56106066  -0.00298112  1
  Ti  Ti94  1  0.45062748  0.50846284  0.23622531  1
  Ti  Ti95  1  0.50462740  0.55117860  0.76318530  1
  Ti  Ti96  1  0.54223116  0.89503826  -0.02996957  1
  Ti  Ti97  1  0.56521245  0.87003724  0.30194371  1
  Ti  Ti98  1  0.49474187  0.73635326  0.63001249  1
  Ti  Ti99  1  0.92665208  0.15334133  0.01492780  1
  Ti  Ti100  1  0.80045597  0.14351457  0.35666614  1
  Ti  Ti101  1  0.84329709  0.22446992  0.67532654  1
  Ti  Ti102  1  0.91975762  0.47561517  -0.01917299  1
  Ti  Ti103  1  0.87389925  0.51254695  0.28749175  1
  Ti  Ti104  1  0.83639759  0.52917956  0.63164668  1
  Ti  Ti105  1  0.81768925  0.86030268  -0.03775163  1
  Ti  Ti106  1  0.79938076  0.81976352  0.38242037  1
  Ti  Ti107  1  0.94729626  0.86112757  0.67542595  1
  Co  Co108  1  0.72204646  0.55711094  0.26162037  1
  Co  Co109  1  0.90288784  0.04599980  0.67869368  1
  Co  Co110  1  0.78417142  0.53557945  0.46219098  1
  Co  Co111  1  0.62647514  0.44932993  0.91238885  1
  Co  Co112  1  0.38688228  0.35183834  0.28057190  1
  Co  Co113  1  0.06923437  0.82878795  0.15371277  1
  Co  Co114  1  0.16769558  0.41857192  0.09229074  1
  Co  Co115  1  0.88303627  0.40636255  0.45172626  1
  Co  Co116  1  0.58845270  0.67284074  0.52198495  1
  Co  Co117  1  0.59693358  0.86481087  0.67711466  1
  Co  Co118  1  0.78331432  0.87136303  0.22199514  1
  Co  Co119  1  0.39389941  0.84443355  0.32861857  1
  Co  Co120  1  0.67287400  0.25044525  0.60046599  1
  Co  Co121  1  0.06033946  0.42666734  0.49144253  1
  Co  Co122  1  0.06441336  0.26959859  0.54011716  1
  Co  Co123  1  0.02765889  0.11462120  0.13524145  1
  Co  Co124  1  0.99566442  0.34191466  0.92197158  1
  Co  Co125  1  0.90696569  0.85144702  0.11562781  1
  Co  Co126  1  0.79433745  0.74356367  0.07717965  1
  Co  Co127  1  0.18038708  0.16095059  0.55081666  1
  Co  Co128  1  0.77308189  0.14488989  0.13946124  1
  Co  Co129  1  0.40382409  0.98255493  0.84385110  1
  Co  Co130  1  0.27488150  0.09926879  0.09881050  1
  Co  Co131  1  0.91233724  0.94706586  0.80951110  1
  Co  Co132  1  0.73911381  0.71802383  0.22821669  1
  Co  Co133  1  0.05686684  0.98013337  0.23879816  1
  Co  Co134  1  0.43807796  0.07656119  0.71928472  1
  Co  Co135  1  0.87296262  0.30369683  0.02633878  1
  Co  Co136  1  0.13266834  0.36862418  0.68167930  1
  Co  Co137  1  0.20146524  0.48977009  0.79300099  1
  Co  Co138  1  0.43049017  0.20211685  0.36034667  1
  Co  Co139  1  0.57078100  0.54507016  0.32011688  1
  Co  Co140  1  0.04100189  1.05230712  0.90475831  1
  Co  Co141  1  0.21603537  0.16135057  0.39322070  1
  Co  Co142  1  0.23182421  0.02357456  0.30993815  1
  Co  Co143  1  0.44338837  0.11038752  0.12023060  1
  Co  Co144  1  0.75027290  0.41328674  0.01987437  1
  Co  Co145  1  0.24858791  0.56121042  0.11580159  1
  Co  Co146  1  1.06103159  0.71868056  0.61948727  1
  Co  Co147  1  0.50366880  0.80326322  0.44513009  1
  Co  Co148  1  0.76751472  0.54550379  0.94168432  1
  Co  Co149  1  0.57996667  0.12282171  0.64855226  1
  Co  Co150  1  0.53926066  0.22517247  0.03888688  1
  Co  Co151  1  0.82748447  0.65681240  0.35348050  1
  Co  Co152  1  0.46447083  0.39266677  0.76572005  1
  Co  Co153  1  0.34139855  0.75838786  0.68992559  1
  Co  Co154  1  0.27820474  0.24925737  0.66375605  1
  Co  Co155  1  0.26116327  0.79763889  0.18967978  1
  Co  Co156  1  0.06332671  0.13669847  0.43340071  1
  Co  Co157  1  0.35417731  0.91867745  0.66356791  1
  Co  Co158  1  0.52021517  0.20957366  0.78994067  1
  Co  Co159  1  0.37218904  0.29855300  0.85601416  1
  Co  Co160  1  0.64203320  0.53520249  0.04528878  1
  Co  Co161  1  0.74769864  0.09857750  0.63149446  1
  Ni  Ni162  1  0.60452178  0.13581716  0.15882747  1
  Ni  Ni163  1  0.69440462  -0.02574200  0.39833324  1
  Ni  Ni164  1  0.84494643  0.98312259  0.33685827  1
  Ni  Ni165  1  0.62662092  0.66050793  0.75753026  1
  Ni  Ni166  1  0.11927097  0.33747536  0.24960614  1
  Ni  Ni167  1  0.19421798  -0.01089181  0.97261093  1
  Ni  Ni168  1  0.51637564  0.40245365  0.06467123  1
  Ni  Ni169  1  0.39969744  0.63630090  0.14662587  1
  Ni  Ni170  1  0.79747749  0.18403504  0.91316363  1
  Ni  Ni171  1  0.10339278  0.81822025  0.74633874  1
  Ni  Ni172  1  0.98477476  0.30543389  0.75715415  1
  Ni  Ni173  1  0.08289667  0.22121587  0.87762862  1
  Ni  Ni174  1  0.81906322  0.80177029  0.75612777  1
  Ni  Ni175  1  0.47829333  0.70053476  0.28701159  1
  Ni  Ni176  1  0.53287432  0.71762069  0.87528539  1
  Ni  Ni177  1  -0.00963465  0.60875322  0.89232863  1
  Ni  Ni178  1  0.23359699  0.66923226  0.59953867  1
  Ni  Ni179  1  0.67039483  0.55881811  0.61746734  1
  Ni  Ni180  1  0.27158581  0.36091097  0.97985732  1
  Ni  Ni181  1  0.25375690  0.44820172  0.24305328  1
  Ni  Ni182  1  0.49855143  0.72615067  0.03259693  1
  Ni  Ni183  1  0.54582828  0.97011641  0.13758003  1
  Ni  Ni184  1  0.82279021  0.83447251  0.55626797  1
  Ni  Ni185  1  0.74164695  0.69496629  0.48799513  1
  Ni  Ni186  1  0.81664253  0.24149521  0.49675517  1
  Ni  Ni187  1  0.00056991  0.55699830  0.60635416  1
  Ni  Ni188  1  0.07597148  0.92322549  0.58720864  1
  Ni  Ni189  1  0.60523043  0.20128857  0.34406779  1
  Ni  Ni190  1  0.24544457  0.87934292  0.39617185  1
  Ni  Ni191  1  0.38626006  0.65565227  0.86863489  1
  Ni  Ni192  1  0.27789864  0.62441901  0.44597731  1
  Ni  Ni193  1  0.64105421  0.13622278  0.90947342  1
  Ni  Ni194  1  0.10241153  0.62674260  0.30487704  1
  Ni  Ni195  1  0.83954717  0.30532707  0.33272690  1
  Ni  Ni196  1  0.31431052  0.51373890  0.55924206  1
  Ni  Ni197  1  0.68853752  0.96108138  0.89821400  1
  Ni  Ni198  1  0.13026552  0.68466283  0.94574882  1
  Ni  Ni199  1  0.47327736  0.56332793  0.59429515  1
  Ni  Ni200  1  -0.02181505  0.71181393  0.36763915  1
  Ni  Ni201  1  0.17190602  0.10181665  0.81798075  1
  Ni  Ni202  1  0.38082598  0.36116688  0.53581351  1
  Ni  Ni203  1  0.53134427  0.40750009  0.59407875  1
  Ni  Ni204  1  1.00552998  0.58379535  0.07191926  1
  Ni  Ni205  1  0.96492874  0.37810582  0.25019896  1
  Ni  Ni206  1  0.31565830  0.86211092  0.06080323  1
  Ni  Ni207  1  0.94364785  0.78034570  0.85567270  1
  Ni  Ni208  1  0.96427708  0.10387550  0.30190657  1
  Ni  Ni209  1  0.55647964  0.37584097  0.31774833  1
  Ni  Ni210  1  0.78994761  0.38037497  0.70960421  1
  Ni  Ni211  1  0.48606497  0.12376353  0.49945013  1
  Ni  Ni212  1  0.39693410  0.81914409  0.93141154  1
  Ni  Ni213  1  0.53277809  0.97407490  0.43315149  1
  Ni  Ni214  1  0.86967975  0.01562120  0.95273474  1
  Ni  Ni215  1  0.87226808  0.51244167  0.80930722  1
