# generated using pymatgen
data_Ti2CoNi
_symmetry_space_group_name_H-M   'P 1'
_cell_length_a   14.58428362
_cell_length_b   14.61957532
_cell_length_c   14.51346446
_cell_angle_alpha   89.82989955
_cell_angle_beta   90.00326317
_cell_angle_gamma   89.95381058
_symmetry_Int_Tables_number   1
_chemical_formula_structural   Ti2CoNi
_chemical_formula_sum   'Ti108 Co54 Ni54'
_cell_volume   3094.48866616
_cell_formula_units_Z   54
loop_
 _symmetry_equiv_pos_site_id
 _symmetry_equiv_pos_as_xyz
  1  'x, y, z'
loop_
 _atom_site_type_symbol
 _atom_site_label
 _atom_site_symmetry_multiplicity
 _atom_site_fract_x
 _atom_site_fract_y
 _atom_site_fract_z
 _atom_site_occupancy
  Ti  Ti0  1  -0.01288207  0.03122116  -0.01259045  1
  Ti  Ti1  1  -0.00268665  0.08606669  0.42967973  1
  Ti  Ti2  1  0.00712638  0.01042715  0.66196192  1
  Ti  Ti3  1  -0.01517116  0.29662427  -0.04277887  1
  Ti  Ti4  1  0.01879294  0.34980742  0.38407286  1
  Ti  Ti5  1  0.02363042  0.33414273  0.69221264  1
  Ti  Ti6  1  -0.03589110  0.68699948  0.05493722  1
  Ti  Ti7  1  -0.00170197  0.59726245  0.35471272  1
  Ti  Ti8  1  -0.04305599  0.66182939  0.68147859  1
  Ti  Ti9  1  0.29991890  -0.03413347  -0.01199655  1
  Ti  Ti10  1  0.35830224  0.07841721  0.30845268  1
  Ti  Ti11  1  0.29024303  0.01153667  0.64837817  1
  Ti  Ti12  1  0.27221873  0.35437308  -0.00689277  1
  Ti  Ti13  1  0.35591388  0.33886300  0.37079640  1
  Ti  Ti14  1  0.29227089  0.37069235  0.67837513  1
  Ti  Ti15  1  0.30022008  0.56748772  0.01649267  1
  Ti  Ti16  1  0.37888869  0.65461799  0.33238627  1
  Ti  Ti17  1  0.40020923  0.69982290  0.62146134  1
  Ti  Ti18  1  0.68385186  -0.11822674  0.00545423  1
  Ti  Ti19  1  0.66082229  0.01750856  0.27272244  1
  Ti  Ti20  1  0.65343784  -0.00665641  0.69906184  1
  Ti  Ti21  1  0.62308494  0.34862223  0.01962525  1
  Ti  Ti22  1  0.61543794  0.35645131  0.39685672  1
  Ti  Ti23  1  0.69286879  0.36427039  0.70750286  1
  Ti  Ti24  1  0.66899284  0.64260361  -0.02580184  1
  Ti  Ti25  1  0.63675184  0.68599257  0.37890405  1
  Ti  Ti26  1  0.67340157  0.70137569  0.59217157  1
  Ti  Ti27  1  -0.06500340  0.20620385  0.26536282  1
  Ti  Ti28  1  0.01104432  0.18900334  0.58356031  1
  Ti  Ti29  1  0.02210545  0.16366221  0.82031713  1
  Ti  Ti30  1  0.03034844  0.45472211  0.21179468  1
  Ti  Ti31  1  0.01005991  0.48767896  0.54296855  1
  Ti  Ti32  1  -0.02380809  0.55993001  0.87966619  1
  Ti  Ti33  1  -0.03508571  0.89827672  0.17915373  1
  Ti  Ti34  1  0.06525599  0.91694953  0.48485071  1
  Ti  Ti35  1  0.01763959  0.87297450  0.83630005  1
  Ti  Ti36  1  0.36880613  0.07919432  0.11854843  1
  Ti  Ti37  1  0.29470237  0.19286608  0.54669421  1
  Ti  Ti38  1  0.35985475  0.08057592  0.81768190  1
  Ti  Ti39  1  0.32602674  0.46920111  0.21923973  1
  Ti  Ti40  1  0.33286393  0.51163034  0.55267811  1
  Ti  Ti41  1  0.38584873  0.57759970  0.80059230  1
  Ti  Ti42  1  0.34701140  0.88269088  0.20672667  1
  Ti  Ti43  1  0.26121756  0.87082749  0.49609265  1
  Ti  Ti44  1  0.27922930  0.75614114  0.77106073  1
  Ti  Ti45  1  0.68963903  0.15970803  0.09712284  1
  Ti  Ti46  1  0.66062232  0.09637438  0.47974332  1
  Ti  Ti47  1  0.66336922  0.20239451  0.90487899  1
  Ti  Ti48  1  0.63529356  0.47688399  0.17162386  1
  Ti  Ti49  1  0.71908275  0.52241123  0.50383659  1
  Ti  Ti50  1  0.68370731  0.50374492  0.84537041  1
  Ti  Ti51  1  0.66307829  0.82508500  0.22505018  1
  Ti  Ti52  1  0.65054607  0.88681700  0.42819888  1
  Ti  Ti53  1  0.70369565  0.81527065  0.78022528  1
  Ti  Ti54  1  0.16841892  0.00789734  0.16961713  1
  Ti  Ti55  1  0.20360157  0.04354611  0.42116687  1
  Ti  Ti56  1  0.22053450  -0.06983384  0.82169731  1
  Ti  Ti57  1  0.23321299  0.31140354  0.20040392  1
  Ti  Ti58  1  0.19402870  0.35205118  0.48751479  1
  Ti  Ti59  1  0.13473386  0.39781671  0.82723359  1
  Ti  Ti60  1  0.21015354  0.71925888  0.17334112  1
  Ti  Ti61  1  0.22393762  0.66074333  0.46116114  1
  Ti  Ti62  1  0.16833207  0.61123483  0.84710048  1
  Ti  Ti63  1  0.51143022  -0.06621620  0.09100723  1
  Ti  Ti64  1  0.40675535  0.04122246  0.50286791  1
  Ti  Ti65  1  0.55204578  0.04883511  0.84631783  1
  Ti  Ti66  1  0.45553900  0.34104432  0.12418724  1
  Ti  Ti67  1  0.46040462  0.31207667  0.53880464  1
  Ti  Ti68  1  0.44551794  0.24826342  0.85052113  1
  Ti  Ti69  1  0.48775858  0.65373825  0.07329817  1
  Ti  Ti70  1  0.51534001  0.58571948  0.49630526  1
  Ti  Ti71  1  0.58185468  0.65153350  0.76730169  1
  Ti  Ti72  1  0.79922222  0.00853656  0.13865784  1
  Ti  Ti73  1  0.85510155  0.06074334  0.55195631  1
  Ti  Ti74  1  0.87367185  -0.00222698  0.83335526  1
  Ti  Ti75  1  0.78936094  0.32997793  0.13451217  1
  Ti  Ti76  1  0.75808064  0.32110189  0.52280293  1
  Ti  Ti77  1  0.84197462  0.27668042  0.80569412  1
  Ti  Ti78  1  0.83693257  0.71879364  0.23424727  1
  Ti  Ti79  1  0.86576418  0.65074775  0.49508053  1
  Ti  Ti80  1  0.83725823  0.69966349  0.84971373  1
  Ti  Ti81  1  0.14909967  0.16309378  0.05592171  1
  Ti  Ti82  1  0.11757277  0.16129690  0.29383542  1
  Ti  Ti83  1  0.19882704  0.15985679  0.74551850  1
  Ti  Ti84  1  0.09620819  0.48929331  0.00476903  1
  Ti  Ti85  1  0.17424397  0.57211425  0.29084422  1
  Ti  Ti86  1  0.13284421  0.61251154  0.63758288  1
  Ti  Ti87  1  0.16016789  0.78572255  -0.04822748  1
  Ti  Ti88  1  0.14074515  0.86421529  0.28249422  1
  Ti  Ti89  1  0.13888022  0.87932725  0.66127377  1
  Ti  Ti90  1  0.49133293  0.18899754  0.01493630  1
  Ti  Ti91  1  0.53452127  0.17302985  0.28263932  1
  Ti  Ti92  1  0.51056321  0.13667859  0.63462157  1
  Ti  Ti93  1  0.46530547  0.45812988  -0.06763014  1
  Ti  Ti94  1  0.49630506  0.53622745  0.27114182  1
  Ti  Ti95  1  0.50899393  0.41059912  0.70748459  1
  Ti  Ti96  1  0.44831837  0.82403078  -0.06159700  1
  Ti  Ti97  1  0.48495391  0.83080881  0.34892357  1
  Ti  Ti98  1  0.53055309  0.83419425  0.65808780  1
  Ti  Ti99  1  0.89019627  0.16916057  0.07743536  1
  Ti  Ti100  1  0.75084369  0.19828962  0.30253972  1
  Ti  Ti101  1  0.72590037  0.16192974  0.65593216  1
  Ti  Ti102  1  0.90535349  0.47591112  0.05726068  1
  Ti  Ti103  1  0.81148232  0.51487283  0.31405057  1
  Ti  Ti104  1  0.85756690  0.44703998  0.65119566  1
  Ti  Ti105  1  0.87507414  0.85327388  -0.02010316  1
  Ti  Ti106  1  0.94746849  0.79957412  0.36608998  1
  Ti  Ti107  1  0.83941806  0.84438817  0.53924180  1
  Co  Co108  1  0.87396938  0.47443214  0.45890226  1
  Co  Co109  1  0.78354454  0.04613001  0.39365839  1
  Co  Co110  1  0.33323756  0.23511950  0.08629639  1
  Co  Co111  1  0.55725274  0.88860488  0.81234489  1
  Co  Co112  1  0.58437183  0.51303468  0.01647036  1
  Co  Co113  1  0.04047462  0.64701182  0.50144530  1
  Co  Co114  1  0.18556961  0.47059003  0.13953612  1
  Co  Co115  1  0.26115444  0.20742433  0.36939811  1
  Co  Co116  1  0.96159800  0.31912544  0.11237136  1
  Co  Co117  1  0.79607077  0.59942153  0.64513988  1
  Co  Co118  1  0.90820462  0.94440209  0.42242315  1
  Co  Co119  1  0.07266832  0.30147137  0.22633280  1
  Co  Co120  1  0.61612147  0.26797286  0.58542535  1
  Co  Co121  1  0.59725302  0.76395488  0.90715396  1
  Co  Co122  1  0.18894720  0.08429475  0.90866456  1
  Co  Co123  1  0.65121052  0.53096828  0.66773013  1
  Co  Co124  1  0.58771146  0.43198947  0.55110945  1
  Co  Co125  1  0.87885532  0.15695595  0.90716800  1
  Co  Co126  1  0.44368165  0.03752864  -0.03242790  1
  Co  Co127  1  0.14447264  0.24812180  0.91410779  1
  Co  Co128  1  0.91860332  0.58802801  0.19144184  1
  Co  Co129  1  0.15732293  0.64593875  1.02798153  1
  Co  Co130  1  0.81149247  0.85125059  0.13380666  1
  Co  Co131  1  0.17758020  0.40617409  0.32512734  1
  Co  Co132  1  0.07203571  0.60040309  0.15169210  1
  Co  Co133  1  0.11100658  0.74715897  0.75119667  1
  Co  Co134  1  0.48760952  0.56134590  0.65613708  1
  Co  Co135  1  0.27125780  0.28380419  0.82311254  1
  Co  Co136  1  0.12831387  0.19765353  0.46348184  1
  Co  Co137  1  0.15654221  0.25812550  0.62417323  1
  Co  Co138  1  0.84725304  0.53392954  0.78462770  1
  Co  Co139  1  0.89696756  0.37052799  0.25008735  1
  Co  Co140  1  0.99223298  0.78807226  0.53866060  1
  Co  Co141  1  0.08157965  0.01674165  0.81001213  1
  Co  Co142  1  0.38933224  0.23540406  0.24462345  1
  Co  Co143  1  1.02894469  0.72657569  0.24353496  1
  Co  Co144  1  0.31385182  0.17273689  0.94374178  1
  Co  Co145  1  0.43373304  0.88358108  0.51905776  1
  Co  Co146  1  0.38555620  0.39197547  0.81130830  1
  Co  Co147  1  0.07454199  0.80785932  0.10448873  1
  Co  Co148  1  0.61707573  0.04304367  0.99836168  1
  Co  Co149  1  0.48783479  0.63710383  0.91309108  1
  Co  Co150  1  0.25160969  0.14818111  0.20462634  1
  Co  Co151  1  0.38472226  0.91388080  0.81624976  1
  Co  Co152  1  0.82876723  0.33058096  0.38336945  1
  Co  Co153  1  0.41495172  0.18744828  0.41749975  1
  Co  Co154  1  0.11815735  0.33780626  0.06077805  1
  Co  Co155  1  0.34593482  0.86070307  0.66130548  1
  Co  Co156  1  0.62678618  0.51409856  0.36475462  1
  Co  Co157  1  0.28062393  0.59140851  0.68468170  1
  Co  Co158  1  0.45239573  0.75390588  0.78844835  1
  Co  Co159  1  0.14741694  0.06171624  0.57188199  1
  Co  Co160  1  0.88271635  0.05553527  0.26917367  1
  Co  Co161  1  0.82643655  0.58299849  0.95742575  1
  Ni  Ni162  1  0.70662793  0.95602242  0.86274412  1
  Ni  Ni163  1  0.78479049  0.04641946  -0.02374732  1
  Ni  Ni164  1  0.87074311  0.18934339  0.43785006  1
  Ni  Ni165  1  0.58924434  0.22715097  0.74989541  1
  Ni  Ni166  1  0.49772976  0.36440992  0.28160371  1
  Ni  Ni167  1  0.43722931  0.49884811  0.09851778  1
  Ni  Ni168  1  0.53005371  0.70478550  0.23575963  1
  Ni  Ni169  1  0.72320415  0.95930553  0.55537177  1
  Ni  Ni170  1  0.82386383  0.94817482  0.68625346  1
  Ni  Ni171  1  0.39670934  0.24219422  0.69253654  1
  Ni  Ni172  1  0.52595629  1.00951025  0.39504286  1
  Ni  Ni173  1  0.46433659  -0.01358888  0.69242951  1
  Ni  Ni174  1  0.58725340  0.35688905  0.85620321  1
  Ni  Ni175  1  0.02117144  0.50404849  0.72226480  1
  Ni  Ni176  1  0.15130057  0.51353446  0.46240931  1
  Ni  Ni177  1  0.74085666  0.10366136  0.80866024  1
  Ni  Ni178  1  0.30599480  0.50630653  0.38751967  1
  Ni  Ni179  1  0.81140674  0.41676287  0.89467736  1
  Ni  Ni180  1  0.37459073  0.74479615  0.46835104  1
  Ni  Ni181  1  0.80235341  0.90747587  0.29384636  1
  Ni  Ni182  1  0.73897331  0.46716292  0.03049163  1
  Ni  Ni183  1  0.58410379  0.77884767  0.08551775  1
  Ni  Ni184  1  0.35641314  0.62901128  0.17355390  1
  Ni  Ni185  1  0.32035584  0.70589489  0.92752736  1
  Ni  Ni186  1  0.81771636  0.75592414  0.67723401  1
  Ni  Ni187  1  0.54773064  0.09388956  0.13858913  1
  Ni  Ni188  1  0.77552984  0.77156447  0.39101024  1
  Ni  Ni189  1  0.62011408  0.28649088  0.18881044  1
  Ni  Ni190  1  0.55969593  -0.02242088  0.55626741  1
  Ni  Ni191  1  0.04110400  0.99271378  0.30262101  1
  Ni  Ni192  1  0.27532577  0.78512085  0.33905391  1
  Ni  Ni193  1  0.48699501  0.98228816  0.24401018  1
  Ni  Ni194  1  0.95956031  0.40119771  0.83373479  1
  Ni  Ni195  1  0.53914531  0.75643529  0.49909502  1
  Ni  Ni196  1  0.22785635  0.74647536  0.60704089  1
  Ni  Ni197  1  0.68664946  0.62109295  0.23983459  1
  Ni  Ni198  1  0.22118633  0.87092600  0.09996379  1
  Ni  Ni199  1  0.01016822  0.06992621  0.15146770  1
  Ni  Ni200  1  0.88635702  0.12132925  0.71944241  1
  Ni  Ni201  1  0.56528296  0.21023872  0.44254641  1
  Ni  Ni202  1  0.35848600  0.77755421  0.07721240  1
  Ni  Ni203  1  1.01139127  0.71900160  0.88250357  1
  Ni  Ni204  1  -0.04082456  0.84699575  0.68442624  1
  Ni  Ni205  1  0.15528858  0.44459470  0.63723787  1
  Ni  Ni206  1  0.12423278  0.94864607  0.98176498  1
  Ni  Ni207  1  0.72383712  0.38139304  0.27706307  1
  Ni  Ni208  1  0.26911000  0.47858495  0.87702532  1
  Ni  Ni209  1  0.86098719  0.26080834  0.64160280  1
  Ni  Ni210  1  0.78893817  0.28027410  0.97837897  1
  Ni  Ni211  1  0.78351105  0.72207504  0.05428905  1
  Ni  Ni212  1  0.93723673  0.33310951  0.52261788  1
  Ni  Ni213  1  0.35141364  0.92826122  0.37200665  1
  Ni  Ni214  1  0.46842081  0.44971843  0.42563091  1
  Ni  Ni215  1  0.10887918  0.75883309  0.39994005  1
