# generated using pymatgen
data_Ti2CoNi
_symmetry_space_group_name_H-M   'P 1'
_cell_length_a   14.57277206
_cell_length_b   14.62396979
_cell_length_c   14.62318013
_cell_angle_alpha   89.79220031
_cell_angle_beta   89.74576039
_cell_angle_gamma   89.84671414
_symmetry_Int_Tables_number   1
_chemical_formula_structural   Ti2CoNi
_chemical_formula_sum   'Ti108 Co54 Ni54'
_cell_volume   3116.30972865
_cell_formula_units_Z   54
loop_
 _symmetry_equiv_pos_site_id
 _symmetry_equiv_pos_as_xyz
  1  'x, y, z'
loop_
 _atom_site_type_symbol
 _atom_site_label
 _atom_site_symmetry_multiplicity
 _atom_site_fract_x
 _atom_site_fract_y
 _atom_site_fract_z
 _atom_site_occupancy
  Ti  Ti0  1  0.04572119  -0.01666232  0.05489734  1
  Ti  Ti1  1  -0.01647876  0.06981058  0.28671001  1
  Ti  Ti2  1  -0.01110651  0.00845393  0.61856566  1
  Ti  Ti3  1  0.01940438  0.32841193  -0.05232869  1
  Ti  Ti4  1  -0.06911654  0.33792573  0.36645369  1
  Ti  Ti5  1  0.02224860  0.38828995  0.64468574  1
  Ti  Ti6  1  -0.02858059  0.70808688  -0.01675029  1
  Ti  Ti7  1  0.03773636  0.74580399  0.35232392  1
  Ti  Ti8  1  0.02304604  0.68171273  0.75415306  1
  Ti  Ti9  1  0.31350594  0.02066465  -0.04795493  1
  Ti  Ti10  1  0.27130891  0.05713868  0.35684614  1
  Ti  Ti11  1  0.37377448  0.03394447  0.70219219  1
  Ti  Ti12  1  0.42261636  0.35656127  0.00743519  1
  Ti  Ti13  1  0.41138630  0.31048161  0.31174062  1
  Ti  Ti14  1  0.36737351  0.32576373  0.61363126  1
  Ti  Ti15  1  0.30107649  0.61282534  0.03027089  1
  Ti  Ti16  1  0.34202086  0.64694081  0.34830153  1
  Ti  Ti17  1  0.40201983  0.67459060  0.63728343  1
  Ti  Ti18  1  0.66683464  -0.02651568  -0.04250324  1
  Ti  Ti19  1  0.66978752  -0.01580844  0.34653285  1
  Ti  Ti20  1  0.69246461  0.02525254  0.72170357  1
  Ti  Ti21  1  0.65224371  0.43972136  0.00631042  1
  Ti  Ti22  1  0.60734534  0.32155166  0.34659469  1
  Ti  Ti23  1  0.82339996  0.34457013  0.67806490  1
  Ti  Ti24  1  0.73364512  0.62948194  -0.03002892  1
  Ti  Ti25  1  0.61019580  0.64913517  0.29031306  1
  Ti  Ti26  1  0.72737345  0.70115234  0.67062588  1
  Ti  Ti27  1  0.04196565  0.15297349  0.11245230  1
  Ti  Ti28  1  -0.02257788  0.22070359  0.55360167  1
  Ti  Ti29  1  0.00745193  0.12987874  0.88897306  1
  Ti  Ti30  1  -0.05095463  0.55951143  0.17696142  1
  Ti  Ti31  1  0.03366272  0.53493778  0.46446486  1
  Ti  Ti32  1  0.03408747  0.53928470  0.90653189  1
  Ti  Ti33  1  -0.03732060  0.88087267  0.22206696  1
  Ti  Ti34  1  -0.03079294  0.84313569  0.53253451  1
  Ti  Ti35  1  0.02673448  0.87272641  0.89265889  1
  Ti  Ti36  1  0.29750748  0.19574483  0.16173756  1
  Ti  Ti37  1  0.28090221  0.15731844  0.52149671  1
  Ti  Ti38  1  0.23033778  0.12951176  0.81538133  1
  Ti  Ti39  1  0.31889587  0.49355027  0.18318375  1
  Ti  Ti40  1  0.25701761  0.54725530  0.52161993  1
  Ti  Ti41  1  0.40494313  0.59533206  0.81557572  1
  Ti  Ti42  1  0.32149581  0.84030223  0.14363485  1
  Ti  Ti43  1  0.26300358  0.80276799  0.56070695  1
  Ti  Ti44  1  0.34810963  0.81616175  0.80119706  1
  Ti  Ti45  1  0.68369531  0.23017618  0.13352599  1
  Ti  Ti46  1  0.58866533  0.13266334  0.48647178  1
  Ti  Ti47  1  0.65412065  0.21974426  0.86189696  1
  Ti  Ti48  1  0.69332336  0.47675257  0.26155852  1
  Ti  Ti49  1  0.65303146  0.41149996  0.55525095  1
  Ti  Ti50  1  0.61387702  0.43893583  0.75722426  1
  Ti  Ti51  1  0.65121578  0.82061816  0.25360014  1
  Ti  Ti52  1  0.68112542  0.79183109  0.47494598  1
  Ti  Ti53  1  0.62910558  0.84042439  0.77022080  1
  Ti  Ti54  1  0.17405409  -0.01145325  0.21447677  1
  Ti  Ti55  1  0.14330393  -0.01499164  0.47283732  1
  Ti  Ti56  1  0.12351843  -0.02223981  0.77065967  1
  Ti  Ti57  1  0.13178989  0.32576507  0.15505033  1
  Ti  Ti58  1  0.25659022  0.34607576  0.44249834  1
  Ti  Ti59  1  0.26076461  0.35767897  0.80274036  1
  Ti  Ti60  1  0.17355508  0.66686462  0.19006604  1
  Ti  Ti61  1  0.09768997  0.69869427  0.56275382  1
  Ti  Ti62  1  0.21549945  0.58655510  0.84159557  1
  Ti  Ti63  1  0.50312170  -0.03231003  0.23156903  1
  Ti  Ti64  1  0.44258006  0.01888701  0.42461001  1
  Ti  Ti65  1  0.48267410  -0.07314438  0.88240091  1
  Ti  Ti66  1  0.48829964  0.25678485  0.15617066  1
  Ti  Ti67  1  0.46741453  0.42082940  0.46420415  1
  Ti  Ti68  1  0.46367066  0.27627766  0.82220634  1
  Ti  Ti69  1  0.59685655  0.69111007  0.09164748  1
  Ti  Ti70  1  0.55525519  0.63181600  0.48323293  1
  Ti  Ti71  1  0.58420875  0.65552120  0.85132345  1
  Ti  Ti72  1  0.85294922  0.03189112  0.12859107  1
  Ti  Ti73  1  0.80066393  -0.03833683  0.51509862  1
  Ti  Ti74  1  0.90989623  -0.00926218  0.79916651  1
  Ti  Ti75  1  0.82950058  0.38775753  0.12203130  1
  Ti  Ti76  1  0.78080913  0.25237082  0.51287830  1
  Ti  Ti77  1  0.83824575  0.26482236  0.85271477  1
  Ti  Ti78  1  0.82003536  0.71586232  0.13665082  1
  Ti  Ti79  1  0.87383180  0.68429080  0.49217823  1
  Ti  Ti80  1  0.86094040  0.60554640  0.83056711  1
  Ti  Ti81  1  0.17590552  0.21140146  -0.02422552  1
  Ti  Ti82  1  0.10508512  0.18605117  0.38761199  1
  Ti  Ti83  1  0.16150038  0.23237980  0.67838516  1
  Ti  Ti84  1  0.18298259  0.44816271  -0.01014926  1
  Ti  Ti85  1  0.15653047  0.46812493  0.33389345  1
  Ti  Ti86  1  0.13375152  0.53231256  0.67382255  1
  Ti  Ti87  1  0.15343954  0.78768517  0.02965043  1
  Ti  Ti88  1  0.23285719  0.81150906  0.32314573  1
  Ti  Ti89  1  0.16687530  0.78870203  0.75168497  1
  Ti  Ti90  1  0.49074443  0.13758675  -0.01701939  1
  Ti  Ti91  1  0.56185961  0.14923946  0.29857319  1
  Ti  Ti92  1  0.53908231  0.15633375  0.69668653  1
  Ti  Ti93  1  0.48094701  0.55586629  0.00571013  1
  Ti  Ti94  1  0.49068963  0.50119191  0.29527246  1
  Ti  Ti95  1  0.46988931  0.50130501  0.62686814  1
  Ti  Ti96  1  0.51568675  0.86427045  0.05952407  1
  Ti  Ti97  1  0.48123757  0.82192129  0.36842779  1
  Ti  Ti98  1  0.45094569  0.87279284  0.60307838  1
  Ti  Ti99  1  0.87080277  0.19387561  0.02560497  1
  Ti  Ti100  1  0.76609068  0.17273913  0.32157004  1
  Ti  Ti101  1  0.84854565  0.14889174  0.70905548  1
  Ti  Ti102  1  0.84831306  0.43628914  -0.05283479  1
  Ti  Ti103  1  0.80696538  0.51467342  0.43582003  1
  Ti  Ti104  1  0.82729130  0.53045490  0.64719879  1
  Ti  Ti105  1  0.81654042  0.83220109  -0.03457104  1
  Ti  Ti106  1  0.83350230  0.84487244  0.36428060  1
  Ti  Ti107  1  0.82045872  0.87071661  0.68220110  1
  Co  Co108  1  0.79369380  0.60220011  0.25303143  1
  Co  Co109  1  0.86175262  0.45465116  0.27534129  1
  Co  Co110  1  0.67791538  0.28322702  0.70985168  1
  Co  Co111  1  0.13450706  0.82412393  0.45714283  1
  Co  Co112  1  0.52966968  0.96897471  0.73601484  1
  Co  Co113  1  -0.02418387  0.58467749  0.60128652  1
  Co  Co114  1  0.40976132  0.17930603  0.40977250  1
  Co  Co115  1  0.40875404  0.57147658  0.47491874  1
  Co  Co116  1  0.77045653  0.43077090  0.80537627  1
  Co  Co117  1  0.93995697  0.39483829  0.81632942  1
  Co  Co118  1  0.46284337  0.60392124  0.17186373  1
  Co  Co119  1  0.11152051  0.71113762  0.89024384  1
  Co  Co120  1  0.43436932  0.15559952  0.56963000  1
  Co  Co121  1  0.10874743  0.26499597  0.82699057  1
  Co  Co122  1  0.13840797  0.03226513  0.93134949  1
  Co  Co123  1  0.02063819  0.24666348  0.26197365  1
  Co  Co124  1  0.91042900  0.17804173  0.39354355  1
  Co  Co125  1  0.85988424  0.10544172  0.55584261  1
  Co  Co126  1  0.74873511  0.68766446  0.37643341  1
  Co  Co127  1  0.92172212  0.58931219  0.35448218  1
  Co  Co128  1  0.62302508  0.49583482  0.41802637  1
  Co  Co129  1  0.61040838  0.36734860  0.17162278  1
  Co  Co130  1  0.13421983  0.61366024  1.02733219  1
  Co  Co131  1  0.76411937  0.54171684  0.10923183  1
  Co  Co132  1  0.11424201  0.43214829  0.81265894  1
  Co  Co133  1  0.74208085  0.09642446  0.45208233  1
  Co  Co134  1  0.46784380  0.43757788  0.14190748  1
  Co  Co135  1  0.89343617  0.72374843  0.28152701  1
  Co  Co136  1  0.42468414  0.10351319  0.83564571  1
  Co  Co137  1  0.42233493  0.72439283  0.06421032  1
  Co  Co138  1  0.35262611  0.85743743  0.97742639  1
  Co  Co139  1  0.74415880  0.73846215  0.83448333  1
  Co  Co140  1  0.60370027  0.53439072  0.13246340  1
  Co  Co141  1  0.71017377  0.57637703  0.78527937  1
  Co  Co142  1  0.27193222  0.21406395  0.33512669  1
  Co  Co143  1  0.98851909  0.91325005  0.38705560  1
  Co  Co144  1  0.51993890  0.01893968  0.58894319  1
  Co  Co145  1  0.32981679  0.68549835  0.19451368  1
  Co  Co146  1  0.52897606  0.33832768  0.63986777  1
  Co  Co147  1  0.27239339  0.72356749  0.91550665  1
  Co  Co148  1  0.98098307  0.52268652  0.74473097  1
  Co  Co149  1  0.20501934  0.88114360  0.89199500  1
  Co  Co150  1  0.77287580  0.91457307  0.83858909  1
  Co  Co151  1  0.51604944  0.27515143  0.48091678  1
  Co  Co152  1  0.40945928  0.11476713  0.25500331  1
  Co  Co153  1  0.58717000  0.07329717  0.85281505  1
  Co  Co154  1  0.96928776  0.25826436  0.73733192  1
  Co  Co155  1  0.20072659  0.08885423  0.08102106  1
  Co  Co156  1  0.06324382  0.37687336  0.45759288  1
  Co  Co157  1  0.74551237  0.29386358  0.99140985  1
  Co  Co158  1  0.49097243  0.75982396  0.75296442  1
  Co  Co159  1  0.44934783  0.72752954  0.91340618  1
  Co  Co160  1  0.21736301  0.93268171  0.05397458  1
  Co  Co161  1  0.15315279  0.15006721  0.23546560  1
  Ni  Ni162  1  0.33084261  0.47468005  0.35955159  1
  Ni  Ni163  1  0.42277253  0.42159317  0.76194889  1
  Ni  Ni164  1  0.87799085  0.01145431  0.96605793  1
  Ni  Ni165  1  0.33994894  0.21517052  0.92938349  1
  Ni  Ni166  1  0.33227964  0.88397729  0.43251080  1
  Ni  Ni167  1  0.23890184  0.66344276  0.67318907  1
  Ni  Ni168  1  0.31806169  0.99737417  0.54568733  1
  Ni  Ni169  1  0.55335497  0.09773027  0.13061395  1
  Ni  Ni170  1  0.14070088  0.26203817  0.52825550  1
  Ni  Ni171  1  0.27248200  0.32275180  0.04958474  1
  Ni  Ni172  1  0.52064480  0.43282666  0.89446324  1
  Ni  Ni173  1  0.26543733  0.91549952  0.68641698  1
  Ni  Ni174  1  0.56800428  0.75475506  0.60009857  1
  Ni  Ni175  1  0.63979542  0.95912808  0.13171614  1
  Ni  Ni176  1  0.57591246  0.92211692  0.46655524  1
  Ni  Ni177  1  0.01955121  0.46015130  0.05589501  1
  Ni  Ni178  1  0.30382040  0.50811249  0.68939662  1
  Ni  Ni179  1  0.70026338  0.14625550  0.61253428  1
  Ni  Ni180  1  0.89131611  0.57614665  0.01794798  1
  Ni  Ni181  1  0.99724816  0.85748914  0.71274360  1
  Ni  Ni182  1  0.18470793  0.06051082  0.63586516  1
  Ni  Ni183  1  0.57668793  0.28764286  -0.00211810  1
  Ni  Ni184  1  0.75296442  0.37017902  0.40573206  1
  Ni  Ni185  1  0.14435002  0.50140449  0.15972917  1
  Ni  Ni186  1  0.78362924  0.91551967  0.22014737  1
  Ni  Ni187  1  0.70730162  0.07817918  0.20247078  1
  Ni  Ni188  1  0.00861701  0.72206412  0.15284407  1
  Ni  Ni189  1  0.89854400  0.39483162  0.52755408  1
  Ni  Ni190  1  0.87921621  0.19439055  0.19567521  1
  Ni  Ni191  1  0.06616402  0.59348670  0.28768747  1
  Ni  Ni192  1  0.62534715  0.79993434  0.94143969  1
  Ni  Ni193  1  0.12589448  0.83410396  0.18971583  1
  Ni  Ni194  1  0.70426463  0.82411930  0.08572458  1
  Ni  Ni195  1  0.12044894  0.89247136  0.61118093  1
  Ni  Ni196  1  0.40483280  0.73959350  0.48478304  1
  Ni  Ni197  1  0.89855765  0.72452916  0.65499859  1
  Ni  Ni198  1  0.25602316  0.35717270  0.25945058  1
  Ni  Ni199  1  0.97262508  0.30877764  0.11091149  1
  Ni  Ni200  1  0.94729647  0.85394000  0.06026748  1
  Ni  Ni201  1  0.34918429  0.93846281  0.27579228  1
  Ni  Ni202  1  0.65585564  0.90000366  0.60987763  1
  Ni  Ni203  1  0.20514681  0.39331006  0.60525221  1
  Ni  Ni204  1  0.34340816  0.19926736  0.71493036  1
  Ni  Ni205  1  0.70858400  0.60326981  0.53613028  1
  Ni  Ni206  1  -0.01010303  0.05803359  0.45963054  1
  Ni  Ni207  1  0.72261451  0.10854954  0.02583164  1
  Ni  Ni208  1  0.57671362  0.61059037  0.68235241  1
  Ni  Ni209  1  0.77012253  0.08794046  0.86306057  1
  Ni  Ni210  1  0.89802833  0.78311927  0.82052146  1
  Ni  Ni211  1  0.34209528  0.46755917  0.90672803  1
  Ni  Ni212  1  0.76551680  0.32000363  0.25336313  1
  Ni  Ni213  1  0.04316766  0.11937504  0.72307778  1
  Ni  Ni214  1  0.48648725  0.77114888  0.20988174  1
  Ni  Ni215  1  0.17688578  0.64916095  0.40668263  1
