# generated using pymatgen
data_Ti2CoNi
_symmetry_space_group_name_H-M   'P 1'
_cell_length_a   14.65086145
_cell_length_b   14.58535777
_cell_length_c   14.63690708
_cell_angle_alpha   89.83387379
_cell_angle_beta   89.92928047
_cell_angle_gamma   90.01210782
_symmetry_Int_Tables_number   1
_chemical_formula_structural   Ti2CoNi
_chemical_formula_sum   'Ti108 Co54 Ni54'
_cell_volume   3127.71661582
_cell_formula_units_Z   54
loop_
 _symmetry_equiv_pos_site_id
 _symmetry_equiv_pos_as_xyz
  1  'x, y, z'
loop_
 _atom_site_type_symbol
 _atom_site_label
 _atom_site_symmetry_multiplicity
 _atom_site_fract_x
 _atom_site_fract_y
 _atom_site_fract_z
 _atom_site_occupancy
  Ti  Ti0  1  -0.01968640  -0.03671597  -0.00744884  1
  Ti  Ti1  1  -0.00827477  -0.07848594  0.26453377  1
  Ti  Ti2  1  -0.04346872  -0.01164091  0.71488512  1
  Ti  Ti3  1  -0.03160411  0.29804682  0.09183914  1
  Ti  Ti4  1  0.07576718  0.37639435  0.32468399  1
  Ti  Ti5  1  0.02031763  0.29675268  0.63105711  1
  Ti  Ti6  1  0.03496137  0.73317101  -0.03687738  1
  Ti  Ti7  1  -0.02156556  0.69274782  0.28526932  1
  Ti  Ti8  1  0.00446420  0.64737148  0.61187399  1
  Ti  Ti9  1  0.41328302  0.02357874  -0.00322425  1
  Ti  Ti10  1  0.34040797  0.01439108  0.36552977  1
  Ti  Ti11  1  0.33452255  -0.07353708  0.72343852  1
  Ti  Ti12  1  0.36550273  0.37811638  -0.04115591  1
  Ti  Ti13  1  0.33947642  0.25068498  0.35085355  1
  Ti  Ti14  1  0.34911650  0.41427292  0.62048816  1
  Ti  Ti15  1  0.35043031  0.66679829  -0.05989337  1
  Ti  Ti16  1  0.39876534  0.65981839  0.32304435  1
  Ti  Ti17  1  0.31926204  0.67304978  0.63505482  1
  Ti  Ti18  1  0.60392897  -0.02356179  -0.01763602  1
  Ti  Ti19  1  0.73178600  0.07365655  0.35392573  1
  Ti  Ti20  1  0.63328987  0.01071662  0.68411390  1
  Ti  Ti21  1  0.68676857  0.33479652  -0.05031913  1
  Ti  Ti22  1  0.69254071  0.35477100  0.31500241  1
  Ti  Ti23  1  0.63756023  0.28831782  0.62851019  1
  Ti  Ti24  1  0.62459306  0.53629545  -0.03748237  1
  Ti  Ti25  1  0.69949531  0.72292529  0.33741476  1
  Ti  Ti26  1  0.69416623  0.70310876  0.68452287  1
  Ti  Ti27  1  -0.02846847  0.09359112  0.17979094  1
  Ti  Ti28  1  0.01498136  0.13224039  0.43510861  1
  Ti  Ti29  1  0.10924741  0.10182647  0.90028149  1
  Ti  Ti30  1  -0.04337623  0.50200355  0.15201596  1
  Ti  Ti31  1  0.02348685  0.47155298  0.48479950  1
  Ti  Ti32  1  -0.03245219  0.57553733  0.82172397  1
  Ti  Ti33  1  0.00230794  0.80358701  0.12712322  1
  Ti  Ti34  1  -0.01110845  0.81274745  0.46036878  1
  Ti  Ti35  1  0.00139177  0.77354782  0.77116205  1
  Ti  Ti36  1  0.28847871  0.27334161  0.17004019  1
  Ti  Ti37  1  0.36933133  0.13667374  0.50172997  1
  Ti  Ti38  1  0.33571139  0.11022216  0.80937524  1
  Ti  Ti39  1  0.35264803  0.48843259  0.20645551  1
  Ti  Ti40  1  0.29466844  0.55378482  0.47697071  1
  Ti  Ti41  1  0.31224981  0.51740671  0.82270121  1
  Ti  Ti42  1  0.34051939  0.87658118  0.20902435  1
  Ti  Ti43  1  0.32717095  0.85167109  0.47447509  1
  Ti  Ti44  1  0.31804620  0.86247620  0.90446252  1
  Ti  Ti45  1  0.59304884  0.10804132  0.12393099  1
  Ti  Ti46  1  0.65149414  0.10618434  0.50948268  1
  Ti  Ti47  1  0.69642376  0.17285110  0.77047280  1
  Ti  Ti48  1  0.63148104  0.48598168  0.15245923  1
  Ti  Ti49  1  0.64655465  0.43685683  0.49218661  1
  Ti  Ti50  1  0.63744801  0.44133761  0.77859245  1
  Ti  Ti51  1  0.65965031  0.79282223  0.13899786  1
  Ti  Ti52  1  0.68138718  0.80142580  0.51453834  1
  Ti  Ti53  1  0.64411540  0.76419092  0.94591500  1
  Ti  Ti54  1  0.16277199  0.06190120  0.11668980  1
  Ti  Ti55  1  0.20090896  0.00083405  0.53469764  1
  Ti  Ti56  1  0.15882836  0.01045399  0.73684822  1
  Ti  Ti57  1  0.15993119  0.45439768  0.18319953  1
  Ti  Ti58  1  0.16837002  0.27564152  0.48224239  1
  Ti  Ti59  1  0.11684938  0.30692433  0.80193714  1
  Ti  Ti60  1  0.10879962  0.63877970  0.14118262  1
  Ti  Ti61  1  0.16230267  0.73556429  0.50546475  1
  Ti  Ti62  1  0.16629596  0.64463398  0.82628930  1
  Ti  Ti63  1  0.42945336  0.06314885  0.20607959  1
  Ti  Ti64  1  0.50116553  -0.04516250  0.53443633  1
  Ti  Ti65  1  0.52908757  0.08723126  0.83496275  1
  Ti  Ti66  1  0.58507637  0.30235161  0.13911694  1
  Ti  Ti67  1  0.49162848  0.29401216  0.49904097  1
  Ti  Ti68  1  0.45370046  0.38599832  0.78582068  1
  Ti  Ti69  1  0.43126898  0.69800285  0.13595552  1
  Ti  Ti70  1  0.56345968  0.62097834  0.44146451  1
  Ti  Ti71  1  0.47224812  0.68340974  0.77916264  1
  Ti  Ti72  1  0.76856960  0.02779898  0.17877343  1
  Ti  Ti73  1  0.87354528  0.01015422  0.52071333  1
  Ti  Ti74  1  0.77949619  0.00201198  0.87091621  1
  Ti  Ti75  1  0.79040106  0.35905154  0.14344617  1
  Ti  Ti76  1  0.84551159  0.31082752  0.54990412  1
  Ti  Ti77  1  0.87459103  0.31310817  0.87782562  1
  Ti  Ti78  1  0.83411242  0.66628708  0.16901555  1
  Ti  Ti79  1  0.83888575  0.68172609  0.53160231  1
  Ti  Ti80  1  0.77454497  0.61199995  0.88306789  1
  Ti  Ti81  1  0.26137361  0.21882334  -0.04406523  1
  Ti  Ti82  1  0.11513803  0.20858294  0.27624320  1
  Ti  Ti83  1  0.21306431  0.19400615  0.68362624  1
  Ti  Ti84  1  0.20400962  0.53218444  -0.00671362  1
  Ti  Ti85  1  0.17829867  0.58509589  0.33224026  1
  Ti  Ti86  1  0.07823204  0.48654974  0.69622842  1
  Ti  Ti87  1  0.15362944  0.89189697  -0.01740254  1
  Ti  Ti88  1  0.14281613  0.79163027  0.30546133  1
  Ti  Ti89  1  0.09329452  0.85525448  0.64201851  1
  Ti  Ti90  1  0.45800068  0.21256945  0.03160256  1
  Ti  Ti91  1  0.55215715  0.20271649  0.33219100  1
  Ti  Ti92  1  0.45108908  0.21716410  0.68744706  1
  Ti  Ti93  1  0.44865783  0.52550792  0.04639857  1
  Ti  Ti94  1  0.44708035  0.45830719  0.38972172  1
  Ti  Ti95  1  0.57416064  0.56898291  0.64957420  1
  Ti  Ti96  1  0.47450348  0.83254344  0.01510783  1
  Ti  Ti97  1  0.51659731  0.80806346  0.40900943  1
  Ti  Ti98  1  0.53627379  0.85026240  0.71721324  1
  Ti  Ti99  1  0.88973987  0.13749725  -0.00802231  1
  Ti  Ti100  1  0.86631874  0.23309688  0.30118784  1
  Ti  Ti101  1  0.88745771  0.17982588  0.75183519  1
  Ti  Ti102  1  0.91715782  0.46364340  -0.02916992  1
  Ti  Ti103  1  0.80519919  0.52936265  0.29809389  1
  Ti  Ti104  1  0.79995427  0.52497488  0.68723382  1
  Ti  Ti105  1  0.83632978  0.80605470  0.00898751  1
  Ti  Ti106  1  0.81673026  0.88861285  0.38262998  1
  Ti  Ti107  1  0.79707424  0.87264269  0.69860368  1
  Co  Co108  1  0.32495238  0.75847794  0.77135038  1
  Co  Co109  1  0.05254532  0.15704392  0.04603063  1
  Co  Co110  1  0.16451653  0.78913908  0.11526524  1
  Co  Co111  1  0.32048550  0.25915086  0.59348059  1
  Co  Co112  1  0.16664855  0.91770236  0.20092851  1
  Co  Co113  1  0.93447201  0.14430667  0.59952368  1
  Co  Co114  1  0.12077153  0.28768155  0.97519905  1
  Co  Co115  1  0.40866186  0.81812103  0.61841318  1
  Co  Co116  1  0.90281557  0.39145646  0.27184211  1
  Co  Co117  1  0.51045044  0.67394569  0.94990006  1
  Co  Co118  1  0.73225980  0.91727667  1.05426249  1
  Co  Co119  1  0.21551750  0.39859697  0.89781692  1
  Co  Co120  1  0.67723983  0.62906084  0.21086359  1
  Co  Co121  1  0.63196974  0.93754631  0.41558304  1
  Co  Co122  1  0.59815863  0.03626334  0.27073137  1
  Co  Co123  1  0.89457638  0.88756611  0.86123660  1
  Co  Co124  1  0.73454748  0.07402840  0.01995885  1
  Co  Co125  1  0.04707017  0.15280199  0.74097638  1
  Co  Co126  1  0.07272790  0.42395215  0.04969629  1
  Co  Co127  1  0.85161532  0.71938349  0.37162591  1
  Co  Co128  1  0.24013722  0.37772370  0.06044586  1
  Co  Co129  1  0.69653624  0.20275597  0.23692933  1
  Co  Co130  1  0.70779557  0.22326838  0.06426575  1
  Co  Co131  1  0.95638861  0.05603173  0.85776334  1
  Co  Co132  1  0.19727374  0.72849233  0.96360364  1
  Co  Co133  1  0.72953385  0.65630998  0.04655333  1
  Co  Co134  1  0.76266454  0.18883693  0.90749924  1
  Co  Co135  1  0.27163848  0.71921714  0.39379067  1
  Co  Co136  1  0.27001261  0.72500634  0.22943372  1
  Co  Co137  1  1.02424281  0.96133619  0.41363472  1
  Co  Co138  1  0.32011275  0.07603018  0.64472973  1
  Co  Co139  1  0.47865041  0.92970678  0.31700593  1
  Co  Co140  1  0.31416764  0.78810207  0.06168669  1
  Co  Co141  1  0.93808213  0.42050852  0.77050243  1
  Co  Co142  1  0.17989600  0.44104337  0.46224747  1
  Co  Co143  1  1.00173132  0.22436241  0.89327487  1
  Co  Co144  1  0.17941358  0.81738146  0.80339986  1
  Co  Co145  1  0.14985637  0.69157283  0.67953087  1
  Co  Co146  1  0.44618330  0.22636685  0.20876289  1
  Co  Co147  1  0.42790209  0.36963002  0.11727310  1
  Co  Co148  1  0.28468878  0.94965835  0.07096823  1
  Co  Co149  1  0.24453762  0.83374425  0.62985795  1
  Co  Co150  1  0.60086496  0.16528221  0.95186290  1
  Co  Co151  1  0.57419578  0.64267787  0.09150515  1
  Co  Co152  1  0.50759742  0.06512532  0.40890939  1
  Co  Co153  1  0.04827983  0.57322939  0.98539820  1
  Co  Co154  1  0.14800558  0.57587625  0.55014956  1
  Co  Co155  1  0.12070301  0.28711392  0.14192745  1
  Co  Co156  1  0.32718615  0.36158569  0.46731301  1
  Co  Co157  1  0.41782793  0.53996693  0.70346167  1
  Co  Co158  1  0.05482073  0.43354559  0.88284171  1
  Co  Co159  1  0.62567035  0.62608989  0.81297184  1
  Co  Co160  1  0.51620930  0.12409766  0.57786507  1
  Co  Co161  1  0.46543125  0.02112722  0.69765167  1
  Ni  Ni162  1  0.31572490  0.12041334  0.08960790  1
  Ni  Ni163  1  0.64170010  0.91539608  0.83044360  1
  Ni  Ni164  1  0.89519219  0.62800771  0.01622714  1
  Ni  Ni165  1  0.05704258  0.91895853  0.83979713  1
  Ni  Ni166  1  0.96732454  0.29586595  0.42531597  1
  Ni  Ni167  1  0.18072279  0.37479076  0.62192609  1
  Ni  Ni168  1  0.27956139  0.62227057  0.10662335  1
  Ni  Ni169  1  0.69784899  0.60013427  0.53672452  1
  Ni  Ni170  1  0.54541384  0.73519808  0.58475843  1
  Ni  Ni171  1  0.25367412  0.02688269  0.92404771  1
  Ni  Ni172  1  0.51912706  0.39473597  0.26167786  1
  Ni  Ni173  1  0.03437694  0.99219136  0.56889610  1
  Ni  Ni174  1  0.26539906  0.11779805  0.25158727  1
  Ni  Ni175  1  0.78746303  0.45391015  0.84649095  1
  Ni  Ni176  1  0.90057121  0.05190703  0.33770890  1
  Ni  Ni177  1  0.48419066  0.53013273  0.86658326  1
  Ni  Ni178  1  0.19028682  0.93086401  0.37918752  1
  Ni  Ni179  1  0.43191270  0.23418121  0.87226955  1
  Ni  Ni180  1  0.25717710  0.40583310  0.32125426  1
  Ni  Ni181  1  0.89140217  0.72370953  0.87633924  1
  Ni  Ni182  1  0.92674530  0.81225076  0.61631310  1
  Ni  Ni183  1  0.80024227  0.04174559  0.68279105  1
  Ni  Ni184  1  0.89058215  0.93836236  0.12332658  1
  Ni  Ni185  1  0.68602685  0.89364700  0.27085982  1
  Ni  Ni186  1  0.89871818  0.56731996  0.42442989  1
  Ni  Ni187  1  0.23776017  0.53289837  0.67661913  1
  Ni  Ni188  1  0.09948491  0.13984791  0.58073465  1
  Ni  Ni189  1  0.74721924  0.77903787  0.82331196  1
  Ni  Ni190  1  0.20544231  0.12689485  0.40879667  1
  Ni  Ni191  1  0.69323531  0.26624387  0.45883219  1
  Ni  Ni192  1  0.77163357  0.49510564  0.04075315  1
  Ni  Ni193  1  0.76488878  0.17933910  0.60840045  1
  Ni  Ni194  1  0.01848853  0.53084349  0.30087025  1
  Ni  Ni195  1  0.57910886  0.27764039  0.81067459  1
  Ni  Ni196  1  0.52310098  0.40933509  0.62961204  1
  Ni  Ni197  1  0.84416082  0.81924166  0.22970766  1
  Ni  Ni198  1  0.92333952  0.44999942  0.61306595  1
  Ni  Ni199  1  0.04318421  0.64290613  0.43171266  1
  Ni  Ni200  1  0.79138900  0.33559787  0.71769165  1
  Ni  Ni201  1  0.11089604  0.04490434  0.28992800  1
  Ni  Ni202  1  0.84108224  0.16633635  0.45709086  1
  Ni  Ni203  1  0.47027946  0.93021934  0.85849240  1
  Ni  Ni204  1  0.83699601  0.18955481  0.14421484  1
  Ni  Ni205  1  0.86058899  0.68336912  0.71721307  1
  Ni  Ni206  1  0.53098152  0.38442927  0.95722058  1
  Ni  Ni207  1  0.40958958  0.69485178  0.49087129  1
  Ni  Ni208  1  0.45252576  0.53577506  0.53881853  1
  Ni  Ni209  1  0.72070937  0.95518721  0.55123787  1
  Ni  Ni210  1  0.30079244  0.30240331  0.78769735  1
  Ni  Ni211  1  0.52609764  0.92747206  0.14819249  1
  Ni  Ni212  1  0.63078914  0.51362538  0.33070711  1
  Ni  Ni213  1  0.50662026  0.56902961  0.23426904  1
  Ni  Ni214  1  0.82775137  0.40698292  0.41789498  1
  Ni  Ni215  1  0.54480926  0.73743873  0.25715195  1
