# generated using pymatgen
data_Ti2CoNi
_symmetry_space_group_name_H-M   'P 1'
_cell_length_a   14.59682552
_cell_length_b   14.60352682
_cell_length_c   14.62450898
_cell_angle_alpha   89.78781967
_cell_angle_beta   90.02798587
_cell_angle_gamma   90.07402568
_symmetry_Int_Tables_number   1
_chemical_formula_structural   Ti2CoNi
_chemical_formula_sum   'Ti108 Co54 Ni54'
_cell_volume   3117.41105838
_cell_formula_units_Z   54
loop_
 _symmetry_equiv_pos_site_id
 _symmetry_equiv_pos_as_xyz
  1  'x, y, z'
loop_
 _atom_site_type_symbol
 _atom_site_label
 _atom_site_symmetry_multiplicity
 _atom_site_fract_x
 _atom_site_fract_y
 _atom_site_fract_z
 _atom_site_occupancy
  Ti  Ti0  1  -0.06181945  0.05368198  0.02824760  1
  Ti  Ti1  1  0.04472213  0.07337876  0.30830780  1
  Ti  Ti2  1  0.03949426  0.03109898  0.61376691  1
  Ti  Ti3  1  0.00864565  0.27911355  0.05322541  1
  Ti  Ti4  1  -0.00963745  0.30592241  0.38903220  1
  Ti  Ti5  1  0.04411987  0.27529583  0.73188045  1
  Ti  Ti6  1  -0.06667980  0.75057047  0.01303625  1
  Ti  Ti7  1  -0.02088857  0.60562343  0.33689920  1
  Ti  Ti8  1  -0.02810687  0.71546621  0.66528395  1
  Ti  Ti9  1  0.27826882  -0.00942741  -0.01773487  1
  Ti  Ti10  1  0.36205163  0.06719031  0.40507371  1
  Ti  Ti11  1  0.39036708  0.02693371  0.68996973  1
  Ti  Ti12  1  0.28491196  0.33410015  0.00779989  1
  Ti  Ti13  1  0.35896727  0.27237310  0.30464211  1
  Ti  Ti14  1  0.31677008  0.30622076  0.69900014  1
  Ti  Ti15  1  0.35879253  0.65570735  0.02167658  1
  Ti  Ti16  1  0.35888184  0.64616508  0.31461972  1
  Ti  Ti17  1  0.37670226  0.63753843  0.59438106  1
  Ti  Ti18  1  0.64258555  0.01812912  0.01712856  1
  Ti  Ti19  1  0.69370862  0.05101945  0.30807595  1
  Ti  Ti20  1  0.69790776  -0.01269600  0.69699236  1
  Ti  Ti21  1  0.72640090  0.38907738  0.03003227  1
  Ti  Ti22  1  0.68988171  0.25987225  0.30864188  1
  Ti  Ti23  1  0.66533033  0.36545456  0.73664662  1
  Ti  Ti24  1  0.62236395  0.68144820  -0.01430237  1
  Ti  Ti25  1  0.64835075  0.60113405  0.33096561  1
  Ti  Ti26  1  0.65766206  0.62825035  0.62789780  1
  Ti  Ti27  1  0.08019930  0.11587582  0.15213782  1
  Ti  Ti28  1  -0.04045162  0.11395888  0.45481119  1
  Ti  Ti29  1  0.03663299  0.15714243  0.89112292  1
  Ti  Ti30  1  0.01467521  0.47486352  0.14911842  1
  Ti  Ti31  1  -0.02107462  0.53602694  0.59101982  1
  Ti  Ti32  1  0.02112156  0.45504359  0.82396395  1
  Ti  Ti33  1  0.01951350  0.88809522  0.17452388  1
  Ti  Ti34  1  -0.00013203  0.86830365  0.52308109  1
  Ti  Ti35  1  0.00478520  0.79320589  0.83915176  1
  Ti  Ti36  1  0.33274755  0.09272429  0.13671682  1
  Ti  Ti37  1  0.25831227  0.20702398  0.46200202  1
  Ti  Ti38  1  0.37332746  0.18507189  0.92431834  1
  Ti  Ti39  1  0.23355941  0.54963118  0.16668099  1
  Ti  Ti40  1  0.35220523  0.48488495  0.45153578  1
  Ti  Ti41  1  0.27062718  0.53475426  0.85495333  1
  Ti  Ti42  1  0.34235836  0.87773160  0.13090205  1
  Ti  Ti43  1  0.35114854  0.84598471  0.58361150  1
  Ti  Ti44  1  0.37920691  0.86415340  0.83781723  1
  Ti  Ti45  1  0.59678859  0.15063912  0.16108198  1
  Ti  Ti46  1  0.65337448  0.15842210  0.52090782  1
  Ti  Ti47  1  0.69961309  0.14775110  0.83556243  1
  Ti  Ti48  1  0.68075057  0.42953040  0.21097237  1
  Ti  Ti49  1  0.65818902  0.47428730  0.52452780  1
  Ti  Ti50  1  0.66310185  0.55430901  0.82492434  1
  Ti  Ti51  1  0.67432461  0.74909958  0.19400706  1
  Ti  Ti52  1  0.68330966  0.77569577  0.45028571  1
  Ti  Ti53  1  0.67710377  0.83006331  0.86186390  1
  Ti  Ti54  1  0.19261580  -0.05590312  0.25293432  1
  Ti  Ti55  1  0.16007389  0.02321190  0.44655866  1
  Ti  Ti56  1  0.09435106  -0.03358760  0.85751837  1
  Ti  Ti57  1  0.17015658  0.37002532  0.15245075  1
  Ti  Ti58  1  0.12558466  0.36886090  0.54007127  1
  Ti  Ti59  1  0.20542766  0.26302881  0.83832891  1
  Ti  Ti60  1  0.21112284  0.74719520  0.16394044  1
  Ti  Ti61  1  0.20904522  0.63620555  0.47830862  1
  Ti  Ti62  1  0.11732373  0.62199527  0.79595500  1
  Ti  Ti63  1  0.49930643  -0.02562401  0.13679612  1
  Ti  Ti64  1  0.58246450  -0.02137026  0.44714180  1
  Ti  Ti65  1  0.51553015  0.06681752  0.84910958  1
  Ti  Ti66  1  0.39928281  0.37913871  0.14659288  1
  Ti  Ti67  1  0.42475864  0.28244434  0.48709704  1
  Ti  Ti68  1  0.47821728  0.37033639  0.81120762  1
  Ti  Ti69  1  0.52476138  0.64747667  0.15387510  1
  Ti  Ti70  1  0.49451632  0.72707037  0.45503817  1
  Ti  Ti71  1  0.47929352  0.62082839  0.77944615  1
  Ti  Ti72  1  0.75259575  -0.07110517  0.18623143  1
  Ti  Ti73  1  0.79608552  0.00402606  0.48251284  1
  Ti  Ti74  1  0.89751335  0.00126047  0.78291087  1
  Ti  Ti75  1  0.85523446  0.32766408  0.19381284  1
  Ti  Ti76  1  0.84064153  0.39124383  0.55676538  1
  Ti  Ti77  1  0.84127023  0.28433308  0.76017560  1
  Ti  Ti78  1  0.79872658  0.64959559  0.09768404  1
  Ti  Ti79  1  0.81390907  0.61011996  0.44190098  1
  Ti  Ti80  1  0.80032639  0.68890115  0.89514477  1
  Ti  Ti81  1  0.18427675  0.18871469  0.02784329  1
  Ti  Ti82  1  0.15282489  0.24496175  0.30240667  1
  Ti  Ti83  1  0.17744421  0.16820603  0.62258864  1
  Ti  Ti84  1  0.13794872  0.48225496  -0.01445681  1
  Ti  Ti85  1  0.09645541  0.44634840  0.31987179  1
  Ti  Ti86  1  0.23092178  0.51613888  0.64021946  1
  Ti  Ti87  1  0.14963619  0.77724343  -0.04983080  1
  Ti  Ti88  1  0.15857377  0.79650995  0.40170042  1
  Ti  Ti89  1  0.19071372  0.92026730  0.69111989  1
  Ti  Ti90  1  0.56749222  0.24784875  -0.01092086  1
  Ti  Ti91  1  0.51690807  0.15195009  0.33982121  1
  Ti  Ti92  1  0.52949412  0.21139837  0.66084780  1
  Ti  Ti93  1  0.54494469  0.48961206  0.04151609  1
  Ti  Ti94  1  0.50604517  0.46100891  0.27974951  1
  Ti  Ti95  1  0.45153273  0.42129819  0.61116590  1
  Ti  Ti96  1  0.48203025  0.80902557  0.01265319  1
  Ti  Ti97  1  0.43762510  0.86204526  0.34213859  1
  Ti  Ti98  1  0.54387005  0.87334746  0.63735240  1
  Ti  Ti99  1  0.80866901  0.20910261  0.00233172  1
  Ti  Ti100  1  0.85588047  0.14644993  0.28185956  1
  Ti  Ti101  1  0.85736183  0.18747871  0.57202384  1
  Ti  Ti102  1  0.88160461  0.53396828  -0.04922189  1
  Ti  Ti103  1  0.78195377  0.44384745  0.36967051  1
  Ti  Ti104  1  0.83783749  0.53126721  0.74834388  1
  Ti  Ti105  1  0.84794274  0.90016084  -0.07687610  1
  Ti  Ti106  1  0.92106227  0.79997223  0.36081554  1
  Ti  Ti107  1  0.78849212  0.80802425  0.63222687  1
  Co  Co108  1  0.48263427  0.09892262  0.02271499  1
  Co  Co109  1  0.51738853  0.42457784  0.45349919  1
  Co  Co110  1  0.77869870  0.15642338  0.42391267  1
  Co  Co111  1  0.02318858  0.30112598  0.21995343  1
  Co  Co112  1  0.04578126  0.62283632  0.94995240  1
  Co  Co113  1  0.29565406  0.91804980  0.42683124  1
  Co  Co114  1  0.72727616  0.26659277  0.62845835  1
  Co  Co115  1  0.35348006  0.16982076  0.60417317  1
  Co  Co116  1  0.06485607  0.73333203  0.10058266  1
  Co  Co117  1  0.32634953  0.38280862  0.86004970  1
  Co  Co118  1  -0.01885628  0.43087266  -0.00257300  1
  Co  Co119  1  0.26970942  0.13530533  0.74911802  1
  Co  Co120  1  0.11383052  0.63176739  0.62281620  1
  Co  Co121  1  0.23495298  0.73745708  0.60456221  1
  Co  Co122  1  0.76332145  0.08779341  0.12882100  1
  Co  Co123  1  0.13763478  0.77113457  0.73558216  1
  Co  Co124  1  0.58858710  0.33437578  0.57758736  1
  Co  Co125  1  0.18002691  0.88774836  0.53950054  1
  Co  Co126  1  0.95886201  0.14032391  0.70838887  1
  Co  Co127  1  0.41409528  0.18912171  0.76878041  1
  Co  Co128  1  0.57436869  0.33860720  0.12633694  1
  Co  Co129  1  0.79182757  1.04882859  0.95753092  1
  Co  Co130  1  0.20217120  0.10625070  0.89271193  1
  Co  Co131  1  0.29129250  0.81426388  0.29702986  1
  Co  Co132  1  0.69862323  0.29307707  0.89376965  1
  Co  Co133  1  0.48836276  0.13150652  0.50564378  1
  Co  Co134  1  0.32322254  0.75186692  0.45311990  1
  Co  Co135  1  0.16875215  0.89481717  0.08131905  1
  Co  Co136  1  0.56995602  0.27789194  0.42523179  1
  Co  Co137  1  0.66628212  0.56953110  0.14315852  1
  Co  Co138  1  0.72425548  0.24945142  0.13898428  1
  Co  Co139  1  0.44846756  0.36409295  0.98174182  1
  Co  Co140  1  0.38791021  0.72977254  0.17933159  1
  Co  Co141  1  0.95950334  0.60434701  0.08624102  1
  Co  Co142  1  0.29228242  0.65440093  0.73354753  1
  Co  Co143  1  0.11192667  0.09449932  0.75558135  1
  Co  Co144  1  0.51252727  0.56052350  0.55694648  1
  Co  Co145  1  0.19435929  0.63555226  0.01686591  1
  Co  Co146  1  0.10947285  0.03701642  0.01114427  1
  Co  Co147  1  0.84620417  0.29414123  0.38218210  1
  Co  Co148  1  0.91240421  0.17795358  0.13802620  1
  Co  Co149  1  0.71816926  0.31809454  0.47423414  1
  Co  Co150  1  0.92653176  0.70739348  0.20943141  1
  Co  Co151  1  0.94721050  0.45863830  0.44144128  1
  Co  Co152  1  0.43842916  0.95677378  0.96903138  1
  Co  Co153  1  0.60093398  0.42481668  0.90189833  1
  Co  Co154  1  0.52104087  0.29900753  0.26766374  1
  Co  Co155  1  0.08748979  0.61319821  0.21004497  1
  Co  Co156  1  0.55854999  0.23347493  0.82568307  1
  Co  Co157  1  0.56555280  0.49231226  0.70067531  1
  Co  Co158  1  0.27879671  0.02552852  0.56136732  1
  Co  Co159  1  0.71345302  0.54279709  0.97881036  1
  Co  Co160  1  0.09081504  0.33013106  0.91909723  1
  Co  Co161  1  0.91177569  0.02026291  0.19461157  1
  Ni  Ni162  1  0.85035887  0.80411122  0.77972073  1
  Ni  Ni163  1  0.80420426  0.57977909  0.25369215  1
  Ni  Ni164  1  0.54085222  0.91432751  0.79839773  1
  Ni  Ni165  1  0.87607047  0.90132733  0.08525540  1
  Ni  Ni166  1  0.53439574  0.72909778  0.29447601  1
  Ni  Ni167  1  0.90387909  0.97985223  0.35728566  1
  Ni  Ni168  1  0.83835065  0.48239318  0.12207625  1
  Ni  Ni169  1  0.43475778  0.52428850  0.91334271  1
  Ni  Ni170  1  0.87658366  0.14799091  0.85787307  1
  Ni  Ni171  1  0.78055974  0.72871093  0.31666687  1
  Ni  Ni172  1  0.31019218  0.49329315  0.02246778  1
  Ni  Ni173  1  0.43777897  0.97131392  0.52588990  1
  Ni  Ni174  1  0.94035508  0.39708282  0.68997473  1
  Ni  Ni175  1  0.79204453  0.12214365  0.70227298  1
  Ni  Ni176  1  0.68083733  -0.01157450  0.86051033  1
  Ni  Ni177  1  0.37984416  0.49941288  0.73490818  1
  Ni  Ni178  1  0.23847089  0.37215966  0.39008297  1
  Ni  Ni179  1  0.27331976  0.24333421  0.16832735  1
  Ni  Ni180  1  0.61841950  0.87011117  0.30628913  1
  Ni  Ni181  1  0.55758033  0.04482364  0.62963142  1
  Ni  Ni182  1  0.21548380  0.55059229  0.33867243  1
  Ni  Ni183  1  0.23560537  0.10811207  0.28027795  1
  Ni  Ni184  1  0.30323027  0.81624755  0.98227366  1
  Ni  Ni185  1  0.33286690  0.45567226  0.28024396  1
  Ni  Ni186  1  0.40196995  0.54761025  0.15700321  1
  Ni  Ni187  1  0.09582069  0.19969282  0.47069873  1
  Ni  Ni188  1  0.70577385  0.70691719  0.75990102  1
  Ni  Ni189  1  0.68694777  0.90715720  0.55049621  1
  Ni  Ni190  1  0.52752893  0.71636246  0.60995881  1
  Ni  Ni191  1  0.99664115  0.88422032  0.69585803  1
  Ni  Ni192  1  0.94759997  0.63286975  0.82137024  1
  Ni  Ni193  1  -0.01365346  0.28778630  0.57078074  1
  Ni  Ni194  1  0.28692027  0.35881577  0.55157506  1
  Ni  Ni195  1  0.03100029  0.69278717  0.47790886  1
  Ni  Ni196  1  0.01838715  0.89441480  0.99362793  1
  Ni  Ni197  1  0.87841969  0.73295907  0.52328956  1
  Ni  Ni198  1  0.16562036  0.40056548  0.73596463  1
  Ni  Ni199  1  0.92116319  0.44797768  0.28167420  1
  Ni  Ni200  1  0.78663660  0.42132594  0.86580032  1
  Ni  Ni201  1  0.05006101  0.91059337  0.35434955  1
  Ni  Ni202  1  0.92358277  0.30751359  0.90150896  1
  Ni  Ni203  1  0.87566093  -0.01382562  0.61966863  1
  Ni  Ni204  1  0.61705932  0.86200928  0.08585157  1
  Ni  Ni205  1  0.49289998  0.57555922  0.39759802  1
  Ni  Ni206  1  0.09615031  0.52125938  0.47554924  1
  Ni  Ni207  1  0.75497041  0.80059461  0.02744439  1
  Ni  Ni208  1  0.52727198  0.75793082  0.85517005  1
  Ni  Ni209  1  0.35505290  0.98384000  0.26362524  1
  Ni  Ni210  1  0.27296935  0.98908620  0.81367675  1
  Ni  Ni211  1  0.52034564  0.00225968  0.29210097  1
  Ni  Ni212  1  0.44167406  0.22141164  0.12706319  1
  Ni  Ni213  1  0.80526406  0.56952702  0.59621706  1
  Ni  Ni214  1  0.42312405  0.76814539  0.71837479  1
  Ni  Ni215  1  0.76595242  0.89126063  0.36287929  1
