# generated using pymatgen
data_Ti2CoNi
_symmetry_space_group_name_H-M   'P 1'
_cell_length_a   14.60495894
_cell_length_b   14.61069629
_cell_length_c   14.64461321
_cell_angle_alpha   89.93289490
_cell_angle_beta   90.03793647
_cell_angle_gamma   89.96006566
_symmetry_Int_Tables_number   1
_chemical_formula_structural   Ti2CoNi
_chemical_formula_sum   'Ti108 Co54 Ni54'
_cell_volume   3124.99020591
_cell_formula_units_Z   54
loop_
 _symmetry_equiv_pos_site_id
 _symmetry_equiv_pos_as_xyz
  1  'x, y, z'
loop_
 _atom_site_type_symbol
 _atom_site_label
 _atom_site_symmetry_multiplicity
 _atom_site_fract_x
 _atom_site_fract_y
 _atom_site_fract_z
 _atom_site_occupancy
  Ti  Ti0  1  -0.11246306  0.01151791  -0.01411140  1
  Ti  Ti1  1  0.00480778  -0.05766696  0.33222654  1
  Ti  Ti2  1  -0.04084434  -0.07582894  0.62727364  1
  Ti  Ti3  1  0.02700019  0.33057258  -0.01498366  1
  Ti  Ti4  1  -0.08610496  0.29817910  0.32794165  1
  Ti  Ti5  1  -0.05076154  0.36357247  0.62045118  1
  Ti  Ti6  1  0.02013226  0.60174906  0.10625298  1
  Ti  Ti7  1  0.02408022  0.72291334  0.25492597  1
  Ti  Ti8  1  0.02067779  0.56203115  0.63450093  1
  Ti  Ti9  1  0.36407234  -0.08118788  0.05209303  1
  Ti  Ti10  1  0.38773774  0.06372528  0.29293364  1
  Ti  Ti11  1  0.23914977  0.05847894  0.67460555  1
  Ti  Ti12  1  0.32495497  0.36689020  -0.05421303  1
  Ti  Ti13  1  0.34599146  0.31273729  0.31776166  1
  Ti  Ti14  1  0.39160376  0.44461320  0.63563922  1
  Ti  Ti15  1  0.38628808  0.70211829  -0.02154239  1
  Ti  Ti16  1  0.27736351  0.63445135  0.30431338  1
  Ti  Ti17  1  0.34457873  0.64982463  0.63060498  1
  Ti  Ti18  1  0.63727649  0.02138127  -0.14471727  1
  Ti  Ti19  1  0.68938116  -0.07616076  0.31454723  1
  Ti  Ti20  1  0.60088078  -0.02208547  0.63545558  1
  Ti  Ti21  1  0.61621639  0.36255644  0.01201393  1
  Ti  Ti22  1  0.72811511  0.27810657  0.33329381  1
  Ti  Ti23  1  0.65657018  0.29365368  0.64626020  1
  Ti  Ti24  1  0.61202768  0.67472314  0.02690929  1
  Ti  Ti25  1  0.73807000  0.64118185  0.40487228  1
  Ti  Ti26  1  0.73983020  0.65589798  0.72952066  1
  Ti  Ti27  1  -0.02423906  0.12608148  0.19725501  1
  Ti  Ti28  1  0.00375238  0.20773678  0.49349034  1
  Ti  Ti29  1  -0.02213813  0.14413036  0.90076853  1
  Ti  Ti30  1  0.02313662  0.45078468  0.24353493  1
  Ti  Ti31  1  -0.03643579  0.47956723  0.45766069  1
  Ti  Ti32  1  0.00562181  0.45672979  0.79792069  1
  Ti  Ti33  1  -0.05793650  0.89296567  0.13878402  1
  Ti  Ti34  1  0.01133271  0.76117507  0.54381520  1
  Ti  Ti35  1  0.08286170  0.81811780  0.82426359  1
  Ti  Ti36  1  0.30355378  0.27063079  0.11482577  1
  Ti  Ti37  1  0.35473763  0.15624667  0.53768826  1
  Ti  Ti38  1  0.28746124  0.19250485  0.86727645  1
  Ti  Ti39  1  0.28551929  0.46736567  0.15000017  1
  Ti  Ti40  1  0.27403295  0.48346158  0.46605441  1
  Ti  Ti41  1  0.32795034  0.52579194  0.83322665  1
  Ti  Ti42  1  0.35647721  0.81471967  0.21587837  1
  Ti  Ti43  1  0.28586624  0.80572170  0.49817095  1
  Ti  Ti44  1  0.36815444  0.80412161  0.81340573  1
  Ti  Ti45  1  0.65750701  0.18486670  0.11120324  1
  Ti  Ti46  1  0.68739154  0.13439214  0.53310708  1
  Ti  Ti47  1  0.64310550  0.22398813  0.82363670  1
  Ti  Ti48  1  0.69532628  0.48407486  0.26301080  1
  Ti  Ti49  1  0.66571213  0.46738462  0.46411381  1
  Ti  Ti50  1  0.76348333  0.48587127  0.86380335  1
  Ti  Ti51  1  0.60490740  0.79166786  0.19269766  1
  Ti  Ti52  1  0.67237905  0.82679733  0.48591468  1
  Ti  Ti53  1  0.64994919  0.84649816  0.78011385  1
  Ti  Ti54  1  0.22996538  0.00084331  0.17437912  1
  Ti  Ti55  1  0.22721048  -0.00350683  0.48397715  1
  Ti  Ti56  1  0.17007500  0.02994037  0.85970165  1
  Ti  Ti57  1  0.15661244  0.29737856  0.22292580  1
  Ti  Ti58  1  0.19294311  0.29877718  0.46736088  1
  Ti  Ti59  1  0.18358532  0.35666089  0.80790504  1
  Ti  Ti60  1  0.20815605  0.66515402  0.07249831  1
  Ti  Ti61  1  0.16947226  0.64587371  0.53826735  1
  Ti  Ti62  1  0.12505906  0.62713826  0.86650761  1
  Ti  Ti63  1  0.52747844  0.04659870  0.07741143  1
  Ti  Ti64  1  0.42195000  -0.03335204  0.50967167  1
  Ti  Ti65  1  0.44078165  0.06429973  0.87785335  1
  Ti  Ti66  1  0.49623026  0.38894889  0.20398444  1
  Ti  Ti67  1  0.54043259  0.28023338  0.48650531  1
  Ti  Ti68  1  0.49711504  0.39286136  0.87174870  1
  Ti  Ti69  1  0.47383875  0.64587106  0.25942907  1
  Ti  Ti70  1  0.48725050  0.73432527  0.49031675  1
  Ti  Ti71  1  0.55721507  0.69181995  0.84473967  1
  Ti  Ti72  1  0.77836142  0.03779158  0.15233785  1
  Ti  Ti73  1  0.87952282  0.06492105  0.53917808  1
  Ti  Ti74  1  0.82599496  -0.02070926  0.75502061  1
  Ti  Ti75  1  0.80645562  0.37393903  0.06952518  1
  Ti  Ti76  1  0.78477014  0.33422449  0.50809285  1
  Ti  Ti77  1  0.82641120  0.32197858  0.76211563  1
  Ti  Ti78  1  0.79576066  0.60843917  0.15400536  1
  Ti  Ti79  1  0.86464529  0.63782977  0.58549710  1
  Ti  Ti80  1  0.92072290  0.64062751  0.81603561  1
  Ti  Ti81  1  0.15583526  0.14648727  0.05469391  1
  Ti  Ti82  1  0.14789139  0.09476166  0.33661282  1
  Ti  Ti83  1  0.10598815  0.17430028  0.73918772  1
  Ti  Ti84  1  0.17135596  0.48281991  -0.01946498  1
  Ti  Ti85  1  0.10520693  0.57081515  0.36787430  1
  Ti  Ti86  1  0.20030912  0.52687720  0.68949866  1
  Ti  Ti87  1  0.15768951  0.91274853  0.00904130  1
  Ti  Ti88  1  0.19166390  0.86721274  0.33027665  1
  Ti  Ti89  1  0.13704723  0.89829897  0.63441175  1
  Ti  Ti90  1  0.45501072  0.22354563  0.01798517  1
  Ti  Ti91  1  0.56438889  0.20761693  0.26424238  1
  Ti  Ti92  1  0.52122982  0.15217601  0.68562963  1
  Ti  Ti93  1  0.49634921  0.53511568  0.07421782  1
  Ti  Ti94  1  0.47099678  0.46024905  0.41538346  1
  Ti  Ti95  1  0.55533962  0.61641057  0.63754702  1
  Ti  Ti96  1  0.52048576  0.86638030  -0.04572513  1
  Ti  Ti97  1  0.49884619  0.88659230  0.34511496  1
  Ti  Ti98  1  0.45826692  0.82601762  0.65760169  1
  Ti  Ti99  1  0.79709403  0.18747607  -0.00884620  1
  Ti  Ti100  1  0.78777702  0.09874281  0.32198443  1
  Ti  Ti101  1  0.92088989  0.14739187  0.71530688  1
  Ti  Ti102  1  0.85819197  0.57404989  -0.00756671  1
  Ti  Ti103  1  0.89115689  0.57484700  0.30029204  1
  Ti  Ti104  1  0.70274075  0.47511550  0.66291199  1
  Ti  Ti105  1  0.86346803  0.78490589  -0.03507402  1
  Ti  Ti106  1  0.86689197  0.79216470  0.32443729  1
  Ti  Ti107  1  0.80175876  0.81237759  0.64288712  1
  Co  Co108  1  0.74032131  0.00375899  0.44771386  1
  Co  Co109  1  0.62317965  0.04119994  0.21964594  1
  Co  Co110  1  0.44211849  0.56622055  0.52784608  1
  Co  Co111  1  0.24645971  0.37518894  0.60948051  1
  Co  Co112  1  0.61696855  0.51999490  0.94410738  1
  Co  Co113  1  0.51791543  0.33386347  0.71635962  1
  Co  Co114  1  0.42368421  0.21413965  0.20694934  1
  Co  Co115  1  0.43655957  0.38396949  0.05719818  1
  Co  Co116  1  0.25859957  0.15737914  0.22836201  1
  Co  Co117  1  0.90163779  0.73204524  0.13726709  1
  Co  Co118  1  0.09788555  0.40185517  0.67658425  1
  Co  Co119  1  0.24514061  0.23123585  0.67160565  1
  Co  Co120  1  0.79878514  0.10585994  0.85413501  1
  Co  Co121  1  0.46919413  0.76765258  0.10097612  1
  Co  Co122  1  0.45687855  0.23034616  0.84055225  1
  Co  Co123  1  0.23746838  0.82051367  0.11078808  1
  Co  Co124  1  0.34402584  0.34581174  0.77097136  1
  Co  Co125  1  0.57838926  0.60299780  0.44942026  1
  Co  Co126  1  0.92983774  0.87278439  0.82247210  1
  Co  Co127  1  0.99630517  0.29167432  0.79419466  1
  Co  Co128  1  0.73855708  0.71839003  0.26244013  1
  Co  Co129  1  0.46972180  0.56789485  0.91023833  1
  Co  Co130  1  0.36651252  0.14580766  0.73142919  1
  Co  Co131  1  0.64663716  0.38935002  0.80117968  1
  Co  Co132  1  0.40141188  0.27659904  0.63209871  1
  Co  Co133  1  0.39110668  0.76011046  0.36371273  1
  Co  Co134  1  0.09385153  0.88065416  0.47382426  1
  Co  Co135  1  0.69065268  0.49561399  0.08099632  1
  Co  Co136  1  0.78699000  0.90351523  0.05116658  1
  Co  Co137  1  1.04705446  0.07794610  0.62158693  1
  Co  Co138  1  0.49199675  0.49945517  0.74925484  1
  Co  Co139  1  0.12017109  0.42032828  0.11805887  1
  Co  Co140  1  0.33568809  0.92555594  0.36743643  1
  Co  Co141  1  0.44654427  0.18501369  0.38979429  1
  Co  Co142  1  0.12209648  0.47167650  0.52805645  1
  Co  Co143  1  0.63034750  0.55756827  0.79342041  1
  Co  Co144  1  0.52136806  0.11465048  0.52473973  1
  Co  Co145  1  0.78764547  0.86419068  0.20322035  1
  Co  Co146  1  0.27995240  0.17625161  0.39343558  1
  Co  Co147  1  0.77510858  0.92994810  0.89633983  1
  Co  Co148  1  0.70156883  0.66265666  0.56139037  1
  Co  Co149  1  0.17566948  0.14453581  0.52863658  1
  Co  Co150  1  0.31934863  0.64575283  0.46010805  1
  Co  Co151  1  0.17548935  0.73234278  0.22839062  1
  Co  Co152  1  0.14961353  0.56626763  0.19924204  1
  Co  Co153  1  0.70567312  0.04417540  0.00206883  1
  Co  Co154  1  0.36754213  0.32499817  0.47853532  1
  Co  Co155  1  0.06612596  0.77033495  0.09283241  1
  Co  Co156  1  0.59271913  0.73984068  0.35262203  1
  Co  Co157  1  0.67578997  0.81049542  0.94376846  1
  Co  Co158  1  0.18888365  0.31205799  0.01087842  1
  Co  Co159  1  0.74136982  0.75402370  0.09232126  1
  Co  Co160  1  0.80052672  0.78435495  0.81274961  1
  Co  Co161  1  0.09448237  0.26401054  0.61031269  1
  Ni  Ni162  1  0.94261995  0.21313124  0.06477399  1
  Ni  Ni163  1  0.11788904  0.73510287  0.40229394  1
  Ni  Ni164  1  0.61703546  0.10881073  0.38047494  1
  Ni  Ni165  1  0.83807790  0.19437914  0.44714399  1
  Ni  Ni166  1  0.23856497  0.78365069  0.93305643  1
  Ni  Ni167  1  0.61570965  0.78014870  0.63498214  1
  Ni  Ni168  1  0.24640371  0.77607945  0.66401130  1
  Ni  Ni169  1  0.25587168  0.67878016  0.79331828  1
  Ni  Ni170  1  0.58752248  0.15450386  0.95560847  1
  Ni  Ni171  1  0.81553513  0.43836454  0.37723278  1
  Ni  Ni172  1  0.33392591  0.54085205  0.00636666  1
  Ni  Ni173  1  0.10734183  0.68965636  0.70142926  1
  Ni  Ni174  1  0.04832902  0.02347674  0.08176170  1
  Ni  Ni175  1  0.12287648  0.21679123  0.89957757  1
  Ni  Ni176  1  0.49492097  0.92894485  0.78988711  1
  Ni  Ni177  1  0.61942512  0.61174405  0.18591453  1
  Ni  Ni178  1  0.71096533  0.11163053  0.70410369  1
  Ni  Ni179  1  0.95614959  0.65802922  0.42533796  1
  Ni  Ni180  1  0.10261937  0.89318507  0.19082321  1
  Ni  Ni181  1  0.02739833  0.00435434  0.76357855  1
  Ni  Ni182  1  0.88538751  0.92244679  0.45095975  1
  Ni  Ni183  1  0.76012832  0.96532185  0.60223904  1
  Ni  Ni184  1  0.05244530  0.03416188  0.47135236  1
  Ni  Ni185  1  0.83337770  0.76697180  0.48536528  1
  Ni  Ni186  1  0.63250450  0.91164837  0.08179126  1
  Ni  Ni187  1  0.33361611  0.93833590  0.89473919  1
  Ni  Ni188  1  0.05882227  0.22968573  0.32757007  1
  Ni  Ni189  1  0.58151634  0.97137625  0.46621904  1
  Ni  Ni190  1  0.81890960  0.21980051  0.61446630  1
  Ni  Ni191  1  0.95194371  0.45249520  0.08339670  1
  Ni  Ni192  1  0.28492582  0.06294749  0.98463007  1
  Ni  Ni193  1  0.49148997  0.92451022  0.18027496  1
  Ni  Ni194  1  0.59163073  0.36851432  0.33746857  1
  Ni  Ni195  1  0.02640596  0.95983069  0.92132543  1
  Ni  Ni196  1  0.36619727  0.09082567  0.11807952  1
  Ni  Ni197  1  0.89584687  0.39600555  0.91411132  1
  Ni  Ni198  1  0.55446551  0.44182173  0.58733809  1
  Ni  Ni199  1  0.01089483  0.52521058  0.94361807  1
  Ni  Ni200  1  1.00914411  0.69631611  0.96215321  1
  Ni  Ni201  1  0.85208112  0.41314130  0.21975574  1
  Ni  Ni202  1  0.95312574  0.10276258  0.36129614  1
  Ni  Ni203  1  0.22610754  0.89462830  0.78080547  1
  Ni  Ni204  1  0.21498985  0.44745875  0.30419274  1
  Ni  Ni205  1  0.38169329  0.49766007  0.28473508  1
  Ni  Ni206  1  0.81568202  0.22576071  0.18039455  1
  Ni  Ni207  1  0.74725702  0.32045692  0.91270855  1
  Ni  Ni208  1  0.73543331  0.65497305  0.90400849  1
  Ni  Ni209  1  0.82155243  0.49232774  0.53958742  1
  Ni  Ni210  1  0.31683020  0.91921752  0.63168970  1
  Ni  Ni211  1  0.86594507  0.50465476  0.70846825  1
  Ni  Ni212  1  0.95352976  0.75551289  0.70751192  1
  Ni  Ni213  1  0.67033978  0.33763441  0.18266581  1
  Ni  Ni214  1  0.07757648  0.38320128  0.38499072  1
  Ni  Ni215  1  0.42146004  0.65016261  0.77159461  1
