# generated using pymatgen
data_Ti2CoNi
_symmetry_space_group_name_H-M   'P 1'
_cell_length_a   14.52450861
_cell_length_b   14.54662882
_cell_length_c   14.58811770
_cell_angle_alpha   90.30387314
_cell_angle_beta   89.79389014
_cell_angle_gamma   90.20126533
_symmetry_Int_Tables_number   1
_chemical_formula_structural   Ti2CoNi
_chemical_formula_sum   'Ti108 Co54 Ni54'
_cell_volume   3082.13385276
_cell_formula_units_Z   54
loop_
 _symmetry_equiv_pos_site_id
 _symmetry_equiv_pos_as_xyz
  1  'x, y, z'
loop_
 _atom_site_type_symbol
 _atom_site_label
 _atom_site_symmetry_multiplicity
 _atom_site_fract_x
 _atom_site_fract_y
 _atom_site_fract_z
 _atom_site_occupancy
  Ti  Ti0  1  0.00357714  0.00706421  0.02790327  1
  Ti  Ti1  1  0.04106940  -0.08760061  0.33113652  1
  Ti  Ti2  1  0.00345595  -0.05547708  0.63055560  1
  Ti  Ti3  1  -0.01740470  0.30844490  -0.03781201  1
  Ti  Ti4  1  0.02920986  0.38563200  0.33288374  1
  Ti  Ti5  1  0.04710728  0.29073766  0.65134109  1
  Ti  Ti6  1  0.07779159  0.63380977  0.01214134  1
  Ti  Ti7  1  -0.03451967  0.70611315  0.29872579  1
  Ti  Ti8  1  0.01832410  0.66304962  0.76624361  1
  Ti  Ti9  1  0.34834647  -0.00010771  -0.05646598  1
  Ti  Ti10  1  0.37297595  0.05891937  0.35555927  1
  Ti  Ti11  1  0.42109157  -0.03932466  0.75382635  1
  Ti  Ti12  1  0.31040359  0.29486380  0.01895762  1
  Ti  Ti13  1  0.31268974  0.42632168  0.32483206  1
  Ti  Ti14  1  0.29632666  0.31058810  0.66767656  1
  Ti  Ti15  1  0.28345295  0.66124487  0.02086657  1
  Ti  Ti16  1  0.42636552  0.60056721  0.31683987  1
  Ti  Ti17  1  0.35241740  0.68682133  0.66142417  1
  Ti  Ti18  1  0.69712867  -0.08359376  0.00395172  1
  Ti  Ti19  1  0.74318672  -0.03334391  0.39604185  1
  Ti  Ti20  1  0.68934979  0.03041543  0.69780675  1
  Ti  Ti21  1  0.61765934  0.40686108  0.00750039  1
  Ti  Ti22  1  0.66978188  0.37588449  0.25653703  1
  Ti  Ti23  1  0.63428839  0.30356442  0.70656604  1
  Ti  Ti24  1  0.60081790  0.59027127  -0.06104744  1
  Ti  Ti25  1  0.63332093  0.69252124  0.34511124  1
  Ti  Ti26  1  0.61738453  0.68036762  0.74154327  1
  Ti  Ti27  1  -0.04659333  0.09766692  0.19487293  1
  Ti  Ti28  1  0.03727775  0.17676528  0.47704086  1
  Ti  Ti29  1  0.08867031  0.17939542  0.84391402  1
  Ti  Ti30  1  0.01505946  0.50277744  0.18862250  1
  Ti  Ti31  1  -0.00115655  0.48790243  0.53024392  1
  Ti  Ti32  1  -0.02914591  0.53728394  0.89405476  1
  Ti  Ti33  1  0.01499215  0.78482432  0.10693659  1
  Ti  Ti34  1  -0.05359371  0.81339917  0.47736019  1
  Ti  Ti35  1  -0.05643052  0.86149910  0.81085367  1
  Ti  Ti36  1  0.34107883  0.24992962  0.20090448  1
  Ti  Ti37  1  0.29402630  0.12213805  0.51948558  1
  Ti  Ti38  1  0.37985323  0.17072179  0.84930750  1
  Ti  Ti39  1  0.35137591  0.46742465  0.13484556  1
  Ti  Ti40  1  0.38773319  0.56990195  0.50902803  1
  Ti  Ti41  1  0.30019295  0.60243359  0.83249073  1
  Ti  Ti42  1  0.28953159  0.83849017  0.21538363  1
  Ti  Ti43  1  0.27481293  0.91752960  0.46981880  1
  Ti  Ti44  1  0.38406719  0.79592451  0.89087451  1
  Ti  Ti45  1  0.74709961  0.12814638  0.13544601  1
  Ti  Ti46  1  0.64997221  0.14678823  0.55663467  1
  Ti  Ti47  1  0.68629726  0.12178400  0.93769385  1
  Ti  Ti48  1  0.66383392  0.55409190  0.11934894  1
  Ti  Ti49  1  0.70102518  0.57321044  0.48009635  1
  Ti  Ti50  1  0.72193205  0.47931003  0.82587550  1
  Ti  Ti51  1  0.59647212  0.77920487  0.16511635  1
  Ti  Ti52  1  0.66372811  0.73446767  0.55071454  1
  Ti  Ti53  1  0.73750088  0.87668059  0.77608569  1
  Ti  Ti54  1  0.14101369  0.05793371  0.17141925  1
  Ti  Ti55  1  0.11510838  0.01765003  0.50316306  1
  Ti  Ti56  1  0.16488182  -0.03886016  0.77732503  1
  Ti  Ti57  1  0.14090415  0.36847894  0.14253732  1
  Ti  Ti58  1  0.21353107  0.32587555  0.45996575  1
  Ti  Ti59  1  0.14640807  0.37615475  0.80695201  1
  Ti  Ti60  1  0.26589724  0.63139408  0.22261823  1
  Ti  Ti61  1  0.22486866  0.70415210  0.50727705  1
  Ti  Ti62  1  0.16588518  0.73709197  0.88027907  1
  Ti  Ti63  1  0.45509876  0.05716187  0.16968394  1
  Ti  Ti64  1  0.47766045  -0.04142926  0.49550242  1
  Ti  Ti65  1  0.53866608  -0.00230566  0.91930239  1
  Ti  Ti66  1  0.57553027  0.23869363  0.15483591  1
  Ti  Ti67  1  0.55420616  0.28979875  0.50137269  1
  Ti  Ti68  1  0.45157060  0.34607558  0.77624764  1
  Ti  Ti69  1  0.43424946  0.70004221  0.13126411  1
  Ti  Ti70  1  0.41418318  0.77055289  0.46619828  1
  Ti  Ti71  1  0.47977288  0.54842460  0.77955560  1
  Ti  Ti72  1  0.78738932  -0.05510147  0.17412072  1
  Ti  Ti73  1  0.84010714  0.08282576  0.54645179  1
  Ti  Ti74  1  0.83677872  0.01207859  0.87439962  1
  Ti  Ti75  1  0.87010068  0.29478393  0.19799922  1
  Ti  Ti76  1  0.85112348  0.28796604  0.46254904  1
  Ti  Ti77  1  0.91051360  0.37466295  0.78939537  1
  Ti  Ti78  1  0.77447268  0.66074071  0.20257676  1
  Ti  Ti79  1  0.84806504  0.67853974  0.57663023  1
  Ti  Ti80  1  0.82758763  0.68298578  0.80457140  1
  Ti  Ti81  1  0.18793985  0.08614956  -0.03876486  1
  Ti  Ti82  1  0.18017679  0.15791231  0.33348416  1
  Ti  Ti83  1  0.13437858  0.10253657  0.67408267  1
  Ti  Ti84  1  0.20535660  0.46243364  -0.03224057  1
  Ti  Ti85  1  0.09079799  0.57445089  0.37942502  1
  Ti  Ti86  1  0.19427174  0.51167472  0.66502530  1
  Ti  Ti87  1  0.17798104  0.88908014  0.03206228  1
  Ti  Ti88  1  0.15612162  0.76923009  0.33507676  1
  Ti  Ti89  1  0.05857540  0.75815535  0.61879166  1
  Ti  Ti90  1  0.45307571  0.16154081  0.01609626  1
  Ti  Ti91  1  0.53574108  0.20626678  0.33420739  1
  Ti  Ti92  1  0.46268639  0.18797247  0.66738138  1
  Ti  Ti93  1  0.40351927  0.46369638  -0.05503502  1
  Ti  Ti94  1  0.53769382  0.46448137  0.38828834  1
  Ti  Ti95  1  0.45382636  0.41806969  0.60672753  1
  Ti  Ti96  1  0.54713619  0.78615124  -0.00925080  1
  Ti  Ti97  1  0.55757831  0.93367141  0.32089906  1
  Ti  Ti98  1  0.57643463  0.87119040  0.65487628  1
  Ti  Ti99  1  0.83108852  0.22307666  -0.11687855  1
  Ti  Ti100  1  0.83459724  0.12187936  0.35773312  1
  Ti  Ti101  1  0.82308524  0.23292648  0.66604256  1
  Ti  Ti102  1  0.87049116  0.48418858  0.06255143  1
  Ti  Ti103  1  0.85514186  0.47357986  0.39634860  1
  Ti  Ti104  1  0.77039281  0.45362534  0.61776162  1
  Ti  Ti105  1  0.87098398  0.69730118  0.01333008  1
  Ti  Ti106  1  0.80176070  0.78370110  0.38105875  1
  Ti  Ti107  1  0.79270950  0.89169987  0.57319884  1
  Co  Co108  1  0.34700402  0.82473788  0.04928865  1
  Co  Co109  1  0.83949929  0.03335773  0.03218712  1
  Co  Co110  1  0.70019492  0.30785335  0.86548049  1
  Co  Co111  1  0.70655492  0.21053635  0.26356321  1
  Co  Co112  1  0.59574261  0.07782052  1.06969925  1
  Co  Co113  1  0.47729210  0.77166439  0.29610299  1
  Co  Co114  1  0.73537166  0.59388311  0.67142590  1
  Co  Co115  1  0.29434197  0.96966319  0.10813664  1
  Co  Co116  1  0.95779784  0.12415713  0.92229113  1
  Co  Co117  1  0.29435393  0.81519309  0.75529989  1
  Co  Co118  1  0.09582484  0.64579318  0.21475103  1
  Co  Co119  1  0.18233906  0.73588821  0.11224240  1
  Co  Co120  1  0.50836828  0.47602576  0.22069513  1
  Co  Co121  1  0.59576394  0.46292440  0.70804618  1
  Co  Co122  1  0.38060021  0.89529450  0.34832406  1
  Co  Co123  1  0.86501353  0.53127316  0.77192051  1
  Co  Co124  1  0.53909002  0.63514602  0.46089480  1
  Co  Co125  1  0.33020274  0.23140781  0.37285452  1
  Co  Co126  1  0.30977107  0.12424899  0.07106752  1
  Co  Co127  1  0.47218722  0.35348896  0.09294999  1
  Co  Co128  1  0.93891810  0.58823434  0.64853823  1
  Co  Co129  1  0.99254898  0.75725084  0.92367222  1
  Co  Co130  1  0.70222767  0.25311499  0.40751504  1
  Co  Co131  1  0.33143412  0.46321943  0.73122629  1
  Co  Co132  1  0.43933528  0.89467288  0.19275696  1
  Co  Co133  1  0.69132809  0.52997415  0.29403654  1
  Co  Co134  1  0.30913899  0.34078586  0.85968219  1
  Co  Co135  1  0.10607911  0.81768989  0.76154205  1
  Co  Co136  1  0.92640550  0.62805286  0.45269565  1
  Co  Co137  1  0.93636247  0.63329997  0.14850153  1
  Co  Co138  1  0.80609305  0.62379339  0.35745518  1
  Co  Co139  1  0.64999687  0.10256411  0.40015067  1
  Co  Co140  1  0.01108723  0.03377586  0.79685215  1
  Co  Co141  1  0.38177753  0.87273281  0.61199856  1
  Co  Co142  1  0.38458716  0.25595219  0.53641379  1
  Co  Co143  1  0.24823045  0.89190464  0.88880360  1
  Co  Co144  1  0.29225239  0.08223997  0.22868036  1
  Co  Co145  1  0.57283275  0.41370051  0.85738972  1
  Co  Co146  1  0.74872011  0.76119969  0.68183198  1
  Co  Co147  1  0.45914781  0.78424406  0.73542609  1
  Co  Co148  1  0.20171290  0.95757917  0.32642250  1
  Co  Co149  1  0.71693139  0.30269209  0.56217150  1
  Co  Co150  1  0.47774407  0.92644079  1.04545963  1
  Co  Co151  1  0.45775770  0.31437491  0.94018663  1
  Co  Co152  1  0.90346662  0.81337306  0.66871869  1
  Co  Co153  1  0.55854515  0.62709647  0.22391776  1
  Co  Co154  1  0.51321640  0.70122274  0.85676063  1
  Co  Co155  1  0.40288295  0.38934827  0.44506799  1
  Co  Co156  1  0.50274269  0.74125491  0.58789632  1
  Co  Co157  1  0.82826592  0.40429407  0.92745468  1
  Co  Co158  1  0.53085686  0.58372394  0.61544073  1
  Co  Co159  1  0.31545071  0.73791530  0.34782856  1
  Co  Co160  1  0.06295816  0.70258890  0.46120535  1
  Co  Co161  1  0.19404449  0.68087253  0.70829494  1
  Ni  Ni162  1  0.65001346  0.98060930  0.53373399  1
  Ni  Ni163  1  0.70140928  0.84142638  0.27035618  1
  Ni  Ni164  1  0.28994528  0.44233235  0.55215449  1
  Ni  Ni165  1  0.74496441  0.38288119  0.10988497  1
  Ni  Ni166  1  0.29107801  0.06907388  0.75950298  1
  Ni  Ni167  1  0.13393328  0.55363420  0.81821876  1
  Ni  Ni168  1  0.84442163  0.47425971  0.23056420  1
  Ni  Ni169  1  0.01387146  0.07069015  0.35389878  1
  Ni  Ni170  1  0.61111448  0.94086388  0.15198252  1
  Ni  Ni171  1  0.45708222  0.33845308  0.27646250  1
  Ni  Ni172  1  0.70811695  0.16765923  0.77290096  1
  Ni  Ni173  1  0.69939895  0.71612378  0.02058153  1
  Ni  Ni174  1  0.05836183  0.17740015  0.04104263  1
  Ni  Ni175  1  0.58525180  0.82597926  0.44688817  1
  Ni  Ni176  1  0.11758487  0.85553491  0.48265130  1
  Ni  Ni177  1  0.26166983  0.58725366  0.38664759  1
  Ni  Ni178  1  0.09520533  0.60457878  0.58457299  1
  Ni  Ni179  1  0.01172386  0.33353404  0.48511975  1
  Ni  Ni180  1  0.91069796  0.38141629  0.61676842  1
  Ni  Ni181  1  0.06071264  0.24253717  0.21333708  1
  Ni  Ni182  1  0.42901061  0.62721956  0.96143349  1
  Ni  Ni183  1  0.97560233  0.12364084  0.63189359  1
  Ni  Ni184  1  0.58651458  0.85322879  0.84197249  1
  Ni  Ni185  1  0.15890163  0.29143559  0.95853265  1
  Ni  Ni186  1  0.88755783  -0.03719831  0.29834730  1
  Ni  Ni187  1  0.17605071  0.53954241  0.10964379  1
  Ni  Ni188  1  0.51757647  0.03896262  0.63218262  1
  Ni  Ni189  1  0.79016462  0.80870252  0.90890265  1
  Ni  Ni190  1  0.95479048  0.21059292  0.76927247  1
  Ni  Ni191  1  0.21063723  0.83415725  0.62070465  1
  Ni  Ni192  1  0.55470265  0.08632596  0.78284221  1
  Ni  Ni193  1  0.50040270  0.53561928  0.07495712  1
  Ni  Ni194  1  0.06927446  0.91314746  0.90764594  1
  Ni  Ni195  1  0.60799612  0.07587307  0.24203467  1
  Ni  Ni196  1  0.86995988  0.87596297  0.02768876  1
  Ni  Ni197  1  0.59917310  0.24607995  -0.00129555  1
  Ni  Ni198  1  0.19058559  0.21253858  0.12425218  1
  Ni  Ni199  1  0.85475102  0.79059009  0.16884202  1
  Ni  Ni200  1  0.61020338  0.44148238  0.55390249  1
  Ni  Ni201  1  0.04102482  0.45143262  0.02109003  1
  Ni  Ni202  1  0.23172421  0.21695865  0.78736927  1
  Ni  Ni203  1  0.25825460  -0.00954408  0.62084570  1
  Ni  Ni204  1  0.88049114  0.19016923  0.05079608  1
  Ni  Ni205  1  0.12441829  0.88322397  0.18881335  1
  Ni  Ni206  1  0.17288027  0.48552260  0.26771757  1
  Ni  Ni207  1  0.55542181  0.22917211  0.84345185  1
  Ni  Ni208  1  0.95668706  0.22866281  0.33217446  1
  Ni  Ni209  1  0.18571464  0.22810717  0.58977865  1
  Ni  Ni210  1  0.02734736  0.46670054  0.71415755  1
  Ni  Ni211  1  0.69940339  0.41222544  0.42474088  1
  Ni  Ni212  1  0.92155819  0.97117054  0.45974288  1
  Ni  Ni213  1  0.77956144  0.57425449  0.95557535  1
  Ni  Ni214  1  0.86438071  1.00138465  0.70203446  1
  Ni  Ni215  1  0.48399652  0.12755912  0.48130084  1
