# generated using pymatgen
data_Ti2CoNi
_symmetry_space_group_name_H-M   'P 1'
_cell_length_a   14.65875332
_cell_length_b   14.63317500
_cell_length_c   14.68960276
_cell_angle_alpha   90.35709162
_cell_angle_beta   89.93499478
_cell_angle_gamma   89.82956984
_symmetry_Int_Tables_number   1
_chemical_formula_structural   Ti2CoNi
_chemical_formula_sum   'Ti108 Co54 Ni54'
_cell_volume   3150.90282563
_cell_formula_units_Z   54
loop_
 _symmetry_equiv_pos_site_id
 _symmetry_equiv_pos_as_xyz
  1  'x, y, z'
loop_
 _atom_site_type_symbol
 _atom_site_label
 _atom_site_symmetry_multiplicity
 _atom_site_fract_x
 _atom_site_fract_y
 _atom_site_fract_z
 _atom_site_occupancy
  Ti  Ti0  1  -0.01147121  0.02229669  0.03029146  1
  Ti  Ti1  1  -0.02919166  0.00620728  0.36015152  1
  Ti  Ti2  1  0.07434816  -0.07283938  0.69320327  1
  Ti  Ti3  1  0.04654503  0.27382864  0.05958462  1
  Ti  Ti4  1  0.06138445  0.28486659  0.27122261  1
  Ti  Ti5  1  0.07531096  0.35329882  0.73394011  1
  Ti  Ti6  1  0.01184074  0.67637597  0.02935079  1
  Ti  Ti7  1  -0.00501893  0.63953471  0.34481533  1
  Ti  Ti8  1  -0.00781854  0.63806263  0.69107642  1
  Ti  Ti9  1  0.43566788  0.00295300  -0.00076454  1
  Ti  Ti10  1  0.31641596  -0.02494005  0.31879117  1
  Ti  Ti11  1  0.32157170  -0.02336121  0.76061235  1
  Ti  Ti12  1  0.34411041  0.32808825  -0.07060290  1
  Ti  Ti13  1  0.35839303  0.27686900  0.29771756  1
  Ti  Ti14  1  0.34068818  0.30632863  0.73576610  1
  Ti  Ti15  1  0.26726087  0.61987533  -0.01983734  1
  Ti  Ti16  1  0.31369927  0.76431805  0.36095171  1
  Ti  Ti17  1  0.31014067  0.57666646  0.61155675  1
  Ti  Ti18  1  0.67274841  -0.00953024  0.02463032  1
  Ti  Ti19  1  0.63989998  0.04488469  0.33703707  1
  Ti  Ti20  1  0.65909155  0.08142657  0.62096777  1
  Ti  Ti21  1  0.71385913  0.20414153  0.01651217  1
  Ti  Ti22  1  0.69565220  0.32977260  0.39748761  1
  Ti  Ti23  1  0.59970685  0.39540340  0.66546712  1
  Ti  Ti24  1  0.67841459  0.67115131  0.02341803  1
  Ti  Ti25  1  0.69572576  0.64400040  0.31962293  1
  Ti  Ti26  1  0.69801525  0.70172095  0.61897004  1
  Ti  Ti27  1  -0.11064072  0.19493179  0.13588481  1
  Ti  Ti28  1  -0.01656531  0.11397010  0.54166971  1
  Ti  Ti29  1  0.04923180  0.19400194  0.82460734  1
  Ti  Ti30  1  -0.10515885  0.48806711  0.09496680  1
  Ti  Ti31  1  -0.04383607  0.48381919  0.50382232  1
  Ti  Ti32  1  -0.02132461  0.49726316  0.84021310  1
  Ti  Ti33  1  0.05089254  0.78908308  0.21300675  1
  Ti  Ti34  1  0.00909094  0.81068747  0.43781280  1
  Ti  Ti35  1  -0.06281606  0.81515340  0.78968322  1
  Ti  Ti36  1  0.31495487  0.11028559  0.18286441  1
  Ti  Ti37  1  0.31600766  0.17378035  0.54749001  1
  Ti  Ti38  1  0.29071296  0.14369705  0.88058180  1
  Ti  Ti39  1  0.35676647  0.48340374  0.23723682  1
  Ti  Ti40  1  0.25518743  0.46869342  0.45582055  1
  Ti  Ti41  1  0.34210842  0.51998987  0.80850785  1
  Ti  Ti42  1  0.41429280  0.81537736  0.19100845  1
  Ti  Ti43  1  0.38560354  0.88773007  0.58572957  1
  Ti  Ti44  1  0.31802975  0.77575689  0.86253084  1
  Ti  Ti45  1  0.60535897  0.15332203  0.15940030  1
  Ti  Ti46  1  0.60128475  0.24134621  0.52950482  1
  Ti  Ti47  1  0.71329455  0.10278364  0.84119223  1
  Ti  Ti48  1  0.61875397  0.51325013  0.15422536  1
  Ti  Ti49  1  0.72442540  0.53631476  0.50102575  1
  Ti  Ti50  1  0.65383331  0.51942382  0.89105431  1
  Ti  Ti51  1  0.65987160  0.80217964  0.17649749  1
  Ti  Ti52  1  0.71873448  0.88429922  0.55360522  1
  Ti  Ti53  1  0.64952947  0.80315202  0.79430366  1
  Ti  Ti54  1  0.15223837  -0.02612520  0.16286846  1
  Ti  Ti55  1  0.15887728  0.03389048  0.47514112  1
  Ti  Ti56  1  0.13152572  0.02680108  0.85072462  1
  Ti  Ti57  1  0.21510973  0.34993144  0.13663621  1
  Ti  Ti58  1  0.12280342  0.24285426  0.48759038  1
  Ti  Ti59  1  0.17796183  0.42986379  0.86707728  1
  Ti  Ti60  1  0.24603134  0.66577730  0.20377085  1
  Ti  Ti61  1  0.15901021  0.70251905  0.49301972  1
  Ti  Ti62  1  0.19656027  0.63813980  0.77703521  1
  Ti  Ti63  1  0.48696411  -0.00402093  0.18717321  1
  Ti  Ti64  1  0.53411462  -0.00576046  0.51924303  1
  Ti  Ti65  1  0.55664551  -0.01163749  0.82904933  1
  Ti  Ti66  1  0.50434452  0.32483866  0.20582517  1
  Ti  Ti67  1  0.42374155  0.37110255  0.52098708  1
  Ti  Ti68  1  0.51579201  0.37548052  0.83692151  1
  Ti  Ti69  1  0.42401344  0.61825457  0.11042273  1
  Ti  Ti70  1  0.46753405  0.70639567  0.51305737  1
  Ti  Ti71  1  0.50364566  0.63755097  0.82879051  1
  Ti  Ti72  1  0.84406367  -0.08038880  0.15756336  1
  Ti  Ti73  1  0.80586513  0.04383293  0.49715014  1
  Ti  Ti74  1  0.82369642  -0.04575769  0.85886217  1
  Ti  Ti75  1  0.74495224  0.31253358  0.20158729  1
  Ti  Ti76  1  0.82311825  0.25280931  0.53315233  1
  Ti  Ti77  1  0.88520330  0.32518881  0.75688699  1
  Ti  Ti78  1  0.87789204  0.69855610  0.20737872  1
  Ti  Ti79  1  0.82358319  0.72741281  0.44648396  1
  Ti  Ti80  1  0.78748007  0.72418648  0.88510441  1
  Ti  Ti81  1  0.16976674  0.10761753  0.02673538  1
  Ti  Ti82  1  0.21816639  0.17155014  0.34418778  1
  Ti  Ti83  1  0.19628699  0.11243646  0.68773179  1
  Ti  Ti84  1  0.11457682  0.50448598  0.04454645  1
  Ti  Ti85  1  0.14858910  0.51012377  0.27988802  1
  Ti  Ti86  1  0.12050185  0.42351609  0.57535449  1
  Ti  Ti87  1  0.17178853  0.88197820  -0.00491277  1
  Ti  Ti88  1  0.14543976  0.88578740  0.34589985  1
  Ti  Ti89  1  0.22573941  0.80017804  0.66803034  1
  Ti  Ti90  1  0.51331921  0.25980482  0.00476130  1
  Ti  Ti91  1  0.46802607  0.16310992  0.41154565  1
  Ti  Ti92  1  0.54262420  0.16766293  0.73694961  1
  Ti  Ti93  1  0.49642781  0.43948204  0.03490924  1
  Ti  Ti94  1  0.52185565  0.51838702  0.33923019  1
  Ti  Ti95  1  0.51908462  0.55361781  0.60912680  1
  Ti  Ti96  1  0.52792050  0.80410112  -0.05105368  1
  Ti  Ti97  1  0.53812585  0.75304190  0.33978921  1
  Ti  Ti98  1  0.46787770  0.83219569  0.73839962  1
  Ti  Ti99  1  0.89912985  0.19114679  -0.05962462  1
  Ti  Ti100  1  0.87875666  0.22290008  0.34046597  1
  Ti  Ti101  1  0.72538800  0.24431835  0.70311566  1
  Ti  Ti102  1  0.82879626  0.40806854  -0.08270967  1
  Ti  Ti103  1  0.80094807  0.48432693  0.27579842  1
  Ti  Ti104  1  0.79314351  0.50064954  0.70113375  1
  Ti  Ti105  1  0.89319198  0.83299412  -0.01176874  1
  Ti  Ti106  1  0.74709643  0.86531304  0.33521543  1
  Ti  Ti107  1  0.89925846  0.80065713  0.60586654  1
  Co  Co108  1  0.65883888  0.36696677  0.95322625  1
  Co  Co109  1  0.27071187  0.60587906  0.37611610  1
  Co  Co110  1  0.24796555  0.44845426  0.69072797  1
  Co  Co111  1  0.91235268  0.96491044  0.70138921  1
  Co  Co112  1  0.69834551  0.38671333  0.79457352  1
  Co  Co113  1  0.86744735  0.14249871  0.78537659  1
  Co  Co114  1  0.41266640  0.90683849  0.87325844  1
  Co  Co115  1  0.03413289  0.89383885  0.89278812  1
  Co  Co116  1  0.78171913  0.84395494  0.71629838  1
  Co  Co117  1  0.84413098  0.12479312  0.63478760  1
  Co  Co118  1  0.03314163  0.15717153  0.37781710  1
  Co  Co119  1  0.63107523  0.34054691  0.10293598  1
  Co  Co120  1  0.28683496  0.45516277  0.98622446  1
  Co  Co121  1  0.20357381  0.25801959  0.78163142  1
  Co  Co122  1  0.85345828  0.62947710  0.01398165  1
  Co  Co123  1  0.25868438  0.52677702  0.12101441  1
  Co  Co124  1  0.22124877  0.36321833  0.30315192  1
  Co  Co125  1  0.41858608  0.68456198  0.96322011  1
  Co  Co126  1  0.60526296  0.21270130  0.31848567  1
  Co  Co127  1  0.66226801  0.74205620  0.45906763  1
  Co  Co128  1  0.61119956  0.24168157  0.86332833  1
  Co  Co129  1  0.58261773  0.60335192  0.45813746  1
  Co  Co130  1  0.75989600  1.00437671  0.70961526  1
  Co  Co131  1  0.79433922  0.76676275  0.08902630  1
  Co  Co132  1  0.43013679  0.52428007  0.92968980  1
  Co  Co133  1  0.95277936  0.25180554  0.63653533  1
  Co  Co134  1  0.37433558  0.36166386  0.10884378  1
  Co  Co135  1  0.17116808  0.18928204  0.17171360  1
  Co  Co136  1  0.00062287  0.95213269  0.21197636  1
  Co  Co137  1  0.08956895  0.76492654  0.77465163  1
  Co  Co138  1  0.14185225  0.70352883  0.32665527  1
  Co  Co139  1  0.23503055  0.30932066  0.61134260  1
  Co  Co140  1  0.81701257  0.32963621  0.05301536  1
  Co  Co141  1  0.41416919  0.55048472  0.47087598  1
  Co  Co142  1  0.54749150  0.59761711  0.00853041  1
  Co  Co143  1  0.01799902  0.08946989  0.70028784  1
  Co  Co144  1  0.38206698  0.41821629  0.37180818  1
  Co  Co145  1  0.62254135  0.91988030  0.68464196  1
  Co  Co146  1  0.03233772  0.11643900  0.16682278  1
  Co  Co147  1  0.27346445  0.30429562  0.44853904  1
  Co  Co148  1  0.76986224  0.26051820  0.86932872  1
  Co  Co149  1  0.10006339  0.58160276  0.89959788  1
  Co  Co150  1  1.02287822  0.86219146  0.07153128  1
  Co  Co151  1  0.10427582  0.22269692  0.64164445  1
  Co  Co152  1  0.13079433  0.04839704  0.29955311  1
  Co  Co153  1  0.96573324  0.03541849  0.85214979  1
  Co  Co154  1  0.73337861  0.48841882  0.04143372  1
  Co  Co155  1  0.95322193  0.46457536  0.66667134  1
  Co  Co156  1  0.28080147  -0.01753039  0.94053508  1
  Co  Co157  1  0.51772593  0.32925045  0.38430506  1
  Co  Co158  1  0.19165690  0.87665867  0.82436854  1
  Co  Co159  1  0.47591786  0.13485722  0.57633983  1
  Co  Co160  1  0.48337588  1.00579771  0.68031873  1
  Co  Co161  1  0.46840342  0.14302595  0.25371187  1
  Ni  Ni162  1  0.37254394  0.83456809  0.02480670  1
  Ni  Ni163  1  0.31506256  0.95149664  0.12447434  1
  Ni  Ni164  1  0.36331777  0.02523791  0.47893326  1
  Ni  Ni165  1  0.90668716  0.35329812  0.21681336  1
  Ni  Ni166  1  0.15661049  0.74475220  0.08858920  1
  Ni  Ni167  1  0.95506868  0.66522382  0.87058220  1
  Ni  Ni168  1  0.37260158  0.68732686  0.71743447  1
  Ni  Ni169  1  0.67325000  0.97294254  0.19133973  1
  Ni  Ni170  1  0.60212210  0.88916913  0.41021163  1
  Ni  Ni171  1  0.82053301  0.56484362  0.85555686  1
  Ni  Ni172  1  0.72399778  0.16267408  0.42321744  1
  Ni  Ni173  1  0.26597592  0.88895315  0.46496778  1
  Ni  Ni174  1  0.09918143  0.39318895  0.40624514  1
  Ni  Ni175  1  0.12188587  0.87159249  0.54002535  1
  Ni  Ni176  1  0.72969449  0.38265899  0.56678631  1
  Ni  Ni177  1  0.04260779  0.41920820  0.16243609  1
  Ni  Ni178  1  0.44915939  0.18010812  0.87030564  1
  Ni  Ni179  1  0.82383337  0.05758451  0.02367509  1
  Ni  Ni180  1  0.57326655  0.10702964  0.95904637  1
  Ni  Ni181  1  0.55666254  0.83144820  0.56583075  1
  Ni  Ni182  1  0.91025747  0.83370126  0.30699768  1
  Ni  Ni183  1  0.82830734  0.67959261  0.72911141  1
  Ni  Ni184  1  0.85456436  0.60872075  0.58302170  1
  Ni  Ni185  1  0.83966307  0.40240740  0.42100366  1
  Ni  Ni186  1  0.88035936  0.06374960  0.22960305  1
  Ni  Ni187  1  0.05357723  0.61504091  0.18198600  1
  Ni  Ni188  1  0.96859746  0.30277246  0.46213676  1
  Ni  Ni189  1  0.29701477  0.21939933  0.04940717  1
  Ni  Ni190  1  0.23786203  -0.03132311  0.60941194  1
  Ni  Ni191  1  0.69453627  0.84113621  0.96385301  1
  Ni  Ni192  1  0.37475479  0.13598738  0.71454241  1
  Ni  Ni193  1  1.00647363  0.34109552  0.90459033  1
  Ni  Ni194  1  0.56361965  0.66783076  0.19324770  1
  Ni  Ni195  1  0.62965235  0.40764432  0.27774270  1
  Ni  Ni196  1  0.10330862  0.52005954  0.71875359  1
  Ni  Ni197  1  0.47357849  0.28192788  0.64711603  1
  Ni  Ni198  1  0.42968474  0.44269917  0.69066162  1
  Ni  Ni199  1  0.43230995  0.86381312  0.42832928  1
  Ni  Ni200  1  0.86620182  0.89553934  0.45757996  1
  Ni  Ni201  1  0.44728753  0.14202212  0.08722483  1
  Ni  Ni202  1  0.24178435  0.83541764  0.21285265  1
  Ni  Ni203  1  0.58486900  0.43316342  0.49229708  1
  Ni  Ni204  1  0.74691998  0.15396497  0.25342815  1
  Ni  Ni205  1  0.10495556  0.55390529  0.44434934  1
  Ni  Ni206  1  0.47799679  0.99745327  0.35252720  1
  Ni  Ni207  1  0.85494267  0.57364537  0.40216577  1
  Ni  Ni208  1  0.15476902  0.73300719  0.92087211  1
  Ni  Ni209  1  0.99165353  0.66308528  0.51840143  1
  Ni  Ni210  1  0.17131248  0.26795799  0.94344547  1
  Ni  Ni211  1  0.54469579  0.70162656  0.67874447  1
  Ni  Ni212  1  0.54825068  0.88063938  0.08954442  1
  Ni  Ni213  1  0.31224945  0.73646297  0.53537010  1
  Ni  Ni214  1  0.41204630  0.64786587  0.28195953  1
  Ni  Ni215  1  0.75750767  0.60826665  0.15854292  1
