# generated using pymatgen
data_Ti2CoNi
_symmetry_space_group_name_H-M   'P 1'
_cell_length_a   14.61456750
_cell_length_b   14.59827138
_cell_length_c   14.54744776
_cell_angle_alpha   89.95465126
_cell_angle_beta   90.23013375
_cell_angle_gamma   90.00158654
_symmetry_Int_Tables_number   1
_chemical_formula_structural   Ti2CoNi
_chemical_formula_sum   'Ti108 Co54 Ni54'
_cell_volume   3103.63447471
_cell_formula_units_Z   54
loop_
 _symmetry_equiv_pos_site_id
 _symmetry_equiv_pos_as_xyz
  1  'x, y, z'
loop_
 _atom_site_type_symbol
 _atom_site_label
 _atom_site_symmetry_multiplicity
 _atom_site_fract_x
 _atom_site_fract_y
 _atom_site_fract_z
 _atom_site_occupancy
  Ti  Ti0  1  -0.01746601  0.08333406  -0.03328697  1
  Ti  Ti1  1  0.05993366  0.00442334  0.36789089  1
  Ti  Ti2  1  0.06337533  -0.03011080  0.56872901  1
  Ti  Ti3  1  -0.05093727  0.35752093  -0.01898598  1
  Ti  Ti4  1  -0.02024396  0.30015647  0.38353448  1
  Ti  Ti5  1  -0.04198981  0.32988956  0.76314805  1
  Ti  Ti6  1  0.05893132  0.71008927  -0.02327153  1
  Ti  Ti7  1  -0.07043983  0.64500962  0.39389901  1
  Ti  Ti8  1  -0.00674650  0.64100057  0.62874678  1
  Ti  Ti9  1  0.38182683  -0.05681758  0.03059126  1
  Ti  Ti10  1  0.37139761  0.05062018  0.36057103  1
  Ti  Ti11  1  0.27831722  -0.00681714  0.66525105  1
  Ti  Ti12  1  0.33061707  0.45000716  -0.00977646  1
  Ti  Ti13  1  0.26855191  0.34019543  0.25631490  1
  Ti  Ti14  1  0.32785241  0.33715360  0.63202523  1
  Ti  Ti15  1  0.37858290  0.73789749  0.00475532  1
  Ti  Ti16  1  0.37900203  0.70649739  0.39925650  1
  Ti  Ti17  1  0.34786772  0.68319090  0.66682002  1
  Ti  Ti18  1  0.65075106  -0.02493680  -0.09593309  1
  Ti  Ti19  1  0.64121080  0.07190649  0.42418865  1
  Ti  Ti20  1  0.60497183  -0.02322992  0.70501679  1
  Ti  Ti21  1  0.62382221  0.31546092  0.01320741  1
  Ti  Ti22  1  0.61428462  0.40052882  0.36335750  1
  Ti  Ti23  1  0.78952393  0.31908718  0.64372324  1
  Ti  Ti24  1  0.65034926  0.58859254  -0.06530895  1
  Ti  Ti25  1  0.66550347  0.64728953  0.28552234  1
  Ti  Ti26  1  0.65674394  0.68387237  0.73825949  1
  Ti  Ti27  1  -0.01480041  0.15419341  0.23322040  1
  Ti  Ti28  1  -0.03233338  0.12688663  0.51767152  1
  Ti  Ti29  1  -0.02506123  0.12187553  0.75303970  1
  Ti  Ti30  1  0.01627958  0.61190754  0.18882785  1
  Ti  Ti31  1  0.06122962  0.47514504  0.48467613  1
  Ti  Ti32  1  -0.04476909  0.56348780  0.79290235  1
  Ti  Ti33  1  0.00525188  0.82332841  0.13573111  1
  Ti  Ti34  1  -0.00279123  0.82859189  0.43001421  1
  Ti  Ti35  1  0.04340676  0.85156244  0.83654908  1
  Ti  Ti36  1  0.30078578  0.19624368  0.15422362  1
  Ti  Ti37  1  0.33023945  0.22050382  0.48180206  1
  Ti  Ti38  1  0.33982354  0.14875352  0.83908551  1
  Ti  Ti39  1  0.39269369  0.48267472  0.21891650  1
  Ti  Ti40  1  0.28700154  0.53369213  0.52516688  1
  Ti  Ti41  1  0.38693631  0.47407124  0.78091757  1
  Ti  Ti42  1  0.32070059  0.75909655  0.18884273  1
  Ti  Ti43  1  0.34877976  0.86631213  0.52297070  1
  Ti  Ti44  1  0.24456326  0.75832409  0.83510147  1
  Ti  Ti45  1  0.64763950  0.17098884  0.11759654  1
  Ti  Ti46  1  0.67857846  0.24871495  0.48391273  1
  Ti  Ti47  1  0.69344718  0.15053968  0.91091177  1
  Ti  Ti48  1  0.68206655  0.46400483  0.15154311  1
  Ti  Ti49  1  0.65932944  0.46097894  0.54991947  1
  Ti  Ti50  1  0.69480717  0.48107236  0.73732151  1
  Ti  Ti51  1  0.65038931  0.85519136  0.24556807  1
  Ti  Ti52  1  0.68543196  0.86706870  0.47255271  1
  Ti  Ti53  1  0.71428996  0.77328286  0.90922863  1
  Ti  Ti54  1  0.06835369  -0.00086532  0.13697837  1
  Ti  Ti55  1  0.21115475  0.06184408  0.48844610  1
  Ti  Ti56  1  0.13093824  0.04008722  0.85209703  1
  Ti  Ti57  1  0.09649181  0.31904204  0.12645222  1
  Ti  Ti58  1  0.17412101  0.32341664  0.41449332  1
  Ti  Ti59  1  0.16686796  0.31257762  0.87674292  1
  Ti  Ti60  1  0.19881354  0.59186310  0.12062190  1
  Ti  Ti61  1  0.11360075  0.68282873  0.49950767  1
  Ti  Ti62  1  0.13424388  0.59893792  0.84383680  1
  Ti  Ti63  1  0.53238243  -0.02888097  0.15455269  1
  Ti  Ti64  1  0.51781053  -0.05244429  0.50567910  1
  Ti  Ti65  1  0.45344322  -0.01504147  0.82181786  1
  Ti  Ti66  1  0.52341442  0.33848053  0.20845908  1
  Ti  Ti67  1  0.48903507  0.32175770  0.47154015  1
  Ti  Ti68  1  0.46623152  0.33422227  0.90324822  1
  Ti  Ti69  1  0.49257280  0.64137170  0.16249225  1
  Ti  Ti70  1  0.56107417  0.67146090  0.54699708  1
  Ti  Ti71  1  0.47330700  0.69927519  0.82981947  1
  Ti  Ti72  1  0.80938320  -0.05234340  0.18182558  1
  Ti  Ti73  1  0.86592473  -0.03988616  0.47387448  1
  Ti  Ti74  1  0.87346794  -0.04242588  0.83285877  1
  Ti  Ti75  1  0.82513963  0.32634883  0.14584229  1
  Ti  Ti76  1  0.80159740  0.39538028  0.44194754  1
  Ti  Ti77  1  0.77211037  0.32305444  0.84528480  1
  Ti  Ti78  1  0.77477323  0.73320762  0.13236724  1
  Ti  Ti79  1  0.84140450  0.73368325  0.53607727  1
  Ti  Ti80  1  0.86141425  0.74462794  0.76888433  1
  Ti  Ti81  1  0.21693122  0.14014939  -0.01286620  1
  Ti  Ti82  1  0.20711806  0.04576078  0.25398487  1
  Ti  Ti83  1  0.12617731  0.23104142  0.65252048  1
  Ti  Ti84  1  0.12417552  0.46638228  -0.00577004  1
  Ti  Ti85  1  0.21361536  0.51317032  0.30659765  1
  Ti  Ti86  1  0.18948263  0.50543975  0.68956708  1
  Ti  Ti87  1  0.20396554  0.86835139  0.00307087  1
  Ti  Ti88  1  0.22579319  0.83986162  0.35017345  1
  Ti  Ti89  1  0.18218523  0.80580054  0.65515659  1
  Ti  Ti90  1  0.49857472  0.09751867  -0.00326646  1
  Ti  Ti91  1  0.50252225  0.13345447  0.25827066  1
  Ti  Ti92  1  0.60801357  0.17322527  0.72325488  1
  Ti  Ti93  1  0.51740775  0.48314351  0.05677492  1
  Ti  Ti94  1  0.47686646  0.50943528  0.48061960  1
  Ti  Ti95  1  0.50902744  0.40378890  0.66360497  1
  Ti  Ti96  1  0.54546371  0.84116588  -0.01010672  1
  Ti  Ti97  1  0.42977585  0.88048262  0.32405991  1
  Ti  Ti98  1  0.51890613  0.81435045  0.66530160  1
  Ti  Ti99  1  0.82811366  0.11353899  0.07888819  1
  Ti  Ti100  1  0.76648350  0.14446068  0.27251495  1
  Ti  Ti101  1  0.74309533  0.10768815  0.59682560  1
  Ti  Ti102  1  0.83913510  0.54264929  0.05472446  1
  Ti  Ti103  1  0.91489886  0.47314584  0.29383009  1
  Ti  Ti104  1  0.86979699  0.52822816  0.55467743  1
  Ti  Ti105  1  0.87895961  0.82969117  -0.02092974  1
  Ti  Ti106  1  0.80756604  0.80159030  0.33868240  1
  Ti  Ti107  1  0.88552388  0.87689464  0.65230697  1
  Co  Co108  1  0.55960511  0.51257613  0.25618552  1
  Co  Co109  1  0.67321026  0.01741574  0.08025466  1
  Co  Co110  1  0.93052836  0.91224455  0.29407171  1
  Co  Co111  1  1.02414493  0.95628783  0.72395816  1
  Co  Co112  1  0.24501674  0.02048476  0.08496671  1
  Co  Co113  1  0.75965342  0.96833543  0.34597076  1
  Co  Co114  1  0.22269996  0.64284893  0.39990787  1
  Co  Co115  1  0.27241825  0.72184990  0.52945440  1
  Co  Co116  1  0.82566769  0.61114061  0.24166136  1
  Co  Co117  1  0.12033411  0.24307996  0.26937977  1
  Co  Co118  1  0.60080239  0.76255979  0.12603136  1
  Co  Co119  1  0.95666932  0.21906098  0.08291112  1
  Co  Co120  1  0.16150348  0.85967318  0.49536548  1
  Co  Co121  1  0.36747944  0.23376975  0.98082677  1
  Co  Co122  1  0.85049841  0.12365780  0.88021974  1
  Co  Co123  1  0.45548531  0.83029729  0.14395430  1
  Co  Co124  1  0.81564245  0.62174716  0.67797353  1
  Co  Co125  1  0.38091246  0.34983410  0.11571201  1
  Co  Co126  1  0.71431041  0.77712908  0.62377471  1
  Co  Co127  1  0.05423673  0.91167096  0.98396099  1
  Co  Co128  1  0.06877888  0.72522340  0.33143657  1
  Co  Co129  1  0.70215727  0.70922945  0.43680405  1
  Co  Co130  1  0.57551279  0.84027730  0.81878872  1
  Co  Co131  1  0.79528021  0.99190625  0.97085495  1
  Co  Co132  1  0.91672004  0.68441855  0.07816025  1
  Co  Co133  1  0.19477407  0.68319785  0.25363243  1
  Co  Co134  1  -0.03115235  0.45372670  0.12515338  1
  Co  Co135  1  0.24124859  0.44205382  0.13453774  1
  Co  Co136  1  0.87700111  0.45171657  0.87983300  1
  Co  Co137  1  0.53787836  0.67440778  1.00401619  1
  Co  Co138  1  0.47404534  0.23602189  0.60257495  1
  Co  Co139  1  0.73456211  0.86553357  0.76890715  1
  Co  Co140  1  0.62666003  0.55875459  0.41920193  1
  Co  Co141  1  0.65740433  0.60915942  0.10902537  1
  Co  Co142  1  0.79781351  0.25021999  0.99721607  1
  Co  Co143  1  0.06732468  0.56689196  0.35352136  1
  Co  Co144  1  0.05778889  0.43812432  0.83875145  1
  Co  Co145  1  0.34407335  0.94783549  0.21235232  1
  Co  Co146  1  0.79134168  0.56967934  0.41551007  1
  Co  Co147  1  0.82592278  0.27795632  0.33397096  1
  Co  Co148  1  0.12390902  0.15114370  0.12241021  1
  Co  Co149  1  0.57376514  0.94722548  0.35003476  1
  Co  Co150  1  0.14913178  0.74966816  0.11325519  1
  Co  Co151  1  0.74559832  0.46929655  0.29950521  1
  Co  Co152  1  0.85521095  0.45586106  0.71240391  1
  Co  Co153  1  0.08531821  0.87597626  0.27064573  1
  Co  Co154  1  0.39699017  0.07783921  0.13852336  1
  Co  Co155  1  0.71387794  0.86277949  0.05076604  1
  Co  Co156  1  0.96210834  0.31907141  0.22576446  1
  Co  Co157  1  0.79746611  0.11772326  0.44097853  1
  Co  Co158  1  0.42657132  0.27996479  0.75412372  1
  Co  Co159  1  0.70705069  0.61515872  0.56491377  1
  Co  Co160  1  0.64853198  0.04282122  0.24496361  1
  Co  Co161  1  0.20488939  0.88631773  0.17217967  1
  Ni  Ni162  1  0.05890579  0.71795929  0.75773481  1
  Ni  Ni163  1  0.78600443  0.58782079  0.83743255  1
  Ni  Ni164  1  0.02853183  0.47141404  0.66149273  1
  Ni  Ni165  1  0.75599141  0.41741010  -0.01093465  1
  Ni  Ni166  1  0.30594807  0.60752244  0.82484632  1
  Ni  Ni167  1  0.48074354  0.22204671  0.10142007  1
  Ni  Ni168  1  0.51424189  0.17521386  0.85652240  1
  Ni  Ni169  1  0.92315949  0.96346004  0.06556733  1
  Ni  Ni170  1  0.33282444  0.39703278  0.42630604  1
  Ni  Ni171  1  0.38129535  1.06191747  0.53399234  1
  Ni  Ni172  1  -0.01100537  0.55072317  0.97787015  1
  Ni  Ni173  1  0.81938619  0.18878771  0.73374812  1
  Ni  Ni174  1  1.02685945  0.80501700  0.60557191  1
  Ni  Ni175  1  0.90184082  0.67857710  0.91355026  1
  Ni  Ni176  1  0.41071777  0.26518367  0.32838908  1
  Ni  Ni177  1  0.45083003  0.56354419  0.63706748  1
  Ni  Ni178  1  0.23160741  0.45853496  0.84641425  1
  Ni  Ni179  1  0.60069259  0.44208489  0.89787558  1
  Ni  Ni180  1  0.53914501  0.79322910  0.43498904  1
  Ni  Ni181  1  0.20504113  0.91137940  0.78921446  1
  Ni  Ni182  1  0.55556458  0.09418613  0.58045456  1
  Ni  Ni183  1  0.35778754  0.59006874  0.07457747  1
  Ni  Ni184  1  0.69268450  0.30808037  0.23698415  1
  Ni  Ni185  1  0.54552440  0.55181142  0.77691633  1
  Ni  Ni186  1  0.85664265  0.24797879  0.50752976  1
  Ni  Ni187  1  0.60823723  0.31665752  0.79801314  1
  Ni  Ni188  1  0.28057017  0.15454315  0.63301811  1
  Ni  Ni189  1  0.25220120  0.25475602  0.75676273  1
  Ni  Ni190  1  0.38676486  0.84534402  0.87657776  1
  Ni  Ni191  1  0.25891148  0.18108124  0.33593772  1
  Ni  Ni192  1  0.05071617  0.29137990  0.52820211  1
  Ni  Ni193  1  0.29203799  -0.00497609  0.89910229  1
  Ni  Ni194  1  0.06294779  0.22354477  0.96059633  1
  Ni  Ni195  1  0.60101525  0.22743831  0.34383706  1
  Ni  Ni196  1  0.36393437  0.55059560  0.36709480  1
  Ni  Ni197  1  0.22676305  0.66335162  0.97933037  1
  Ni  Ni198  1  0.10082692  0.16748394  0.41751948  1
  Ni  Ni199  1  0.43959143  0.96290922  0.64941209  1
  Ni  Ni200  1  0.43399266  0.11644344  0.70530473  1
  Ni  Ni201  1  0.45024220  0.55808724  0.92067622  1
  Ni  Ni202  1  0.92403115  0.74589673  0.24695921  1
  Ni  Ni203  1  0.23390357  0.31052951  0.03534389  1
  Ni  Ni204  1  0.13513792  0.07044286  0.67949456  1
  Ni  Ni205  1  0.73678899  0.94310320  0.61274937  1
  Ni  Ni206  1  0.18509911  0.38306472  0.57133338  1
  Ni  Ni207  1  0.51307008  0.74705760  0.27974213  1
  Ni  Ni208  1  0.92952875  0.37749265  0.57210967  1
  Ni  Ni209  1  0.75022444  0.04108684  0.76251278  1
  Ni  Ni210  1  0.08287614  0.41289104  0.27905653  1
  Ni  Ni211  1  0.88864266  0.03874770  0.64703644  1
  Ni  Ni212  1  0.34845623  0.84373009  0.71680826  1
  Ni  Ni213  1  0.48624629  0.15117673  0.43849382  1
  Ni  Ni214  1  0.62977438  0.30709436  0.62961560  1
  Ni  Ni215  1  0.90197179  0.06292165  0.33889583  1
