# generated using pymatgen
data_Ti2CoNi
_symmetry_space_group_name_H-M   'P 1'
_cell_length_a   14.47757597
_cell_length_b   14.49578969
_cell_length_c   14.59708089
_cell_angle_alpha   90.03781585
_cell_angle_beta   90.09516968
_cell_angle_gamma   89.76776780
_symmetry_Int_Tables_number   1
_chemical_formula_structural   Ti2CoNi
_chemical_formula_sum   'Ti108 Co54 Ni54'
_cell_volume   3063.37022910
_cell_formula_units_Z   54
loop_
 _symmetry_equiv_pos_site_id
 _symmetry_equiv_pos_as_xyz
  1  'x, y, z'
loop_
 _atom_site_type_symbol
 _atom_site_label
 _atom_site_symmetry_multiplicity
 _atom_site_fract_x
 _atom_site_fract_y
 _atom_site_fract_z
 _atom_site_occupancy
  Ti  Ti0  1  -0.00366300  -0.07101738  -0.02851030  1
  Ti  Ti1  1  0.07410431  -0.02971486  0.34052280  1
  Ti  Ti2  1  -0.09229648  0.01729061  0.63430448  1
  Ti  Ti3  1  -0.02279140  0.40623617  -0.04633228  1
  Ti  Ti4  1  -0.02938139  0.44787199  0.28473546  1
  Ti  Ti5  1  0.03318683  0.23958639  0.72102681  1
  Ti  Ti6  1  0.03670324  0.70370849  -0.02209610  1
  Ti  Ti7  1  0.01985334  0.65651133  0.30584035  1
  Ti  Ti8  1  0.02774979  0.67781597  0.74201511  1
  Ti  Ti9  1  0.30068758  0.02796637  -0.02564642  1
  Ti  Ti10  1  0.28779129  -0.01960470  0.41134432  1
  Ti  Ti11  1  0.32185428  -0.03265426  0.68572294  1
  Ti  Ti12  1  0.33846019  0.26129412  0.00168766  1
  Ti  Ti13  1  0.32768537  0.33911204  0.28511200  1
  Ti  Ti14  1  0.38895900  0.36349768  0.62762401  1
  Ti  Ti15  1  0.38947010  0.70250467  -0.02716488  1
  Ti  Ti16  1  0.34405725  0.62309451  0.43307787  1
  Ti  Ti17  1  0.33880433  0.64062601  0.62233570  1
  Ti  Ti18  1  0.68022328  0.07353975  0.02666937  1
  Ti  Ti19  1  0.72372215  -0.00327299  0.29705823  1
  Ti  Ti20  1  0.64142040  -0.09064140  0.68555031  1
  Ti  Ti21  1  0.66828004  0.28281694  0.03937441  1
  Ti  Ti22  1  0.68018031  0.32693642  0.36578937  1
  Ti  Ti23  1  0.75017169  0.34827831  0.64966912  1
  Ti  Ti24  1  0.59357933  0.65109967  -0.02731969  1
  Ti  Ti25  1  0.67818533  0.74865191  0.34086319  1
  Ti  Ti26  1  0.68728964  0.63262310  0.61824639  1
  Ti  Ti27  1  -0.02138519  0.25884476  0.08889128  1
  Ti  Ti28  1  -0.01085433  0.19670825  0.51775536  1
  Ti  Ti29  1  -0.07493991  0.09989649  0.84335118  1
  Ti  Ti30  1  0.04119692  0.49631611  0.10790956  1
  Ti  Ti31  1  0.00744540  0.54001021  0.47902463  1
  Ti  Ti32  1  0.06340367  0.51003322  0.80205740  1
  Ti  Ti33  1  -0.01672310  0.87880687  0.15703458  1
  Ti  Ti34  1  -0.03162502  0.87335020  0.49270450  1
  Ti  Ti35  1  0.09640475  0.82307167  0.84565043  1
  Ti  Ti36  1  0.30978919  0.10537229  0.15077639  1
  Ti  Ti37  1  0.35475632  0.11556504  0.54824644  1
  Ti  Ti38  1  0.34810140  0.27108458  0.79566241  1
  Ti  Ti39  1  0.33070017  0.55116284  0.15148932  1
  Ti  Ti40  1  0.36758065  0.42665774  0.45127320  1
  Ti  Ti41  1  0.33155535  0.49691728  0.76983837  1
  Ti  Ti42  1  0.30442872  0.86935468  0.20390982  1
  Ti  Ti43  1  0.25334923  0.82505395  0.57546471  1
  Ti  Ti44  1  0.33970822  0.85086401  0.84714494  1
  Ti  Ti45  1  0.57992734  0.21477574  0.21366474  1
  Ti  Ti46  1  0.67161375  0.21024561  0.55514891  1
  Ti  Ti47  1  0.67881007  0.06848730  0.82633189  1
  Ti  Ti48  1  0.63190631  0.54999487  0.12005581  1
  Ti  Ti49  1  0.66167541  0.46939506  0.53696172  1
  Ti  Ti50  1  0.68359659  0.49804102  0.89063745  1
  Ti  Ti51  1  0.66532302  0.78464689  0.07375645  1
  Ti  Ti52  1  0.67840259  0.80166188  0.53903777  1
  Ti  Ti53  1  0.67890041  0.79505283  0.85439475  1
  Ti  Ti54  1  0.13423484  -0.00153667  0.10044440  1
  Ti  Ti55  1  0.15141803  0.11122355  0.45054612  1
  Ti  Ti56  1  0.10884040  0.05198794  0.88505546  1
  Ti  Ti57  1  0.10716818  0.33801633  0.23210779  1
  Ti  Ti58  1  0.19764659  0.33113365  0.50110926  1
  Ti  Ti59  1  0.17003014  0.32514492  0.86652763  1
  Ti  Ti60  1  0.21929545  0.67708712  0.24368126  1
  Ti  Ti61  1  0.11643251  0.70823224  0.46654422  1
  Ti  Ti62  1  0.19559971  0.62325243  0.87190508  1
  Ti  Ti63  1  0.53163515  0.01244682  0.22046419  1
  Ti  Ti64  1  0.56651653  0.00620992  0.52599074  1
  Ti  Ti65  1  0.46358646  0.01106183  0.79885456  1
  Ti  Ti66  1  0.49734599  0.41726365  0.15962683  1
  Ti  Ti67  1  0.53874211  0.35234507  0.49323354  1
  Ti  Ti68  1  0.54452300  0.21321060  0.85307081  1
  Ti  Ti69  1  0.52004665  0.66390647  0.23349685  1
  Ti  Ti70  1  0.51494052  0.72340080  0.49387009  1
  Ti  Ti71  1  0.48778886  0.68814111  0.80927593  1
  Ti  Ti72  1  0.91556824  0.08928321  0.20292330  1
  Ti  Ti73  1  0.78614298  -0.02032955  0.50086221  1
  Ti  Ti74  1  0.80472586  -0.04597468  0.78245003  1
  Ti  Ti75  1  0.79149110  0.25856047  0.19257613  1
  Ti  Ti76  1  0.88493842  0.38407115  0.44577848  1
  Ti  Ti77  1  0.83997953  0.41989901  0.82060935  1
  Ti  Ti78  1  0.90061639  0.69941358  0.16364360  1
  Ti  Ti79  1  0.84977012  0.69358108  0.47557455  1
  Ti  Ti80  1  0.80695280  0.62987105  0.78928394  1
  Ti  Ti81  1  0.15532362  0.18400307  0.03960824  1
  Ti  Ti82  1  0.19287786  0.18261258  0.28209623  1
  Ti  Ti83  1  0.21065996  0.11535361  0.73408176  1
  Ti  Ti84  1  0.21554477  0.46499512  0.00149470  1
  Ti  Ti85  1  0.21085616  0.49906054  0.35103148  1
  Ti  Ti86  1  0.16806802  0.39828222  0.68036339  1
  Ti  Ti87  1  0.17493278  0.80185117  0.06834284  1
  Ti  Ti88  1  0.22372708  0.81341478  0.36419074  1
  Ti  Ti89  1  0.09430377  0.88580111  0.66020712  1
  Ti  Ti90  1  0.47979458  0.11660100  0.05732920  1
  Ti  Ti91  1  0.41644966  0.15504897  0.34009426  1
  Ti  Ti92  1  0.50556610  0.22140461  0.64933097  1
  Ti  Ti93  1  0.49298151  0.49615585  -0.09188570  1
  Ti  Ti94  1  0.53350171  0.51912145  0.37790549  1
  Ti  Ti95  1  0.50410987  0.51649222  0.67838604  1
  Ti  Ti96  1  0.47831317  0.81597858  0.11660491  1
  Ti  Ti97  1  0.46885146  0.84741372  0.32910042  1
  Ti  Ti98  1  0.42684146  0.80590531  0.66461689  1
  Ti  Ti99  1  0.84419890  0.15756923  0.00653411  1
  Ti  Ti100  1  0.84314432  0.19916730  0.38218573  1
  Ti  Ti101  1  0.82748451  0.18496937  0.71631198  1
  Ti  Ti102  1  0.80420259  0.49325520  0.02400926  1
  Ti  Ti103  1  0.78304808  0.53827909  0.23483675  1
  Ti  Ti104  1  0.94242007  0.45988605  0.65261562  1
  Ti  Ti105  1  0.84283026  0.81270395  0.01068554  1
  Ti  Ti106  1  0.88828129  0.91150449  0.30974871  1
  Ti  Ti107  1  0.90355181  0.81075997  0.72734991  1
  Co  Co108  1  0.37606031  0.70909957  0.29685272  1
  Co  Co109  1  0.07440281  0.54700573  0.95947255  1
  Co  Co110  1  0.93104099  1.04173777  0.45117218  1
  Co  Co111  1  0.93010470  0.59479257  0.03962003  1
  Co  Co112  1  0.69964227  0.09710362  0.45382128  1
  Co  Co113  1  0.69865154  0.16582139  0.30951123  1
  Co  Co114  1  0.92219530  0.56344911  0.88435222  1
  Co  Co115  1  0.20514825  0.58044508  0.71083153  1
  Co  Co116  1  0.36979079  1.00293739  0.26940003  1
  Co  Co117  1  0.00183688  0.09638626  0.01412642  1
  Co  Co118  1  0.40471952  -0.03075774  0.11529812  1
  Co  Co119  1  0.38054926  0.41427587  0.05390631  1
  Co  Co120  1  0.58155594  0.06411686  0.35823622  1
  Co  Co121  1  0.48874736  0.33709672  0.31356171  1
  Co  Co122  1  0.77560326  0.64292485  0.07854553  1
  Co  Co123  1  0.45264715  -0.01064775  0.40540984  1
  Co  Co124  1  0.27078919  0.25732150  0.65234121  1
  Co  Co125  1  0.00776655  0.12376691  0.33676770  1
  Co  Co126  1  0.15206420  0.69955761  0.62197318  1
  Co  Co127  1  0.74236613  0.77328758  0.70558768  1
  Co  Co128  1  0.13852133  0.89878853  0.48021091  1
  Co  Co129  1  1.07863239  0.13480630  0.17889481  1
  Co  Co130  1  0.04016539  0.07801761  0.71328919  1
  Co  Co131  1  0.27281750  0.21973342  0.41463918  1
  Co  Co132  1  0.06931080  0.55914260  0.62565515  1
  Co  Co133  1  0.22638913  0.77583271  0.73898818  1
  Co  Co134  1  1.03953832  0.35579089  0.55187816  1
  Co  Co135  1  0.90230926  0.30275508  0.62301007  1
  Co  Co136  1  0.55375605  0.05474089  0.92784045  1
  Co  Co137  1  0.28792298  0.48373415  0.58999855  1
  Co  Co138  1  0.56780273  0.20870165  0.41080245  1
  Co  Co139  1  0.49635781  0.56325256  0.52548254  1
  Co  Co140  1  0.83304674  0.15801366  0.54793169  1
  Co  Co141  1  0.33230065  0.84887705  0.02548223  1
  Co  Co142  1  0.00225108  0.37091288  0.79087390  1
  Co  Co143  1  0.19677665  0.94251526  0.78657176  1
  Co  Co144  1  0.72564876  0.06103337  0.64188877  1
  Co  Co145  1  0.02257163  0.81072772  0.34536352  1
  Co  Co146  1  1.03647389  0.27535686  0.38078881  1
  Co  Co147  1  0.20771300  0.63253564  0.05118405  1
  Co  Co148  1  0.19306397  0.91536002  0.95186617  1
  Co  Co149  1  0.57642845  0.73780293  0.67590982  1
  Co  Co150  1  0.18555828  0.56122566  0.50169822  1
  Co  Co151  1  0.85958305  0.74025287  0.31143864  1
  Co  Co152  1  0.83783875  0.83024766  0.58331207  1
  Co  Co153  1  0.22009663  0.00981276  0.57270894  1
  Co  Co154  1  0.33269557  0.67162327  0.80273281  1
  Co  Co155  1  0.70101629  0.68784455  0.20522638  1
  Co  Co156  1  0.66173209  0.20656252  0.72791389  1
  Co  Co157  1  0.23257053  0.75564450  0.92670614  1
  Co  Co158  1  0.78619474  0.84296746  0.41521509  1
  Co  Co159  1  0.08506483  0.41974828  0.40577618  1
  Co  Co160  1  -0.05875537  0.26841173  0.25007650  1
  Co  Co161  1  0.75252466  0.66497176  0.93242974  1
  Ni  Ni162  1  0.60212836  0.35815863  0.91047349  1
  Ni  Ni163  1  0.34394457  0.55448131  0.94634615  1
  Ni  Ni164  1  0.70543689  0.91739931  0.96666174  1
  Ni  Ni165  1  0.40826455  0.25727989  0.48084798  1
  Ni  Ni166  1  0.50350764  0.28791706  0.03339573  1
  Ni  Ni167  1  0.62455181  0.86758108  0.22157743  1
  Ni  Ni168  1  0.46985379  0.57695179  0.07003840  1
  Ni  Ni169  1  0.25507443  0.27567481  0.14348455  1
  Ni  Ni170  1  0.13692901  0.18107503  0.60179218  1
  Ni  Ni171  1  0.04188388  0.23386475  0.91191695  1
  Ni  Ni172  1  0.89534114  0.40554818  0.13872949  1
  Ni  Ni173  1  0.07184632  0.68209304  0.14312756  1
  Ni  Ni174  1  0.76258762  0.50270677  0.69262531  1
  Ni  Ni175  1  0.12166426  0.54286062  0.22925726  1
  Ni  Ni176  1  0.66748688  0.62247662  0.45058811  1
  Ni  Ni177  1  0.62561268  0.44678014  0.26556226  1
  Ni  Ni178  1  0.22658226  0.43179453  0.16387864  1
  Ni  Ni179  1  0.84442912  -0.00447012  0.94687996  1
  Ni  Ni180  1  0.88247056  0.56880111  0.36477706  1
  Ni  Ni181  1  0.62206813  0.90384359  0.40275464  1
  Ni  Ni182  1  0.05669588  1.02203344  0.55957167  1
  Ni  Ni183  1  0.90819878  0.73542387  0.88060075  1
  Ni  Ni184  1  0.82238051  0.33139671  -0.00215837  1
  Ni  Ni185  1  0.41769409  0.23916816  0.17408939  1
  Ni  Ni186  1  0.89006476  0.26485342  0.86142918  1
  Ni  Ni187  1  0.87313177  0.64275458  0.64053664  1
  Ni  Ni188  1  0.79021904  0.83058704  0.18599122  1
  Ni  Ni189  1  0.72597942  0.22823127  0.88516914  1
  Ni  Ni190  1  0.72224869  0.40260115  0.14825857  1
  Ni  Ni191  1  0.74118546  0.10125767  0.16912268  1
  Ni  Ni192  1  0.39650975  0.92918885  0.54003126  1
  Ni  Ni193  1  0.83346688  0.96826778  0.10987112  1
  Ni  Ni194  1  0.48012202  0.37726138  0.79022186  1
  Ni  Ni195  1  0.74126046  0.48361452  0.39179928  1
  Ni  Ni196  1  0.34448076  0.71768662  0.13120671  1
  Ni  Ni197  1  0.98659061  0.94586396  0.79114325  1
  Ni  Ni198  1  0.61926379  0.59453105  0.77899710  1
  Ni  Ni199  1  0.55982739  0.07108837  0.68069922  1
  Ni  Ni200  1  0.33208294  0.39791421  0.89704471  1
  Ni  Ni201  1  0.40265333  0.13742432  0.89715477  1
  Ni  Ni202  1  0.53237071  0.81093086  0.94696483  1
  Ni  Ni203  1  0.20138114  0.01676376  0.25568886  1
  Ni  Ni204  1  0.38109339  0.51336201  0.30098757  1
  Ni  Ni205  1  0.57390117  0.94370685  0.06619934  1
  Ni  Ni206  1  0.82984740  0.52232827  0.53300443  1
  Ni  Ni207  1  0.99394521  0.72974673  0.58135297  1
  Ni  Ni208  1  0.38410442  0.13351682  0.71432437  1
  Ni  Ni209  1  0.23680180  0.16616822  0.89128109  1
  Ni  Ni210  1  0.36358465  0.78751289  0.45750504  1
  Ni  Ni211  1  0.58410957  0.36367482  0.66238967  1
  Ni  Ni212  1  0.11894314  0.34615697  0.05026170  1
  Ni  Ni213  1  0.13073888  0.83513968  0.22494045  1
  Ni  Ni214  1  0.52199003  0.85826027  0.79256367  1
  Ni  Ni215  1  0.44469074  0.94727787  0.95611112  1
