# generated using pymatgen
data_Ti2CoNi
_symmetry_space_group_name_H-M   'P 1'
_cell_length_a   14.52423658
_cell_length_b   14.46596071
_cell_length_c   14.47635346
_cell_angle_alpha   90.19676733
_cell_angle_beta   89.84131709
_cell_angle_gamma   89.77950050
_symmetry_Int_Tables_number   1
_chemical_formula_structural   Ti2CoNi
_chemical_formula_sum   'Ti108 Co54 Ni54'
_cell_volume   3041.53147785
_cell_formula_units_Z   54
loop_
 _symmetry_equiv_pos_site_id
 _symmetry_equiv_pos_as_xyz
  1  'x, y, z'
loop_
 _atom_site_type_symbol
 _atom_site_label
 _atom_site_symmetry_multiplicity
 _atom_site_fract_x
 _atom_site_fract_y
 _atom_site_fract_z
 _atom_site_occupancy
  Ti  Ti0  1  -0.04013619  -0.03191237  0.00539086  1
  Ti  Ti1  1  0.02852315  0.10803751  0.29855862  1
  Ti  Ti2  1  -0.05848491  0.01099259  0.64524495  1
  Ti  Ti3  1  0.07899101  0.28205716  0.00110206  1
  Ti  Ti4  1  -0.02948951  0.39735370  0.38773331  1
  Ti  Ti5  1  0.04861481  0.35793756  0.68069228  1
  Ti  Ti6  1  -0.12966935  0.66844544  -0.03616563  1
  Ti  Ti7  1  -0.02407878  0.62412003  0.37024023  1
  Ti  Ti8  1  -0.01870174  0.65872515  0.66761284  1
  Ti  Ti9  1  0.27900662  -0.09280408  -0.01692577  1
  Ti  Ti10  1  0.34302526  -0.06853936  0.35232253  1
  Ti  Ti11  1  0.31132781  -0.03005511  0.73306280  1
  Ti  Ti12  1  0.36157191  0.29267833  0.05453969  1
  Ti  Ti13  1  0.39569218  0.23666143  0.37546747  1
  Ti  Ti14  1  0.35030851  0.34218270  0.72642636  1
  Ti  Ti15  1  0.38691484  0.58977683  0.01186521  1
  Ti  Ti16  1  0.29634388  0.71946553  0.29879121  1
  Ti  Ti17  1  0.27850095  0.72162255  0.62340468  1
  Ti  Ti18  1  0.63624748  0.02068202  -0.00184608  1
  Ti  Ti19  1  0.61771631  -0.00317747  0.36202729  1
  Ti  Ti20  1  0.73467950  -0.01441429  0.69352530  1
  Ti  Ti21  1  0.73840973  0.33425889  -0.02353188  1
  Ti  Ti22  1  0.61597577  0.40142249  0.33890631  1
  Ti  Ti23  1  0.60856552  0.30850592  0.71777747  1
  Ti  Ti24  1  0.65943920  0.69650325  0.02023357  1
  Ti  Ti25  1  0.62698433  0.57955973  0.35113042  1
  Ti  Ti26  1  0.59834441  0.60968400  0.68632163  1
  Ti  Ti27  1  0.06528613  0.14901963  0.13270222  1
  Ti  Ti28  1  -0.02802697  0.21357979  0.54294033  1
  Ti  Ti29  1  -0.03027221  0.20772515  0.81028888  1
  Ti  Ti30  1  -0.01159298  0.46858082  0.22607444  1
  Ti  Ti31  1  0.03187869  0.54528343  0.52785763  1
  Ti  Ti32  1  0.03883168  0.42044430  0.86548428  1
  Ti  Ti33  1  0.04628408  0.92881647  0.21228358  1
  Ti  Ti34  1  -0.05238344  0.82626498  0.40510088  1
  Ti  Ti35  1  -0.02039841  0.72722921  0.83907363  1
  Ti  Ti36  1  0.35360924  0.15308952  0.16863197  1
  Ti  Ti37  1  0.32747482  0.18711358  0.60047102  1
  Ti  Ti38  1  0.31004425  0.15677562  0.79472210  1
  Ti  Ti39  1  0.31173793  0.46691066  0.14347898  1
  Ti  Ti40  1  0.34658810  0.51785629  0.49152637  1
  Ti  Ti41  1  0.28325108  0.51432123  0.83453106  1
  Ti  Ti42  1  0.35255989  0.87753635  0.16632148  1
  Ti  Ti43  1  0.40008119  0.81906319  0.54802722  1
  Ti  Ti44  1  0.33021298  0.74150558  0.87785860  1
  Ti  Ti45  1  0.66271845  0.23585699  0.16543612  1
  Ti  Ti46  1  0.72825459  0.15946985  0.43557573  1
  Ti  Ti47  1  0.66977630  0.16077730  0.84112655  1
  Ti  Ti48  1  0.69633384  0.56980977  0.18325509  1
  Ti  Ti49  1  0.52618105  0.50517249  0.49046659  1
  Ti  Ti50  1  0.70915255  0.45693581  0.81507219  1
  Ti  Ti51  1  0.68166367  0.88240700  0.14713326  1
  Ti  Ti52  1  0.68575273  0.85377758  0.52325840  1
  Ti  Ti53  1  0.66484465  0.79245545  0.79972586  1
  Ti  Ti54  1  0.20453508  0.03558146  0.22819950  1
  Ti  Ti55  1  0.16013623  0.06339522  0.45043601  1
  Ti  Ti56  1  0.15290551  0.01387498  0.86931335  1
  Ti  Ti57  1  0.13781826  0.39000138  0.19275725  1
  Ti  Ti58  1  0.13051754  0.38505549  0.48051742  1
  Ti  Ti59  1  0.23925689  0.30748503  0.89921310  1
  Ti  Ti60  1  0.12328743  0.74432285  0.15977050  1
  Ti  Ti61  1  0.18442137  0.62221463  0.45336336  1
  Ti  Ti62  1  0.15746588  0.66533271  0.92394414  1
  Ti  Ti63  1  0.50616155  0.01330739  0.15873810  1
  Ti  Ti64  1  0.56601401  0.03096003  0.58032424  1
  Ti  Ti65  1  0.56995423  -0.03465318  0.81205406  1
  Ti  Ti66  1  0.51209648  0.30844648  0.20748768  1
  Ti  Ti67  1  0.56241405  0.30477201  0.50018583  1
  Ti  Ti68  1  0.45680812  0.34736935  0.87015045  1
  Ti  Ti69  1  0.49412906  0.71442920  0.23340560  1
  Ti  Ti70  1  0.56551647  0.70677458  0.48304177  1
  Ti  Ti71  1  0.54102967  0.67497582  0.87880087  1
  Ti  Ti72  1  0.76442767  0.04197326  0.11766370  1
  Ti  Ti73  1  0.92254732  0.02820904  0.43247660  1
  Ti  Ti74  1  0.87676375  -0.07659980  0.83149416  1
  Ti  Ti75  1  0.83411612  0.39124644  0.12320395  1
  Ti  Ti76  1  0.81607624  0.34367090  0.45813754  1
  Ti  Ti77  1  0.87720811  0.36320045  0.79977492  1
  Ti  Ti78  1  0.86594670  0.59884646  0.13688726  1
  Ti  Ti79  1  0.86207302  0.66712230  0.53504987  1
  Ti  Ti80  1  0.78557600  0.63361750  0.74154842  1
  Ti  Ti81  1  0.22406596  0.12864221  -0.00807583  1
  Ti  Ti82  1  0.20741676  0.23434416  0.27979314  1
  Ti  Ti83  1  0.10336070  0.12123586  0.67665187  1
  Ti  Ti84  1  0.15916871  0.46706390  0.03179719  1
  Ti  Ti85  1  0.18501553  0.57009777  0.23350590  1
  Ti  Ti86  1  0.20294719  0.47525682  0.63726086  1
  Ti  Ti87  1  0.10872810  0.82126046  -0.00716960  1
  Ti  Ti88  1  0.18226470  0.82692041  0.45456298  1
  Ti  Ti89  1  0.12606951  0.91698833  0.65984030  1
  Ti  Ti90  1  0.53744159  0.19157977  0.02181388  1
  Ti  Ti91  1  0.47321795  0.08187151  0.40593504  1
  Ti  Ti92  1  0.48427091  0.17677709  0.68249829  1
  Ti  Ti93  1  0.57260580  0.50402476  -0.02992810  1
  Ti  Ti94  1  0.51439861  0.50567282  0.23059661  1
  Ti  Ti95  1  0.46972719  0.45330004  0.65821852  1
  Ti  Ti96  1  0.46196461  0.91162992  0.00492540  1
  Ti  Ti97  1  0.64207319  0.79674332  0.34399911  1
  Ti  Ti98  1  0.44000917  0.82377690  0.72820103  1
  Ti  Ti99  1  0.88316167  0.18519033  0.07603709  1
  Ti  Ti100  1  0.81342633  0.10474208  0.28160224  1
  Ti  Ti101  1  0.79267134  0.18542281  0.69692914  1
  Ti  Ti102  1  0.86849688  0.48805975  -0.05671970  1
  Ti  Ti103  1  0.80077863  0.44772263  0.31005198  1
  Ti  Ti104  1  0.82655789  0.47977869  0.62129378  1
  Ti  Ti105  1  0.79818169  0.87433232  -0.01304228  1
  Ti  Ti106  1  0.81488561  0.76752319  0.26171393  1
  Ti  Ti107  1  0.83521961  0.82010796  0.67926085  1
  Co  Co108  1  0.31976468  0.04163331  0.47622980  1
  Co  Co109  1  -0.04356959  0.79054657  0.06004217  1
  Co  Co110  1  0.73153691  0.50212205  0.02290774  1
  Co  Co111  1  0.58896633  0.90550633  0.66169655  1
  Co  Co112  1  0.96208120  0.76753818  0.24580514  1
  Co  Co113  1  -0.01113747  0.45370459  0.04900063  1
  Co  Co114  1  0.36004450  0.02381119  0.06011606  1
  Co  Co115  1  0.40826014  0.90555680  0.85840604  1
  Co  Co116  1  0.37600371  0.18250515  0.94707063  1
  Co  Co117  1  0.97828687  0.29265106  0.12173228  1
  Co  Co118  1  0.73185750  0.26364305  0.32636523  1
  Co  Co119  1  0.22408066  0.06728210  0.62707471  1
  Co  Co120  1  0.75826633  0.34555202  0.68936428  1
  Co  Co121  1  0.41528693  1.01273818  0.59306155  1
  Co  Co122  1  0.43914147  0.53454269  0.85573036  1
  Co  Co123  1  0.64039436  0.45539583  0.62423338  1
  Co  Co124  1  0.95594158  0.39760389  0.53420158  1
  Co  Co125  1  0.44618798  0.04988485  0.76562676  1
  Co  Co126  1  0.21347935  0.86524256  0.28290201  1
  Co  Co127  1  0.51115653  0.19258402  0.84229835  1
  Co  Co128  1  0.56244237  0.46294084  0.79051260  1
  Co  Co129  1  0.80331239  0.75922648  0.10165799  1
  Co  Co130  1  0.12412619  0.73567473  0.74630220  1
  Co  Co131  1  0.95032001  0.80233199  0.56391702  1
  Co  Co132  1  0.49717670  0.15565122  0.23612941  1
  Co  Co133  1  0.94248637  0.04229905  0.16707600  1
  Co  Co134  1  0.27939465  0.91542463  0.56698993  1
  Co  Co135  1  0.13596366  0.23041986  0.58160877  1
  Co  Co136  1  0.99300935  0.85716036  0.72791753  1
  Co  Co137  1  0.33224263  0.03392712  0.89593067  1
  Co  Co138  1  0.08111953  0.95188677  0.36684090  1
  Co  Co139  1  0.47974817  0.05448584  0.92862803  1
  Co  Co140  1  0.87525543  0.30985440  0.26201785  1
  Co  Co141  1  0.92150635  0.33202111  0.95725160  1
  Co  Co142  1  0.70454465  0.29644264  0.55430052  1
  Co  Co143  1  0.02788630  0.62316050  0.21007259  1
  Co  Co144  1  0.31621258  0.11034921  0.32429230  1
  Co  Co145  1  0.67443474  0.40007380  0.17818902  1
  Co  Co146  1  0.87132256  0.89466131  0.15088102  1
  Co  Co147  1  0.03522295  0.28816800  0.26563101  1
  Co  Co148  1  0.61477641  0.32823168  0.88613952  1
  Co  Co149  1  0.69274963  0.45155370  0.46474994  1
  Co  Co150  1  0.66073639  0.72627105  0.19024630  1
  Co  Co151  1  0.02690131  0.57980418  0.90409669  1
  Co  Co152  1  0.12026460  0.77942935  0.58891120  1
  Co  Co153  1  1.03306255  0.64411547  0.04437802  1
  Co  Co154  1  0.04812609  0.95940674  0.53407365  1
  Co  Co155  1  0.26217310  0.64834251  0.76252005  1
  Co  Co156  1  0.17426089  0.41092668  0.79126861  1
  Co  Co157  1  0.50381899  0.88519025  0.27125284  1
  Co  Co158  1  0.90807151  0.93927119  0.30483166  1
  Co  Co159  1  0.20873501  0.26888558  0.71918396  1
  Co  Co160  1  0.14637116  0.62448646  0.62542691  1
  Co  Co161  1  0.10888241  0.71761554  0.32650784  1
  Ni  Ni162  1  0.45215270  0.64361350  0.57459879  1
  Ni  Ni163  1  0.64604061  0.10617856  0.26092659  1
  Ni  Ni164  1  0.22767276  0.61485437  0.07546994  1
  Ni  Ni165  1  0.34530780  0.43266306  0.95838207  1
  Ni  Ni166  1  0.56828615  0.22213807  0.35057792  1
  Ni  Ni167  1  0.52631932  0.59986052  0.10301049  1
  Ni  Ni168  1  0.71255070  -0.00365527  0.48863548  1
  Ni  Ni169  1  0.82670425  0.05656664  0.96699997  1
  Ni  Ni170  1  0.43526947  0.41109934  0.37414504  1
  Ni  Ni171  1  0.07411379  0.24316381  0.41364584  1
  Ni  Ni172  1  0.32804163  0.32129155  0.22815968  1
  Ni  Ni173  1  0.03352922  0.89112149  0.88166826  1
  Ni  Ni174  1  0.43869483  0.77993794  0.37494255  1
  Ni  Ni175  1  0.84717250  0.51707766  0.45878582  1
  Ni  Ni176  1  0.70596023  0.60554829  0.53327982  1
  Ni  Ni177  1  -0.00897343  0.03904340  0.81860929  1
  Ni  Ni178  1  0.70893571  0.73087537  0.62358870  1
  Ni  Ni179  1  0.33661502  0.69230009  0.45916066  1
  Ni  Ni180  1  0.36486943  0.56836746  0.25690727  1
  Ni  Ni181  1  0.21830005  0.25759079  0.11918700  1
  Ni  Ni182  1  0.89632959  0.20021365  0.38475816  1
  Ni  Ni183  1  0.55115183  0.75670987  0.63482736  1
  Ni  Ni184  1  0.22079495  0.84228437  0.80982397  1
  Ni  Ni185  1  0.70676994  0.17106259  0.01764449  1
  Ni  Ni186  1  0.09814055  0.50709406  0.35088709  1
  Ni  Ni187  1  0.75384539  0.93450040  0.28166141  1
  Ni  Ni188  1  0.46088678  0.61455913  0.37062096  1
  Ni  Ni189  1  0.80940788  0.76755652  0.84626452  1
  Ni  Ni190  1  0.58057719  0.34909105  0.05875022  1
  Ni  Ni191  1  0.43289985  0.66099356  0.74488783  1
  Ni  Ni192  1  0.53206900  0.81801368  0.11709116  1
  Ni  Ni193  1  0.45458666  0.73807755  -0.00469568  1
  Ni  Ni194  1  0.18935219  0.89680601  0.12350122  1
  Ni  Ni195  1  0.79835298  0.61345435  0.35150276  1
  Ni  Ni196  1  0.91459028  0.53808792  0.78194819  1
  Ni  Ni197  1  0.73216642  0.60448244  0.89368006  1
  Ni  Ni198  1  0.89597956  0.29197918  0.64695472  1
  Ni  Ni199  1  0.64176074  0.17346979  0.60041182  1
  Ni  Ni200  1  0.76863967  0.73768168  0.43724834  1
  Ni  Ni201  1  0.51079098  0.92347789  0.43987010  1
  Ni  Ni202  1  0.23286745  0.21131013  0.45612838  1
  Ni  Ni203  1  0.84282225  0.07581249  0.78699631  1
  Ni  Ni204  1  0.26821532  0.34670793  0.55041325  1
  Ni  Ni205  1  0.42563025  0.31762798  0.55232418  1
  Ni  Ni206  1  0.45446447  0.44924782  0.07029599  1
  Ni  Ni207  1  0.13496433  0.18516535  0.84327157  1
  Ni  Ni208  1  0.72281431  0.98861715  0.86087531  1
  Ni  Ni209  1  0.82922738  0.10245888  0.56498958  1
  Ni  Ni210  1  0.85341638  0.93279893  0.53163141  1
  Ni  Ni211  1  0.13185939  0.00718357  0.03126771  1
  Ni  Ni212  1  0.59484997  0.83378115  0.96015956  1
  Ni  Ni213  1  0.29535339  0.75386156  1.05471066  1
  Ni  Ni214  1  0.84092500  0.20941547  0.89393759  1
  Ni  Ni215  1  0.34145220  0.54449860  0.66925363  1
