# generated using pymatgen
data_Ti2CoNi
_symmetry_space_group_name_H-M   'P 1'
_cell_length_a   14.63898717
_cell_length_b   14.69423968
_cell_length_c   14.66295688
_cell_angle_alpha   90.01372068
_cell_angle_beta   90.20753760
_cell_angle_gamma   89.80529055
_symmetry_Int_Tables_number   1
_chemical_formula_structural   Ti2CoNi
_chemical_formula_sum   'Ti108 Co54 Ni54'
_cell_volume   3154.09187070
_cell_formula_units_Z   54
loop_
 _symmetry_equiv_pos_site_id
 _symmetry_equiv_pos_as_xyz
  1  'x, y, z'
loop_
 _atom_site_type_symbol
 _atom_site_label
 _atom_site_symmetry_multiplicity
 _atom_site_fract_x
 _atom_site_fract_y
 _atom_site_fract_z
 _atom_site_occupancy
  Ti  Ti0  1  -0.00708602  0.00108874  0.04812268  1
  Ti  Ti1  1  -0.03624683  -0.04748623  0.34403741  1
  Ti  Ti2  1  0.01752530  0.05954555  0.69304515  1
  Ti  Ti3  1  -0.06855204  0.32638697  -0.06113965  1
  Ti  Ti4  1  -0.05965783  0.39153970  0.36759535  1
  Ti  Ti5  1  0.04740154  0.30079825  0.64584896  1
  Ti  Ti6  1  0.04397148  0.65759541  0.06313950  1
  Ti  Ti7  1  -0.03457749  0.57885578  0.33138008  1
  Ti  Ti8  1  0.02958129  0.64511155  0.64120516  1
  Ti  Ti9  1  0.28722125  -0.06367152  -0.02031260  1
  Ti  Ti10  1  0.37029079  -0.05350474  0.27522578  1
  Ti  Ti11  1  0.36724662  -0.02434216  0.62895185  1
  Ti  Ti12  1  0.31917828  0.35316592  0.07777806  1
  Ti  Ti13  1  0.30241797  0.29183947  0.28156826  1
  Ti  Ti14  1  0.33469828  0.38709131  0.63192641  1
  Ti  Ti15  1  0.22742563  0.71705197  -0.02816954  1
  Ti  Ti16  1  0.27904988  0.66282413  0.37798564  1
  Ti  Ti17  1  0.34649893  0.76073259  0.68033184  1
  Ti  Ti18  1  0.60520053  -0.01109637  -0.06353885  1
  Ti  Ti19  1  0.71947372  0.00623909  0.32601409  1
  Ti  Ti20  1  0.67788818  0.00518029  0.74834066  1
  Ti  Ti21  1  0.61389318  0.41670650  -0.01617899  1
  Ti  Ti22  1  0.64751980  0.42745988  0.27460479  1
  Ti  Ti23  1  0.68286111  0.27665137  0.61303809  1
  Ti  Ti24  1  0.63878894  0.75071543  0.03790525  1
  Ti  Ti25  1  0.72173461  0.60210596  0.39476617  1
  Ti  Ti26  1  0.61444426  0.64940833  0.67192549  1
  Ti  Ti27  1  0.04440302  0.14096647  0.15087805  1
  Ti  Ti28  1  -0.06372817  0.14082250  0.54520040  1
  Ti  Ti29  1  0.00870579  0.13189551  0.88056379  1
  Ti  Ti30  1  0.07632283  0.51686459  0.18449200  1
  Ti  Ti31  1  0.03429720  0.48942664  0.53845155  1
  Ti  Ti32  1  0.01525564  0.56455595  0.80421066  1
  Ti  Ti33  1  -0.05418320  0.84411093  0.16696068  1
  Ti  Ti34  1  -0.00501454  0.83095244  0.50536863  1
  Ti  Ti35  1  0.05571980  0.80484592  0.84519148  1
  Ti  Ti36  1  0.30579718  0.13860599  0.10534801  1
  Ti  Ti37  1  0.40133357  0.15542879  0.47665536  1
  Ti  Ti38  1  0.34039244  0.22263992  0.89798528  1
  Ti  Ti39  1  0.26408448  0.47523012  0.22234507  1
  Ti  Ti40  1  0.29644917  0.56475890  0.54671352  1
  Ti  Ti41  1  0.28696267  0.55073097  0.87182995  1
  Ti  Ti42  1  0.34974523  0.78605062  0.10930447  1
  Ti  Ti43  1  0.26631627  0.84689187  0.49680616  1
  Ti  Ti44  1  0.38861127  0.79161393  0.88036863  1
  Ti  Ti45  1  0.67923890  0.17134266  0.15630035  1
  Ti  Ti46  1  0.63101778  0.16520993  0.45237367  1
  Ti  Ti47  1  0.67781655  0.16976028  0.90332094  1
  Ti  Ti48  1  0.70558217  0.55724375  0.07550689  1
  Ti  Ti49  1  0.67554260  0.47024772  0.54363273  1
  Ti  Ti50  1  0.68500790  0.50827867  0.79303342  1
  Ti  Ti51  1  0.65867568  0.82353099  0.21640457  1
  Ti  Ti52  1  0.66027926  0.83723297  0.41265558  1
  Ti  Ti53  1  0.65543554  0.74631101  0.83861684  1
  Ti  Ti54  1  0.18720133  0.04837114  0.24878569  1
  Ti  Ti55  1  0.10178087  0.03989206  0.47219763  1
  Ti  Ti56  1  0.19899208  0.03281656  0.79209504  1
  Ti  Ti57  1  0.10515959  0.32750851  0.14264356  1
  Ti  Ti58  1  0.23227265  0.33965009  0.45759522  1
  Ti  Ti59  1  0.12991073  0.28654790  0.86264202  1
  Ti  Ti60  1  0.22783982  0.66184526  0.17081907  1
  Ti  Ti61  1  0.11501881  0.67508790  0.47213634  1
  Ti  Ti62  1  0.18918642  0.67848953  0.76278821  1
  Ti  Ti63  1  0.49771241  0.06230661  0.18174052  1
  Ti  Ti64  1  0.55119509  -0.00321687  0.45371480  1
  Ti  Ti65  1  0.50308260  -0.06880966  0.75205481  1
  Ti  Ti66  1  0.49008910  0.35567003  0.14448212  1
  Ti  Ti67  1  0.50799266  0.32500181  0.54683085  1
  Ti  Ti68  1  0.49274800  0.28945402  0.76470395  1
  Ti  Ti69  1  0.51603617  0.64798057  0.17409653  1
  Ti  Ti70  1  0.54072771  0.64319322  0.48056025  1
  Ti  Ti71  1  0.48413229  0.61413825  0.84308663  1
  Ti  Ti72  1  0.85349284  0.05225763  0.19054948  1
  Ti  Ti73  1  0.77483424  -0.10280605  0.57791114  1
  Ti  Ti74  1  0.92249334  -0.02257796  0.86574315  1
  Ti  Ti75  1  0.81161388  0.39052156  0.10006156  1
  Ti  Ti76  1  0.87149552  0.33946504  0.54190563  1
  Ti  Ti77  1  0.80071143  0.32714529  0.79762049  1
  Ti  Ti78  1  0.82237692  0.69961256  0.13649535  1
  Ti  Ti79  1  0.91120918  0.64846401  0.48642874  1
  Ti  Ti80  1  0.81965698  0.64660658  0.82972892  1
  Ti  Ti81  1  0.17477899  0.11289033  -0.03492949  1
  Ti  Ti82  1  0.11448114  0.20537180  0.34510207  1
  Ti  Ti83  1  0.23799067  0.19207403  0.61558753  1
  Ti  Ti84  1  0.12602171  0.44808104  -0.03060171  1
  Ti  Ti85  1  0.14559799  0.49989313  0.38054093  1
  Ti  Ti86  1  0.17790301  0.44595388  0.75769805  1
  Ti  Ti87  1  0.11491459  0.84700937  0.04281821  1
  Ti  Ti88  1  0.16702521  0.83943133  0.32453624  1
  Ti  Ti89  1  0.19639305  0.87626067  0.68897476  1
  Ti  Ti90  1  0.52514522  0.20520768  0.02187475  1
  Ti  Ti91  1  0.51112159  0.26157993  0.33294742  1
  Ti  Ti92  1  0.52590401  0.10569461  0.63950555  1
  Ti  Ti93  1  0.42060513  0.47655068  -0.02143369  1
  Ti  Ti94  1  0.44781821  0.46518426  0.30009232  1
  Ti  Ti95  1  0.48380295  0.49272986  0.67186849  1
  Ti  Ti96  1  0.49461672  0.90938718  0.06154601  1
  Ti  Ti97  1  0.45167918  0.80186383  0.37987365  1
  Ti  Ti98  1  0.49840530  0.82943680  0.57347050  1
  Ti  Ti99  1  0.85940392  0.14733341  0.02367523  1
  Ti  Ti100  1  0.82252272  0.17813812  0.35320152  1
  Ti  Ti101  1  0.81763644  0.15928312  0.70772641  1
  Ti  Ti102  1  0.89042714  0.53992336  -0.02465301  1
  Ti  Ti103  1  0.81289831  0.51908417  0.25194225  1
  Ti  Ti104  1  0.84410452  0.58288883  0.65575990  1
  Ti  Ti105  1  0.90338888  0.81935102  -0.02249478  1
  Ti  Ti106  1  0.83947988  0.75205988  0.32573842  1
  Ti  Ti107  1  0.81271245  0.85320568  0.77540730  1
  Co  Co108  1  0.20755426  0.71832885  0.59566041  1
  Co  Co109  1  0.96636535  0.22643978  0.41825796  1
  Co  Co110  1  0.04316071  0.22170213  1.00811976  1
  Co  Co111  1  0.32685076  0.78199354  0.27322557  1
  Co  Co112  1  0.91196515  0.55155393  0.13450232  1
  Co  Co113  1  0.37021016  0.71734108  0.50640743  1
  Co  Co114  1  0.53454503  0.59005899  0.01624894  1
  Co  Co115  1  0.16587669  0.55345707  0.63757734  1
  Co  Co116  1  0.64800314  0.77018087  0.55399722  1
  Co  Co117  1  0.53021452  0.45638934  0.83449136  1
  Co  Co118  1  0.48135117  0.74623847  0.02512967  1
  Co  Co119  1  0.93119262  0.28130497  0.10434476  1
  Co  Co120  1  0.44438894  0.95938951  0.90010930  1
  Co  Co121  1  0.93674663  0.72914093  0.76587123  1
  Co  Co122  1  0.06782727  0.78827593  0.66928085  1
  Co  Co123  1  0.84620468  0.17662735  0.86746439  1
  Co  Co124  1  0.37089943  0.64057715  0.98908383  1
  Co  Co125  1  0.07608282  0.94243446  0.60131920  1
  Co  Co126  1  0.33106738  0.93078056  0.78626682  1
  Co  Co127  1  0.96996118  0.67989083  0.20843049  1
  Co  Co128  1  0.97999392  0.10280888  0.30182904  1
  Co  Co129  1  0.37242620  0.42517596  0.79255799  1
  Co  Co130  1  0.27277722  0.37978519  0.91129979  1
  Co  Co131  1  0.32472556  0.56503922  0.71165344  1
  Co  Co132  1  0.82788644  0.89754765  0.41199709  1
  Co  Co133  1  -0.00890311  0.43337024  0.05396909  1
  Co  Co134  1  0.90425370  0.76816908  0.61805902  1
  Co  Co135  1  0.95346460  0.41413192  0.21129624  1
  Co  Co136  1  0.21348358  0.84508158  0.86411982  1
  Co  Co137  1  0.17507978  0.38617782  0.60143945  1
  Co  Co138  1  0.30895421  0.48277510  0.38517708  1
  Co  Co139  1  0.96750592  0.89561979  0.72356844  1
  Co  Co140  1  0.79878945  0.75884514  0.48736868  1
  Co  Co141  1  0.24874292  0.17651049  0.43099198  1
  Co  Co142  1  0.57027576  0.49361055  0.14551960  1
  Co  Co143  1  0.10284422  0.77409210  0.18633687  1
  Co  Co144  1  0.85346432  0.50007622  0.51126974  1
  Co  Co145  1  0.96344261  0.68024198  0.92423528  1
  Co  Co146  1  0.76565855  0.44451183  -0.07008707  1
  Co  Co147  1  0.61370585  0.95218575  0.59321782  1
  Co  Co148  1  0.39952723  0.51371445  0.13320906  1
  Co  Co149  1  0.75998744  0.28800326  0.97751323  1
  Co  Co150  1  0.32725386  0.06675776  0.89398572  1
  Co  Co151  1  0.45977261  0.08212109  0.34613868  1
  Co  Co152  1  0.72458474  0.62442473  0.55016581  1
  Co  Co153  1  0.55451997  0.94277775  0.29936569  1
  Co  Co154  1  0.65991594  0.59468598  0.92243906  1
  Co  Co155  1  0.60814254  0.11278869  0.29558277  1
  Co  Co156  1  0.54863087  0.83511274  0.90630155  1
  Co  Co157  1  0.10630153  0.19760928  0.52371569  1
  Co  Co158  1  0.64193184  0.83899841  0.70299800  1
  Co  Co159  1  0.31947346  0.13278530  0.29006918  1
  Co  Co160  1  0.79078544  0.20300795  0.51432730  1
  Co  Co161  1  0.12262047  0.36514512  0.29824793  1
  Ni  Ni162  1  0.20322509  0.26444856  0.01721817  1
  Ni  Ni163  1  0.68484548  0.26407633  0.29659223  1
  Ni  Ni164  1  0.73934142  0.86686803  0.93262270  1
  Ni  Ni165  1  0.71212438  0.06405204  0.03897300  1
  Ni  Ni166  1  0.06596147  0.34729468  0.46908904  1
  Ni  Ni167  1  0.12376318  0.60617317  0.91781372  1
  Ni  Ni168  1  0.51224110  0.11290157  0.84889738  1
  Ni  Ni169  1  0.85124487  0.00355171  0.68335719  1
  Ni  Ni170  1  0.80699966  0.89539895  0.23630376  1
  Ni  Ni171  1  -0.02116660  0.26190945  0.25759754  1
  Ni  Ni172  1  0.77199966  0.02525774  0.88816743  1
  Ni  Ni173  1  0.78390046  0.70341456  -0.02452390  1
  Ni  Ni174  1  0.65070441  0.98471782  0.16541423  1
  Ni  Ni175  1  0.86425371  0.48269902  0.80322418  1
  Ni  Ni176  1  0.76192811  0.73060788  0.67586603  1
  Ni  Ni177  1  0.64312509  0.32763346  0.84684685  1
  Ni  Ni178  1  0.26329009  0.04754176  0.53290655  1
  Ni  Ni179  1  0.40070013  0.22472275  0.64004569  1
  Ni  Ni180  1  0.58683665  0.70947642  0.32906934  1
  Ni  Ni181  1  0.65486412  0.33071565  0.12436286  1
  Ni  Ni182  1  0.64081961  0.33257759  0.44105294  1
  Ni  Ni183  1  0.37570868  0.61745236  0.25795268  1
  Ni  Ni184  1  0.77078410  0.42230044  0.39513986  1
  Ni  Ni185  1  0.45156737  0.64587986  0.62986779  1
  Ni  Ni186  1  0.43376903  0.07039352  0.01648016  1
  Ni  Ni187  1  0.16990916  0.00689007  0.08397182  1
  Ni  Ni188  1  0.69042846  0.64105890  0.22465665  1
  Ni  Ni189  1  0.94573317  0.44271836  0.66573793  1
  Ni  Ni190  1  0.24536775  0.53545709  0.05062544  1
  Ni  Ni191  1  0.61431756  0.39523415  0.69580631  1
  Ni  Ni192  1  0.39231484  0.95839984  0.45558744  1
  Ni  Ni193  1  0.24280880  0.98841408  0.38691857  1
  Ni  Ni194  1  0.23012717  0.88529962  0.17497609  1
  Ni  Ni195  1  0.11975583  0.65013146  0.29933596  1
  Ni  Ni196  1  0.39567782  0.34490626  0.42829753  1
  Ni  Ni197  1  0.78170187  0.42324470  0.66217744  1
  Ni  Ni198  1  0.69408829  0.09870306  0.60717287  1
  Ni  Ni199  1  0.06527181  0.94885127  0.20058594  1
  Ni  Ni200  1  0.09462847  0.96481107  0.91663559  1
  Ni  Ni201  1  0.63440693  0.18473207  0.74312461  1
  Ni  Ni202  1  0.01279332  0.39659608  0.81115666  1
  Ni  Ni203  1  0.77519303  0.04365248  0.47867862  1
  Ni  Ni204  1  0.37827137  0.09700794  0.74479397  1
  Ni  Ni205  1  -0.07070222  -0.02080494  0.52338311  1
  Ni  Ni206  1  0.13058242  0.17677690  0.74604198  1
  Ni  Ni207  1  0.46421069  0.32759428  0.92745209  1
  Ni  Ni208  1  0.42860396  0.21290324  0.18958991  1
  Ni  Ni209  1  0.83048242  0.95238123  0.05331372  1
  Ni  Ni210  1  0.95958335  0.23577144  0.76302288  1
  Ni  Ni211  1  0.00890959  0.76845220  0.34199603  1
  Ni  Ni212  1  0.57202016  0.48703448  0.41380038  1
  Ni  Ni213  1  0.27275919  0.28755426  0.75580779  1
  Ni  Ni214  1  0.48920046  0.81625289  0.20894921  1
  Ni  Ni215  1  0.50223562  0.75808849  0.74928980  1
