# generated using pymatgen
data_Ti2CoNi
_symmetry_space_group_name_H-M   'P 1'
_cell_length_a   14.71763785
_cell_length_b   14.59465952
_cell_length_c   14.65986085
_cell_angle_alpha   89.66431673
_cell_angle_beta   89.87358212
_cell_angle_gamma   90.21074384
_symmetry_Int_Tables_number   1
_chemical_formula_structural   Ti2CoNi
_chemical_formula_sum   'Ti108 Co54 Ni54'
_cell_volume   3148.83902048
_cell_formula_units_Z   54
loop_
 _symmetry_equiv_pos_site_id
 _symmetry_equiv_pos_as_xyz
  1  'x, y, z'
loop_
 _atom_site_type_symbol
 _atom_site_label
 _atom_site_symmetry_multiplicity
 _atom_site_fract_x
 _atom_site_fract_y
 _atom_site_fract_z
 _atom_site_occupancy
  Ti  Ti0  1  -0.00239553  0.04561034  -0.08279569  1
  Ti  Ti1  1  -0.06325800  0.03463266  0.36912828  1
  Ti  Ti2  1  0.00950033  -0.01074319  0.65866876  1
  Ti  Ti3  1  0.05158871  0.37237585  0.04511282  1
  Ti  Ti4  1  0.00518062  0.35365426  0.34538272  1
  Ti  Ti5  1  0.03444788  0.30384218  0.62621691  1
  Ti  Ti6  1  0.00269191  0.71094628  0.07781794  1
  Ti  Ti7  1  -0.01794336  0.57469099  0.33464603  1
  Ti  Ti8  1  -0.01912799  0.53073595  0.65480154  1
  Ti  Ti9  1  0.31343207  -0.05315374  -0.08616428  1
  Ti  Ti10  1  0.36945208  -0.07101982  0.36407001  1
  Ti  Ti11  1  0.36369936  -0.07725855  0.60513529  1
  Ti  Ti12  1  0.40511607  0.28318740  0.08681956  1
  Ti  Ti13  1  0.32724409  0.37631269  0.28109699  1
  Ti  Ti14  1  0.33852122  0.34175685  0.65150763  1
  Ti  Ti15  1  0.30057128  0.73088691  -0.00874975  1
  Ti  Ti16  1  0.31569826  0.64759336  0.40844182  1
  Ti  Ti17  1  0.36476589  0.70125357  0.61341930  1
  Ti  Ti18  1  0.66570508  0.02991173  0.01339066  1
  Ti  Ti19  1  0.72164076  0.02968074  0.30483568  1
  Ti  Ti20  1  0.66829714  -0.00687780  0.61783829  1
  Ti  Ti21  1  0.66179309  0.21816738  -0.07606103  1
  Ti  Ti22  1  0.67935242  0.34663988  0.27591807  1
  Ti  Ti23  1  0.58894684  0.37659112  0.64264888  1
  Ti  Ti24  1  0.75188779  0.69709226  -0.06682861  1
  Ti  Ti25  1  0.68233501  0.69664505  0.34467480  1
  Ti  Ti26  1  0.71142955  0.69627721  0.66735777  1
  Ti  Ti27  1  0.01685862  0.14699145  0.23473955  1
  Ti  Ti28  1  -0.02013258  0.13722590  0.51869314  1
  Ti  Ti29  1  -0.01376122  0.21067875  0.80812033  1
  Ti  Ti30  1  -0.03370732  0.53615524  0.15504158  1
  Ti  Ti31  1  -0.12019030  0.46127609  0.47254954  1
  Ti  Ti32  1  0.01495250  0.51675978  0.87898914  1
  Ti  Ti33  1  -0.01579609  0.91076053  0.18601972  1
  Ti  Ti34  1  -0.01619782  0.86678009  0.51750406  1
  Ti  Ti35  1  0.04142457  0.71904556  0.85155000  1
  Ti  Ti36  1  0.36130626  0.15830409  0.24767968  1
  Ti  Ti37  1  0.31954634  0.17504056  0.53729315  1
  Ti  Ti38  1  0.29672138  0.18007298  0.88641088  1
  Ti  Ti39  1  0.36351232  0.58302820  0.11530068  1
  Ti  Ti40  1  0.28865606  0.51888764  0.55807072  1
  Ti  Ti41  1  0.39804176  0.45146000  0.89036466  1
  Ti  Ti42  1  0.31599606  0.82110778  0.18478376  1
  Ti  Ti43  1  0.24259511  0.81090444  0.47293507  1
  Ti  Ti44  1  0.35043554  0.79280770  0.79350494  1
  Ti  Ti45  1  0.60076223  0.20774376  0.11594587  1
  Ti  Ti46  1  0.64977749  0.18824055  0.42558273  1
  Ti  Ti47  1  0.61759624  0.07201546  0.81682710  1
  Ti  Ti48  1  0.71073115  0.50327850  0.12404889  1
  Ti  Ti49  1  0.68320916  0.49114074  0.43694853  1
  Ti  Ti50  1  0.70161824  0.53720907  0.79028162  1
  Ti  Ti51  1  0.69074536  0.77376963  0.12043309  1
  Ti  Ti52  1  0.66288406  0.84070765  0.47028241  1
  Ti  Ti53  1  0.63346751  0.88230543  0.83133184  1
  Ti  Ti54  1  0.17125201  0.00393934  0.17781893  1
  Ti  Ti55  1  0.19127168  0.00898742  0.46109132  1
  Ti  Ti56  1  0.16217773  0.04100959  0.79065143  1
  Ti  Ti57  1  0.21840927  0.43023676  0.13100688  1
  Ti  Ti58  1  0.15400647  0.28445398  0.46145323  1
  Ti  Ti59  1  0.13734946  0.31859428  0.87775285  1
  Ti  Ti60  1  0.12264423  0.64283576  0.22291160  1
  Ti  Ti61  1  0.09499796  0.70470615  0.55982286  1
  Ti  Ti62  1  0.23199944  0.63807086  0.79486755  1
  Ti  Ti63  1  0.44650169  0.02762577  0.12276473  1
  Ti  Ti64  1  0.49869493  0.06505379  0.53018343  1
  Ti  Ti65  1  0.42331059  0.02187206  0.78564478  1
  Ti  Ti66  1  0.50775351  0.27385807  0.28070047  1
  Ti  Ti67  1  0.44868552  0.39309062  0.48590583  1
  Ti  Ti68  1  0.59056753  0.38882877  0.85051601  1
  Ti  Ti69  1  0.55337439  0.64435099  0.19412961  1
  Ti  Ti70  1  0.55467070  0.70499180  0.54118772  1
  Ti  Ti71  1  0.54296372  0.65568563  0.89412999  1
  Ti  Ti72  1  0.85895527  -0.02071629  0.05529543  1
  Ti  Ti73  1  0.80923538  -0.04566526  0.47082727  1
  Ti  Ti74  1  0.80395630  -0.01392147  0.85950895  1
  Ti  Ti75  1  0.78893198  0.28914609  0.13349697  1
  Ti  Ti76  1  0.75050285  0.31013249  0.55741760  1
  Ti  Ti77  1  0.78491723  0.36730233  0.88319332  1
  Ti  Ti78  1  0.82554937  0.65362953  0.21940673  1
  Ti  Ti79  1  0.87568981  0.67664604  0.54795511  1
  Ti  Ti80  1  0.87339992  0.66127210  0.77392352  1
  Ti  Ti81  1  0.13460901  0.16650759  0.06396615  1
  Ti  Ti82  1  0.19311733  0.22013687  0.28937841  1
  Ti  Ti83  1  0.20211661  0.22368950  0.70261597  1
  Ti  Ti84  1  0.21730516  0.49870161  -0.05679586  1
  Ti  Ti85  1  0.16436056  0.48282697  0.39732467  1
  Ti  Ti86  1  0.16207180  0.45500424  0.72360347  1
  Ti  Ti87  1  0.14734800  0.82994716  0.01658520  1
  Ti  Ti88  1  0.08981915  0.80998491  0.35353081  1
  Ti  Ti89  1  0.09277859  0.83377651  0.72210036  1
  Ti  Ti90  1  0.47374609  0.13944247  -0.03645166  1
  Ti  Ti91  1  0.52482604  0.07454672  0.31718795  1
  Ti  Ti92  1  0.49339560  0.22881516  0.77692258  1
  Ti  Ti93  1  0.52946438  0.50159766  0.03331774  1
  Ti  Ti94  1  0.51780269  0.46571725  0.30197515  1
  Ti  Ti95  1  0.45732546  0.52680013  0.65757814  1
  Ti  Ti96  1  0.44867722  0.84866010  0.04199981  1
  Ti  Ti97  1  0.48393357  0.75258137  0.34998289  1
  Ti  Ti98  1  0.51439687  0.78164042  0.71431116  1
  Ti  Ti99  1  0.85708217  0.18070266  -0.02331575  1
  Ti  Ti100  1  0.84517226  0.21108265  0.32503983  1
  Ti  Ti101  1  0.85301600  0.18627043  0.65607619  1
  Ti  Ti102  1  0.86814675  0.44862921  0.03124119  1
  Ti  Ti103  1  0.82684366  0.46131005  0.28117646  1
  Ti  Ti104  1  0.76959237  0.51459004  0.61784316  1
  Ti  Ti105  1  0.91724576  0.83268497  -0.05341453  1
  Ti  Ti106  1  0.80494840  0.85046883  0.27519924  1
  Ti  Ti107  1  0.83002107  0.86410833  0.65495195  1
  Co  Co108  1  0.55481893  0.60056834  0.38784048  1
  Co  Co109  1  0.71203081  0.65158264  0.50146462  1
  Co  Co110  1  0.75436576  0.07028240  0.72685049  1
  Co  Co111  1  0.91479739  0.28241198  0.49121258  1
  Co  Co112  1  0.64534031  1.02357467  0.45646557  1
  Co  Co113  1  0.81655306  0.62185928  0.06399197  1
  Co  Co114  1  0.86019530  0.02441493  0.60238511  1
  Co  Co115  1  0.01700543  0.38916136  0.76457077  1
  Co  Co116  1  0.22452515  0.89990691  0.30904880  1
  Co  Co117  1  0.09068459  0.63644742  0.71593835  1
  Co  Co118  1  0.03468662  0.41286053  0.50324703  1
  Co  Co119  1  0.87445867  0.31220456  0.75916311  1
  Co  Co120  1  0.63696235  0.63972795  0.04471542  1
  Co  Co121  1  0.69629664  0.35940941  0.02436515  1
  Co  Co122  1  0.58536859  0.91286311  0.10352716  1
  Co  Co123  1  0.61180504  0.05191998  0.17909087  1
  Co  Co124  1  0.65211399  0.83690104  0.65201344  1
  Co  Co125  1  0.14325394  0.64639721  0.41429137  1
  Co  Co126  1  0.13353244  0.53621434  0.57251651  1
  Co  Co127  1  0.83141253  0.54214878  0.90149195  1
  Co  Co128  1  0.96151535  0.74799165  0.66991009  1
  Co  Co129  1  -0.02376815  0.08436588  0.09039126  1
  Co  Co130  1  0.44021589  0.59417204  0.50058376  1
  Co  Co131  1  0.95071481  0.35528606  0.91055874  1
  Co  Co132  1  0.52440879  0.88986196  0.54545319  1
  Co  Co133  1  0.86780272  0.47890492  0.76121657  1
  Co  Co134  1  0.55416949  0.11597412  0.67425948  1
  Co  Co135  1  -0.02866765  0.71814674  0.41726761  1
  Co  Co136  1  0.79760563  0.18205086  0.82964337  1
  Co  Co137  1  0.47935961  0.68755004  0.04972974  1
  Co  Co138  1  0.20627771  0.59869027  0.09586638  1
  Co  Co139  1  0.09726556  0.46466051  0.23591529  1
  Co  Co140  1  0.89147246  0.38501330  0.62202030  1
  Co  Co141  1  0.69087836  0.15538700  0.58861046  1
  Co  Co142  1  0.08140344  0.97718687  0.31925460  1
  Co  Co143  1  0.19073697  0.37878378  0.58089326  1
  Co  Co144  1  0.68119522  0.18313102  0.25587307  1
  Co  Co145  1  0.07024639  0.53639152  0.03589380  1
  Co  Co146  1  0.91397877  0.06055777  0.76926454  1
  Co  Co147  1  0.45541260  0.38684570  0.75061886  1
  Co  Co148  1  0.93821304  0.87402440  0.36012838  1
  Co  Co149  1  0.73657658  0.94172605  0.15556686  1
  Co  Co150  1  0.52341093  0.94775693  0.69488044  1
  Co  Co151  1  0.35418196  0.48728473  0.39410780  1
  Co  Co152  1  0.40664252  0.79609979  0.48508061  1
  Co  Co153  1  0.66632945  0.23488413  0.73885273  1
  Co  Co154  1  0.28371407  0.34580905  0.81555094  1
  Co  Co155  1  0.73339252  0.38386123  0.71899129  1
  Co  Co156  1  0.05519160  0.13757362  0.68620739  1
  Co  Co157  1  0.41629546  0.29305701  0.90311458  1
  Co  Co158  1  0.23435278  0.06165566  0.31367980  1
  Co  Co159  1  0.02415964  0.21328111  0.96536875  1
  Co  Co160  1  0.93310178  0.64892678  0.95119848  1
  Co  Co161  1  0.80998401  0.13252622  0.47082275  1
  Ni  Ni162  1  0.67671496  0.51213180  0.95094444  1
  Ni  Ni163  1  1.00374397  0.57611514  0.49128148  1
  Ni  Ni164  1  0.15044492  0.65933015  0.95433746  1
  Ni  Ni165  1  0.15937943  0.90024731  0.58581423  1
  Ni  Ni166  1  0.13520565  0.82216962  0.18577599  1
  Ni  Ni167  1  0.86997055  0.03763527  0.21936192  1
  Ni  Ni168  1  0.85836409  0.80362177  0.11105725  1
  Ni  Ni169  1  0.36976771  0.08998830  0.40561142  1
  Ni  Ni170  1  0.31712738  0.11410543  0.04981605  1
  Ni  Ni171  1  0.24421766  0.04768216  0.63653919  1
  Ni  Ni172  1  0.27130479  0.33681126  0.98526281  1
  Ni  Ni173  1  0.36959444  0.14971594  0.69408533  1
  Ni  Ni174  1  0.47056532  0.88748350  0.22911294  1
  Ni  Ni175  1  0.57325487  0.62200669  0.72241805  1
  Ni  Ni176  1  0.51842789  -0.01620658  0.95576206  1
  Ni  Ni177  1  0.53790159  0.91936356  0.38289166  1
  Ni  Ni178  1  0.54060073  0.32203404  -0.00330233  1
  Ni  Ni179  1  0.08842801  0.30065436  0.19012509  1
  Ni  Ni180  1  0.38599291  0.60618393  0.94017760  1
  Ni  Ni181  1  0.23551163  0.73561318  0.30057196  1
  Ni  Ni182  1  0.62916687  0.84410181  0.26474532  1
  Ni  Ni183  1  0.81677627  0.77772696  0.43235914  1
  Ni  Ni184  1  0.18455428  0.04035652  0.96210150  1
  Ni  Ni185  1  0.78262039  0.34111537  0.40247898  1
  Ni  Ni186  1  0.47334048  0.24640708  0.59637440  1
  Ni  Ni187  1  0.67316316  0.54351866  0.27743232  1
  Ni  Ni188  1  0.22351274  0.75875359  0.66023160  1
  Ni  Ni189  1  0.25239105  0.91410459  0.73505553  1
  Ni  Ni190  1  0.57798461  0.38115567  0.14866940  1
  Ni  Ni191  1  0.32293915  0.26808232  0.39960912  1
  Ni  Ni192  1  0.14635609  0.14791294  0.55319496  1
  Ni  Ni193  1  0.60029928  0.34577911  0.43881872  1
  Ni  Ni194  1  0.59574482  0.79650297  0.97674898  1
  Ni  Ni195  1  0.95184309  0.24296952  0.10629214  1
  Ni  Ni196  1  0.93427709  0.37217980  0.19561507  1
  Ni  Ni197  1  0.31811434  0.49915046  0.74820452  1
  Ni  Ni198  1  0.96785882  0.74261068  0.24231342  1
  Ni  Ni199  1  0.93540439  0.87666173  0.78715850  1
  Ni  Ni200  1  0.08944075  0.12825393  0.39150700  1
  Ni  Ni201  1  0.76278313  0.11759314  0.12170331  1
  Ni  Ni202  1  0.25253469  0.25893045  0.13658628  1
  Ni  Ni203  1  0.25737023  0.54411636  0.26119327  1
  Ni  Ni204  1  0.47433129  0.85661566  0.87157593  1
  Ni  Ni205  1  0.28509356  0.93954720  0.07117524  1
  Ni  Ni206  1  0.74637443  0.86931718  0.98062125  1
  Ni  Ni207  1  0.42381084  0.43261605  0.15987027  1
  Ni  Ni208  1  1.06266316  0.96037557  0.04360432  1
  Ni  Ni209  1  0.47856725  0.21497611  0.43345581  1
  Ni  Ni210  1  0.59853352  0.54170129  0.56763955  1
  Ni  Ni211  1  0.41550203  0.59762118  0.27920973  1
  Ni  Ni212  1  0.41349768  0.63630643  0.77952424  1
  Ni  Ni213  1  0.07377419  0.90386003  0.88011777  1
  Ni  Ni214  1  0.78058493  0.81146099  0.80945317  1
  Ni  Ni215  1  0.20173848  0.80128607  0.85969082  1
