# generated using pymatgen
data_Ti2CoNi
_symmetry_space_group_name_H-M   'P 1'
_cell_length_a   14.48935639
_cell_length_b   14.46116273
_cell_length_c   14.45755004
_cell_angle_alpha   89.85297290
_cell_angle_beta   89.95701845
_cell_angle_gamma   89.80557757
_symmetry_Int_Tables_number   1
_chemical_formula_structural   Ti2CoNi
_chemical_formula_sum   'Ti108 Co54 Ni54'
_cell_volume   3029.30472651
_cell_formula_units_Z   54
loop_
 _symmetry_equiv_pos_site_id
 _symmetry_equiv_pos_as_xyz
  1  'x, y, z'
loop_
 _atom_site_type_symbol
 _atom_site_label
 _atom_site_symmetry_multiplicity
 _atom_site_fract_x
 _atom_site_fract_y
 _atom_site_fract_z
 _atom_site_occupancy
  Ti  Ti0  1  -0.00691885  -0.03319668  -0.05967297  1
  Ti  Ti1  1  -0.09246055  0.01460043  0.28866423  1
  Ti  Ti2  1  -0.01808618  -0.02999317  0.62837815  1
  Ti  Ti3  1  0.02379213  0.34498461  -0.01000954  1
  Ti  Ti4  1  0.06751205  0.33342085  0.32335347  1
  Ti  Ti5  1  0.03284955  0.27630413  0.65446694  1
  Ti  Ti6  1  0.04056329  0.70591599  0.03081352  1
  Ti  Ti7  1  0.07174984  0.66571035  0.32997927  1
  Ti  Ti8  1  -0.00220547  0.73240075  0.72084667  1
  Ti  Ti9  1  0.36303587  -0.01477936  -0.05606595  1
  Ti  Ti10  1  0.37460762  -0.02473885  0.33560565  1
  Ti  Ti11  1  0.35592013  -0.00564403  0.75431040  1
  Ti  Ti12  1  0.36884769  0.39928272  0.03353454  1
  Ti  Ti13  1  0.30919220  0.31711138  0.32095587  1
  Ti  Ti14  1  0.31070454  0.40626124  0.65483029  1
  Ti  Ti15  1  0.25790927  0.71365694  -0.02460635  1
  Ti  Ti16  1  0.35419138  0.72651550  0.26812053  1
  Ti  Ti17  1  0.30802050  0.62909210  0.69140724  1
  Ti  Ti18  1  0.70687285  -0.02147488  -0.03459536  1
  Ti  Ti19  1  0.70708079  0.03885812  0.33250609  1
  Ti  Ti20  1  0.69988054  0.07744745  0.66140323  1
  Ti  Ti21  1  0.66987934  0.29823527  0.01043703  1
  Ti  Ti22  1  0.68548311  0.38598591  0.24971889  1
  Ti  Ti23  1  0.69012185  0.30526178  0.70111655  1
  Ti  Ti24  1  0.72198848  0.64603402  -0.03062216  1
  Ti  Ti25  1  0.71464595  0.68109302  0.30797835  1
  Ti  Ti26  1  0.59701385  0.70153581  0.60102851  1
  Ti  Ti27  1  0.03724711  0.16737353  0.16724907  1
  Ti  Ti28  1  0.01119414  0.17360882  0.50809828  1
  Ti  Ti29  1  -0.04469974  0.21881093  0.84014928  1
  Ti  Ti30  1  -0.00959520  0.51210995  0.13210677  1
  Ti  Ti31  1  0.04287493  0.46166736  0.48856314  1
  Ti  Ti32  1  0.04037260  0.40291986  0.79423994  1
  Ti  Ti33  1  -0.06788704  0.81636794  0.23727155  1
  Ti  Ti34  1  -0.03026675  0.79068307  0.52183408  1
  Ti  Ti35  1  -0.08220444  0.79512562  0.90294448  1
  Ti  Ti36  1  0.36393371  0.14177548  0.16456450  1
  Ti  Ti37  1  0.29697339  0.12470262  0.46648807  1
  Ti  Ti38  1  0.31959184  0.22925049  0.76675067  1
  Ti  Ti39  1  0.40566430  0.53589840  0.17844297  1
  Ti  Ti40  1  0.34422190  0.54291954  0.49578566  1
  Ti  Ti41  1  0.38844533  0.43375509  0.81154389  1
  Ti  Ti42  1  0.31114237  0.93064095  0.14429182  1
  Ti  Ti43  1  0.30337868  0.83698678  0.46205787  1
  Ti  Ti44  1  0.38534760  0.79745419  0.82849529  1
  Ti  Ti45  1  0.63594697  0.11717702  0.16322715  1
  Ti  Ti46  1  0.67530013  0.17649430  0.51008122  1
  Ti  Ti47  1  0.68318863  0.14533356  0.87247251  1
  Ti  Ti48  1  0.61285875  0.55390901  0.13762750  1
  Ti  Ti49  1  0.68035322  0.49940941  0.53129853  1
  Ti  Ti50  1  0.67074254  0.52495457  0.75450293  1
  Ti  Ti51  1  0.61294497  0.77487307  0.18536282  1
  Ti  Ti52  1  0.66134043  0.88747890  0.53391561  1
  Ti  Ti53  1  0.71256388  0.81830948  0.87553283  1
  Ti  Ti54  1  0.11898540  -0.02195949  0.21396689  1
  Ti  Ti55  1  0.24004488  -0.03393898  0.58353495  1
  Ti  Ti56  1  0.16256284  -0.00449231  0.85097443  1
  Ti  Ti57  1  0.13069977  0.34285859  0.14736610  1
  Ti  Ti58  1  0.17687902  0.32596864  0.52918533  1
  Ti  Ti59  1  0.22372481  0.35132915  0.85408814  1
  Ti  Ti60  1  0.15698444  0.63552377  0.14817633  1
  Ti  Ti61  1  0.11214622  0.65334633  0.53188941  1
  Ti  Ti62  1  0.19085338  0.73510289  0.79707994  1
  Ti  Ti63  1  0.47855734  -0.00762923  0.13521473  1
  Ti  Ti64  1  0.43778159  -0.05010092  0.51629078  1
  Ti  Ti65  1  0.52975227  0.01163657  0.84958249  1
  Ti  Ti66  1  0.45560083  0.33680529  0.20553021  1
  Ti  Ti67  1  0.47165098  0.23956824  0.50868311  1
  Ti  Ti68  1  0.52574409  0.29308796  0.85693092  1
  Ti  Ti69  1  0.41614165  0.71919165  0.08260251  1
  Ti  Ti70  1  0.54267086  0.59949640  0.43829512  1
  Ti  Ti71  1  0.48124737  0.60037809  0.76839318  1
  Ti  Ti72  1  0.78614884  0.00655169  0.13589857  1
  Ti  Ti73  1  0.82162884  0.01467340  0.52882731  1
  Ti  Ti74  1  0.84068655  -0.02688875  0.79767941  1
  Ti  Ti75  1  0.88351047  0.38257726  0.23488662  1
  Ti  Ti76  1  0.89046973  0.32817151  0.43001854  1
  Ti  Ti77  1  0.80695430  0.32926103  0.84854845  1
  Ti  Ti78  1  0.89733923  0.59767234  0.26380534  1
  Ti  Ti79  1  0.78420868  0.66775651  0.49049273  1
  Ti  Ti80  1  0.81477188  0.66728288  0.78310024  1
  Ti  Ti81  1  0.20097669  0.20982611  0.02853868  1
  Ti  Ti82  1  0.10642529  0.08778900  0.36818535  1
  Ti  Ti83  1  0.13689780  0.10654751  0.70832177  1
  Ti  Ti84  1  0.13417501  0.56432716  -0.09336099  1
  Ti  Ti85  1  0.26564301  0.57146980  0.31646995  1
  Ti  Ti86  1  0.09622678  0.57768478  0.69927668  1
  Ti  Ti87  1  0.16217276  0.89189117  0.03619466  1
  Ti  Ti88  1  0.20484520  0.81821914  0.28948129  1
  Ti  Ti89  1  0.16312366  0.80223518  0.61307147  1
  Ti  Ti90  1  0.50624678  0.21207136  0.03865731  1
  Ti  Ti91  1  0.53428480  0.20357337  0.29583515  1
  Ti  Ti92  1  0.47920251  0.10317408  0.65143184  1
  Ti  Ti93  1  0.43998817  0.57767629  -0.04227362  1
  Ti  Ti94  1  0.51567246  0.41378584  0.40876968  1
  Ti  Ti95  1  0.50659751  0.46275242  0.60043386  1
  Ti  Ti96  1  0.53252230  0.85208156  -0.00476030  1
  Ti  Ti97  1  0.51341971  0.81407577  0.35695466  1
  Ti  Ti98  1  0.53215474  0.91295713  0.67326573  1
  Ti  Ti99  1  0.90987080  0.12078107  0.04883479  1
  Ti  Ti100  1  0.74877465  0.23086369  0.31231611  1
  Ti  Ti101  1  0.84026256  0.20276627  0.58992248  1
  Ti  Ti102  1  0.83925250  0.51293713  0.03269160  1
  Ti  Ti103  1  0.81759967  0.49896851  0.40718297  1
  Ti  Ti104  1  0.82427774  0.48085157  0.65946874  1
  Ti  Ti105  1  0.80081383  0.80229897  0.08103712  1
  Ti  Ti106  1  0.76791415  0.84892547  0.38105379  1
  Ti  Ti107  1  0.72504775  0.82747897  0.69392992  1
  Co  Co108  1  0.61145853  0.33713984  0.57483166  1
  Co  Co109  1  0.09745366  0.80625651  0.91423219  1
  Co  Co110  1  0.82764495  0.14495024  0.20111426  1
  Co  Co111  1  0.53436860  0.43494384  0.07687101  1
  Co  Co112  1  0.60146077  0.27063560  0.41124182  1
  Co  Co113  1  -0.04376893  0.04525355  0.43722499  1
  Co  Co114  1  0.73154082  0.13916599  0.04040114  1
  Co  Co115  1  0.37504080  0.85006006  0.01152392  1
  Co  Co116  1  0.24718582  0.77817875  0.13105483  1
  Co  Co117  1  0.76868633  0.52779591  0.21759972  1
  Co  Co118  1  0.77608258  0.27778855  0.15001232  1
  Co  Co119  1  0.31541904  0.61654416  0.83977572  1
  Co  Co120  1  0.32522245  0.71255276  0.56127652  1
  Co  Co121  1  0.29154415  0.09944022  0.65144335  1
  Co  Co122  1  0.40276402  0.67639226  0.41550548  1
  Co  Co123  1  0.66161587  0.52827316  0.36622812  1
  Co  Co124  1  0.56163754  0.04873124  1.00325465  1
  Co  Co125  1  0.35284323  0.85172200  0.63852887  1
  Co  Co126  1  0.47851248  0.76212395  0.69102753  1
  Co  Co127  1  0.92530833  0.40493053  0.55826934  1
  Co  Co128  1  0.07113970  0.95397417  0.49960606  1
  Co  Co129  1  0.03090122  0.66661131  0.85422200  1
  Co  Co130  1  0.12534425  0.80371809  0.45186791  1
  Co  Co131  1  0.99396986  0.46196398  0.32791877  1
  Co  Co132  1  0.05502354  0.90642453  0.33412223  1
  Co  Co133  1  0.89208957  0.63546205  0.92624436  1
  Co  Co134  1  0.49519467  0.64126634  0.25355086  1
  Co  Co135  1  0.60097208  0.28665206  0.15609073  1
  Co  Co136  1  0.63949385  0.69981914  0.75675746  1
  Co  Co137  1  0.91934909  0.89183043  0.42324473  1
  Co  Co138  1  0.44874175  0.62558762  0.60394730  1
  Co  Co139  1  0.53343734  0.45332438  0.25020888  1
  Co  Co140  1  0.55045295  0.41957849  0.74548196  1
  Co  Co141  1  0.23091745  0.68252629  0.41978429  1
  Co  Co142  1  0.24547295  1.05229193  0.07214357  1
  Co  Co143  1  0.47531278  0.78881228  0.51964191  1
  Co  Co144  1  0.14569149  0.41215043  0.68258789  1
  Co  Co145  1  0.26449588  0.45745767  0.20582351  1
  Co  Co146  1  0.71603697  0.43545592  0.09554306  1
  Co  Co147  1  0.16774880  0.15875023  0.55980179  1
  Co  Co148  1  0.95829521  0.61421929  0.45473118  1
  Co  Co149  1  0.77825975  0.35960675  0.56672531  1
  Co  Co150  1  0.73062362  0.36608046  0.41184218  1
  Co  Co151  1  0.87066043  0.72741489  0.36666774  1
  Co  Co152  1  0.89945001  0.67254660  0.10058882  1
  Co  Co153  1  0.21914619  0.50442097  0.77355893  1
  Co  Co154  1  0.40096713  0.09716209  0.01977745  1
  Co  Co155  1  0.18912365  0.26575156  0.67913383  1
  Co  Co156  1  0.94674764  0.55176092  0.79990558  1
  Co  Co157  1  0.78403515  0.51265388  0.86535380  1
  Co  Co158  1  0.88382988  0.33187508  0.69243495  1
  Co  Co159  1  0.73284149  0.66240965  0.14200144  1
  Co  Co160  1  0.25205291  0.04105592  0.26877803  1
  Co  Co161  1  0.29345797  0.57113141  0.06198898  1
  Ni  Ni162  1  0.66954425  0.97438399  0.78786344  1
  Ni  Ni163  1  0.27977570  0.47908355  0.92876373  1
  Ni  Ni164  1  0.27136434  0.10778198  0.89208146  1
  Ni  Ni165  1  0.58435764  0.03205354  0.55300702  1
  Ni  Ni166  1  0.55745818  0.81966091  0.81672962  1
  Ni  Ni167  1  0.94356156  0.12612995  0.68284222  1
  Ni  Ni168  1  0.82651759  0.14190310  0.42303829  1
  Ni  Ni169  1  0.63122713  0.94605963  0.16258822  1
  Ni  Ni170  1  0.57804416  0.69669730  0.05069206  1
  Ni  Ni171  1  -0.00376508  0.05074576  0.82023995  1
  Ni  Ni172  1  0.85267744  0.93658985  0.99070704  1
  Ni  Ni173  1  0.88337016  0.83409529  0.73320298  1
  Ni  Ni174  1  0.08657240  0.80071247  0.16161844  1
  Ni  Ni175  1  0.22304366  0.88861181  0.73645516  1
  Ni  Ni176  1  0.93987639  0.19145117  0.31323853  1
  Ni  Ni177  1  0.84515684  0.26014584  0.98522213  1
  Ni  Ni178  1  0.45323791  0.14855885  0.84372515  1
  Ni  Ni179  1  0.12437263  0.48109599  0.04017919  1
  Ni  Ni180  1  0.90844684  0.42872778  0.90334995  1
  Ni  Ni181  1  0.63916267  0.74826099  0.43582055  1
  Ni  Ni182  1  0.66347535  0.37661132  0.85973315  1
  Ni  Ni183  1  0.58423678  0.94499451  0.40988667  1
  Ni  Ni184  1  0.35150914  0.23799065  0.96664309  1
  Ni  Ni185  1  0.93667729  0.29557288  0.11107576  1
  Ni  Ni186  1  0.19746861  0.19172836  0.22927422  1
  Ni  Ni187  1  0.81896166  0.16857741  0.75867234  1
  Ni  Ni188  1  0.58445991  0.49634099  0.91647014  1
  Ni  Ni189  1  0.05415174  0.89897102  0.77405982  1
  Ni  Ni190  1  0.33911136  0.36698744  0.48354988  1
  Ni  Ni191  1  0.54145764  0.03557253  0.27525956  1
  Ni  Ni192  1  0.11900169  0.50850029  0.24748572  1
  Ni  Ni193  1  0.25009854  0.86660895  0.88626786  1
  Ni  Ni194  1  0.17822532  0.23740794  0.38934156  1
  Ni  Ni195  1  0.20576122  0.96269436  0.39315247  1
  Ni  Ni196  1  0.85819107  0.72505348  0.63387499  1
  Ni  Ni197  1  0.46214842  0.83563691  0.19230002  1
  Ni  Ni198  1  0.60457501  0.15862436  0.72489993  1
  Ni  Ni199  1  0.83220020  0.86929414  0.56883737  1
  Ni  Ni200  1  0.72741339  0.62322095  0.64260825  1
  Ni  Ni201  1  0.97417032  0.97269391  0.11739284  1
  Ni  Ni202  1  0.19362120  0.42852423  0.39350569  1
  Ni  Ni203  1  0.10462424  0.22818500  0.90358109  1
  Ni  Ni204  1  -0.04707710  0.58204273  0.60172865  1
  Ni  Ni205  1  0.57074042  0.65774112  0.90297449  1
  Ni  Ni206  1  0.32370865  0.23747959  0.59362057  1
  Ni  Ni207  1  0.37552838  0.15619037  0.32683739  1
  Ni  Ni208  1  0.07213796  0.06812853  0.04464803  1
  Ni  Ni209  1  0.84537914  0.09505170  0.90780015  1
  Ni  Ni210  1  0.28964008  0.30458999  0.14546404  1
  Ni  Ni211  1  0.45785321  0.29194983  0.68638863  1
  Ni  Ni212  1  0.79291126  0.88092606  0.23006226  1
  Ni  Ni213  1  0.41678475  0.51170243  0.35110553  1
  Ni  Ni214  1  0.49052916  0.08556061  0.43718705  1
  Ni  Ni215  1  0.19772202  0.50035854  0.55869684  1
