# generated using pymatgen
data_Ti2CoNi
_symmetry_space_group_name_H-M   'P 1'
_cell_length_a   14.65650183
_cell_length_b   14.60372973
_cell_length_c   14.62917110
_cell_angle_alpha   90.03231838
_cell_angle_beta   90.25824935
_cell_angle_gamma   90.17192891
_symmetry_Int_Tables_number   1
_chemical_formula_structural   Ti2CoNi
_chemical_formula_sum   'Ti108 Co54 Ni54'
_cell_volume   3131.17537965
_cell_formula_units_Z   54
loop_
 _symmetry_equiv_pos_site_id
 _symmetry_equiv_pos_as_xyz
  1  'x, y, z'
loop_
 _atom_site_type_symbol
 _atom_site_label
 _atom_site_symmetry_multiplicity
 _atom_site_fract_x
 _atom_site_fract_y
 _atom_site_fract_z
 _atom_site_occupancy
  Ti  Ti0  1  -0.01919106  -0.00090435  -0.03783165  1
  Ti  Ti1  1  -0.00203485  -0.02704067  0.26750730  1
  Ti  Ti2  1  0.04006833  -0.02343838  0.59260893  1
  Ti  Ti3  1  0.06844775  0.33299882  0.00050173  1
  Ti  Ti4  1  0.00179965  0.28650193  0.38815811  1
  Ti  Ti5  1  0.04400182  0.29299368  0.65445950  1
  Ti  Ti6  1  0.07174180  0.68791283  -0.05794431  1
  Ti  Ti7  1  -0.02210602  0.68374622  0.41468768  1
  Ti  Ti8  1  0.00318221  0.63291558  0.72201961  1
  Ti  Ti9  1  0.36661021  -0.00749963  0.02321107  1
  Ti  Ti10  1  0.28837185  -0.07181940  0.30544832  1
  Ti  Ti11  1  0.34051671  0.04540777  0.68044362  1
  Ti  Ti12  1  0.26154541  0.33993326  0.09899218  1
  Ti  Ti13  1  0.33427568  0.42140742  0.33477855  1
  Ti  Ti14  1  0.39135172  0.28217574  0.61995919  1
  Ti  Ti15  1  0.29436818  0.68227338  0.03409895  1
  Ti  Ti16  1  0.29598482  0.66495593  0.34536348  1
  Ti  Ti17  1  0.22381786  0.68720751  0.66249419  1
  Ti  Ti18  1  0.71549373  -0.06822694  0.04130067  1
  Ti  Ti19  1  0.65369810  -0.07133983  0.24533173  1
  Ti  Ti20  1  0.71842651  -0.00088706  0.68864745  1
  Ti  Ti21  1  0.61419709  0.35453716  -0.05741562  1
  Ti  Ti22  1  0.61799355  0.31860658  0.36170670  1
  Ti  Ti23  1  0.68284070  0.28031497  0.72981461  1
  Ti  Ti24  1  0.74614626  0.67139144  -0.02802618  1
  Ti  Ti25  1  0.59216649  0.66158242  0.36204613  1
  Ti  Ti26  1  0.68131646  0.69885283  0.65520645  1
  Ti  Ti27  1  -0.03107076  0.27596511  0.16600401  1
  Ti  Ti28  1  0.01064730  0.14752168  0.51612339  1
  Ti  Ti29  1  -0.03272088  0.20422517  0.86966923  1
  Ti  Ti30  1  -0.01858709  0.56827454  0.21373976  1
  Ti  Ti31  1  0.04258053  0.48831201  0.43118929  1
  Ti  Ti32  1  0.05968705  0.49559294  0.88874392  1
  Ti  Ti33  1  -0.01844507  0.84396008  0.12313315  1
  Ti  Ti34  1  -0.07917134  0.83516673  0.53415123  1
  Ti  Ti35  1  0.01771029  0.90155895  0.76621923  1
  Ti  Ti36  1  0.33571983  0.12465852  0.25538733  1
  Ti  Ti37  1  0.29642680  0.09592378  0.47554204  1
  Ti  Ti38  1  0.32074056  0.23258451  0.80878415  1
  Ti  Ti39  1  0.33990202  0.55657656  0.17391204  1
  Ti  Ti40  1  0.31799953  0.53689783  0.52679558  1
  Ti  Ti41  1  0.31755767  0.52845410  0.87801460  1
  Ti  Ti42  1  0.37904985  0.83361490  0.14338876  1
  Ti  Ti43  1  0.38495638  0.88062661  0.52070734  1
  Ti  Ti44  1  0.27957103  0.87908950  0.78219065  1
  Ti  Ti45  1  0.64988286  0.13167713  0.27481266  1
  Ti  Ti46  1  0.70303196  0.17208852  0.45792951  1
  Ti  Ti47  1  0.65881210  0.13546782  0.84227212  1
  Ti  Ti48  1  0.70134382  0.52195954  0.10812836  1
  Ti  Ti49  1  0.66149805  0.41502276  0.53450247  1
  Ti  Ti50  1  0.66441301  0.54335152  0.81234099  1
  Ti  Ti51  1  0.65590856  0.76516754  0.12525453  1
  Ti  Ti52  1  0.70108635  0.88198014  0.43308656  1
  Ti  Ti53  1  0.65029788  0.79414590  0.83006825  1
  Ti  Ti54  1  0.09781734  0.02824226  0.10161045  1
  Ti  Ti55  1  0.10895449  0.01392371  0.41051418  1
  Ti  Ti56  1  0.18921587  -0.01242278  0.91474041  1
  Ti  Ti57  1  0.14221355  0.22305404  0.18350290  1
  Ti  Ti58  1  0.21397680  0.34939329  0.50103502  1
  Ti  Ti59  1  0.19625102  0.40659851  0.76905052  1
  Ti  Ti60  1  0.15431615  0.66653143  0.17971100  1
  Ti  Ti61  1  0.15837653  0.66632461  0.48997497  1
  Ti  Ti62  1  0.25358257  0.70838328  0.85745729  1
  Ti  Ti63  1  0.54220805  0.05746389  0.11652159  1
  Ti  Ti64  1  0.54192538  -0.00452241  0.56123759  1
  Ti  Ti65  1  0.54679326  -0.02043225  0.79479153  1
  Ti  Ti66  1  0.56886036  0.33272638  0.16263626  1
  Ti  Ti67  1  0.46896580  0.38410990  0.47658353  1
  Ti  Ti68  1  0.41369103  0.35410832  0.93243973  1
  Ti  Ti69  1  0.53594229  0.62324516  0.13107955  1
  Ti  Ti70  1  0.53264627  0.58204387  0.53631784  1
  Ti  Ti71  1  0.45853376  0.70517450  0.86576628  1
  Ti  Ti72  1  0.81843906  0.02287908  0.21748962  1
  Ti  Ti73  1  0.83533752  0.03801566  0.52605076  1
  Ti  Ti74  1  0.87374841  0.03745550  0.79600774  1
  Ti  Ti75  1  0.83501379  0.38735978  0.19811516  1
  Ti  Ti76  1  0.87970968  0.37717965  0.52958960  1
  Ti  Ti77  1  0.79053687  0.36381563  0.87260894  1
  Ti  Ti78  1  0.83731083  0.68658571  0.18501146  1
  Ti  Ti79  1  0.78162740  0.68620781  0.43669297  1
  Ti  Ti80  1  0.88090076  0.57946264  0.87495924  1
  Ti  Ti81  1  0.16674243  0.18564871  -0.06467290  1
  Ti  Ti82  1  0.18626230  0.19854920  0.37106685  1
  Ti  Ti83  1  0.15516631  0.13679332  0.72055732  1
  Ti  Ti84  1  0.15390774  0.53181098  0.04168321  1
  Ti  Ti85  1  0.16785110  0.47307356  0.23207786  1
  Ti  Ti86  1  0.13280210  0.49956480  0.61841088  1
  Ti  Ti87  1  0.17308965  0.83980310  0.05742089  1
  Ti  Ti88  1  0.12782307  0.80146063  0.34111033  1
  Ti  Ti89  1  0.19708399  0.86117426  0.60487993  1
  Ti  Ti90  1  0.48589856  0.16290647  -0.04791179  1
  Ti  Ti91  1  0.49611472  0.16671446  0.40408905  1
  Ti  Ti92  1  0.53533341  0.16280226  0.67958065  1
  Ti  Ti93  1  0.48986527  0.46456255  0.05249430  1
  Ti  Ti94  1  0.51963997  0.48002033  0.28613739  1
  Ti  Ti95  1  0.45266455  0.48380048  0.68894789  1
  Ti  Ti96  1  0.53168577  0.88780292  -0.02931348  1
  Ti  Ti97  1  0.49532584  0.87611407  0.34836280  1
  Ti  Ti98  1  0.50488736  0.76482609  0.62476342  1
  Ti  Ti99  1  0.85295708  0.14541569  0.05069524  1
  Ti  Ti100  1  0.84129282  0.20554604  0.29967162  1
  Ti  Ti101  1  0.84946224  0.18546071  0.66152402  1
  Ti  Ti102  1  0.90176814  0.45554674  0.03260676  1
  Ti  Ti103  1  0.82524927  0.49657790  0.35561054  1
  Ti  Ti104  1  0.81457163  0.56129092  0.64190576  1
  Ti  Ti105  1  0.84905191  0.86292824  -0.09734691  1
  Ti  Ti106  1  0.86876297  0.82908786  0.32357008  1
  Ti  Ti107  1  0.83962740  0.81155043  0.71578008  1
  Co  Co108  1  0.96685972  0.47356066  0.61259327  1
  Co  Co109  1  0.95169936  0.37813617  0.88037098  1
  Co  Co110  1  0.03078467  0.42930947  0.74483833  1
  Co  Co111  1  0.29489712  0.41183541  0.62608895  1
  Co  Co112  1  0.87787597  0.96253035  0.07792038  1
  Co  Co113  1  0.11053405  0.61838206  0.32869023  1
  Co  Co114  1  0.27404553  0.77748220  0.46283443  1
  Co  Co115  1  0.88360983  0.95907885  0.65520975  1
  Co  Co116  1  0.43021145  0.60447671  0.99044634  1
  Co  Co117  1  0.36189748  0.39102307  0.78245333  1
  Co  Co118  1  0.46770671  0.75071621  0.05545204  1
  Co  Co119  1  0.31107524  0.09833653  0.91046500  1
  Co  Co120  1  0.62630400  0.05413702  0.97300165  1
  Co  Co121  1  0.28512929  0.28728045  0.25780024  1
  Co  Co122  1  0.19360776  0.03275593  0.58502644  1
  Co  Co123  1  0.99717895  0.73431827  0.25729296  1
  Co  Co124  1  0.41756732  0.00726755  0.41689003  1
  Co  Co125  1  0.39782456  0.39776417  0.17471993  1
  Co  Co126  1  0.87941146  0.29495806  0.00521765  1
  Co  Co127  1  0.38641903  0.13493495  0.10145850  1
  Co  Co128  1  0.64761212  0.49784323  0.39439346  1
  Co  Co129  1  0.32295027  0.23379847  0.99157994  1
  Co  Co130  1  0.88690328  0.31854869  0.72983844  1
  Co  Co131  1  0.75011957  0.28879898  0.56973443  1
  Co  Co132  1  0.69871110  0.94620421  0.84996442  1
  Co  Co133  1  0.80994950  0.19942456  0.83987897  1
  Co  Co134  1  0.08536082  0.84718554  0.48180256  1
  Co  Co135  1  0.04084398  0.15656565  0.30303230  1
  Co  Co136  1  0.59443774  0.21673113  0.06279269  1
  Co  Co137  1  0.98729568  0.10551626  0.68315247  1
  Co  Co138  1  0.09603155  0.29636092  0.82598254  1
  Co  Co139  1  0.05518914  0.76419422  0.61669320  1
  Co  Co140  1  0.02389811  0.69008004  0.09480549  1
  Co  Co141  1  0.25430725  0.97866616  0.13735220  1
  Co  Co142  1  0.60201139  0.55360632  -0.02734737  1
  Co  Co143  1  0.74940312  0.49679702  0.95721651  1
  Co  Co144  1  0.24047600  0.93420354  0.45884718  1
  Co  Co145  1  0.72279447  0.21778938  0.97188126  1
  Co  Co146  1  0.22634893  0.27534127  0.67737089  1
  Co  Co147  1  0.13164138  0.90240864  0.21543202  1
  Co  Co148  1  0.53857009  0.89663114  0.13454776  1
  Co  Co149  1  0.71416919  0.26736518  0.21100180  1
  Co  Co150  1  -0.07773947  0.09594594  0.38109897  1
  Co  Co151  1  0.79615241  0.85908457  0.18393898  1
  Co  Co152  1  0.60377265  1.00925270  0.41304597  1
  Co  Co153  1  0.88767254  0.55543628  0.48976864  1
  Co  Co154  1  0.57113025  0.25179939  0.53263750  1
  Co  Co155  1  0.77592720  0.34037319  0.38402941  1
  Co  Co156  1  0.16127556  0.97457555  0.73461475  1
  Co  Co157  1  0.72962508  0.35731861  0.06316145  1
  Co  Co158  1  0.40568610  0.98541844  0.19226736  1
  Co  Co159  1  0.22750180  0.13237462  0.08203770  1
  Co  Co160  1  0.02431376  0.61296720  0.56195786  1
  Co  Co161  1  0.86508005  0.22063206  0.47481745  1
  Ni  Ni162  1  0.78135581  0.68750399  0.80348010  1
  Ni  Ni163  1  0.45695679  0.30153040  0.29918669  1
  Ni  Ni164  1  0.88559315  0.69596822  0.59177570  1
  Ni  Ni165  1  0.62228837  0.74920971  0.50275319  1
  Ni  Ni166  1  0.05741922  0.85234415  0.92578615  1
  Ni  Ni167  1  0.98629049  0.41428411  0.28486547  1
  Ni  Ni168  1  0.43802926  0.90827840  0.68742477  1
  Ni  Ni169  1  0.44507703  0.63607491  0.27581078  1
  Ni  Ni170  1  0.35132624  0.26163348  0.42179487  1
  Ni  Ni171  1  0.96059802  0.10589721  0.17329562  1
  Ni  Ni172  1  0.20894908  0.51285963  0.40552214  1
  Ni  Ni173  1  0.73704190  0.42376273  0.69023668  1
  Ni  Ni174  1  0.15038718  0.35889710  0.34141423  1
  Ni  Ni175  1  0.83818259  0.79188544  0.04625320  1
  Ni  Ni176  1  0.43946617  0.11743737  0.80131564  1
  Ni  Ni177  1  0.51160027  0.04145098  0.28668773  1
  Ni  Ni178  1  0.68264372  0.14149825  0.61694119  1
  Ni  Ni179  1  0.79666481  0.04385174  0.93897001  1
  Ni  Ni180  1  0.53596924  0.63110251  0.73631243  1
  Ni  Ni181  1  0.52035917  0.27188586  0.81233621  1
  Ni  Ni182  1  0.71557670  0.59822367  0.26756380  1
  Ni  Ni183  1  0.75095099  0.86239713  0.58428456  1
  Ni  Ni184  1  0.49108386  0.50604936  0.85637668  1
  Ni  Ni185  1  0.02572684  0.17275013  0.03536935  1
  Ni  Ni186  1  0.31549824  0.48073648  0.03200690  1
  Ni  Ni187  1  0.43465013  0.13363381  0.55193506  1
  Ni  Ni188  1  0.39452340  0.96688146  0.85700952  1
  Ni  Ni189  1  0.93936044  0.94639275  0.42251932  1
  Ni  Ni190  1  0.36908043  0.75637668  0.72867874  1
  Ni  Ni191  1  0.44814794  0.72597335  0.45515015  1
  Ni  Ni192  1  0.43268531  0.55209116  0.41074690  1
  Ni  Ni193  1  0.23227405  0.36573288  0.92791508  1
  Ni  Ni194  1  0.70548103  0.76726741  0.29332160  1
  Ni  Ni195  1  0.28787634  0.54599154  0.71638874  1
  Ni  Ni196  1  0.39560074  0.63686956  0.62766252  1
  Ni  Ni197  1  0.68686644  0.43085350  0.25187442  1
  Ni  Ni198  1  0.17357672  0.06185868  0.25821894  1
  Ni  Ni199  1  0.30882809  0.84247247  0.95451621  1
  Ni  Ni200  1  0.87766876  0.47361814  0.76016096  1
  Ni  Ni201  1  0.70594652  0.11017564  0.11751722  1
  Ni  Ni202  1  0.04379367  0.42890528  0.13153315  1
  Ni  Ni203  1  0.16384224  0.19596638  0.54475263  1
  Ni  Ni204  1  0.52709527  0.76503204  0.22915779  1
  Ni  Ni205  1  0.11388819  0.76449153  0.77705212  1
  Ni  Ni206  1  0.89484432  0.62203496  0.03696258  1
  Ni  Ni207  1  0.59248265  0.71931037  0.96827804  1
  Ni  Ni208  1  0.54805189  0.35586469  0.65619456  1
  Ni  Ni209  1  0.76516993  0.02971573  0.37089378  1
  Ni  Ni210  1  0.61708655  0.86929669  0.68147334  1
  Ni  Ni211  1  0.94856246  0.74593039  0.83901876  1
  Ni  Ni212  1  0.69419818  0.58526539  0.52518195  1
  Ni  Ni213  1  0.14933309  0.59167328  0.79176883  1
  Ni  Ni214  1  0.05409076  0.06341305  0.83152891  1
  Ni  Ni215  1  0.25025555  0.78371155  0.21786690  1
