# generated using pymatgen
data_Ti2CoNi
_symmetry_space_group_name_H-M   'P 1'
_cell_length_a   14.48627066
_cell_length_b   14.59527156
_cell_length_c   14.57832054
_cell_angle_alpha   89.97276841
_cell_angle_beta   90.11953757
_cell_angle_gamma   89.84639044
_symmetry_Int_Tables_number   1
_chemical_formula_structural   Ti2CoNi
_chemical_formula_sum   'Ti108 Co54 Ni54'
_cell_volume   3082.29153992
_cell_formula_units_Z   54
loop_
 _symmetry_equiv_pos_site_id
 _symmetry_equiv_pos_as_xyz
  1  'x, y, z'
loop_
 _atom_site_type_symbol
 _atom_site_label
 _atom_site_symmetry_multiplicity
 _atom_site_fract_x
 _atom_site_fract_y
 _atom_site_fract_z
 _atom_site_occupancy
  Ti  Ti0  1  0.03717376  -0.03806111  0.06868971  1
  Ti  Ti1  1  -0.00942406  -0.01487855  0.29835143  1
  Ti  Ti2  1  0.01657681  -0.06656793  0.64204013  1
  Ti  Ti3  1  0.04504124  0.27001961  -0.07619376  1
  Ti  Ti4  1  -0.09100174  0.33927040  0.25048039  1
  Ti  Ti5  1  -0.03950592  0.37620427  0.74062301  1
  Ti  Ti6  1  -0.07824452  0.68076669  0.04189247  1
  Ti  Ti7  1  0.02767266  0.67978368  0.31867786  1
  Ti  Ti8  1  0.02861446  0.67932697  0.62484358  1
  Ti  Ti9  1  0.30829063  0.02645297  0.01818341  1
  Ti  Ti10  1  0.29210603  0.03034059  0.38603265  1
  Ti  Ti11  1  0.31213666  0.01902938  0.60334346  1
  Ti  Ti12  1  0.30616616  0.43146758  0.02083300  1
  Ti  Ti13  1  0.35470407  0.31621828  0.28456902  1
  Ti  Ti14  1  0.35223721  0.24231550  0.69295723  1
  Ti  Ti15  1  0.27771949  0.65062526  0.05571622  1
  Ti  Ti16  1  0.37865093  0.67866288  0.26448541  1
  Ti  Ti17  1  0.40755185  0.62023753  0.60096636  1
  Ti  Ti18  1  0.66434986  0.09075319  -0.04934657  1
  Ti  Ti19  1  0.74333378  0.01480575  0.34334265  1
  Ti  Ti20  1  0.61148558  0.06242850  0.68776325  1
  Ti  Ti21  1  0.67584508  0.36276934  -0.02210641  1
  Ti  Ti22  1  0.61262675  0.30963769  0.30580815  1
  Ti  Ti23  1  0.64651325  0.27746616  0.62942941  1
  Ti  Ti24  1  0.70416342  0.64743647  0.05100778  1
  Ti  Ti25  1  0.67019554  0.66525697  0.25221672  1
  Ti  Ti26  1  0.75083916  0.71220279  0.69324466  1
  Ti  Ti27  1  0.03948545  0.15717727  0.23271079  1
  Ti  Ti28  1  -0.06452440  0.20980677  0.52333252  1
  Ti  Ti29  1  -0.07709851  0.14584238  0.79386304  1
  Ti  Ti30  1  0.06914036  0.48986410  0.21524797  1
  Ti  Ti31  1  0.01631441  0.45363386  0.52067592  1
  Ti  Ti32  1  -0.03263455  0.55167554  0.86678445  1
  Ti  Ti33  1  -0.07639334  0.82433572  0.18635982  1
  Ti  Ti34  1  -0.02105789  0.82593564  0.50146296  1
  Ti  Ti35  1  0.01573434  0.88028496  0.86057551  1
  Ti  Ti36  1  0.27845263  0.14161552  0.22025510  1
  Ti  Ti37  1  0.32441500  0.22230284  0.44511783  1
  Ti  Ti38  1  0.37750183  0.15792923  0.86474471  1
  Ti  Ti39  1  0.31719839  0.50468385  0.24326125  1
  Ti  Ti40  1  0.28935397  0.49642990  0.54588607  1
  Ti  Ti41  1  0.37312087  0.39099550  0.83883021  1
  Ti  Ti42  1  0.43042291  0.85353897  0.13496726  1
  Ti  Ti43  1  0.30588130  0.79929715  0.59704314  1
  Ti  Ti44  1  0.31141415  0.83912898  0.86273245  1
  Ti  Ti45  1  0.66065224  0.20026691  0.12330506  1
  Ti  Ti46  1  0.59205591  0.08351600  0.44949751  1
  Ti  Ti47  1  0.70211383  0.21888986  0.79266602  1
  Ti  Ti48  1  0.70120392  0.48511591  0.17316049  1
  Ti  Ti49  1  0.67840625  0.45873813  0.46013478  1
  Ti  Ti50  1  0.72887825  0.52667414  0.76181744  1
  Ti  Ti51  1  0.62672240  0.82877810  0.11600428  1
  Ti  Ti52  1  0.66014886  0.87329696  0.55343969  1
  Ti  Ti53  1  0.69071348  0.84499087  0.80452016  1
  Ti  Ti54  1  0.16973294  -0.01094985  0.19452337  1
  Ti  Ti55  1  0.12493184  0.00562558  0.48049519  1
  Ti  Ti56  1  0.22322533  0.03356022  0.83258289  1
  Ti  Ti57  1  0.18774103  0.30271187  0.12008996  1
  Ti  Ti58  1  0.18536883  0.32602510  0.59077416  1
  Ti  Ti59  1  0.19540412  0.31315043  0.79185155  1
  Ti  Ti60  1  0.09948912  0.68141873  0.13228904  1
  Ti  Ti61  1  0.23700985  0.70069559  0.44918134  1
  Ti  Ti62  1  0.24255061  0.64739644  0.84608086  1
  Ti  Ti63  1  0.56531463  -0.03200627  0.24426654  1
  Ti  Ti64  1  0.45304350  -0.10464167  0.50537525  1
  Ti  Ti65  1  0.48962437  -0.05392143  0.84049951  1
  Ti  Ti66  1  0.49056712  0.41483811  0.17159959  1
  Ti  Ti67  1  0.50890216  0.39333239  0.52446286  1
  Ti  Ti68  1  0.53334582  0.27774701  0.86636493  1
  Ti  Ti69  1  0.50307813  0.67166882  0.08463155  1
  Ti  Ti70  1  0.54515792  0.73861099  0.40506496  1
  Ti  Ti71  1  0.47453249  0.66949474  0.81497576  1
  Ti  Ti72  1  0.71152517  -0.00921617  0.13319148  1
  Ti  Ti73  1  0.90989336  0.02544360  0.48589705  1
  Ti  Ti74  1  0.82838878  -0.02512490  0.92075536  1
  Ti  Ti75  1  0.87122392  0.27932283  0.05282545  1
  Ti  Ti76  1  0.81654669  0.35676954  0.54654933  1
  Ti  Ti77  1  0.81335239  0.35591408  0.86172120  1
  Ti  Ti78  1  0.86971530  0.61693707  0.19995699  1
  Ti  Ti79  1  0.80966937  0.69230395  0.50813545  1
  Ti  Ti80  1  0.80747643  0.64938723  0.88596892  1
  Ti  Ti81  1  0.15063793  0.12337357  0.02307519  1
  Ti  Ti82  1  0.12008873  0.25460349  0.40282027  1
  Ti  Ti83  1  0.08125655  0.16061693  0.64014008  1
  Ti  Ti84  1  0.11556268  0.45526838  -0.01952582  1
  Ti  Ti85  1  0.17738765  0.52451441  0.38646584  1
  Ti  Ti86  1  0.14891780  0.51189009  0.70269724  1
  Ti  Ti87  1  0.22949902  0.85182051  0.05508222  1
  Ti  Ti88  1  0.16022254  0.84096979  0.33338906  1
  Ti  Ti89  1  0.14169442  0.78844128  0.73113096  1
  Ti  Ti90  1  0.48924957  0.14591893  0.02636679  1
  Ti  Ti91  1  0.46952136  0.14590765  0.29119443  1
  Ti  Ti92  1  0.47911245  0.18509334  0.57183593  1
  Ti  Ti93  1  0.50758028  0.46992338  -0.04777414  1
  Ti  Ti94  1  0.49570156  0.54302525  0.39077548  1
  Ti  Ti95  1  0.51150322  0.49682293  0.72918335  1
  Ti  Ti96  1  0.55926681  0.78237593  -0.05514017  1
  Ti  Ti97  1  0.37949120  0.84709509  0.33400067  1
  Ti  Ti98  1  0.51080411  0.76657044  0.64960696  1
  Ti  Ti99  1  0.94907478  0.10779495  -0.01403410  1
  Ti  Ti100  1  0.86978363  0.18675961  0.35234414  1
  Ti  Ti101  1  0.77532245  0.12528256  0.62317218  1
  Ti  Ti102  1  0.82709450  0.48856905  0.01556298  1
  Ti  Ti103  1  0.93364032  0.50961009  0.34803768  1
  Ti  Ti104  1  0.88681265  0.54874661  0.64390377  1
  Ti  Ti105  1  0.77941313  0.80879714  -0.01796447  1
  Ti  Ti106  1  0.81382146  0.87676655  0.43339811  1
  Ti  Ti107  1  0.81228882  0.93530910  0.66307450  1
  Co  Co108  1  0.15112481  0.08103815  0.32829452  1
  Co  Co109  1  0.08708165  0.71817180  0.46363168  1
  Co  Co110  1  0.78220345  0.35312461  0.37908926  1
  Co  Co111  1  0.16114782  0.92424294  0.93501278  1
  Co  Co112  1  0.99818828  0.54067630  0.07276335  1
  Co  Co113  1  0.14937540  0.76472623  0.90741452  1
  Co  Co114  1  0.07275700  0.40584712  0.36516156  1
  Co  Co115  1  0.97584457  0.72405210  0.89787291  1
  Co  Co116  1  0.23948789  0.48140781  0.86275492  1
  Co  Co117  1  0.73094303  1.01226915  0.51343327  1
  Co  Co118  1  0.41187776  0.04556623  0.13761039  1
  Co  Co119  1  0.34003329  0.73445333  0.73707860  1
  Co  Co120  1  0.91042670  0.66850791  0.75700227  1
  Co  Co121  1  0.01708655  0.32238522  0.60588376  1
  Co  Co122  1  0.85471295  0.81932160  0.81559959  1
  Co  Co123  1  0.07909474  0.02761483  0.74128117  1
  Co  Co124  1  0.41115573  0.89561576  0.69936420  1
  Co  Co125  1  0.09409583  0.17454602  0.80873510  1
  Co  Co126  1  0.52365554  0.19655561  0.72741033  1
  Co  Co127  1  0.84072064  0.50259241  0.47481774  1
  Co  Co128  1  0.23448172  0.20985490  0.91402934  1
  Co  Co129  1  0.58518080  0.52955615  0.07586812  1
  Co  Co130  1  0.49078288  0.01049774  0.59522505  1
  Co  Co131  1  0.41970134  0.99800272  0.29479584  1
  Co  Co132  1  0.36280294  0.33573274  0.55800556  1
  Co  Co133  1  0.08074749  0.64669385  0.79070395  1
  Co  Co134  1  0.54746129  0.09683286  0.84384640  1
  Co  Co135  1  0.07188419  0.31433190  0.23231162  1
  Co  Co136  1  0.72989998  0.56673252  0.58708267  1
  Co  Co137  1  0.48895008  0.34766626  0.68595481  1
  Co  Co138  1  0.88453893  0.46426758  0.16492847  1
  Co  Co139  1  0.08266663  0.42632937  0.82554990  1
  Co  Co140  1  1.02801638  0.21600070  0.08782008  1
  Co  Co141  1  0.93715529  0.34254119  0.42486216  1
  Co  Co142  1  0.20997400  0.38350467  0.27535457  1
  Co  Co143  1  0.38712577  0.41275531  0.40850574  1
  Co  Co144  1  0.64990024  0.29281089  0.47175697  1
  Co  Co145  1  0.64310778  0.43910952  0.62943484  1
  Co  Co146  1  0.70112913  0.77452167  0.40226915  1
  Co  Co147  1  0.91283434  0.98280844  0.78116776  1
  Co  Co148  1  0.30846059  0.93306660  0.20545965  1
  Co  Co149  1  0.75245855  0.35218082  0.12258380  1
  Co  Co150  1  0.01282517  0.37360384  0.08998657  1
  Co  Co151  1  0.42888146  0.07809178  0.45665385  1
  Co  Co152  1  0.70485615  0.86278269  0.27234779  1
  Co  Co153  1  0.21273030  0.65945100  0.63973306  1
  Co  Co154  1  0.08383967  0.83982326  0.19076754  1
  Co  Co155  1  1.05490910  0.04149542  0.89897116  1
  Co  Co156  1  0.61039686  0.47220512  0.30136170  1
  Co  Co157  1  0.23314923  0.13940818  0.71629205  1
  Co  Co158  1  0.23605844  0.37101321  0.44088035  1
  Co  Co159  1  0.10271004  0.62568641  0.97456399  1
  Co  Co160  1  0.93426542  0.07839652  0.64352577  1
  Co  Co161  1  0.41025881  0.07198971  0.72592405  1
  Ni  Ni162  1  0.95665885  0.83230571  0.34443786  1
  Ni  Ni163  1  0.41358625  0.90505725  0.98540149  1
  Ni  Ni164  1  0.77437040  0.51629560  0.31917422  1
  Ni  Ni165  1  0.27043717  0.88529537  0.46152993  1
  Ni  Ni166  1  0.55048177  0.98257879  0.06426757  1
  Ni  Ni167  1  0.75352514  0.17269147  0.46488673  1
  Ni  Ni168  1  0.57961589  0.90496829  0.69655459  1
  Ni  Ni169  1  0.37842331  0.57023816  0.92310271  1
  Ni  Ni170  1  0.50472354  0.57587100  0.22463906  1
  Ni  Ni171  1  0.18880449  0.51777167  0.11333724  1
  Ni  Ni172  1  0.22115082  0.14847487  0.54355271  1
  Ni  Ni173  1  0.80875979  0.18846479  0.91562308  1
  Ni  Ni174  1  0.87129050  0.24659605  0.67803231  1
  Ni  Ni175  1  0.95136353  0.40240554  0.93784308  1
  Ni  Ni176  1  0.79669238  0.11070762  0.05791858  1
  Ni  Ni177  1  0.26096891  0.77318703  0.19323957  1
  Ni  Ni178  1  0.64071559  0.13521464  0.28318325  1
  Ni  Ni179  1  0.84844394  0.69191512  0.34735812  1
  Ni  Ni180  1  0.74943125  0.05515974  0.79721861  1
  Ni  Ni181  1  0.19458843  0.65789055  0.28216713  1
  Ni  Ni182  1  0.39942187  0.72529677  0.47302990  1
  Ni  Ni183  1  0.54699336  0.31533648  0.05003116  1
  Ni  Ni184  1  0.79932087  0.10604964  0.22309426  1
  Ni  Ni185  1  0.34423761  0.58121903  0.40177027  1
  Ni  Ni186  1  0.12527599  0.57090406  0.53862133  1
  Ni  Ni187  1  0.78559885  0.38360525  0.70402755  1
  Ni  Ni188  1  0.52995924  0.75651838  0.24221732  1
  Ni  Ni189  1  0.60246537  0.63035327  0.68722864  1
  Ni  Ni190  1  0.32141378  0.19229711  0.06670929  1
  Ni  Ni191  1  0.55827554  0.56150517  0.54768492  1
  Ni  Ni192  1  0.39070274  0.73638807  -0.03308874  1
  Ni  Ni193  1  0.14452644  0.84988606  0.55721185  1
  Ni  Ni194  1  0.34659068  0.56060386  0.74862432  1
  Ni  Ni195  1  0.58447776  0.90945563  0.40095355  1
  Ni  Ni196  1  0.85545757  0.93203009  0.07893075  1
  Ni  Ni197  1  0.49343960  0.25245606  0.41639419  1
  Ni  Ni198  1  0.95982083  0.62011457  0.47426470  1
  Ni  Ni199  1  0.75862607  0.25576576  0.24560971  1
  Ni  Ni200  1  0.67039115  0.61458849  0.41147724  1
  Ni  Ni201  1  0.67336634  0.52139274  0.92342950  1
  Ni  Ni202  1  0.40723472  0.54203461  0.09240670  1
  Ni  Ni203  1  0.65419898  0.92362362  0.94931357  1
  Ni  Ni204  1  0.63891606  0.70803044  0.54647641  1
  Ni  Ni205  1  0.04427842  0.80514626  0.02862062  1
  Ni  Ni206  1  0.46620709  0.24742449  0.16667084  1
  Ni  Ni207  1  -0.06960114  0.06110014  0.15001767  1
  Ni  Ni208  1  0.77759289  0.76807828  0.15092582  1
  Ni  Ni209  1  0.30090913  0.41371464  0.69281205  1
  Ni  Ni210  1  0.64994075  0.67048504  0.84311889  1
  Ni  Ni211  1  0.63665225  0.38092514  0.78904753  1
  Ni  Ni212  1  0.24696562  0.90819046  0.71652365  1
  Ni  Ni213  1  0.02274864  0.12313510  0.40633205  1
  Ni  Ni214  1  0.88808615  0.78951945  0.63940132  1
  Ni  Ni215  1  0.40132108  0.30019884  0.97872982  1
