# generated using pymatgen
data_Ti2CoNi
_symmetry_space_group_name_H-M   'P 1'
_cell_length_a   14.61730699
_cell_length_b   14.62300308
_cell_length_c   14.56105279
_cell_angle_alpha   89.91101493
_cell_angle_beta   89.76101617
_cell_angle_gamma   89.86830805
_symmetry_Int_Tables_number   1
_chemical_formula_structural   Ti2CoNi
_chemical_formula_sum   'Ti108 Co54 Ni54'
_cell_volume   3112.37038075
_cell_formula_units_Z   54
loop_
 _symmetry_equiv_pos_site_id
 _symmetry_equiv_pos_as_xyz
  1  'x, y, z'
loop_
 _atom_site_type_symbol
 _atom_site_label
 _atom_site_symmetry_multiplicity
 _atom_site_fract_x
 _atom_site_fract_y
 _atom_site_fract_z
 _atom_site_occupancy
  Ti  Ti0  1  -0.07115764  -0.01814838  0.00719757  1
  Ti  Ti1  1  -0.00435870  -0.03758339  0.33073891  1
  Ti  Ti2  1  0.04567434  -0.05309111  0.67120150  1
  Ti  Ti3  1  0.03716551  0.38937938  -0.05324972  1
  Ti  Ti4  1  -0.02891336  0.29459648  0.36499977  1
  Ti  Ti5  1  0.01878812  0.38939485  0.65007090  1
  Ti  Ti6  1  0.04051934  0.63390482  0.01131000  1
  Ti  Ti7  1  0.10034660  0.60032223  0.36672877  1
  Ti  Ti8  1  0.05827309  0.60259344  0.67258650  1
  Ti  Ti9  1  0.28865951  0.05749622  -0.05302277  1
  Ti  Ti10  1  0.24419748  -0.03187448  0.31257669  1
  Ti  Ti11  1  0.33504040  0.00467050  0.62057738  1
  Ti  Ti12  1  0.38753605  0.28642865  0.00559265  1
  Ti  Ti13  1  0.26672781  0.27129986  0.29460001  1
  Ti  Ti14  1  0.28519185  0.28379379  0.64324086  1
  Ti  Ti15  1  0.33042675  0.61959893  -0.04653125  1
  Ti  Ti16  1  0.37956031  0.69300617  0.34870248  1
  Ti  Ti17  1  0.33495139  0.64650213  0.68231825  1
  Ti  Ti18  1  0.70626304  -0.02764466  -0.05559967  1
  Ti  Ti19  1  0.70726673  -0.03384224  0.37296494  1
  Ti  Ti20  1  0.69000774  0.02769688  0.69266845  1
  Ti  Ti21  1  0.70166054  0.39337289  -0.07621684  1
  Ti  Ti22  1  0.60600486  0.31494426  0.37715563  1
  Ti  Ti23  1  0.67353845  0.42308249  0.72063784  1
  Ti  Ti24  1  0.68388615  0.68386841  0.00205768  1
  Ti  Ti25  1  0.64445349  0.61523808  0.32586603  1
  Ti  Ti26  1  0.64970582  0.71166621  0.67547426  1
  Ti  Ti27  1  0.00680831  0.16065591  0.13775986  1
  Ti  Ti28  1  0.01102500  0.15489062  0.57756703  1
  Ti  Ti29  1  -0.06200230  0.18600601  0.89338876  1
  Ti  Ti30  1  -0.02710932  0.56874540  0.20997074  1
  Ti  Ti31  1  -0.04557937  0.54241060  0.51872717  1
  Ti  Ti32  1  -0.02734023  0.51410124  0.83252842  1
  Ti  Ti33  1  -0.05144757  0.76423734  0.22356926  1
  Ti  Ti34  1  -0.02575919  0.87029633  0.51312861  1
  Ti  Ti35  1  0.02410227  0.83604821  0.88665197  1
  Ti  Ti36  1  0.35049779  0.15818785  0.16680792  1
  Ti  Ti37  1  0.32800246  0.18788185  0.47667422  1
  Ti  Ti38  1  0.32410994  0.19739557  0.82507095  1
  Ti  Ti39  1  0.32603083  0.58989051  0.19019252  1
  Ti  Ti40  1  0.34238035  0.44874625  0.40720544  1
  Ti  Ti41  1  0.44816153  0.54096058  0.80222860  1
  Ti  Ti42  1  0.32938090  0.79156005  0.15147087  1
  Ti  Ti43  1  0.36235853  0.79452994  0.56227870  1
  Ti  Ti44  1  0.36018944  0.90633635  0.86121390  1
  Ti  Ti45  1  0.66960947  0.09113964  0.21239846  1
  Ti  Ti46  1  0.62200048  0.20898764  0.56161152  1
  Ti  Ti47  1  0.63311364  0.23145568  0.79175838  1
  Ti  Ti48  1  0.65704477  0.55246780  0.14593512  1
  Ti  Ti49  1  0.67893226  0.55618392  0.53298710  1
  Ti  Ti50  1  0.65669849  0.58133287  0.83323488  1
  Ti  Ti51  1  0.63976978  0.90839850  0.16626533  1
  Ti  Ti52  1  0.68282898  0.75798966  0.46964972  1
  Ti  Ti53  1  0.72803419  0.85482496  0.78884406  1
  Ti  Ti54  1  0.15605958  -0.01526993  0.11643123  1
  Ti  Ti55  1  0.19052055  -0.07207604  0.51145159  1
  Ti  Ti56  1  0.06497077  0.02448275  0.84887083  1
  Ti  Ti57  1  0.11537358  0.33045027  0.12101004  1
  Ti  Ti58  1  0.10800514  0.40083004  0.47973191  1
  Ti  Ti59  1  0.20642121  0.32593926  0.90973653  1
  Ti  Ti60  1  0.12471677  0.71843671  0.18240997  1
  Ti  Ti61  1  0.22956234  0.68970391  0.48997370  1
  Ti  Ti62  1  0.14229135  0.66338222  0.84333157  1
  Ti  Ti63  1  0.44239481  -0.02322311  0.18334288  1
  Ti  Ti64  1  0.43031559  -0.01290564  0.42125316  1
  Ti  Ti65  1  0.50957772  0.07486989  0.89391201  1
  Ti  Ti66  1  0.56585708  0.37243699  0.11591910  1
  Ti  Ti67  1  0.45830366  0.34262697  0.52708302  1
  Ti  Ti68  1  0.42418070  0.34475537  0.78965974  1
  Ti  Ti69  1  0.47615414  0.63976635  0.08454953  1
  Ti  Ti70  1  0.51069445  0.65522553  0.47702133  1
  Ti  Ti71  1  0.47045434  0.73751993  0.82169026  1
  Ti  Ti72  1  0.85980078  0.04986861  0.22073953  1
  Ti  Ti73  1  0.77362062  0.07958053  0.52396657  1
  Ti  Ti74  1  0.86840905  -0.00369219  0.81281261  1
  Ti  Ti75  1  0.81514728  0.32945840  0.22291551  1
  Ti  Ti76  1  0.77019537  0.33429305  0.47294539  1
  Ti  Ti77  1  0.85521202  0.33778155  0.78031617  1
  Ti  Ti78  1  0.74900255  0.74491854  0.17944598  1
  Ti  Ti79  1  0.88311386  0.70761836  0.51541790  1
  Ti  Ti80  1  0.84516427  0.65227896  0.89869597  1
  Ti  Ti81  1  0.20556887  0.18391997  0.04793949  1
  Ti  Ti82  1  0.11886599  0.11636945  0.37436870  1
  Ti  Ti83  1  0.17403799  0.11216461  0.69243736  1
  Ti  Ti84  1  0.23982123  0.46985962  0.06361137  1
  Ti  Ti85  1  0.13511744  0.42063036  0.28382337  1
  Ti  Ti86  1  0.22464864  0.47619944  0.67853900  1
  Ti  Ti87  1  0.21027111  0.79145049  -0.01509966  1
  Ti  Ti88  1  0.09511739  0.79875439  0.38012394  1
  Ti  Ti89  1  0.21993715  0.85288202  0.71358093  1
  Ti  Ti90  1  0.54217065  0.17383823  0.09314307  1
  Ti  Ti91  1  0.51255226  0.17033156  0.29418885  1
  Ti  Ti92  1  0.51544219  0.07603114  0.66874754  1
  Ti  Ti93  1  0.45739146  0.46899546  -0.02004190  1
  Ti  Ti94  1  0.49350674  0.45082734  0.27811749  1
  Ti  Ti95  1  0.52154041  0.50774697  0.63041256  1
  Ti  Ti96  1  0.55336718  0.81703421  0.01042193  1
  Ti  Ti97  1  0.54650500  0.80932142  0.30377412  1
  Ti  Ti98  1  0.53993001  0.88207017  0.71675517  1
  Ti  Ti99  1  0.79706948  0.19506254  0.08333386  1
  Ti  Ti100  1  0.79191681  0.17623687  0.34982404  1
  Ti  Ti101  1  0.83064585  0.16836208  0.69756709  1
  Ti  Ti102  1  0.90264117  0.48081427  0.04512730  1
  Ti  Ti103  1  0.82721386  0.48471559  0.34703443  1
  Ti  Ti104  1  0.82428738  0.46400750  0.62826314  1
  Ti  Ti105  1  0.90517115  0.78624917  0.03979608  1
  Ti  Ti106  1  0.83922583  0.80579266  0.36372867  1
  Ti  Ti107  1  0.80876633  0.85362549  0.60881696  1
  Co  Co108  1  0.40702260  0.44866523  0.12581736  1
  Co  Co109  1  0.07763372  0.78689444  0.74132152  1
  Co  Co110  1  0.81950679  0.09412095  0.96605467  1
  Co  Co111  1  0.66547781  0.25341961  0.20871819  1
  Co  Co112  1  0.63244977  0.74640792  0.85240742  1
  Co  Co113  1  0.29467652  0.43743122  0.24417785  1
  Co  Co114  1  0.58074974  1.00934005  0.05634252  1
  Co  Co115  1  0.82333879  0.72717835  0.74993884  1
  Co  Co116  1  0.64846045  0.12875946  0.96721643  1
  Co  Co117  1  0.04830541  0.68251873  0.50210740  1
  Co  Co118  1  0.63395166  0.39475932  0.54700341  1
  Co  Co119  1  0.66866619  0.42215749  0.24783652  1
  Co  Co120  1  0.52107197  0.63947549  0.93260444  1
  Co  Co121  1  0.06444797  0.23758996  0.98400772  1
  Co  Co122  1  0.43495244  0.30061558  0.19962415  1
  Co  Co123  1  0.09215563  0.24796289  0.26356017  1
  Co  Co124  1  0.38077951  0.43296607  0.65442815  1
  Co  Co125  1  0.80963792  0.50048533  0.18293750  1
  Co  Co126  1  0.81088809  0.49017613  0.82991286  1
  Co  Co127  1  0.44833057  0.81866569  0.43207209  1
  Co  Co128  1  0.85143750  0.84804678  0.89500762  1
  Co  Co129  1  0.42385090  0.28762225  0.36895175  1
  Co  Co130  1  0.55604059  -0.00307902  0.30816903  1
  Co  Co131  1  0.78301064  0.62206368  0.42467627  1
  Co  Co132  1  0.30498264  0.92053868  0.05204127  1
  Co  Co133  1  0.92231948  0.86004075  0.73987195  1
  Co  Co134  1  0.73472677  0.39524026  0.09128473  1
  Co  Co135  1  0.06553423  0.48575763  0.09534558  1
  Co  Co136  1  0.16302886  0.56054990  0.20455498  1
  Co  Co137  1  0.89901250  0.58118343  0.70197557  1
  Co  Co138  1  0.60183217  0.04047394  0.52792630  1
  Co  Co139  1  0.76713434  0.23793893  0.89707250  1
  Co  Co140  1  0.37552930  0.86262966  0.28630594  1
  Co  Co141  1  0.60701475  0.51616329  -0.00784998  1
  Co  Co142  1  0.95839333  0.73445999  0.64883225  1
  Co  Co143  1  0.28494177  0.84349144  0.41700445  1
  Co  Co144  1  0.22929041  0.73815680  0.30131952  1
  Co  Co145  1  0.64605705  0.13147235  0.39722056  1
  Co  Co146  1  0.28604314  0.32066631  0.12608735  1
  Co  Co147  1  0.38516017  0.83442515  0.71059320  1
  Co  Co148  1  0.12731081  0.27000617  0.59405577  1
  Co  Co149  1  0.47673519  0.93372380  0.57347994  1
  Co  Co150  1  0.58228898  0.89785587  0.44720235  1
  Co  Co151  1  0.26292943  0.39963056  0.53240681  1
  Co  Co152  1  0.76277764  0.53604395  0.99251855  1
  Co  Co153  1  0.67428316  0.46381868  0.39968506  1
  Co  Co154  1  0.76213208  0.00810949  0.09920106  1
  Co  Co155  1  0.16585718  0.15552040  0.87546455  1
  Co  Co156  1  0.54714143  0.78785218  0.56449242  1
  Co  Co157  1  0.78274153  0.64697542  0.61353131  1
  Co  Co158  1  0.81509539  0.63759322  0.26430850  1
  Co  Co159  1  0.19194328  0.68463875  0.65970967  1
  Co  Co160  1  0.44964932  0.93600945  0.99290312  1
  Co  Co161  1  0.97651042  0.68855711  0.81908946  1
  Ni  Ni162  1  -0.01103551  0.46936284  0.36821443  1
  Ni  Ni163  1  0.92618842  0.37948442  0.50310190  1
  Ni  Ni164  1  0.49053837  0.67072794  0.65871601  1
  Ni  Ni165  1  0.49488507  0.61904435  0.25183809  1
  Ni  Ni166  1  0.17765884  0.25809710  0.43941510  1
  Ni  Ni167  1  0.31973274  0.44223209  0.89945229  1
  Ni  Ni168  1  0.22376248  0.99890202  0.80026157  1
  Ni  Ni169  1  -0.02106798  0.09444533  0.73116072  1
  Ni  Ni170  1  0.10772838  0.42271498  0.78704219  1
  Ni  Ni171  1  0.75064920  0.84523133  0.03602093  1
  Ni  Ni172  1  0.58889247  0.72716758  0.16476333  1
  Ni  Ni173  1  0.38846933  0.77793326  -0.02100078  1
  Ni  Ni174  1  0.95066223  0.92088855  0.15908710  1
  Ni  Ni175  1  1.00162798  0.25172773  0.74085211  1
  Ni  Ni176  1  0.37856446  0.05807772  0.77113927  1
  Ni  Ni177  1  0.04623110  0.01534225  0.49801126  1
  Ni  Ni178  1  0.85913619  0.63828374  0.09456854  1
  Ni  Ni179  1  0.94410411  0.65222629  0.36377815  1
  Ni  Ni180  1  0.53057192  0.25534004  0.92206963  1
  Ni  Ni181  1  0.56040437  0.41478578  0.84181323  1
  Ni  Ni182  1  0.54645570  0.32249195  0.67187948  1
  Ni  Ni183  1  0.80121793  0.89631998  0.22995617  1
  Ni  Ni184  1  0.06376168  0.84003016  0.06300505  1
  Ni  Ni185  1  0.86554925  0.97643140  0.43284577  1
  Ni  Ni186  1  0.74106454  0.29447215  0.63965689  1
  Ni  Ni187  1  0.41981957  0.08125856  0.04233224  1
  Ni  Ni188  1  0.88593870  0.00201641  0.62780140  1
  Ni  Ni189  1  0.07385824  0.07921390  0.00159729  1
  Ni  Ni190  1  0.93967491  0.30557366  0.08088337  1
  Ni  Ni191  1  0.25572775  0.57219466  0.34474123  1
  Ni  Ni192  1  0.15378654  0.54870022  0.53938180  1
  Ni  Ni193  1  0.65721137  0.90128324  0.59358872  1
  Ni  Ni194  1  0.16696084  0.27232675  0.75479974  1
  Ni  Ni195  1  0.87770028  0.21019201  0.49942649  1
  Ni  Ni196  1  0.15462947  0.51232038  0.92117309  1
  Ni  Ni197  1  0.51622199  0.48804884  0.44741607  1
  Ni  Ni198  1  0.09924644  0.87896080  0.22897154  1
  Ni  Ni199  1  0.29724888  0.74562827  0.83148918  1
  Ni  Ni200  1  0.19240012  0.11472093  0.22125761  1
  Ni  Ni201  1  0.42528251  0.20225242  0.63743256  1
  Ni  Ni202  1  0.26937930  0.56658527  0.80836473  1
  Ni  Ni203  1  0.96654165  0.13998877  0.30676342  1
  Ni  Ni204  1  0.11190862  0.80310330  0.58016768  1
  Ni  Ni205  1  0.72967910  0.09919279  0.82863216  1
  Ni  Ni206  1  0.21335980  0.64309267  0.06505729  1
  Ni  Ni207  1  0.66291173  0.26939966  0.03109049  1
  Ni  Ni208  1  0.56345278  0.91250187  0.87421619  1
  Ni  Ni209  1  0.35150520  0.11188629  0.32694019  1
  Ni  Ni210  1  0.97195884  0.39766445  0.21797040  1
  Ni  Ni211  1  0.86988022  0.35611958  0.94202031  1
  Ni  Ni212  1  0.16281563  0.94213662  0.95217622  1
  Ni  Ni213  1  0.19616204  0.09754134  0.52839834  1
  Ni  Ni214  1  0.49345103  0.16008221  0.46968560  1
  Ni  Ni215  1  0.37878712  0.56180210  0.53931235  1
