# generated using pymatgen
data_Ti2CoNi
_symmetry_space_group_name_H-M   'P 1'
_cell_length_a   14.48906807
_cell_length_b   14.46018123
_cell_length_c   14.53195352
_cell_angle_alpha   90.02321554
_cell_angle_beta   89.79690530
_cell_angle_gamma   90.17508769
_symmetry_Int_Tables_number   1
_chemical_formula_structural   Ti2CoNi
_chemical_formula_sum   'Ti108 Co54 Ni54'
_cell_volume   3044.62212317
_cell_formula_units_Z   54
loop_
 _symmetry_equiv_pos_site_id
 _symmetry_equiv_pos_as_xyz
  1  'x, y, z'
loop_
 _atom_site_type_symbol
 _atom_site_label
 _atom_site_symmetry_multiplicity
 _atom_site_fract_x
 _atom_site_fract_y
 _atom_site_fract_z
 _atom_site_occupancy
  Ti  Ti0  1  -0.02424021  0.04549096  0.00130864  1
  Ti  Ti1  1  0.00239867  -0.02940046  0.27580957  1
  Ti  Ti2  1  0.01487777  -0.03125039  0.66917816  1
  Ti  Ti3  1  0.02028998  0.28249299  -0.02130055  1
  Ti  Ti4  1  0.06428367  0.27944290  0.29642299  1
  Ti  Ti5  1  0.01315407  0.35168874  0.73509720  1
  Ti  Ti6  1  0.07025769  0.56786387  0.04640342  1
  Ti  Ti7  1  0.00990433  0.60248119  0.25017428  1
  Ti  Ti8  1  -0.06540386  0.80205327  0.65153193  1
  Ti  Ti9  1  0.33945308  0.00380093  -0.11185369  1
  Ti  Ti10  1  0.32766313  0.01565876  0.34963522  1
  Ti  Ti11  1  0.32726945  -0.03913061  0.58177566  1
  Ti  Ti12  1  0.30054447  0.29656403  0.00332048  1
  Ti  Ti13  1  0.36353057  0.35167971  0.37677459  1
  Ti  Ti14  1  0.36796163  0.27368452  0.65216640  1
  Ti  Ti15  1  0.31758932  0.68412639  0.00037480  1
  Ti  Ti16  1  0.26376786  0.71826568  0.39830711  1
  Ti  Ti17  1  0.31496257  0.64624177  0.67721403  1
  Ti  Ti18  1  0.62447899  0.00695829  0.06841365  1
  Ti  Ti19  1  0.67404157  -0.02500200  0.32781227  1
  Ti  Ti20  1  0.68553675  0.04547866  0.64513390  1
  Ti  Ti21  1  0.64790548  0.28939649  -0.02798125  1
  Ti  Ti22  1  0.72379182  0.37694204  0.29519502  1
  Ti  Ti23  1  0.64709503  0.34954080  0.67602733  1
  Ti  Ti24  1  0.71869389  0.69225414  0.03685248  1
  Ti  Ti25  1  0.66985423  0.65386415  0.41959278  1
  Ti  Ti26  1  0.63757651  0.67582105  0.73046110  1
  Ti  Ti27  1  -0.08459218  0.14667507  0.22636925  1
  Ti  Ti28  1  0.07287849  0.20604568  0.49420399  1
  Ti  Ti29  1  0.01197163  0.16776055  0.83220281  1
  Ti  Ti30  1  0.01252932  0.41324301  0.17575423  1
  Ti  Ti31  1  -0.06071835  0.52881398  0.44902459  1
  Ti  Ti32  1  0.06658806  0.44429965  0.86719729  1
  Ti  Ti33  1  -0.02045232  0.78050663  0.16369467  1
  Ti  Ti34  1  0.01778280  0.88087359  0.46943816  1
  Ti  Ti35  1  0.01445915  0.83778218  0.86505803  1
  Ti  Ti36  1  0.43715750  0.24468366  0.12768377  1
  Ti  Ti37  1  0.31123137  0.18227403  0.48592657  1
  Ti  Ti38  1  0.26660317  0.25775458  0.78865686  1
  Ti  Ti39  1  0.45588141  0.50276172  0.11139980  1
  Ti  Ti40  1  0.28645082  0.52083542  0.43899948  1
  Ti  Ti41  1  0.33961101  0.52099164  0.85420776  1
  Ti  Ti42  1  0.30171796  0.79399291  0.18403965  1
  Ti  Ti43  1  0.36000375  0.80033702  0.53879609  1
  Ti  Ti44  1  0.33820671  0.83771600  0.73757859  1
  Ti  Ti45  1  0.72717195  0.08288739  0.19408307  1
  Ti  Ti46  1  0.60933712  0.13209352  0.47078858  1
  Ti  Ti47  1  0.65595057  0.06983183  0.87875085  1
  Ti  Ti48  1  0.68946932  0.51509166  0.13146916  1
  Ti  Ti49  1  0.63481980  0.44381084  0.48800703  1
  Ti  Ti50  1  0.75078913  0.52545014  0.80807763  1
  Ti  Ti51  1  0.63081358  0.84453046  0.15304975  1
  Ti  Ti52  1  0.63021516  0.79481729  0.57250162  1
  Ti  Ti53  1  0.68879997  0.81959526  0.87757172  1
  Ti  Ti54  1  0.22321171  -0.00672430  0.09237707  1
  Ti  Ti55  1  0.15397639  0.03060304  0.43763279  1
  Ti  Ti56  1  0.15258419  -0.04432506  0.91385434  1
  Ti  Ti57  1  0.25167695  0.32652237  0.22691549  1
  Ti  Ti58  1  0.18700091  0.36083640  0.45259918  1
  Ti  Ti59  1  0.20608305  0.42329800  0.70356908  1
  Ti  Ti60  1  0.15143507  0.69667325  0.16862492  1
  Ti  Ti61  1  0.01944348  0.68593997  0.53487167  1
  Ti  Ti62  1  0.18355130  0.71601612  0.83038795  1
  Ti  Ti63  1  0.50992556  0.07685233  0.20461022  1
  Ti  Ti64  1  0.53771607  -0.04671260  0.48012026  1
  Ti  Ti65  1  0.48132766  0.01253732  0.77755756  1
  Ti  Ti66  1  0.60018776  0.34600338  0.12916789  1
  Ti  Ti67  1  0.48446261  0.29097566  0.50001361  1
  Ti  Ti68  1  0.47750403  0.28687705  0.83330284  1
  Ti  Ti69  1  0.56893733  0.63001512  0.21914110  1
  Ti  Ti70  1  0.48393755  0.75028824  0.42506722  1
  Ti  Ti71  1  0.49299652  0.61144222  0.79070828  1
  Ti  Ti72  1  0.82208495  -0.06304557  0.18214318  1
  Ti  Ti73  1  0.85743173  0.07456239  0.58279410  1
  Ti  Ti74  1  0.83879562  -0.04620931  0.87509130  1
  Ti  Ti75  1  0.81196249  0.38727871  0.10155763  1
  Ti  Ti76  1  0.90886407  0.31373822  0.56806669  1
  Ti  Ti77  1  0.84648918  0.35276966  0.88992317  1
  Ti  Ti78  1  0.77437482  0.66240591  0.22007555  1
  Ti  Ti79  1  0.82851052  0.66395673  0.54357803  1
  Ti  Ti80  1  0.91886722  0.66146218  0.80595381  1
  Ti  Ti81  1  0.16927268  0.15005439  -0.01670087  1
  Ti  Ti82  1  0.14880302  0.09510135  0.23718673  1
  Ti  Ti83  1  0.11072861  0.13666883  0.67553873  1
  Ti  Ti84  1  0.27733083  0.47688707  0.06104865  1
  Ti  Ti85  1  0.10831683  0.48497463  0.34684774  1
  Ti  Ti86  1  0.11274137  0.52295153  0.56723255  1
  Ti  Ti87  1  0.17365270  0.82093831  0.04227232  1
  Ti  Ti88  1  0.14188293  0.83023578  0.31911124  1
  Ti  Ti89  1  0.15772012  0.81064307  0.60780779  1
  Ti  Ti90  1  0.51793264  0.16379091  -0.01676936  1
  Ti  Ti91  1  0.52157741  0.25034443  0.29568828  1
  Ti  Ti92  1  0.52880522  0.18655230  0.67032343  1
  Ti  Ti93  1  0.57039689  0.48412693  -0.07142603  1
  Ti  Ti94  1  0.47022364  0.53310294  0.36109098  1
  Ti  Ti95  1  0.44446388  0.51065313  0.62692581  1
  Ti  Ti96  1  0.51429954  0.76330933  -0.00639378  1
  Ti  Ti97  1  0.48730865  0.90902813  0.29401671  1
  Ti  Ti98  1  0.51935437  0.82231798  0.79969622  1
  Ti  Ti99  1  0.82408920  0.19595401  0.04066809  1
  Ti  Ti100  1  0.79576217  0.21475154  0.38477291  1
  Ti  Ti101  1  0.76023680  0.20997619  0.66061460  1
  Ti  Ti102  1  0.88084737  0.54802106  -0.03894616  1
  Ti  Ti103  1  0.86440991  0.48375199  0.27079152  1
  Ti  Ti104  1  0.79640084  0.49733161  0.60938211  1
  Ti  Ti105  1  0.86761158  0.76060514  -0.03108326  1
  Ti  Ti106  1  0.83434267  0.91946486  0.41474579  1
  Ti  Ti107  1  0.76445908  0.87017208  0.68290235  1
  Co  Co108  1  0.79411139  0.76898124  0.42455798  1
  Co  Co109  1  0.75750016  0.09450083  0.47115566  1
  Co  Co110  1  0.26519170  0.16119469  0.11867160  1
  Co  Co111  1  0.82766242  0.37277293  0.71611678  1
  Co  Co112  1  0.16124357  0.99598445  0.59082724  1
  Co  Co113  1  0.34563264  0.97485319  0.19996544  1
  Co  Co114  1  0.34313405  0.87416176  0.04944924  1
  Co  Co115  1  0.76181818  0.51858896  0.43742153  1
  Co  Co116  1  0.06113664  0.55162779  0.73038690  1
  Co  Co117  1  0.66671665  0.37548396  0.83726257  1
  Co  Co118  1  0.88379749  0.92278139  0.56203138  1
  Co  Co119  1  0.89075848  0.31682605  0.27779721  1
  Co  Co120  1  0.08274237  0.34529776  0.57913812  1
  Co  Co121  1  0.51381168  0.00607104  0.95221223  1
  Co  Co122  1  0.60003538  0.66552876  0.88668108  1
  Co  Co123  1  0.49125605  0.36433638  0.65216788  1
  Co  Co124  1  0.74471911  0.20109406  0.88723601  1
  Co  Co125  1  0.20115021  0.56173876  0.77971204  1
  Co  Co126  1  0.64098773  0.14259672  0.31307874  1
  Co  Co127  1  -0.07335437  0.60214359  0.65525426  1
  Co  Co128  1  0.77065016  0.67177054  0.86883371  1
  Co  Co129  1  0.87021724  0.11632133  0.89856695  1
  Co  Co130  1  0.88618457  0.90610078  0.04554517  1
  Co  Co131  1  0.34060720  0.85556970  0.34768175  1
  Co  Co132  1  0.61786063  0.50002504  0.70392714  1
  Co  Co133  1  0.43801866  0.69479790  0.13032025  1
  Co  Co134  1  0.48559077  0.92922783  0.11980162  1
  Co  Co135  1  0.64021337  0.19707906  0.77291449  1
  Co  Co136  1  0.03712298  0.91278650  1.05115220  1
  Co  Co137  1  0.44880328  0.44981107  0.48649132  1
  Co  Co138  1  0.35275255  0.13741758  0.24524574  1
  Co  Co139  1  0.21188113  0.61205204  0.30014577  1
  Co  Co140  1  0.86269815  0.23109215  0.78898964  1
  Co  Co141  1  0.29463038  0.62283335  0.13980288  1
  Co  Co142  1  0.42874356  0.87460311  0.91624073  1
  Co  Co143  1  0.72848399  0.82837519  0.27479783  1
  Co  Co144  1  0.97191906  0.45784059  0.62368412  1
  Co  Co145  1  0.91408324  0.48673519  0.77974537  1
  Co  Co146  1  0.57937536  0.60974745  0.05939049  1
  Co  Co147  1  1.06071479  0.63156041  0.87940065  1
  Co  Co148  1  0.30869989  0.48210898  0.27575905  1
  Co  Co149  1  0.70954638  0.94491032  0.52241038  1
  Co  Co150  1  0.36435104  0.72222117  0.84466794  1
  Co  Co151  1  0.26346926  0.11064263  0.61862683  1
  Co  Co152  1  0.11700806  0.27489359  0.83229331  1
  Co  Co153  1  0.14681168  0.27212348  0.12412810  1
  Co  Co154  1  0.39829073  0.08343132  0.05504367  1
  Co  Co155  1  0.38370637  0.14240328  0.77096338  1
  Co  Co156  1  0.19288224  0.54751360  0.93891408  1
  Co  Co157  1  0.22419059  0.27465284  0.59949106  1
  Co  Co158  1  0.64467793  0.84361695  0.42904689  1
  Co  Co159  1  0.87710012  0.78881673  0.28792656  1
  Co  Co160  1  0.79481123  0.07566742  0.76251706  1
  Co  Co161  1  0.49250707  0.42933441  0.79090871  1
  Ni  Ni162  1  0.32863546  0.15466509  0.93324398  1
  Ni  Ni163  1  0.58702411  0.76186849  0.29526772  1
  Ni  Ni164  1  0.55933851  0.45447778  0.25773823  1
  Ni  Ni165  1  0.95291140  0.17268568  0.68495840  1
  Ni  Ni166  1  0.03062341  0.01353064  0.83172592  1
  Ni  Ni167  1  0.44387846  0.60224252  0.95914812  1
  Ni  Ni168  1  0.13857690  0.39586959  0.04191457  1
  Ni  Ni169  1  0.47409704  0.34512575  0.01040750  1
  Ni  Ni170  1  0.99571291  1.04233172  0.49584470  1
  Ni  Ni171  1  0.12824598  0.91468496  0.18584074  1
  Ni  Ni172  1  0.64448531  0.94594800  0.78589110  1
  Ni  Ni173  1  0.11782338  0.63640724  0.42259322  1
  Ni  Ni174  1  0.03479681  0.13601387  0.35489769  1
  Ni  Ni175  1  0.05918038  0.71479651  0.72506289  1
  Ni  Ni176  1  0.40932767  0.10553240  0.59175259  1
  Ni  Ni177  1  0.20871601  0.20878138  0.35854878  1
  Ni  Ni178  1  0.87809044  0.55173478  0.12623822  1
  Ni  Ni179  1  0.27370548  0.84398194  0.90233497  1
  Ni  Ni180  1  0.03351390  0.73448976  0.00016451  1
  Ni  Ni181  1  0.54010118  0.01524700  0.62688545  1
  Ni  Ni182  1  0.04702130  0.12932948  0.11654440  1
  Ni  Ni183  1  0.82040542  0.78582043  0.12423165  1
  Ni  Ni184  1  0.40020470  0.67343647  0.29610053  1
  Ni  Ni185  1  0.60571426  0.18925070  0.13148609  1
  Ni  Ni186  1  0.95430479  0.27426526  0.13391261  1
  Ni  Ni187  1  0.38173778  0.63587111  0.51059789  1
  Ni  Ni188  1  0.31284652  0.41042699  0.55720241  1
  Ni  Ni189  1  0.68808155  0.53393156  0.28620754  1
  Ni  Ni190  1  0.16947653  0.92183778  0.74621238  1
  Ni  Ni191  1  0.20488167  0.87059707  0.46267930  1
  Ni  Ni192  1  0.77914053  0.69375082  0.67756544  1
  Ni  Ni193  1  0.74259120  0.30883164  0.52849731  1
  Ni  Ni194  1  0.01196548  0.38029546  0.43576473  1
  Ni  Ni195  1  0.52913912  0.60212538  0.50042107  1
  Ni  Ni196  1  0.86072196  0.64186927  0.37476248  1
  Ni  Ni197  1  0.64310967  0.28171234  0.41329671  1
  Ni  Ni198  1  0.21758338  0.66898803  0.54539950  1
  Ni  Ni199  1  0.84891907  0.39649053  0.43149820  1
  Ni  Ni200  1  0.72903726  0.45525045  -0.03171086  1
  Ni  Ni201  1  0.85137660  0.80034365  0.80198018  1
  Ni  Ni202  1  0.21857373  0.10116628  0.81867659  1
  Ni  Ni203  1  0.67309060  0.60195391  0.57262268  1
  Ni  Ni204  1  0.42011003  0.39164794  0.21791385  1
  Ni  Ni205  1  0.96280315  0.43708652  1.02095018  1
  Ni  Ni206  1  0.72909027  0.86392307  1.02026377  1
  Ni  Ni207  1  0.79394351  0.03418555  0.03012645  1
  Ni  Ni208  1  0.46437644  0.12316535  0.40165845  1
  Ni  Ni209  1  0.47451183  0.69504484  0.65021711  1
  Ni  Ni210  1  0.23342144  0.40136809  0.88234497  1
  Ni  Ni211  1  0.15129819  0.51338871  0.16870142  1
  Ni  Ni212  1  0.83676455  0.06512766  0.33476944  1
  Ni  Ni213  1  0.49067030  0.86239953  0.63566307  1
  Ni  Ni214  1  0.74139442  0.25072598  0.19954121  1
  Ni  Ni215  1  0.01602768  0.73111860  0.34151472  1
