# generated using pymatgen
data_Ti2CoNi
_symmetry_space_group_name_H-M   'P 1'
_cell_length_a   14.63148286
_cell_length_b   14.64386893
_cell_length_c   14.62840086
_cell_angle_alpha   89.77966000
_cell_angle_beta   90.21235628
_cell_angle_gamma   89.79559827
_symmetry_Int_Tables_number   1
_chemical_formula_structural   Ti2CoNi
_chemical_formula_sum   'Ti108 Co54 Ni54'
_cell_volume   3134.23855374
_cell_formula_units_Z   54
loop_
 _symmetry_equiv_pos_site_id
 _symmetry_equiv_pos_as_xyz
  1  'x, y, z'
loop_
 _atom_site_type_symbol
 _atom_site_label
 _atom_site_symmetry_multiplicity
 _atom_site_fract_x
 _atom_site_fract_y
 _atom_site_fract_z
 _atom_site_occupancy
  Ti  Ti0  1  0.06034098  -0.04897674  0.02519037  1
  Ti  Ti1  1  0.01586075  0.05420783  0.37411927  1
  Ti  Ti2  1  -0.01345257  -0.02819410  0.60298398  1
  Ti  Ti3  1  0.00362736  0.37866750  -0.08306210  1
  Ti  Ti4  1  0.12911741  0.24934895  0.31790641  1
  Ti  Ti5  1  -0.04927491  0.37483972  0.68404205  1
  Ti  Ti6  1  -0.06222664  0.69755493  0.02148696  1
  Ti  Ti7  1  -0.01646867  0.62552313  0.28652876  1
  Ti  Ti8  1  -0.07710769  0.65717323  0.58042130  1
  Ti  Ti9  1  0.27313709  -0.02136828  0.08086973  1
  Ti  Ti10  1  0.32709958  -0.00211512  0.40632762  1
  Ti  Ti11  1  0.33959407  -0.03838706  0.63137650  1
  Ti  Ti12  1  0.29673671  0.35688955  0.00049527  1
  Ti  Ti13  1  0.28865847  0.37081529  0.32238277  1
  Ti  Ti14  1  0.37482787  0.29310628  0.75487768  1
  Ti  Ti15  1  0.39488625  0.69269838  -0.03698147  1
  Ti  Ti16  1  0.35652759  0.68346793  0.29613046  1
  Ti  Ti17  1  0.37171591  0.65577553  0.72967877  1
  Ti  Ti18  1  0.72700404  0.06352020  -0.04267170  1
  Ti  Ti19  1  0.63501863  0.05270956  0.31473604  1
  Ti  Ti20  1  0.66302533  -0.02266704  0.67251437  1
  Ti  Ti21  1  0.67504364  0.35163303  -0.04731076  1
  Ti  Ti22  1  0.70179311  0.31116538  0.30658118  1
  Ti  Ti23  1  0.73131700  0.30989065  0.65018750  1
  Ti  Ti24  1  0.67101973  0.66396589  0.01265109  1
  Ti  Ti25  1  0.67761213  0.60643479  0.30241362  1
  Ti  Ti26  1  0.64894429  0.65548997  0.63886065  1
  Ti  Ti27  1  -0.04366922  0.13402500  0.20725768  1
  Ti  Ti28  1  0.06526989  0.17789890  0.51022072  1
  Ti  Ti29  1  0.07795668  0.09342421  0.88108953  1
  Ti  Ti30  1  0.02146088  0.38734494  0.15464770  1
  Ti  Ti31  1  0.05000074  0.47382149  0.55110156  1
  Ti  Ti32  1  0.06440610  0.52245257  0.79316970  1
  Ti  Ti33  1  -0.04237409  0.82620232  0.16122951  1
  Ti  Ti34  1  0.07149507  0.78807340  0.55987943  1
  Ti  Ti35  1  0.00206470  0.80715452  0.87512089  1
  Ti  Ti36  1  0.41698150  0.24190466  0.12261842  1
  Ti  Ti37  1  0.26124600  0.14812518  0.55438544  1
  Ti  Ti38  1  0.33619943  0.14408988  0.88038291  1
  Ti  Ti39  1  0.35282566  0.58784529  0.12679346  1
  Ti  Ti40  1  0.29200887  0.54242272  0.44333728  1
  Ti  Ti41  1  0.28898251  0.54774155  0.93308403  1
  Ti  Ti42  1  0.28554751  0.86746948  0.24901978  1
  Ti  Ti43  1  0.27366788  0.77697288  0.53869581  1
  Ti  Ti44  1  0.33704429  0.92948897  0.83228109  1
  Ti  Ti45  1  0.64190991  0.19066367  0.13672966  1
  Ti  Ti46  1  0.64575085  0.19417371  0.49336398  1
  Ti  Ti47  1  0.56488770  0.21294388  0.84349625  1
  Ti  Ti48  1  0.65641571  0.48448639  0.12876006  1
  Ti  Ti49  1  0.64057331  0.48601160  0.49653679  1
  Ti  Ti50  1  0.69856303  0.53953020  0.84048743  1
  Ti  Ti51  1  0.63081805  0.85568745  0.08914778  1
  Ti  Ti52  1  0.72539454  0.84433296  0.53892377  1
  Ti  Ti53  1  0.68918171  0.83776041  0.91014905  1
  Ti  Ti54  1  0.14831119  0.04655580  0.21680808  1
  Ti  Ti55  1  0.15235104  0.00081331  0.52814039  1
  Ti  Ti56  1  0.15052193  -0.08039417  0.80530891  1
  Ti  Ti57  1  0.21683908  0.45144971  0.16321184  1
  Ti  Ti58  1  0.22213978  0.34494136  0.50698092  1
  Ti  Ti59  1  0.17809906  0.27879739  0.86536274  1
  Ti  Ti60  1  0.16340655  0.69844400  0.18241664  1
  Ti  Ti61  1  0.12201639  0.63843543  0.45509856  1
  Ti  Ti62  1  0.11604768  0.66846157  0.89686490  1
  Ti  Ti63  1  0.50322777  -0.00485686  0.14648360  1
  Ti  Ti64  1  0.54708378  -0.03980708  0.46757250  1
  Ti  Ti65  1  0.48876850  0.03550345  0.78780990  1
  Ti  Ti66  1  0.54391095  0.35417601  0.21637386  1
  Ti  Ti67  1  0.43744399  0.38750374  0.47929201  1
  Ti  Ti68  1  0.50219715  0.39745311  0.87564311  1
  Ti  Ti69  1  0.49585265  0.74272860  0.17195388  1
  Ti  Ti70  1  0.44389006  0.68912781  0.51979104  1
  Ti  Ti71  1  0.55818066  0.67766138  0.82503574  1
  Ti  Ti72  1  0.72105017  0.01084109  0.13934858  1
  Ti  Ti73  1  0.84726376  -0.05208324  0.42751611  1
  Ti  Ti74  1  0.84986726  0.06926931  0.79934618  1
  Ti  Ti75  1  0.86713306  0.30136196  0.23068304  1
  Ti  Ti76  1  0.90258888  0.31547284  0.48897439  1
  Ti  Ti77  1  0.86397370  0.28187989  0.81241141  1
  Ti  Ti78  1  0.80902713  0.61742866  0.15093399  1
  Ti  Ti79  1  0.81297222  0.70580845  0.42725436  1
  Ti  Ti80  1  0.88673711  0.63649569  0.81088343  1
  Ti  Ti81  1  0.19004043  0.17318630  0.04299325  1
  Ti  Ti82  1  0.29912105  0.16325769  0.25492873  1
  Ti  Ti83  1  0.14519681  0.17243903  0.70184507  1
  Ti  Ti84  1  0.10502321  0.52208028  0.01863046  1
  Ti  Ti85  1  0.11033214  0.46498067  0.34693105  1
  Ti  Ti86  1  0.22153096  0.47042974  0.67672634  1
  Ti  Ti87  1  0.22341903  0.83052634  -0.02303521  1
  Ti  Ti88  1  0.08609580  0.82206001  0.31723948  1
  Ti  Ti89  1  0.16935145  0.73365542  0.72052236  1
  Ti  Ti90  1  0.52869424  0.12249883  -0.00315203  1
  Ti  Ti91  1  0.47412250  0.16260688  0.41488534  1
  Ti  Ti92  1  0.51176872  0.20272576  0.65265608  1
  Ti  Ti93  1  0.46575539  0.45329102  0.04840507  1
  Ti  Ti94  1  0.49586068  0.57010284  0.37777550  1
  Ti  Ti95  1  0.47498189  0.48266653  0.70574030  1
  Ti  Ti96  1  0.42357966  0.86983306  0.02083320  1
  Ti  Ti97  1  0.53208169  0.78778551  0.37003950  1
  Ti  Ti98  1  0.48636431  0.82277247  0.68464142  1
  Ti  Ti99  1  0.83429739  0.23486184  -0.01468196  1
  Ti  Ti100  1  0.81676218  0.15296320  0.38876871  1
  Ti  Ti101  1  0.92646031  0.17425872  0.65299079  1
  Ti  Ti102  1  0.82964446  0.46568799  -0.00687445  1
  Ti  Ti103  1  0.81048429  0.48138510  0.38232178  1
  Ti  Ti104  1  0.79391192  0.51226786  0.67451005  1
  Ti  Ti105  1  0.85770507  0.91430339  -0.01912635  1
  Ti  Ti106  1  0.77369101  0.86542418  0.24094062  1
  Ti  Ti107  1  0.85922096  0.82726069  0.71642983  1
  Co  Co108  1  0.76403830  0.59161144  0.52778866  1
  Co  Co109  1  0.01042118  0.22187839  0.94306385  1
  Co  Co110  1  0.78937229  0.78579277  0.07004370  1
  Co  Co111  1  0.91587074  0.07544934  0.96667767  1
  Co  Co112  1  0.74486180  0.14046774  0.68677172  1
  Co  Co113  1  0.07445317  0.30415047  0.60412808  1
  Co  Co114  1  0.01338515  0.96044681  0.23884678  1
  Co  Co115  1  0.43470420  0.79986919  0.83972502  1
  Co  Co116  1  0.17962131  0.88618040  0.63450502  1
  Co  Co117  1  1.01770326  0.23276992  0.78267741  1
  Co  Co118  1  0.24010801  0.29127635  0.65987925  1
  Co  Co119  1  0.69047107  0.77065836  0.34876999  1
  Co  Co120  1  0.00762811  0.70090623  0.72470649  1
  Co  Co121  1  0.60472184  0.51212144  0.96476318  1
  Co  Co122  1  0.09761389  0.22546499  0.16620265  1
  Co  Co123  1  0.71689259  0.03874395  0.50594766  1
  Co  Co124  1  0.62623628  0.45786409  0.32082103  1
  Co  Co125  1  0.68934863  0.91904213  0.39399841  1
  Co  Co126  1  0.45016457  0.42869384  0.32388196  1
  Co  Co127  1  0.10517033  0.60748098  0.63247954  1
  Co  Co128  1  0.79719401  0.20126740  0.54622176  1
  Co  Co129  1  0.37548383  0.39878392  0.17162384  1
  Co  Co130  1  1.02887144  0.86290969  0.71488920  1
  Co  Co131  1  0.87126327  0.46418524  0.54373449  1
  Co  Co132  1  -0.03275822  0.55518538  0.93399062  1
  Co  Co133  1  0.38655459  0.24840974  0.56321523  1
  Co  Co134  1  0.50401810  0.53420904  0.21243553  1
  Co  Co135  1  0.56777246  0.32483468  0.40253873  1
  Co  Co136  1  0.77006813  0.92948772  0.80635169  1
  Co  Co137  1  0.60379296  0.88637777  0.24831219  1
  Co  Co138  1  0.35352230  0.11536610  0.05887660  1
  Co  Co139  1  0.79420155  0.46537738  0.22113925  1
  Co  Co140  1  0.83894642  0.77734942  0.89169650  1
  Co  Co141  1  0.31537468  0.81696794  0.71647254  1
  Co  Co142  1  0.95725196  0.25761665  0.08606571  1
  Co  Co143  1  0.80935103  0.62631752  0.95813665  1
  Co  Co144  1  0.87805312  0.46306587  0.82405121  1
  Co  Co145  1  0.95578004  0.54016128  0.68199891  1
  Co  Co146  1  0.33703231  0.52478042  0.27460999  1
  Co  Co147  1  0.82564594  0.13307307  0.10208526  1
  Co  Co148  1  0.17674933  0.44148421  0.88237417  1
  Co  Co149  1  0.21964817  0.73167688  0.36574274  1
  Co  Co150  1  0.27224631  0.73793079  0.85776528  1
  Co  Co151  1  0.03231420  0.05642577  0.72581228  1
  Co  Co152  1  0.64834154  0.05508467  0.81794106  1
  Co  Co153  1  0.03904000  0.10403086  0.06969888  1
  Co  Co154  1  0.25767302  0.62438000  0.58655516  1
  Co  Co155  1  0.21616275  0.02920806  0.70750391  1
  Co  Co156  1  0.24473271  0.29062481  0.16079190  1
  Co  Co157  1  0.19368044  0.58834491  0.29971722  1
  Co  Co158  1  0.41581120  1.01277705  0.95286076  1
  Co  Co159  1  0.11085762  0.36509526  0.74697375  1
  Co  Co160  1  0.12891236  0.33711119  0.03066478  1
  Co  Co161  1  0.22715839  0.58949837  0.78268488  1
  Ni  Ni162  1  0.22222173  0.66700041  0.03014331  1
  Ni  Ni163  1  0.85001461  0.01470929  0.27125319  1
  Ni  Ni164  1  0.18567533  0.10343602  0.38837612  1
  Ni  Ni165  1  0.57573396  0.79242479  0.55020861  1
  Ni  Ni166  1  0.72483540  0.70742129  0.78859399  1
  Ni  Ni167  1  0.85101356  0.72451469  0.26544489  1
  Ni  Ni168  1  0.67511539  0.72737444  0.18740940  1
  Ni  Ni169  1  0.54249768  0.76681418  0.97146388  1
  Ni  Ni170  1  0.45433750  0.55466075  0.87427162  1
  Ni  Ni171  1  0.35890842  0.82185034  0.39026828  1
  Ni  Ni172  1  0.52056192  0.61457835  0.06733559  1
  Ni  Ni173  1  0.73210275  0.34517927  0.47347313  1
  Ni  Ni174  1  0.49288358  0.12900880  0.24435410  1
  Ni  Ni175  1  0.58006569  0.34216784  0.56904468  1
  Ni  Ni176  1  0.23051819  0.02714923  0.92998222  1
  Ni  Ni177  1  0.06006816  0.34048485  0.44277336  1
  Ni  Ni178  1  0.46247331  0.94278764  0.31412589  1
  Ni  Ni179  1  0.63573693  0.47724906  0.67270485  1
  Ni  Ni180  1  0.82284195  0.98277637  0.62265663  1
  Ni  Ni181  1  0.07871447  0.54309408  0.18859484  1
  Ni  Ni182  1  0.32617287  0.76667308  0.11974796  1
  Ni  Ni183  1  0.95364379  0.56487603  0.43718371  1
  Ni  Ni184  1  0.40139244  0.54484764  0.57238231  1
  Ni  Ni185  1  0.14231572  0.87637613  0.15518864  1
  Ni  Ni186  1  0.42594213  0.27194797  0.30282351  1
  Ni  Ni187  1  0.35514946  0.39699437  0.61957932  1
  Ni  Ni188  1  0.95226782  0.42632495  0.31616398  1
  Ni  Ni189  1  0.94295095  0.53727523  0.09841389  1
  Ni  Ni190  1  0.57889636  0.96521816  -0.03674343  1
  Ni  Ni191  1  -0.02328427  0.73828858  0.42006899  1
  Ni  Ni192  1  0.35466921  0.12980135  0.70483615  1
  Ni  Ni193  1  0.33707336  0.44065448  0.81819104  1
  Ni  Ni194  1  0.41087455  0.07769343  0.54000589  1
  Ni  Ni195  1  0.72672765  0.38307853  0.79869723  1
  Ni  Ni196  1  0.08106463  0.77333445  0.04117941  1
  Ni  Ni197  1  -0.02625276  0.96307056  0.84939828  1
  Ni  Ni198  1  0.42910096  0.26473821  0.94689636  1
  Ni  Ni199  1  0.76437618  0.34420508  0.10559179  1
  Ni  Ni200  1  0.56829752  0.07356853  0.57963625  1
  Ni  Ni201  1  0.42861746  0.86495582  0.52516629  1
  Ni  Ni202  1  0.90998894  0.09122702  0.50812177  1
  Ni  Ni203  1  0.62195662  0.66010929  0.46376540  1
  Ni  Ni204  1  0.96794475  0.23464219  0.35644709  1
  Ni  Ni205  1  0.91026314  0.98977963  0.11622383  1
  Ni  Ni206  1  0.30559294  0.22429367  0.41271467  1
  Ni  Ni207  1  0.58093442  0.89524907  0.80341494  1
  Ni  Ni208  1  0.57314037  0.33977012  0.73467900  1
  Ni  Ni209  1  0.89547220  0.82757255  0.54141129  1
  Ni  Ni210  1  0.75740111  0.15264435  0.24307047  1
  Ni  Ni211  1  1.01795239  0.90205547  0.44435650  1
  Ni  Ni212  1  0.72701724  0.20131618  0.84692508  1
  Ni  Ni213  1  0.55749616  0.30047542  0.04572790  1
  Ni  Ni214  1  0.19605399  0.87949696  0.42901860  1
  Ni  Ni215  1  0.35354885  0.01849776  0.21999547  1
