# generated using pymatgen
data_Ti2CoNi
_symmetry_space_group_name_H-M   'P 1'
_cell_length_a   14.59234602
_cell_length_b   14.55520254
_cell_length_c   14.66929189
_cell_angle_alpha   89.88812130
_cell_angle_beta   89.94930891
_cell_angle_gamma   89.94849499
_symmetry_Int_Tables_number   1
_chemical_formula_structural   Ti2CoNi
_chemical_formula_sum   'Ti108 Co54 Ni54'
_cell_volume   3115.66926358
_cell_formula_units_Z   54
loop_
 _symmetry_equiv_pos_site_id
 _symmetry_equiv_pos_as_xyz
  1  'x, y, z'
loop_
 _atom_site_type_symbol
 _atom_site_label
 _atom_site_symmetry_multiplicity
 _atom_site_fract_x
 _atom_site_fract_y
 _atom_site_fract_z
 _atom_site_occupancy
  Ti  Ti0  1  -0.05892130  -0.04394195  0.00669848  1
  Ti  Ti1  1  0.03323760  0.05481249  0.31536946  1
  Ti  Ti2  1  0.03953579  -0.05284260  0.79096237  1
  Ti  Ti3  1  0.03723540  0.37831424  0.00443510  1
  Ti  Ti4  1  0.00193205  0.36484465  0.34649182  1
  Ti  Ti5  1  0.04964445  0.42488035  0.64522386  1
  Ti  Ti6  1  0.04335053  0.61915424  0.04147050  1
  Ti  Ti7  1  -0.05702074  0.63648284  0.36064631  1
  Ti  Ti8  1  0.03443598  0.71641881  0.66107956  1
  Ti  Ti9  1  0.28717278  -0.00685551  -0.01024162  1
  Ti  Ti10  1  0.32632216  0.08479682  0.29982401  1
  Ti  Ti11  1  0.23800414  0.00342185  0.72421905  1
  Ti  Ti12  1  0.33936162  0.31162226  -0.05414714  1
  Ti  Ti13  1  0.32164191  0.37692983  0.42752839  1
  Ti  Ti14  1  0.37272430  0.31263106  0.61007289  1
  Ti  Ti15  1  0.36418990  0.66523057  -0.09477554  1
  Ti  Ti16  1  0.37040060  0.65238495  0.37663942  1
  Ti  Ti17  1  0.34695351  0.64984391  0.70511805  1
  Ti  Ti18  1  0.62233113  -0.06214827  0.01590245  1
  Ti  Ti19  1  0.65146663  0.01098791  0.31766554  1
  Ti  Ti20  1  0.68035717  0.01533153  0.65208025  1
  Ti  Ti21  1  0.66156448  0.28201812  -0.06264734  1
  Ti  Ti22  1  0.67376125  0.33894875  0.28553118  1
  Ti  Ti23  1  0.62771435  0.33400791  0.70311684  1
  Ti  Ti24  1  0.64285476  0.62940715  0.00007162  1
  Ti  Ti25  1  0.65804172  0.67297268  0.30859432  1
  Ti  Ti26  1  0.67949458  0.65363332  0.56038462  1
  Ti  Ti27  1  -0.06396835  0.09181853  0.15189761  1
  Ti  Ti28  1  0.01462268  0.11156273  0.55275438  1
  Ti  Ti29  1  -0.01215641  0.17304102  0.83403188  1
  Ti  Ti30  1  0.00680137  0.50745008  0.19891303  1
  Ti  Ti31  1  -0.07885113  0.49207190  0.47678833  1
  Ti  Ti32  1  -0.05250161  0.49879920  0.87797711  1
  Ti  Ti33  1  -0.01097312  0.73171971  0.21721427  1
  Ti  Ti34  1  0.08707817  0.80817853  0.49946456  1
  Ti  Ti35  1  -0.01623992  0.78118695  0.91572691  1
  Ti  Ti36  1  0.33158418  0.24623794  0.15891482  1
  Ti  Ti37  1  0.34790647  0.13253166  0.49924208  1
  Ti  Ti38  1  0.35955211  0.14607385  0.82306256  1
  Ti  Ti39  1  0.33946172  0.53001613  0.20226445  1
  Ti  Ti40  1  0.29930467  0.54989244  0.54043796  1
  Ti  Ti41  1  0.29620647  0.44780241  0.74081250  1
  Ti  Ti42  1  0.34217884  0.88322670  0.18133498  1
  Ti  Ti43  1  0.29274074  0.83892782  0.48386615  1
  Ti  Ti44  1  0.35152283  0.87451295  0.85050528  1
  Ti  Ti45  1  0.65914723  0.09178300  0.14753700  1
  Ti  Ti46  1  0.68459418  0.25459525  0.46349983  1
  Ti  Ti47  1  0.71013278  0.09304736  0.83646566  1
  Ti  Ti48  1  0.69361138  0.51541341  0.15453321  1
  Ti  Ti49  1  0.67170101  0.49123616  0.42804339  1
  Ti  Ti50  1  0.61895998  0.46603416  0.85215273  1
  Ti  Ti51  1  0.66541198  0.84984686  0.19660866  1
  Ti  Ti52  1  0.72176594  0.80497192  0.45402688  1
  Ti  Ti53  1  0.63350717  0.87609512  0.79202978  1
  Ti  Ti54  1  0.13051963  0.01515842  0.13101842  1
  Ti  Ti55  1  0.15964490  -0.03241458  0.42112186  1
  Ti  Ti56  1  0.16929395  0.09593932  0.87242870  1
  Ti  Ti57  1  0.11510207  0.30988459  0.16630531  1
  Ti  Ti58  1  0.10077505  0.28945617  0.51938790  1
  Ti  Ti59  1  0.14289244  0.30060169  0.77495384  1
  Ti  Ti60  1  0.17500878  0.63373917  0.22952985  1
  Ti  Ti61  1  0.10613823  0.60605597  0.49636981  1
  Ti  Ti62  1  0.11189776  0.63191054  0.85475337  1
  Ti  Ti63  1  0.49895892  -0.01230275  0.17030698  1
  Ti  Ti64  1  0.51609617  -0.04374540  0.50781480  1
  Ti  Ti65  1  0.52105267  0.03122711  0.86938743  1
  Ti  Ti66  1  0.50638512  0.35813061  0.17530324  1
  Ti  Ti67  1  0.54627828  0.36865883  0.52289397  1
  Ti  Ti68  1  0.46694101  0.34023027  0.80565234  1
  Ti  Ti69  1  0.42330743  0.66449840  0.08585817  1
  Ti  Ti70  1  0.53055893  0.75589565  0.47673961  1
  Ti  Ti71  1  0.57386688  0.66445122  0.82782148  1
  Ti  Ti72  1  0.85704185  -0.06892970  0.20184842  1
  Ti  Ti73  1  0.83879358  0.00992630  0.48969798  1
  Ti  Ti74  1  0.83690844  -0.06697943  0.78161983  1
  Ti  Ti75  1  0.79099878  0.32109373  0.11287215  1
  Ti  Ti76  1  0.90856910  0.30467714  0.51800504  1
  Ti  Ti77  1  0.79910435  0.37847994  0.81516318  1
  Ti  Ti78  1  0.86507357  0.62612628  0.11206711  1
  Ti  Ti79  1  0.89231434  0.70429211  0.52133320  1
  Ti  Ti80  1  0.79947052  0.74068465  0.84492452  1
  Ti  Ti81  1  0.19266974  0.17467579  0.04388037  1
  Ti  Ti82  1  0.18707829  0.23387832  0.34786678  1
  Ti  Ti83  1  0.20628841  0.16755719  0.63750541  1
  Ti  Ti84  1  0.26302656  0.54001573  0.02162767  1
  Ti  Ti85  1  0.17971847  0.42888620  0.29064957  1
  Ti  Ti86  1  0.16661063  0.58169457  0.68686650  1
  Ti  Ti87  1  0.19937693  0.77064484  -0.04199216  1
  Ti  Ti88  1  0.14690541  0.85110560  0.25521826  1
  Ti  Ti89  1  0.20272031  0.83370631  0.66927990  1
  Ti  Ti90  1  0.48810452  0.15898579  0.05752256  1
  Ti  Ti91  1  0.52037575  0.12522787  0.38901162  1
  Ti  Ti92  1  0.48870559  0.11678480  0.66276731  1
  Ti  Ti93  1  0.45925004  0.49162283  -0.04178979  1
  Ti  Ti94  1  0.45983956  0.45354398  0.33677772  1
  Ti  Ti95  1  0.50907748  0.59603354  0.61249569  1
  Ti  Ti96  1  0.50795363  0.80075552  -0.05148420  1
  Ti  Ti97  1  0.48256957  0.77426363  0.25829318  1
  Ti  Ti98  1  0.42787384  0.83569948  0.65302151  1
  Ti  Ti99  1  0.82134764  0.14893973  0.00878750  1
  Ti  Ti100  1  0.86076105  0.23197261  0.33310305  1
  Ti  Ti101  1  0.85762927  0.25116854  0.68601761  1
  Ti  Ti102  1  0.77396662  0.47949104  -0.02056396  1
  Ti  Ti103  1  0.83107789  0.46255376  0.28612974  1
  Ti  Ti104  1  0.82220625  0.62083808  0.68629991  1
  Ti  Ti105  1  0.79050458  0.80666438  0.03447869  1
  Ti  Ti106  1  0.95699679  0.86820432  0.35551930  1
  Ti  Ti107  1  0.78985569  0.83447116  0.63250554  1
  Co  Co108  1  0.15837436  0.12437329  0.46459153  1
  Co  Co109  1  0.25237545  0.25963614  0.50474140  1
  Co  Co110  1  0.28910958  0.92653876  0.32420441  1
  Co  Co111  1  0.63710809  0.58003110  0.71709944  1
  Co  Co112  1  0.09833812  0.46596938  0.80025168  1
  Co  Co113  1  0.59724145  0.85674680  0.35723787  1
  Co  Co114  1  0.09419704  0.95977611  0.61237540  1
  Co  Co115  1  0.14913531  0.48845193  0.12868738  1
  Co  Co116  1  0.77729294  0.91601271  0.34805667  1
  Co  Co117  1  0.79076225  0.51625588  0.55770371  1
  Co  Co118  1  0.83177480  0.77961473  0.20483029  1
  Co  Co119  1  0.50400032  0.83428944  0.10586302  1
  Co  Co120  1  0.60331833  0.49891055  0.27715209  1
  Co  Co121  1  0.83595019  0.75969589  0.35659333  1
  Co  Co122  1  0.79963134  0.37438308  0.41928545  1
  Co  Co123  1  0.87121315  0.05348878  0.32559190  1
  Co  Co124  1  0.18841236  0.90292838  0.85164903  1
  Co  Co125  1  0.66796031  0.79067328  0.92463409  1
  Co  Co126  1  0.09308387  0.78447196  0.79430065  1
  Co  Co127  1  0.74635317  0.47117546  0.70767843  1
  Co  Co128  1  0.32589288  0.37274347  0.25501091  1
  Co  Co129  1  0.63375266  0.42120087  0.02976013  1
  Co  Co130  1  0.63215116  0.47816266  0.59500518  1
  Co  Co131  1  0.47326890  0.97354770  0.32014733  1
  Co  Co132  1  0.53046953  0.95694334  0.69554270  1
  Co  Co133  1  0.88587046  0.64310984  0.95507361  1
  Co  Co134  1  0.80951890  0.62116812  0.26530982  1
  Co  Co135  1  0.68794023  0.73540180  0.71939900  1
  Co  Co136  1  0.36814485  -0.01287211  0.44476418  1
  Co  Co137  1  0.94642588  0.78968826  0.07115009  1
  Co  Co138  1  0.39658296  0.00103583  0.76535325  1
  Co  Co139  1  0.99492887  0.96271328  0.47995421  1
  Co  Co140  1  0.57029693  0.68235276  0.14381185  1
  Co  Co141  1  0.25982606  0.53520223  0.37742700  1
  Co  Co142  1  0.72104962  0.69091611  0.13704592  1
  Co  Co143  1  0.38547057  0.98531408  0.60871141  1
  Co  Co144  1  0.78165277  0.62128899  0.42814877  1
  Co  Co145  1  0.50173634  0.33633891  1.00542880  1
  Co  Co146  1  0.11088683  0.96929159  0.97155099  1
  Co  Co147  1  0.37374687  0.41251769  0.08456397  1
  Co  Co148  1  0.25084792  0.74026506  0.79625398  1
  Co  Co149  1  0.21285853  0.39369902  0.89068439  1
  Co  Co150  1  0.01550710  0.91185730  0.16970316  1
  Co  Co151  1  0.92829186  0.80451006  0.75234699  1
  Co  Co152  1  0.44395814  0.75050519  0.78941511  1
  Co  Co153  1  0.86966091  0.33794956  0.96300964  1
  Co  Co154  1  0.12119608  0.50460984  0.95912784  1
  Co  Co155  1  0.89025152  0.41927869  0.65858280  1
  Co  Co156  1  0.25673589  0.55784576  0.84978642  1
  Co  Co157  1  0.34378233  0.14845546  0.98300007  1
  Co  Co158  1  0.42142078  0.83867930  0.38956306  1
  Co  Co159  1  0.48131251  0.60399235  0.25142517  1
  Co  Co160  1  0.27975010  0.76552186  0.30888683  1
  Co  Co161  1  0.21680999  0.35696822  0.04937098  1
  Ni  Ni162  1  0.74980808  0.35274035  0.58520932  1
  Ni  Ni163  1  0.53636751  0.29883912  0.36899376  1
  Ni  Ni164  1  0.38425953  0.70663271  0.54271404  1
  Ni  Ni165  1  0.02511475  0.11003546  -0.00356649  1
  Ni  Ni166  1  0.10731881  0.25202242  0.93208347  1
  Ni  Ni167  1  0.73452468  0.19017876  0.24413929  1
  Ni  Ni168  1  0.47243345  0.43912351  0.66480418  1
  Ni  Ni169  1  0.33483976  0.07514955  0.13353516  1
  Ni  Ni170  1  0.97045401  0.34408872  0.79863213  1
  Ni  Ni171  1  0.35323343  0.81476454  0.01968329  1
  Ni  Ni172  1  0.53393189  0.59840187  0.41425360  1
  Ni  Ni173  1  0.17914954  0.14858181  0.21234388  1
  Ni  Ni174  1  0.82413348  0.09458668  0.71767433  1
  Ni  Ni175  1  0.43964906  0.48655451  0.49740420  1
  Ni  Ni176  1  0.49945387  0.20373017  0.90326017  1
  Ni  Ni177  1  0.22002605  0.70302385  0.57221700  1
  Ni  Ni178  1  -0.02909197  0.56936108  0.61669221  1
  Ni  Ni179  1  0.52056179  0.51618310  0.11264946  1
  Ni  Ni180  1  0.68115633  0.96195394  0.48604312  1
  Ni  Ni181  1  0.64358407  0.11448131  0.98500102  1
  Ni  Ni182  1  0.76039807  0.57507857  0.84261482  1
  Ni  Ni183  1  0.77221395  -0.00612580  0.07814580  1
  Ni  Ni184  1  0.30544214  0.28076359  0.75561025  1
  Ni  Ni185  1  0.93464304  0.35417718  0.19101776  1
  Ni  Ni186  1  0.02452452  0.24446660  0.66535677  1
  Ni  Ni187  1  0.10992276  0.75277736  0.10555920  1
  Ni  Ni188  1  0.20801129  0.87608963  0.08451448  1
  Ni  Ni189  1  0.82657816  0.21606010  0.85578363  1
  Ni  Ni190  1  0.23876179  0.00340891  0.55640903  1
  Ni  Ni191  1  0.27721440  0.72553719  0.14097390  1
  Ni  Ni192  1  0.45137667  0.53931412  0.79388092  1
  Ni  Ni193  1  0.61817782  0.84350428  0.60535087  1
  Ni  Ni194  1  0.07753218  0.09382794  0.71505317  1
  Ni  Ni195  1  0.38391976  0.24067008  0.33929219  1
  Ni  Ni196  1  0.48535972  0.15240912  0.22598850  1
  Ni  Ni197  1  0.09680449  0.72399529  0.35821976  1
  Ni  Ni198  1  0.58915447  0.18711871  0.77248521  1
  Ni  Ni199  1  0.01185561  0.21088016  0.24239207  1
  Ni  Ni200  1  0.62111577  0.10858517  0.52849268  1
  Ni  Ni201  1  0.49505234  0.21575363  0.52612524  1
  Ni  Ni202  1  0.95334396  0.85185397  0.59378398  1
  Ni  Ni203  1  0.95451444  0.23992021  0.07583587  1
  Ni  Ni204  1  0.88599158  0.05451656  0.88163930  1
  Ni  Ni205  1  0.21057549  0.41760639  0.58242158  1
  Ni  Ni206  1  0.76293602  0.94268886  0.92498950  1
  Ni  Ni207  1  0.94909520  0.64481970  0.79696783  1
  Ni  Ni208  1  0.07968357  0.55080352  0.34294276  1
  Ni  Ni209  1  0.73897815  0.11543094  0.40269937  1
  Ni  Ni210  1  0.62912498  0.25899766  0.11164250  1
  Ni  Ni211  1  0.44745847  0.96092126  1.00582353  1
  Ni  Ni212  1  0.93523973  -0.00128209  0.65109849  1
  Ni  Ni213  1  1.01427327  0.20137151  0.40596723  1
  Ni  Ni214  1  0.09334646  0.44271616  0.46329475  1
  Ni  Ni215  1  0.91247080  0.46978976  0.06462242  1
