# generated using pymatgen
data_Ti2CoNi
_symmetry_space_group_name_H-M   'P 1'
_cell_length_a   14.50694322
_cell_length_b   14.53598259
_cell_length_c   14.53699403
_cell_angle_alpha   89.85237278
_cell_angle_beta   90.25270034
_cell_angle_gamma   90.05915099
_symmetry_Int_Tables_number   1
_chemical_formula_structural   Ti2CoNi
_chemical_formula_sum   'Ti108 Co54 Ni54'
_cell_volume   3065.41321451
_cell_formula_units_Z   54
loop_
 _symmetry_equiv_pos_site_id
 _symmetry_equiv_pos_as_xyz
  1  'x, y, z'
loop_
 _atom_site_type_symbol
 _atom_site_label
 _atom_site_symmetry_multiplicity
 _atom_site_fract_x
 _atom_site_fract_y
 _atom_site_fract_z
 _atom_site_occupancy
  Ti  Ti0  1  0.00280266  -0.04283974  -0.09014179  1
  Ti  Ti1  1  0.01345614  0.07609609  0.36735212  1
  Ti  Ti2  1  -0.00093578  -0.03372633  0.67580854  1
  Ti  Ti3  1  0.06900421  0.34037316  -0.06525404  1
  Ti  Ti4  1  -0.06504662  0.33269947  0.35452697  1
  Ti  Ti5  1  -0.00434446  0.32069852  0.59746948  1
  Ti  Ti6  1  -0.00835640  0.71041902  0.03795970  1
  Ti  Ti7  1  -0.01517117  0.72723364  0.22444595  1
  Ti  Ti8  1  -0.01055926  0.65539803  0.60095499  1
  Ti  Ti9  1  0.32123605  -0.02374483  -0.01856706  1
  Ti  Ti10  1  0.30166619  0.04151659  0.34154352  1
  Ti  Ti11  1  0.31211086  0.02513517  0.65264596  1
  Ti  Ti12  1  0.33994034  0.28781589  0.02786361  1
  Ti  Ti13  1  0.26442933  0.35075102  0.31279437  1
  Ti  Ti14  1  0.31377697  0.33841106  0.53321075  1
  Ti  Ti15  1  0.32323706  0.58114938  -0.03457742  1
  Ti  Ti16  1  0.23805518  0.57355799  0.34834921  1
  Ti  Ti17  1  0.34688678  0.61559824  0.61818394  1
  Ti  Ti18  1  0.68929616  -0.00960528  0.00149270  1
  Ti  Ti19  1  0.69446023  0.02989835  0.32326213  1
  Ti  Ti20  1  0.60373588  0.00425603  0.62510793  1
  Ti  Ti21  1  0.70687037  0.37653986  0.02680604  1
  Ti  Ti22  1  0.71915682  0.29517051  0.39950842  1
  Ti  Ti23  1  0.70858449  0.34313422  0.70897029  1
  Ti  Ti24  1  0.64329153  0.68976049  -0.01524285  1
  Ti  Ti25  1  0.67390312  0.71690783  0.42501621  1
  Ti  Ti26  1  0.68807485  0.70394737  0.69325004  1
  Ti  Ti27  1  -0.02757080  0.16125650  0.21968027  1
  Ti  Ti28  1  0.01674362  0.13646272  0.53672847  1
  Ti  Ti29  1  0.04932936  0.16633775  0.88574727  1
  Ti  Ti30  1  0.00017559  0.42449362  0.19582138  1
  Ti  Ti31  1  -0.06101949  0.50809273  0.48243786  1
  Ti  Ti32  1  0.06424676  0.49916388  0.80727344  1
  Ti  Ti33  1  -0.06343250  0.89306946  0.15251621  1
  Ti  Ti34  1  -0.03455183  0.82723776  0.50819578  1
  Ti  Ti35  1  0.06043120  0.78051912  0.83381326  1
  Ti  Ti36  1  0.35505557  0.20116999  0.21247889  1
  Ti  Ti37  1  0.31503922  0.15147447  0.49507519  1
  Ti  Ti38  1  0.26876644  0.13776839  0.91915590  1
  Ti  Ti39  1  0.34309207  0.50409686  0.21368838  1
  Ti  Ti40  1  0.39736443  0.47334556  0.42084414  1
  Ti  Ti41  1  0.42369184  0.39836100  0.89323489  1
  Ti  Ti42  1  0.30422626  0.76112070  0.27071594  1
  Ti  Ti43  1  0.31389872  0.78306152  0.52504754  1
  Ti  Ti44  1  0.41801107  0.83659878  0.88695881  1
  Ti  Ti45  1  0.70807324  0.18256803  0.03394788  1
  Ti  Ti46  1  0.62555157  0.20302498  0.57823804  1
  Ti  Ti47  1  0.70537529  0.13675637  0.84817970  1
  Ti  Ti48  1  0.71791838  0.38229392  0.23300372  1
  Ti  Ti49  1  0.64923603  0.51485857  0.49289085  1
  Ti  Ti50  1  0.60866609  0.52599382  0.78962126  1
  Ti  Ti51  1  0.64805092  0.78617448  0.22859818  1
  Ti  Ti52  1  0.62030802  0.87674026  0.40752532  1
  Ti  Ti53  1  0.63857131  0.88911894  0.83878653  1
  Ti  Ti54  1  0.15742973  -0.01745456  0.12951593  1
  Ti  Ti55  1  0.22167168  -0.03208467  0.50003591  1
  Ti  Ti56  1  0.17777122  0.00883296  0.78421554  1
  Ti  Ti57  1  0.19054096  0.33545456  0.12124939  1
  Ti  Ti58  1  0.13603408  0.39039390  0.51577620  1
  Ti  Ti59  1  0.25653147  0.36983748  0.80845180  1
  Ti  Ti60  1  0.18731173  0.66571256  0.12126934  1
  Ti  Ti61  1  0.16163670  0.72338194  0.46840027  1
  Ti  Ti62  1  0.25588013  0.72024791  0.80715926  1
  Ti  Ti63  1  0.46564635  0.03812421  0.13828662  1
  Ti  Ti64  1  0.45532152  -0.05713544  0.45966650  1
  Ti  Ti65  1  0.51687487  0.05562842  0.84485550  1
  Ti  Ti66  1  0.52544644  0.36200284  0.11800706  1
  Ti  Ti67  1  0.52154524  0.35130212  0.49913839  1
  Ti  Ti68  1  0.54613889  0.29820099  0.77863346  1
  Ti  Ti69  1  0.51942201  0.63221960  0.13898635  1
  Ti  Ti70  1  0.51781021  0.70003611  0.51988460  1
  Ti  Ti71  1  0.55720026  0.70480230  0.83786149  1
  Ti  Ti72  1  0.83935578  0.06422937  0.13813762  1
  Ti  Ti73  1  0.85940913  -0.00193927  0.46941115  1
  Ti  Ti74  1  0.89743610  0.06239560  0.82894041  1
  Ti  Ti75  1  0.83858796  0.28859040  0.15710575  1
  Ti  Ti76  1  0.80639496  0.41663231  0.56808179  1
  Ti  Ti77  1  0.86860479  0.32047733  0.75594603  1
  Ti  Ti78  1  0.71815410  0.60482632  0.16093190  1
  Ti  Ti79  1  0.80098344  0.62753816  0.56201682  1
  Ti  Ti80  1  0.80712793  0.59779797  0.86327589  1
  Ti  Ti81  1  0.08628881  0.18110421  0.06574821  1
  Ti  Ti82  1  0.16587539  0.16414994  0.24781260  1
  Ti  Ti83  1  0.15129002  0.22423988  0.71931755  1
  Ti  Ti84  1  0.13722714  0.61866508  -0.07075836  1
  Ti  Ti85  1  0.03786783  0.56569600  0.32519257  1
  Ti  Ti86  1  0.16967730  0.55523705  0.64081229  1
  Ti  Ti87  1  0.13053564  0.82246104  0.01839441  1
  Ti  Ti88  1  0.14591130  0.89027038  0.34176098  1
  Ti  Ti89  1  0.18077214  0.88458220  0.65635024  1
  Ti  Ti90  1  0.54033077  0.25383605  -0.05240694  1
  Ti  Ti91  1  0.53475411  0.17849411  0.26472086  1
  Ti  Ti92  1  0.44508611  0.15633727  0.70100700  1
  Ti  Ti93  1  0.51752133  0.54495908  -0.01191896  1
  Ti  Ti94  1  0.54035188  0.47370613  0.27504452  1
  Ti  Ti95  1  0.41207552  0.49142581  0.72336941  1
  Ti  Ti96  1  0.45280593  0.80665502  0.10575682  1
  Ti  Ti97  1  0.47622247  0.79095993  0.34247731  1
  Ti  Ti98  1  0.49777315  0.78075853  0.67849571  1
  Ti  Ti99  1  0.86363259  0.27578442  -0.07085572  1
  Ti  Ti100  1  0.85077761  0.15619339  0.35912672  1
  Ti  Ti101  1  0.91394873  0.16495163  0.67345952  1
  Ti  Ti102  1  0.95176715  0.50611415  0.00383038  1
  Ti  Ti103  1  0.81823449  0.63417356  0.34631500  1
  Ti  Ti104  1  0.87507551  0.53239954  0.70968428  1
  Ti  Ti105  1  0.76001123  0.81725950  0.02651050  1
  Ti  Ti106  1  0.83003323  0.83413579  0.31532561  1
  Ti  Ti107  1  0.83537675  0.82288759  0.67430503  1
  Co  Co108  1  0.74640557  0.75576212  0.84270612  1
  Co  Co109  1  0.05223992  0.99188112  0.22618544  1
  Co  Co110  1  0.62285412  0.14612852  0.72127026  1
  Co  Co111  1  0.26702346  0.54139605  0.80983297  1
  Co  Co112  1  0.17904032  0.25665156  0.39765311  1
  Co  Co113  1  0.29071594  0.44087284  0.64674057  1
  Co  Co114  1  0.55596021  0.32492318  0.30901939  1
  Co  Co115  1  1.02623123  0.79686064  0.68042521  1
  Co  Co116  1  0.15971266  0.10632519  0.43304990  1
  Co  Co117  1  0.19836558  0.26821575  0.95980536  1
  Co  Co118  1  0.56577669  0.20352823  0.41887816  1
  Co  Co119  1  0.17429003  0.47264508  0.22566602  1
  Co  Co120  1  0.09673927  0.46330658  0.05323303  1
  Co  Co121  1  0.15870981  0.68760733  0.28786626  1
  Co  Co122  1  0.21998663  0.42867451  0.93257419  1
  Co  Co123  1  0.76336374  0.44462572  0.83212900  1
  Co  Co124  1  0.91368305  0.59640811  0.18477603  1
  Co  Co125  1  0.52381609  0.59454269  0.41514870  1
  Co  Co126  1  0.80816721  0.78491513  0.48059502  1
  Co  Co127  1  0.63842498  0.25308684  0.13961843  1
  Co  Co128  1  0.15203562  0.23836358  0.55095833  1
  Co  Co129  1  0.90525766  0.69558359  0.74337165  1
  Co  Co130  1  1.01690603  0.47572232  0.63126656  1
  Co  Co131  1  0.91460751  0.87756933  0.78546175  1
  Co  Co132  1  0.78651500  0.93588434  0.85674019  1
  Co  Co133  1  0.63069860  0.47612709  0.12501808  1
  Co  Co134  1  0.09034118  0.42962559  0.36822634  1
  Co  Co135  1  0.45020720  0.09320711  0.38777946  1
  Co  Co136  1  0.15447509  0.07635471  0.61963326  1
  Co  Co137  1  0.82375143  0.10536899  -0.04737873  1
  Co  Co138  1  0.85957847  0.95714980  0.01060853  1
  Co  Co139  1  0.04742384  0.10126842  0.74753100  1
  Co  Co140  1  0.70352020  0.29991915  0.88176453  1
  Co  Co141  1  0.07968499  0.65501164  0.76078403  1
  Co  Co142  1  0.39987758  0.34826618  0.22210342  1
  Co  Co143  1  0.04136200  0.77108167  0.38437273  1
  Co  Co144  1  0.06556230  0.57978233  0.14243396  1
  Co  Co145  1  0.91949985  0.43472847  0.85711812  1
  Co  Co146  1  0.00512496  0.01594165  0.05338772  1
  Co  Co147  1  0.08016246  0.29894773  0.23993017  1
  Co  Co148  1  0.11625527  0.82856837  0.19083755  1
  Co  Co149  1  0.45628237  0.23044276  0.56742529  1
  Co  Co150  1  0.41022581  0.25970988  0.39077522  1
  Co  Co151  1  0.71329367  0.09669289  0.47752994  1
  Co  Co152  1  0.49050800  0.53125778  0.54997111  1
  Co  Co153  1  0.92177434  0.67736170  0.44052225  1
  Co  Co154  1  0.09774689  0.57630234  0.48321789  1
  Co  Co155  1  0.26049773  0.50792852  0.49456022  1
  Co  Co156  1  0.82004458  0.63540196  0.02760624  1
  Co  Co157  1  0.46650688  0.07055338  0.55949755  1
  Co  Co158  1  0.39209375  0.68774891  0.75036024  1
  Co  Co159  1  0.52968700  0.61076853  0.68627852  1
  Co  Co160  1  0.98208765  0.91277093  0.36249714  1
  Co  Co161  1  0.24508357  0.51089656  0.07822775  1
  Ni  Ni162  1  0.40705210  0.13651319  -0.00019482  1
  Ni  Ni163  1  0.14179674  0.39903992  0.68806847  1
  Ni  Ni164  1  0.20343043  0.87329461  0.87600220  1
  Ni  Ni165  1  -0.03199269  0.63926384  0.89509315  1
  Ni  Ni166  1  0.63755880  0.81094552  0.56312657  1
  Ni  Ni167  1  0.68613919  0.55788192  0.33758423  1
  Ni  Ni168  1  0.59536673  0.40438186  0.91263108  1
  Ni  Ni169  1  0.49628530  0.94735638  0.98726044  1
  Ni  Ni170  1  0.34949696  0.66484932  0.12430689  1
  Ni  Ni171  1  0.76952254  0.05235512  0.72122574  1
  Ni  Ni172  1  0.84789005  0.47269841  0.26028434  1
  Ni  Ni173  1  0.06416730  0.95831811  0.50879964  1
  Ni  Ni174  1  1.03016248  0.33710028  0.76377416  1
  Ni  Ni175  1  0.32696693  0.87412997  0.39195315  1
  Ni  Ni176  1  0.81047460  0.73843751  0.16272815  1
  Ni  Ni177  1  0.17808882  0.71989150  0.64074271  1
  Ni  Ni178  1  0.72196800  0.18497713  0.25653052  1
  Ni  Ni179  1  0.23582250  0.14730190  0.09069702  1
  Ni  Ni180  1  0.57221416  0.43673028  0.64941913  1
  Ni  Ni181  1  0.28851913  0.87385568  0.12177322  1
  Ni  Ni182  1  0.56274813  0.10949685  0.98333286  1
  Ni  Ni183  1  0.81443969  0.47007867  0.10125281  1
  Ni  Ni184  1  0.98987312  0.31357471  0.09636524  1
  Ni  Ni185  1  0.93526681  0.17098764  1.02490901  1
  Ni  Ni186  1  0.79205705  0.45215492  0.41242082  1
  Ni  Ni187  1  0.58954357  0.83716167  1.00221920  1
  Ni  Ni188  1  0.51549278  0.91831500  0.73685714  1
  Ni  Ni189  1  0.88921777  0.79798127  0.92803812  1
  Ni  Ni190  1  0.40286854  0.21584376  0.85275606  1
  Ni  Ni191  1  0.53759261  0.99147621  0.30477859  1
  Ni  Ni192  1  0.31909218  0.89134952  0.75465978  1
  Ni  Ni193  1  0.41108809  0.32794564  0.68823374  1
  Ni  Ni194  1  0.74120090  0.93295425  0.53916223  1
  Ni  Ni195  1  0.59462224  0.92550906  0.14668923  1
  Ni  Ni196  1  0.68955752  0.52995808  0.96772140  1
  Ni  Ni197  1  0.43908592  0.57525281  0.84659415  1
  Ni  Ni198  1  0.87259234  0.00513115  0.28609242  1
  Ni  Ni199  1  0.29079928  0.20574470  0.65783319  1
  Ni  Ni200  1  0.39449614  0.90495303  0.25012865  1
  Ni  Ni201  1  0.35087187  0.02314960  0.84028879  1
  Ni  Ni202  1  0.57017018  0.66320290  0.28788101  1
  Ni  Ni203  1  0.30094680  0.02962401  0.18786410  1
  Ni  Ni204  1  0.42064210  0.62754694  0.29953401  1
  Ni  Ni205  1  0.35553246  0.64909743  0.44539314  1
  Ni  Ni206  1  0.76881603  0.91119206  0.16123004  1
  Ni  Ni207  1  0.63242967  0.07885507  0.16704617  1
  Ni  Ni208  1  0.28632455  0.75547391  0.98520604  1
  Ni  Ni209  1  0.70839592  0.53410552  0.66657093  1
  Ni  Ni210  1  0.38919556  0.88949120  0.61258031  1
  Ni  Ni211  1  0.78384201  0.22219563  0.58978393  1
  Ni  Ni212  1  0.85287396  -0.01016131  0.62718550  1
  Ni  Ni213  1  0.88491642  0.25206377  0.48853554  1
  Ni  Ni214  1  0.38465714  0.44714544  0.07325224  1
  Ni  Ni215  1  0.14533280  0.03596054  0.97114312  1
