# generated using pymatgen
data_Ti2CoNi
_symmetry_space_group_name_H-M   'P 1'
_cell_length_a   14.57657649
_cell_length_b   14.65301831
_cell_length_c   14.70140619
_cell_angle_alpha   90.00276054
_cell_angle_beta   89.88798240
_cell_angle_gamma   89.92881890
_symmetry_Int_Tables_number   1
_chemical_formula_structural   Ti2CoNi
_chemical_formula_sum   'Ti108 Co54 Ni54'
_cell_volume   3140.07730221
_cell_formula_units_Z   54
loop_
 _symmetry_equiv_pos_site_id
 _symmetry_equiv_pos_as_xyz
  1  'x, y, z'
loop_
 _atom_site_type_symbol
 _atom_site_label
 _atom_site_symmetry_multiplicity
 _atom_site_fract_x
 _atom_site_fract_y
 _atom_site_fract_z
 _atom_site_occupancy
  Ti  Ti0  1  0.02169288  0.04610091  -0.05814056  1
  Ti  Ti1  1  0.03420316  -0.00854878  0.30390179  1
  Ti  Ti2  1  -0.07479565  -0.04376867  0.74709575  1
  Ti  Ti3  1  -0.00385331  0.36743727  0.02862393  1
  Ti  Ti4  1  0.02892636  0.35749566  0.29957535  1
  Ti  Ti5  1  -0.02775534  0.36064369  0.62488654  1
  Ti  Ti6  1  0.02250812  0.75457639  0.01302776  1
  Ti  Ti7  1  0.07206349  0.65797074  0.31803381  1
  Ti  Ti8  1  0.08097746  0.64172014  0.72238589  1
  Ti  Ti9  1  0.31517067  0.04092796  -0.06167637  1
  Ti  Ti10  1  0.28713614  0.00466495  0.37860195  1
  Ti  Ti11  1  0.31591809  -0.06072178  0.66984441  1
  Ti  Ti12  1  0.38497653  0.24162940  0.01230888  1
  Ti  Ti13  1  0.28109593  0.32695750  0.39886589  1
  Ti  Ti14  1  0.32709739  0.37260650  0.73711556  1
  Ti  Ti15  1  0.31365770  0.61085986  -0.01476195  1
  Ti  Ti16  1  0.31902866  0.62815423  0.42521433  1
  Ti  Ti17  1  0.35383665  0.62735234  0.63610941  1
  Ti  Ti18  1  0.66773560  -0.03419057  0.04085018  1
  Ti  Ti19  1  0.59626523  0.02265537  0.31992357  1
  Ti  Ti20  1  0.62698394  -0.05109432  0.62071776  1
  Ti  Ti21  1  0.61774177  0.44005599  0.01896964  1
  Ti  Ti22  1  0.68882015  0.30385101  0.44175408  1
  Ti  Ti23  1  0.69818238  0.34359811  0.68634475  1
  Ti  Ti24  1  0.66670301  0.62905013  0.03659583  1
  Ti  Ti25  1  0.62241283  0.72904064  0.33002018  1
  Ti  Ti26  1  0.69522972  0.59541470  0.71135950  1
  Ti  Ti27  1  -0.04381957  0.09094720  0.13900654  1
  Ti  Ti28  1  -0.00948244  0.14190152  0.57612667  1
  Ti  Ti29  1  0.05118485  0.22069458  0.74664568  1
  Ti  Ti30  1  -0.02298964  0.59293796  0.15239834  1
  Ti  Ti31  1  -0.08090380  0.43454599  0.45915185  1
  Ti  Ti32  1  0.14230801  0.49041658  0.83259950  1
  Ti  Ti33  1  -0.02589492  0.89194750  0.15169873  1
  Ti  Ti34  1  0.00032511  0.85004692  0.43209117  1
  Ti  Ti35  1  -0.06539257  0.76698279  0.83470643  1
  Ti  Ti36  1  0.32452634  0.09447611  0.17467391  1
  Ti  Ti37  1  0.38465092  0.17894638  0.43869968  1
  Ti  Ti38  1  0.33498377  0.18602779  0.82397293  1
  Ti  Ti39  1  0.37290898  0.54308639  0.19326917  1
  Ti  Ti40  1  0.36017449  0.45113540  0.54901013  1
  Ti  Ti41  1  0.39255942  0.53652536  0.82193019  1
  Ti  Ti42  1  0.29928271  0.79505047  0.15408877  1
  Ti  Ti43  1  0.39938640  0.89433812  0.50936057  1
  Ti  Ti44  1  0.35448606  0.87148197  0.85786444  1
  Ti  Ti45  1  0.72685183  0.27966081  0.09796857  1
  Ti  Ti46  1  0.69124677  0.08483083  0.47701118  1
  Ti  Ti47  1  0.75219881  0.20111707  0.80298596  1
  Ti  Ti48  1  0.62714039  0.55058122  0.21904345  1
  Ti  Ti49  1  0.66421421  0.47339620  0.54201323  1
  Ti  Ti50  1  0.69004100  0.43373711  0.83620481  1
  Ti  Ti51  1  0.75340870  0.86941225  0.18948932  1
  Ti  Ti52  1  0.72084796  0.88151514  0.46748330  1
  Ti  Ti53  1  0.64756495  0.81620497  0.76042979  1
  Ti  Ti54  1  0.15539269  -0.02162847  0.12487341  1
  Ti  Ti55  1  0.11607806  0.02143204  0.47507036  1
  Ti  Ti56  1  0.18608659  -0.01273133  0.80562630  1
  Ti  Ti57  1  0.17470351  0.32817131  0.13715476  1
  Ti  Ti58  1  0.11666160  0.37792913  0.48372708  1
  Ti  Ti59  1  0.18700467  0.30598026  0.89473746  1
  Ti  Ti60  1  0.18791184  0.61498925  0.15253581  1
  Ti  Ti61  1  0.16131678  0.65119261  0.53723114  1
  Ti  Ti62  1  0.17654285  0.72601147  0.87489680  1
  Ti  Ti63  1  0.47984378  -0.02319580  0.15644625  1
  Ti  Ti64  1  0.50067162  0.04106023  0.48286260  1
  Ti  Ti65  1  0.57301574  0.02816309  0.78564991  1
  Ti  Ti66  1  0.53707485  0.37124443  0.21960981  1
  Ti  Ti67  1  0.49612154  0.36484044  0.42849461  1
  Ti  Ti68  1  0.57135135  0.27956612  0.89537806  1
  Ti  Ti69  1  0.52933954  0.71254146  0.17790209  1
  Ti  Ti70  1  0.49309427  0.71258187  0.46642941  1
  Ti  Ti71  1  0.48975621  0.69522198  0.78619833  1
  Ti  Ti72  1  0.73214708  0.09260742  0.19941314  1
  Ti  Ti73  1  0.88056314  -0.00663413  0.47143053  1
  Ti  Ti74  1  0.81796347  0.02806629  0.90603722  1
  Ti  Ti75  1  0.87398828  0.40950099  0.19584207  1
  Ti  Ti76  1  0.84786857  0.21794954  0.48630472  1
  Ti  Ti77  1  0.88896902  0.35538410  0.81507742  1
  Ti  Ti78  1  0.85282085  0.72233015  0.11236275  1
  Ti  Ti79  1  0.86251959  0.74740782  0.49786699  1
  Ti  Ti80  1  0.87555895  0.56915775  0.81583788  1
  Ti  Ti81  1  0.19652960  0.14962953  0.03037328  1
  Ti  Ti82  1  0.11757358  0.18751630  0.35217699  1
  Ti  Ti83  1  0.18757085  0.10391414  0.64276465  1
  Ti  Ti84  1  0.11135360  0.57745573  -0.00782550  1
  Ti  Ti85  1  0.20935833  0.49716810  0.30798602  1
  Ti  Ti86  1  0.18745129  0.48803812  0.64701248  1
  Ti  Ti87  1  0.17595881  0.89265595  -0.02922070  1
  Ti  Ti88  1  0.17282152  0.80835949  0.40785945  1
  Ti  Ti89  1  0.12648763  0.84018243  0.59955302  1
  Ti  Ti90  1  0.58828964  0.14227866  0.04606942  1
  Ti  Ti91  1  0.56500878  0.20369078  0.32654809  1
  Ti  Ti92  1  0.44646814  0.16010213  0.65516307  1
  Ti  Ti93  1  0.42688212  0.44468970  -0.00042209  1
  Ti  Ti94  1  0.49316532  0.55313660  0.34540257  1
  Ti  Ti95  1  0.51870517  0.47467236  0.68342416  1
  Ti  Ti96  1  0.52433982  0.80604856  -0.04927972  1
  Ti  Ti97  1  0.44476383  0.86744802  0.31122761  1
  Ti  Ti98  1  0.50621009  0.80578257  0.62453324  1
  Ti  Ti99  1  0.87916932  0.21207285  -0.03419017  1
  Ti  Ti100  1  0.89263910  0.21307895  0.29221752  1
  Ti  Ti101  1  0.80344666  0.08878364  0.64260164  1
  Ti  Ti102  1  0.81968909  0.46659324  0.00224158  1
  Ti  Ti103  1  0.76318941  0.55425380  0.36529131  1
  Ti  Ti104  1  0.89595375  0.56764642  0.61354971  1
  Ti  Ti105  1  0.83666872  0.85751263  -0.02588972  1
  Ti  Ti106  1  0.82607770  0.73765082  0.32314929  1
  Ti  Ti107  1  0.81386471  0.75554356  0.66373857  1
  Co  Co108  1  0.22547461  0.23893848  0.72034505  1
  Co  Co109  1  0.74644372  0.95598728  0.33342780  1
  Co  Co110  1  0.80438289  0.36495327  0.55870697  1
  Co  Co111  1  0.54556954  0.20337806  0.49388109  1
  Co  Co112  1  0.31562217  0.94690002  0.06771450  1
  Co  Co113  1  0.51256908  0.42635319  0.85916863  1
  Co  Co114  1  0.30880432  0.38456695  0.24575107  1
  Co  Co115  1  0.05945295  0.52338000  0.41184415  1
  Co  Co116  1  0.72873111  0.57040920  0.89982336  1
  Co  Co117  1  0.10417068  0.25574346  0.59214506  1
  Co  Co118  1  0.75963393  0.60563028  0.54147827  1
  Co  Co119  1  0.30198276  0.24534448  0.15939805  1
  Co  Co120  1  0.26572265  0.47300222  0.09399505  1
  Co  Co121  1  0.99985832  0.48202412  0.72950825  1
  Co  Co122  1  0.86935743  0.04800046  0.28608983  1
  Co  Co123  1  0.82295085  0.68996337  0.96186248  1
  Co  Co124  1  0.40543924  0.25414944  0.29093257  1
  Co  Co125  1  0.36194973  0.46991729  0.37870831  1
  Co  Co126  1  0.49472057  0.61103198  0.94344347  1
  Co  Co127  1  0.04850635  0.53255236  0.56846031  1
  Co  Co128  1  0.67001913  0.90575594  0.89558418  1
  Co  Co129  1  0.03880179  0.89464750  0.88367531  1
  Co  Co130  1  0.99395129  0.27267379  0.44160994  1
  Co  Co131  1  0.01994003  0.63529553  0.87399353  1
  Co  Co132  1  0.16814171  0.14414142  0.86321757  1
  Co  Co133  1  0.69863478  0.78728445  0.03588999  1
  Co  Co134  1  0.69605764  0.72538902  0.46332607  1
  Co  Co135  1  0.92990047  0.58585521  0.00374574  1
  Co  Co136  1  0.86324761  0.24513743  0.67434538  1
  Co  Co137  1  0.24758947  0.33242323  0.58226917  1
  Co  Co138  1  -0.02389396  0.10986626  0.40878177  1
  Co  Co139  1  0.23752329  0.91872931  0.51216349  1
  Co  Co140  1  0.90299857  0.59871845  0.44199104  1
  Co  Co141  1  0.63209167  0.70416544  0.89137774  1
  Co  Co142  1  0.49179545  0.88318450  0.77144419  1
  Co  Co143  1  0.73641220  0.01144235  0.76531427  1
  Co  Co144  1  0.89275547  0.88709552  0.31612822  1
  Co  Co145  1  0.13062897  0.36421530  0.72506151  1
  Co  Co146  1  0.54310621  0.29899795  0.06702844  1
  Co  Co147  1  0.91736517  0.51234974  0.30966523  1
  Co  Co148  1  0.06199365  0.50110680  0.24977892  1
  Co  Co149  1  0.40603305  0.35893246  0.12911130  1
  Co  Co150  1  0.74161861  0.15446239  0.34493365  1
  Co  Co151  1  0.46697110  0.99757475  0.63962311  1
  Co  Co152  1  0.81946385  0.45386896  0.70119080  1
  Co  Co153  1  0.31709196  0.94162373  0.23153038  1
  Co  Co154  1  0.80019313  0.87013399  0.80159959  1
  Co  Co155  1  0.83612215  0.35594710  0.35458529  1
  Co  Co156  1  0.60165564  0.10349206  0.61985030  1
  Co  Co157  1  0.63466220  0.70269679  0.60753811  1
  Co  Co158  1  0.02826729  0.69229362  0.46756155  1
  Co  Co159  1  0.61699203  0.58653418  0.43841089  1
  Co  Co160  1  0.57969931  0.56213599  0.81899311  1
  Co  Co161  1  0.22132446  0.50215058  0.47839060  1
  Ni  Ni162  1  0.48644474  0.16841721  0.17787736  1
  Ni  Ni163  1  0.98631692  0.47001962  0.89836002  1
  Ni  Ni164  1  0.74804539  0.31426510  0.93284219  1
  Ni  Ni165  1  1.04458960  -0.00680905  0.62374721  1
  Ni  Ni166  1  0.96866254  0.75825390  0.24009919  1
  Ni  Ni167  1  0.66218863  0.10136092  0.90341485  1
  Ni  Ni168  1  0.50860592  0.55834358  0.09881258  1
  Ni  Ni169  1  0.48576865  0.13514157  0.89176906  1
  Ni  Ni170  1  0.48175911  0.55807874  0.52931803  1
  Ni  Ni171  1  0.20939665  0.82934067  0.75421677  1
  Ni  Ni172  1  0.16304956  0.87767602  0.26322591  1
  Ni  Ni173  1  0.79094118  0.91869876  0.62857550  1
  Ni  Ni174  1  0.01804872  0.26205917  0.89258214  1
  Ni  Ni175  1  0.71559147  0.68886296  0.19650157  1
  Ni  Ni176  1  0.60525830  0.87763470  0.25989422  1
  Ni  Ni177  1  0.36019338  0.77895979  0.71081385  1
  Ni  Ni178  1  0.90640088  0.13924400  0.80477282  1
  Ni  Ni179  1  0.30261821  0.78256216  0.98525145  1
  Ni  Ni180  1  0.25199988  0.61146340  0.77522317  1
  Ni  Ni181  1  0.70871003  0.21860566  0.58940542  1
  Ni  Ni182  1  0.24032562  0.70352288  0.28518470  1
  Ni  Ni183  1  0.43160571  0.06623681  0.30727955  1
  Ni  Ni184  1  0.77163562  0.70928491  0.81332943  1
  Ni  Ni185  1  0.09700270  0.46735098  0.10595828  1
  Ni  Ni186  1  0.18047512  0.05871884  0.26371504  1
  Ni  Ni187  1  0.98570224  0.71707354  0.61950000  1
  Ni  Ni188  1  0.21521485  0.18291779  0.48797116  1
  Ni  Ni189  1  0.04227670  0.19798586  0.03608773  1
  Ni  Ni190  1  -0.05643161  0.87071909  0.59717647  1
  Ni  Ni191  1  0.32039954  0.06008485  0.54462961  1
  Ni  Ni192  1  0.70528011  0.29836270  0.26555486  1
  Ni  Ni193  1  0.04615902  0.82485599  0.73667109  1
  Ni  Ni194  1  0.39717117  0.03007864  0.79021257  1
  Ni  Ni195  1  0.55841963  0.87257855  0.44131234  1
  Ni  Ni196  1  0.06039140  0.21551154  0.19601617  1
  Ni  Ni197  1  0.11608247  0.76433886  0.15376194  1
  Ni  Ni198  1  0.63778971  0.43544482  0.35207283  1
  Ni  Ni199  1  0.27372701  0.44984638  0.92589943  1
  Ni  Ni200  1  0.29510599  0.76306341  0.55659078  1
  Ni  Ni201  1  0.04902078  0.06118669  0.77065340  1
  Ni  Ni202  1  0.56354088  0.32612797  0.59497162  1
  Ni  Ni203  1  0.33076563  0.79636364  0.39772110  1
  Ni  Ni204  1  0.48247205  0.31800437  0.74211834  1
  Ni  Ni205  1  0.42690151  0.70697713  0.05814262  1
  Ni  Ni206  1  0.41062647  0.69669357  0.29287994  1
  Ni  Ni207  1  0.56284845  0.84997828  0.10425935  1
  Ni  Ni208  1  0.40626281  0.29260359  0.56254488  1
  Ni  Ni209  1  0.90912666  0.25580730  0.12644393  1
  Ni  Ni210  1  0.76621070  0.11929649  0.04133295  1
  Ni  Ni211  1  0.51747254  0.97672302  0.94231842  1
  Ni  Ni212  1  0.83991252  0.98057393  0.09060225  1
  Ni  Ni213  1  0.71697747  0.43341071  0.15970544  1
  Ni  Ni214  1  0.43208771  0.07975981  0.04144179  1
  Ni  Ni215  1  0.59458140  0.20236148  0.74431721  1
