# generated using pymatgen
data_Ti2CoNi
_symmetry_space_group_name_H-M   'P 1'
_cell_length_a   14.70245148
_cell_length_b   14.66152472
_cell_length_c   14.65891280
_cell_angle_alpha   90.06997854
_cell_angle_beta   89.94752521
_cell_angle_gamma   90.07685341
_symmetry_Int_Tables_number   1
_chemical_formula_structural   Ti2CoNi
_chemical_formula_sum   'Ti108 Co54 Ni54'
_cell_volume   3159.87393966
_cell_formula_units_Z   54
loop_
 _symmetry_equiv_pos_site_id
 _symmetry_equiv_pos_as_xyz
  1  'x, y, z'
loop_
 _atom_site_type_symbol
 _atom_site_label
 _atom_site_symmetry_multiplicity
 _atom_site_fract_x
 _atom_site_fract_y
 _atom_site_fract_z
 _atom_site_occupancy
  Ti  Ti0  1  -0.01616238  0.00020901  -0.06929989  1
  Ti  Ti1  1  0.03304048  -0.07057113  0.31340030  1
  Ti  Ti2  1  -0.00927296  0.04690977  0.70346448  1
  Ti  Ti3  1  0.00240553  0.31828863  -0.04444370  1
  Ti  Ti4  1  0.01522523  0.35452702  0.34248824  1
  Ti  Ti5  1  0.04320387  0.34850262  0.65507294  1
  Ti  Ti6  1  0.00509498  0.68252471  0.00323976  1
  Ti  Ti7  1  -0.01836659  0.64072516  0.28202559  1
  Ti  Ti8  1  0.04400250  0.67483380  0.65907726  1
  Ti  Ti9  1  0.20057592  -0.02579950  -0.01402740  1
  Ti  Ti10  1  0.37181632  -0.06089358  0.37704863  1
  Ti  Ti11  1  0.31845544  -0.00023639  0.69834356  1
  Ti  Ti12  1  0.36397585  0.37959066  0.03879053  1
  Ti  Ti13  1  0.26401884  0.31394712  0.35345570  1
  Ti  Ti14  1  0.34409164  0.30221252  0.70771372  1
  Ti  Ti15  1  0.36021381  0.69004914  -0.01947794  1
  Ti  Ti16  1  0.38804867  0.67682134  0.29832398  1
  Ti  Ti17  1  0.34310590  0.71565387  0.61644576  1
  Ti  Ti18  1  0.67799977  0.06050247  -0.01458834  1
  Ti  Ti19  1  0.57807672  -0.00761187  0.35216766  1
  Ti  Ti20  1  0.67410059  0.00926675  0.68496477  1
  Ti  Ti21  1  0.69042454  0.33901120  -0.10792063  1
  Ti  Ti22  1  0.65105687  0.28824811  0.33309769  1
  Ti  Ti23  1  0.64747855  0.33780200  0.69146203  1
  Ti  Ti24  1  0.66233479  0.60235590  0.03453352  1
  Ti  Ti25  1  0.73155275  0.71241506  0.38267406  1
  Ti  Ti26  1  0.65914110  0.66083859  0.57423382  1
  Ti  Ti27  1  0.03522994  0.10642076  0.22008631  1
  Ti  Ti28  1  0.02049648  0.22000564  0.48962035  1
  Ti  Ti29  1  -0.06861326  0.16608992  0.84402877  1
  Ti  Ti30  1  -0.07657799  0.46220093  0.22280900  1
  Ti  Ti31  1  0.00966911  0.54239047  0.53356465  1
  Ti  Ti32  1  -0.01657122  0.43944703  0.81191751  1
  Ti  Ti33  1  -0.03102715  0.83238867  0.15973864  1
  Ti  Ti34  1  -0.00981256  0.79377069  0.47663111  1
  Ti  Ti35  1  -0.05897212  0.77903971  0.83673691  1
  Ti  Ti36  1  0.33322663  0.22710991  0.16566493  1
  Ti  Ti37  1  0.29539658  0.12249887  0.53329954  1
  Ti  Ti38  1  0.39442667  0.14514421  0.81888547  1
  Ti  Ti39  1  0.31057043  0.54767744  0.14065377  1
  Ti  Ti40  1  0.30349129  0.59448822  0.45711288  1
  Ti  Ti41  1  0.34184150  0.56409870  0.80079427  1
  Ti  Ti42  1  0.40185484  0.85648485  0.17314851  1
  Ti  Ti43  1  0.25765919  0.79497326  0.44783796  1
  Ti  Ti44  1  0.36612214  0.85668096  0.87577811  1
  Ti  Ti45  1  0.63622076  0.11433738  0.18784081  1
  Ti  Ti46  1  0.67008133  0.23550912  0.52209041  1
  Ti  Ti47  1  0.70683584  0.15926594  0.81255876  1
  Ti  Ti48  1  0.72364927  0.48501884  0.19095554  1
  Ti  Ti49  1  0.67122401  0.43009384  0.51366073  1
  Ti  Ti50  1  0.63358764  0.52628586  0.78387427  1
  Ti  Ti51  1  0.71415794  0.83258342  0.21156610  1
  Ti  Ti52  1  0.66316624  0.86463925  0.52277088  1
  Ti  Ti53  1  0.73176418  0.74945080  0.86414997  1
  Ti  Ti54  1  0.28196056  0.02642747  0.17019500  1
  Ti  Ti55  1  0.08834277  -0.01203832  0.50709495  1
  Ti  Ti56  1  0.15730090  0.05054959  0.81204345  1
  Ti  Ti57  1  0.13009776  0.28716359  0.15994486  1
  Ti  Ti58  1  0.15458618  0.40900395  0.49841205  1
  Ti  Ti59  1  0.16523068  0.33343024  0.83665876  1
  Ti  Ti60  1  0.14023771  0.64684211  0.17638445  1
  Ti  Ti61  1  0.11122142  0.65815850  0.43562788  1
  Ti  Ti62  1  0.15692603  0.58230066  0.85527823  1
  Ti  Ti63  1  0.49630710  0.05450276  0.08251367  1
  Ti  Ti64  1  0.55245748  0.03415723  0.53867255  1
  Ti  Ti65  1  0.51298349  -0.00738455  0.87567792  1
  Ti  Ti66  1  0.52195198  0.28979654  0.15443452  1
  Ti  Ti67  1  0.47123777  0.36696954  0.55389480  1
  Ti  Ti68  1  0.47143243  0.37553976  0.84608551  1
  Ti  Ti69  1  0.52451504  0.58093790  0.19062127  1
  Ti  Ti70  1  0.48847377  0.59951381  0.49512041  1
  Ti  Ti71  1  0.55130129  0.71990624  0.88916980  1
  Ti  Ti72  1  0.82791623  0.01627123  0.13705680  1
  Ti  Ti73  1  0.82748472  0.09225644  0.42744533  1
  Ti  Ti74  1  0.78094653  -0.04677784  0.85105724  1
  Ti  Ti75  1  0.83570477  0.32470677  0.08671694  1
  Ti  Ti76  1  0.83047735  0.30349212  0.42966931  1
  Ti  Ti77  1  0.84631122  0.29977574  0.76096279  1
  Ti  Ti78  1  0.83619433  0.68638148  0.14341288  1
  Ti  Ti79  1  0.84935807  0.65372118  0.58691754  1
  Ti  Ti80  1  0.84826559  0.58926939  0.81617490  1
  Ti  Ti81  1  0.23633448  0.17987722  -0.03647385  1
  Ti  Ti82  1  0.19228369  0.09209359  0.36986022  1
  Ti  Ti83  1  0.13520371  0.13539519  0.63142133  1
  Ti  Ti84  1  0.14926136  0.48840823  0.03270891  1
  Ti  Ti85  1  0.18871399  0.50352115  0.32629679  1
  Ti  Ti86  1  0.23304896  0.45515577  0.68415782  1
  Ti  Ti87  1  0.15465800  0.79698386  -0.06281552  1
  Ti  Ti88  1  0.22121082  0.83727029  0.23940412  1
  Ti  Ti89  1  0.10826771  0.87704543  0.67209120  1
  Ti  Ti90  1  0.44473678  0.21755214  -0.01603102  1
  Ti  Ti91  1  0.49269104  0.17655686  0.32178759  1
  Ti  Ti92  1  0.45458196  0.16773162  0.62026864  1
  Ti  Ti93  1  0.47320764  0.52795992  0.00320046  1
  Ti  Ti94  1  0.51317359  0.47435949  0.36567526  1
  Ti  Ti95  1  0.49468530  0.62111802  0.68413730  1
  Ti  Ti96  1  0.53627204  0.85301553  0.04232902  1
  Ti  Ti97  1  0.53764932  0.80693825  0.32010004  1
  Ti  Ti98  1  0.48065852  0.85677109  0.69042584  1
  Ti  Ti99  1  0.95228328  0.16188003  0.05323977  1
  Ti  Ti100  1  0.80147861  0.18165119  0.24756038  1
  Ti  Ti101  1  0.80046073  0.15376509  0.62075147  1
  Ti  Ti102  1  0.85894840  0.52109612  0.03521455  1
  Ti  Ti103  1  0.84329620  0.50750404  0.43186146  1
  Ti  Ti104  1  0.88545512  0.47218412  0.64877613  1
  Ti  Ti105  1  0.83154945  0.86218333  0.01254911  1
  Ti  Ti106  1  0.81365943  0.89283184  0.36539355  1
  Ti  Ti107  1  0.77173803  0.83063468  0.68319406  1
  Co  Co108  1  0.60469769  0.74218547  0.71575373  1
  Co  Co109  1  0.90200720  0.02953643  0.28824251  1
  Co  Co110  1  0.56311179  0.14628138  0.90235894  1
  Co  Co111  1  0.31728323  0.02011631  0.87840203  1
  Co  Co112  1  0.88628580  0.77270490  0.29091999  1
  Co  Co113  1  0.52119125  0.75545443  0.57090456  1
  Co  Co114  1  0.49191733  0.56548640  0.85119573  1
  Co  Co115  1  0.92689002  0.77807014  0.66225397  1
  Co  Co116  1  0.26254154  0.72051823  0.83760852  1
  Co  Co117  1  0.58463387  0.40680839  0.24869957  1
  Co  Co118  1  0.61784423  0.15931214  0.65205986  1
  Co  Co119  1  0.85562223  0.40374457  0.92262546  1
  Co  Co120  1  0.32109030  0.30051167  0.88332055  1
  Co  Co121  1  0.00617327  0.39733110  0.08946650  1
  Co  Co122  1  0.34944258  0.53780365  0.60544682  1
  Co  Co123  1  0.40082021  0.94549790  0.56039906  1
  Co  Co124  1  0.26093849  0.85071168  0.07293442  1
  Co  Co125  1  0.29872134  0.33744813  0.54778593  1
  Co  Co126  1  0.73616289  0.53207403  0.91335322  1
  Co  Co127  1  0.34310486  0.09332679  0.03209552  1
  Co  Co128  1  0.82100876  0.23898451  0.93939838  1
  Co  Co129  1  0.22624365  0.89394937  0.80624134  1
  Co  Co130  1  0.89913322  0.66307980  0.42648092  1
  Co  Co131  1  0.58311937  0.45438662  0.10102903  1
  Co  Co132  1  0.27412238  0.38203620  0.19228222  1
  Co  Co133  1  0.83822519  0.07041369  0.95636059  1
  Co  Co134  1  0.11508462  0.75186316  0.78214814  1
  Co  Co135  1  0.30330023  0.71072649  0.15051641  1
  Co  Co136  1  0.93284388  0.20608195  0.33597896  1
  Co  Co137  1  0.02078943  0.08569409  0.39065481  1
  Co  Co138  1  0.53227643  0.19918457  0.47851086  1
  Co  Co139  1  0.83564922  0.06758712  0.75263032  1
  Co  Co140  1  0.56572892  0.48749116  0.61829089  1
  Co  Co141  1  0.92857822  0.95850617  0.44493873  1
  Co  Co142  1  0.11382468  0.78840126  0.10719778  1
  Co  Co143  1  0.74482745  0.66647219  0.72278712  1
  Co  Co144  1  0.36533826  0.44363523  0.45128568  1
  Co  Co145  1  0.69048850  0.29849971  0.16686174  1
  Co  Co146  1  0.24048621  0.18459705  0.77710029  1
  Co  Co147  1  0.95042096  0.08294903  0.54858542  1
  Co  Co148  1  0.43821602  0.45236808  0.71173873  1
  Co  Co149  1  0.37965766  0.24223070  0.44797123  1
  Co  Co150  1  0.71714438  0.42104858  0.02959693  1
  Co  Co151  1  0.41390392  0.75212249  0.44805336  1
  Co  Co152  1  0.49910122  0.02593596  0.70724178  1
  Co  Co153  1  0.78183874  0.43939362  0.78016803  1
  Co  Co154  1  0.43836844  0.44035045  0.17320383  1
  Co  Co155  1  0.42420219  0.07630501  0.44413294  1
  Co  Co156  1  0.07295104  0.21738550  0.76681380  1
  Co  Co157  1  0.18454228  0.23679562  0.48213647  1
  Co  Co158  1  0.18838525  0.28492555  0.64802466  1
  Co  Co159  1  0.77407855  0.16765484  0.08376231  1
  Co  Co160  1  0.51392063  0.88137949  0.46764860  1
  Co  Co161  1  0.82921673  0.34481836  0.27360013  1
  Ni  Ni162  1  0.10766097  0.22360452  0.32292629  1
  Ni  Ni163  1  0.95654028  0.38559806  0.50683837  1
  Ni  Ni164  1  0.55705998  0.64833335  0.34057604  1
  Ni  Ni165  1  0.95183617  0.21014583  0.65464323  1
  Ni  Ni166  1  0.71665734  0.43889022  0.34960813  1
  Ni  Ni167  1  0.96376129  0.27101157  0.18992369  1
  Ni  Ni168  1  0.55095644  0.35118760  0.98870741  1
  Ni  Ni169  1  0.69200086  0.76545467  1.05080633  1
  Ni  Ni170  1  1.00579886  0.56403195  0.11859289  1
  Ni  Ni171  1  0.98289545  0.98584858  0.09524942  1
  Ni  Ni172  1  0.13212329  0.95183152  0.15281399  1
  Ni  Ni173  1  0.62159333  0.88799094  0.78088820  1
  Ni  Ni174  1  0.08289158  0.77176474  0.30981904  1
  Ni  Ni175  1  0.17695938  0.56951565  0.56313077  1
  Ni  Ni176  1  0.62112123  0.21019244  0.04008230  1
  Ni  Ni177  1  0.82522789  0.80866235  0.51758964  1
  Ni  Ni178  1  0.66164576  0.56864267  0.42924088  1
  Ni  Ni179  1  0.73283263  1.01177124  0.27921132  1
  Ni  Ni180  1  0.83212324  0.68161801  0.97375896  1
  Ni  Ni181  1  1.00675255  0.62452632  0.82434317  1
  Ni  Ni182  1  0.65430636  0.88304133  0.93611281  1
  Ni  Ni183  1  0.68251309  0.93616220  0.08966821  1
  Ni  Ni184  1  0.11861680  0.09887973  0.07165037  1
  Ni  Ni185  1  0.42642445  0.33626836  0.30468538  1
  Ni  Ni186  1  0.80266417  0.33678514  0.59643714  1
  Ni  Ni187  1  0.80725777  0.97920845  0.57861084  1
  Ni  Ni188  1  0.11747412  0.45636790  0.19428566  1
  Ni  Ni189  1  0.51223580  0.69116407  0.06462803  1
  Ni  Ni190  1  0.41919411  0.71739613  0.79608698  1
  Ni  Ni191  1  0.81076136  0.60236175  0.28871327  1
  Ni  Ni192  1  0.21646138  0.63305079  0.70376288  1
  Ni  Ni193  1  0.23878473  -0.05919273  0.55315761  1
  Ni  Ni194  1  0.06633631  0.90274885  0.83558540  1
  Ni  Ni195  1  0.43885318  1.03230356  0.24750289  1
  Ni  Ni196  1  0.66657718  0.13069391  0.37969690  1
  Ni  Ni197  1  0.56244980  -0.06824365  0.19760386  1
  Ni  Ni198  1  0.17743029  0.74690491  0.58344249  1
  Ni  Ni199  1  0.20193579  0.65986458  0.02072415  1
  Ni  Ni200  1  0.27290062  0.46099390  0.91311273  1
  Ni  Ni201  1  0.53334948  0.23794047  0.76809504  1
  Ni  Ni202  1  0.19535522  0.92953119  0.38035718  1
  Ni  Ni203  1  0.91165009  0.91641725  0.75632865  1
  Ni  Ni204  1  0.38815161  0.93953308  1.01749075  1
  Ni  Ni205  1  0.07702946  0.51679330  0.69772134  1
  Ni  Ni206  1  0.72892852  0.51706379  0.64513332  1
  Ni  Ni207  1  -0.04214892  0.91693758  0.59552694  1
  Ni  Ni208  1  0.20957834  0.33280000  0.02032922  1
  Ni  Ni209  1  0.02224534  0.51161007  0.37643505  1
  Ni  Ni210  1  0.07779118  0.15767696  0.92356723  1
  Ni  Ni211  1  0.22704041  0.67632901  0.31240605  1
  Ni  Ni212  1  0.33066881  0.14531335  0.30986739  1
  Ni  Ni213  1  0.00317075  0.51047781  0.95551900  1
  Ni  Ni214  1  0.35393541  0.49728200  0.29970648  1
  Ni  Ni215  1  0.67467402  0.67016003  0.20372857  1
