# generated using pymatgen
data_Ti2CoNi
_symmetry_space_group_name_H-M   'P 1'
_cell_length_a   14.52060377
_cell_length_b   14.53521950
_cell_length_c   14.50587596
_cell_angle_alpha   90.01169574
_cell_angle_beta   90.55086166
_cell_angle_gamma   90.11328230
_symmetry_Int_Tables_number   1
_chemical_formula_structural   Ti2CoNi
_chemical_formula_sum   'Ti108 Co54 Ni54'
_cell_volume   3061.46498441
_cell_formula_units_Z   54
loop_
 _symmetry_equiv_pos_site_id
 _symmetry_equiv_pos_as_xyz
  1  'x, y, z'
loop_
 _atom_site_type_symbol
 _atom_site_label
 _atom_site_symmetry_multiplicity
 _atom_site_fract_x
 _atom_site_fract_y
 _atom_site_fract_z
 _atom_site_occupancy
  Ti  Ti0  1  -0.08522681  0.05104007  -0.01369299  1
  Ti  Ti1  1  0.03111360  -0.05311653  0.41761214  1
  Ti  Ti2  1  -0.04773762  0.02172613  0.63684467  1
  Ti  Ti3  1  -0.04464516  0.27343162  -0.04901747  1
  Ti  Ti4  1  -0.00018724  0.31968295  0.28673347  1
  Ti  Ti5  1  0.01460551  0.38719860  0.76431410  1
  Ti  Ti6  1  0.02500888  0.73487686  0.07722826  1
  Ti  Ti7  1  -0.00754349  0.64505420  0.26283754  1
  Ti  Ti8  1  -0.09914873  0.61809196  0.62347658  1
  Ti  Ti9  1  0.33193766  -0.04059557  -0.11385254  1
  Ti  Ti10  1  0.37570874  0.02724240  0.32312477  1
  Ti  Ti11  1  0.33358090  0.08426997  0.71195099  1
  Ti  Ti12  1  0.30407505  0.38289379  0.00936343  1
  Ti  Ti13  1  0.32730881  0.30737805  0.28830468  1
  Ti  Ti14  1  0.36635809  0.30413626  0.54185816  1
  Ti  Ti15  1  0.37343590  0.64908878  0.05718163  1
  Ti  Ti16  1  0.28473472  0.70756694  0.37525189  1
  Ti  Ti17  1  0.37837582  0.65681973  0.67084070  1
  Ti  Ti18  1  0.66578145  -0.05928465  0.05626884  1
  Ti  Ti19  1  0.62269436  -0.03361605  0.36214654  1
  Ti  Ti20  1  0.64943654  -0.05639502  0.64390222  1
  Ti  Ti21  1  0.66820840  0.40551009  0.01738253  1
  Ti  Ti22  1  0.67065070  0.32455034  0.37243568  1
  Ti  Ti23  1  0.60882849  0.39754021  0.71244787  1
  Ti  Ti24  1  0.69379593  0.61579866  0.02416475  1
  Ti  Ti25  1  0.71451832  0.61139307  0.34958946  1
  Ti  Ti26  1  0.68937220  0.59925201  0.67099183  1
  Ti  Ti27  1  0.05736087  0.07572667  0.20198808  1
  Ti  Ti28  1  0.07647263  0.15573723  0.52535082  1
  Ti  Ti29  1  0.00955292  0.09296684  0.84482569  1
  Ti  Ti30  1  0.08789472  0.47732568  0.21488150  1
  Ti  Ti31  1  0.07649871  0.55049326  0.46528402  1
  Ti  Ti32  1  -0.02783856  0.57272281  0.92961471  1
  Ti  Ti33  1  0.04737454  0.87426354  0.25746432  1
  Ti  Ti34  1  -0.02493575  0.82858541  0.54266767  1
  Ti  Ti35  1  0.00017146  0.77934370  0.87130219  1
  Ti  Ti36  1  0.37516676  0.13223586  0.17673584  1
  Ti  Ti37  1  0.28044383  0.10912612  0.46929113  1
  Ti  Ti38  1  0.28164061  0.25623523  0.87092969  1
  Ti  Ti39  1  0.30538640  0.52116437  0.25071506  1
  Ti  Ti40  1  0.36296059  0.42826062  0.42695080  1
  Ti  Ti41  1  0.40013375  0.46846192  0.79572786  1
  Ti  Ti42  1  0.31110251  0.77611602  0.16796518  1
  Ti  Ti43  1  0.38057212  0.80869646  0.57009418  1
  Ti  Ti44  1  0.31441571  0.83696790  0.74537420  1
  Ti  Ti45  1  0.62215948  0.23195541  0.12425874  1
  Ti  Ti46  1  0.75208137  0.17849066  0.45147905  1
  Ti  Ti47  1  0.66975531  0.14070130  0.88848473  1
  Ti  Ti48  1  0.66804641  0.50026132  0.22779716  1
  Ti  Ti49  1  0.58685179  0.49921393  0.43730550  1
  Ti  Ti50  1  0.60300664  0.53675808  0.85034313  1
  Ti  Ti51  1  0.67005311  0.75902902  0.17845222  1
  Ti  Ti52  1  0.61964754  0.72114132  0.46770479  1
  Ti  Ti53  1  0.62082220  0.84679746  0.82401330  1
  Ti  Ti54  1  0.13933009  0.00286702  0.03327885  1
  Ti  Ti55  1  0.21384398  -0.07827563  0.51867939  1
  Ti  Ti56  1  0.15442334  -0.04384143  0.84254583  1
  Ti  Ti57  1  0.14995470  0.27742585  0.19165272  1
  Ti  Ti58  1  0.11464104  0.33590956  0.56937547  1
  Ti  Ti59  1  0.19060218  0.39306511  0.81352940  1
  Ti  Ti60  1  0.15683814  0.63450673  0.13233424  1
  Ti  Ti61  1  0.12206998  0.75835996  0.48358512  1
  Ti  Ti62  1  0.17828053  0.70430796  0.77149783  1
  Ti  Ti63  1  0.52557520  0.03422973  0.16160399  1
  Ti  Ti64  1  0.48655218  0.04230577  0.46587198  1
  Ti  Ti65  1  0.51835661  0.00094843  0.94080337  1
  Ti  Ti66  1  0.47124101  0.34230446  0.05874314  1
  Ti  Ti67  1  0.53294546  0.32772058  0.53683245  1
  Ti  Ti68  1  0.47191802  0.24499671  0.77937119  1
  Ti  Ti69  1  0.51752950  0.61384084  0.18340990  1
  Ti  Ti70  1  0.41750149  0.59162260  0.44000177  1
  Ti  Ti71  1  0.44214099  0.68383146  0.83632617  1
  Ti  Ti72  1  0.85853142  0.01205100  0.16460598  1
  Ti  Ti73  1  0.81015213  -0.00571814  0.48271998  1
  Ti  Ti74  1  0.82885997  0.02967960  0.79167860  1
  Ti  Ti75  1  0.79793326  0.34821609  0.21802568  1
  Ti  Ti76  1  0.86048407  0.34058641  0.47959221  1
  Ti  Ti77  1  0.76803423  0.33388518  0.86375850  1
  Ti  Ti78  1  0.86431998  0.63342832  0.10858554  1
  Ti  Ti79  1  0.82038386  0.74907870  0.48061112  1
  Ti  Ti80  1  0.81481469  0.66895162  0.80442829  1
  Ti  Ti81  1  0.16381774  0.21893171  0.01857972  1
  Ti  Ti82  1  0.22108841  0.15030697  0.29478643  1
  Ti  Ti83  1  0.12411167  0.20548862  0.72911909  1
  Ti  Ti84  1  0.11254723  0.45961859  -0.01997398  1
  Ti  Ti85  1  0.16699906  0.40188436  0.35577783  1
  Ti  Ti86  1  0.11090879  0.53284905  0.66966838  1
  Ti  Ti87  1  0.20365218  0.79978412  -0.04289815  1
  Ti  Ti88  1  0.23758773  0.86046344  0.29883436  1
  Ti  Ti89  1  0.08832420  0.86156949  0.69629789  1
  Ti  Ti90  1  0.40252987  0.18447581  0.00142132  1
  Ti  Ti91  1  0.55419933  0.16306077  0.30918590  1
  Ti  Ti92  1  0.57515773  0.12552664  0.65462836  1
  Ti  Ti93  1  0.45141978  0.53039795  -0.04424795  1
  Ti  Ti94  1  0.49083701  0.45162448  0.28189218  1
  Ti  Ti95  1  0.48559716  0.49992432  0.60968527  1
  Ti  Ti96  1  0.55277175  0.74675613  0.00377957  1
  Ti  Ti97  1  0.46372871  0.86019814  0.31745199  1
  Ti  Ti98  1  0.47034424  0.96440333  0.70370772  1
  Ti  Ti99  1  0.82095083  0.19380067  0.12078883  1
  Ti  Ti100  1  0.90193079  0.15642586  0.31552927  1
  Ti  Ti101  1  0.79369645  0.26430471  0.69082926  1
  Ti  Ti102  1  0.87943868  0.41422632  0.04706051  1
  Ti  Ti103  1  0.91867309  0.47871125  0.36156103  1
  Ti  Ti104  1  0.82348197  0.43028579  0.62997364  1
  Ti  Ti105  1  0.86427783  0.87501347  -0.01934080  1
  Ti  Ti106  1  0.86661377  0.81203037  0.21318589  1
  Ti  Ti107  1  0.79773114  0.83280636  0.64552416  1
  Co  Co108  1  0.29122151  0.67543973  0.87625185  1
  Co  Co109  1  0.98325405  0.45108680  0.58478033  1
  Co  Co110  1  0.21997326  0.40548781  0.14795445  1
  Co  Co111  1  0.26240372  0.55379317  0.74051670  1
  Co  Co112  1  0.24548146  0.95208494  0.68868562  1
  Co  Co113  1  0.17809583  0.99716156  0.29619675  1
  Co  Co114  1  0.36442492  0.99171032  0.58231228  1
  Co  Co115  1  0.43962097  0.36290660  0.67474401  1
  Co  Co116  1  0.50026147  0.32283888  0.37585952  1
  Co  Co117  1  0.95858601  0.21706043  0.44657398  1
  Co  Co118  1  0.56946097  0.38166601  0.86535096  1
  Co  Co119  1  0.92010258  0.42084165  0.87157433  1
  Co  Co120  1  0.38551445  0.93453880  0.19082747  1
  Co  Co121  1  0.41458598  0.14412581  0.57993351  1
  Co  Co122  1  0.28083467  0.90921620  0.05543060  1
  Co  Co123  1  0.73732906  0.91903713  0.22980460  1
  Co  Co124  1  0.38530652  0.02907360  0.04070030  1
  Co  Co125  1  0.70361880  0.87048452  0.50343944  1
  Co  Co126  1  0.02213952  0.38051648  0.44103085  1
  Co  Co127  1  0.20252819  0.10633786  0.61429189  1
  Co  Co128  1  0.02121628  0.66050200  0.77756825  1
  Co  Co129  1  0.25510321  0.52913596  0.90016540  1
  Co  Co130  1  0.08093067  0.08564699  0.38132926  1
  Co  Co131  1  0.40219189  0.67945728  0.29507833  1
  Co  Co132  1  0.57142550  0.74982677  0.29627427  1
  Co  Co133  1  0.08416220  0.52539733  0.82854271  1
  Co  Co134  1  0.84939268  0.87473334  0.39156273  1
  Co  Co135  1  0.04480647  0.37140784  0.08357117  1
  Co  Co136  1  0.78381001  0.50729377  0.93616816  1
  Co  Co137  1  0.70095731  0.81361283  0.34432954  1
  Co  Co138  1  0.10607533  0.23850169  0.36940297  1
  Co  Co139  1  0.54683182  0.60364396  0.33851914  1
  Co  Co140  1  0.39069754  0.47230452  0.12688884  1
  Co  Co141  1  0.59725285  0.09807860  1.03811575  1
  Co  Co142  1  0.40004044  0.20401658  0.37558557  1
  Co  Co143  1  0.33227613  0.50219661  0.60337331  1
  Co  Co144  1  0.39106724  0.79261675  0.99195069  1
  Co  Co145  1  0.76922699  0.06965176  0.00693027  1
  Co  Co146  1  0.10508778  0.04508373  0.71378360  1
  Co  Co147  1  0.30173810  0.24267535  0.10559248  1
  Co  Co148  1  0.93470361  0.45668909  0.18130581  1
  Co  Co149  1  0.92396989  0.51464209  0.73987641  1
  Co  Co150  1  0.77440660  0.51174897  0.11554815  1
  Co  Co151  1  0.07743769  0.96849767  0.55923221  1
  Co  Co152  1  0.57322761  0.19166065  0.46955435  1
  Co  Co153  1  0.46947192  0.75468116  0.43751154  1
  Co  Co154  1  1.01789415  0.56028362  0.09163273  1
  Co  Co155  1  0.24983133  0.54850132  0.05158902  1
  Co  Co156  1  0.56785153  0.89071113  0.20257786  1
  Co  Co157  1  0.76426363  0.49368374  0.78189082  1
  Co  Co158  1  0.47898502  0.78138067  0.14089730  1
  Co  Co159  1  0.25886236  0.02153618  0.16146705  1
  Co  Co160  1  0.12172647  0.64000279  0.95765935  1
  Co  Co161  1  0.41702741  0.36541957  0.89942303  1
  Ni  Ni162  1  0.72946276  0.20554977  0.27045683  1
  Ni  Ni163  1  0.03492080  0.12810182  0.05095510  1
  Ni  Ni164  1  0.25265810  0.39231575  0.68104941  1
  Ni  Ni165  1  0.94899415  0.91679463  0.76990361  1
  Ni  Ni166  1  0.97226172  0.24423702  0.15376413  1
  Ni  Ni167  1  0.15472013  0.82018670  0.14455657  1
  Ni  Ni168  1  0.94037132  0.23937298  0.78312728  1
  Ni  Ni169  1  0.23799415  0.27763548  0.44937548  1
  Ni  Ni170  1  -0.02956323  0.27357652  0.62384509  1
  Ni  Ni171  1  0.98544466  0.91645369  0.11237391  1
  Ni  Ni172  1  0.55560761  0.64949967  0.72361911  1
  Ni  Ni173  1  0.76806245  0.77800281  0.06387789  1
  Ni  Ni174  1  0.70207973  0.30545067  0.55028807  1
  Ni  Ni175  1  0.72456528  0.12552649  0.66576205  1
  Ni  Ni176  1  0.24352963  0.08658408  0.91507632  1
  Ni  Ni177  1  0.67758438  0.75801065  0.71439601  1
  Ni  Ni178  1  0.76248139  0.46294938  0.43312595  1
  Ni  Ni179  1  0.56442032  0.23774334  -0.05016860  1
  Ni  Ni180  1  0.86779136  0.69768699  0.95865496  1
  Ni  Ni181  1  0.09803076  0.26710838  0.87664415  1
  Ni  Ni182  1  0.91943646  0.62040340  0.44880801  1
  Ni  Ni183  1  0.60248614  0.35489055  0.21232412  1
  Ni  Ni184  1  0.31730407  0.24153522  0.69978628  1
  Ni  Ni185  1  0.43928634  0.10077087  0.85309529  1
  Ni  Ni186  1  0.24357655  0.56700353  0.48870519  1
  Ni  Ni187  1  0.63626091  0.24906581  0.78244476  1
  Ni  Ni188  1  0.76148357  0.05776433  0.32809308  1
  Ni  Ni189  1  0.02830339  0.93299372  0.92987168  1
  Ni  Ni190  1  0.46135246  0.86028833  0.85631222  1
  Ni  Ni191  1  0.56480332  0.50314024  0.07963941  1
  Ni  Ni192  1  0.07101215  0.69208602  0.62738131  1
  Ni  Ni193  1  0.75450089  0.59711681  0.52528387  1
  Ni  Ni194  1  0.83485627  0.54838418  0.26297497  1
  Ni  Ni195  1  0.87437038  0.14779605  0.57062358  1
  Ni  Ni196  1  0.49370724  0.67961582  0.57614133  1
  Ni  Ni197  1  0.17076525  0.57459088  0.33788796  1
  Ni  Ni198  1  -0.01839593  0.76501747  0.39621876  1
  Ni  Ni199  1  0.74270009  0.25208583  1.00286236  1
  Ni  Ni200  1  0.49280076  0.80537114  0.70161018  1
  Ni  Ni201  1  0.92022897  0.75852762  0.70713436  1
  Ni  Ni202  1  0.62454148  1.01750108  0.78331912  1
  Ni  Ni203  1  0.46773306  0.27196687  0.20156409  1
  Ni  Ni204  1  0.65827778  0.04922029  0.50339326  1
  Ni  Ni205  1  0.63800447  0.68561106  0.86972873  1
  Ni  Ni206  1  0.91381493  -0.01191568  0.30932412  1
  Ni  Ni207  1  0.13553635  0.71933507  0.27627920  1
  Ni  Ni208  1  0.84870667  0.69715142  0.31528892  1
  Ni  Ni209  1  0.83860801  0.16223442  0.90241577  1
  Ni  Ni210  1  0.72936193  0.93802028  0.90186181  1
  Ni  Ni211  1  0.22993642  0.76405102  0.61956396  1
  Ni  Ni212  1  0.34655518  0.90096953  0.42364607  1
  Ni  Ni213  1  0.65924713  0.46707694  0.56957225  1
  Ni  Ni214  1  0.69554249  0.08052355  0.16219031  1
  Ni  Ni215  1  0.54166988  0.88492268  0.52986502  1
