# generated using pymatgen
data_Ti2CoNi
_symmetry_space_group_name_H-M   'P 1'
_cell_length_a   14.70777616
_cell_length_b   14.69005627
_cell_length_c   14.63270400
_cell_angle_alpha   89.73921007
_cell_angle_beta   90.04462394
_cell_angle_gamma   90.12459858
_symmetry_Int_Tables_number   1
_chemical_formula_structural   Ti2CoNi
_chemical_formula_sum   'Ti108 Co54 Ni54'
_cell_volume   3161.47246870
_cell_formula_units_Z   54
loop_
 _symmetry_equiv_pos_site_id
 _symmetry_equiv_pos_as_xyz
  1  'x, y, z'
loop_
 _atom_site_type_symbol
 _atom_site_label
 _atom_site_symmetry_multiplicity
 _atom_site_fract_x
 _atom_site_fract_y
 _atom_site_fract_z
 _atom_site_occupancy
  Ti  Ti0  1  0.03057940  -0.05421570  -0.01317212  1
  Ti  Ti1  1  0.05992322  -0.09536131  0.36673037  1
  Ti  Ti2  1  0.00597317  -0.00490102  0.72376298  1
  Ti  Ti3  1  0.04392255  0.29993771  0.00966860  1
  Ti  Ti4  1  -0.00289225  0.32871056  0.41679984  1
  Ti  Ti5  1  -0.02757569  0.33922168  0.74517536  1
  Ti  Ti6  1  -0.04525910  0.72030149  0.07353729  1
  Ti  Ti7  1  0.01059763  0.66216269  0.25683934  1
  Ti  Ti8  1  -0.00605030  0.61584514  0.59644949  1
  Ti  Ti9  1  0.30737575  0.10155299  -0.00079467  1
  Ti  Ti10  1  0.33878913  -0.06920595  0.30922417  1
  Ti  Ti11  1  0.27207895  -0.02195425  0.64440408  1
  Ti  Ti12  1  0.28773123  0.32115972  0.01260092  1
  Ti  Ti13  1  0.32909594  0.32750132  0.35499096  1
  Ti  Ti14  1  0.35834998  0.41256691  0.62006785  1
  Ti  Ti15  1  0.35636897  0.61954958  -0.10018557  1
  Ti  Ti16  1  0.31992194  0.60894929  0.35957986  1
  Ti  Ti17  1  0.41281023  0.68122614  0.64490935  1
  Ti  Ti18  1  0.63662345  0.03271314  0.00604499  1
  Ti  Ti19  1  0.65819174  0.01036035  0.35088209  1
  Ti  Ti20  1  0.73963513  0.00501218  0.64271309  1
  Ti  Ti21  1  0.66704488  0.35805101  -0.03661383  1
  Ti  Ti22  1  0.64554785  0.37457048  0.30197934  1
  Ti  Ti23  1  0.61397525  0.26637973  0.65357593  1
  Ti  Ti24  1  0.65481295  0.61633282  0.02040956  1
  Ti  Ti25  1  0.72861597  0.63959259  0.37954361  1
  Ti  Ti26  1  0.62313828  0.70723808  0.65880289  1
  Ti  Ti27  1  -0.00050839  0.22069864  0.22524683  1
  Ti  Ti28  1  -0.08814823  0.13247578  0.46655292  1
  Ti  Ti29  1  0.08667933  0.19839660  0.81472782  1
  Ti  Ti30  1  -0.04135004  0.50386567  0.09760265  1
  Ti  Ti31  1  -0.09933846  0.50200849  0.46178935  1
  Ti  Ti32  1  0.04112452  0.54722657  0.87264665  1
  Ti  Ti33  1  0.02755379  0.87675506  0.17626361  1
  Ti  Ti34  1  0.06702621  0.81877541  0.55765914  1
  Ti  Ti35  1  0.02694668  0.78707356  0.75330800  1
  Ti  Ti36  1  0.32491489  0.18561272  0.17788454  1
  Ti  Ti37  1  0.39265060  0.14112645  0.55361163  1
  Ti  Ti38  1  0.29998722  0.16397547  0.75989715  1
  Ti  Ti39  1  0.34593301  0.51731164  0.13810889  1
  Ti  Ti40  1  0.21584579  0.47431220  0.44452069  1
  Ti  Ti41  1  0.39056289  0.44384908  0.84149152  1
  Ti  Ti42  1  0.31734959  0.79117053  0.15760156  1
  Ti  Ti43  1  0.39695523  0.87903075  0.50944619  1
  Ti  Ti44  1  0.28659302  0.87247182  0.81299131  1
  Ti  Ti45  1  0.66366635  0.16276231  0.21504176  1
  Ti  Ti46  1  0.71644120  0.19737759  0.42840258  1
  Ti  Ti47  1  0.73501055  0.18539892  0.93003494  1
  Ti  Ti48  1  0.63967787  0.56187904  0.21985597  1
  Ti  Ti49  1  0.70492499  0.46912746  0.46219628  1
  Ti  Ti50  1  0.65581873  0.47147235  0.75592738  1
  Ti  Ti51  1  0.62126348  0.88108772  0.20753278  1
  Ti  Ti52  1  0.64809275  0.85110678  0.48102245  1
  Ti  Ti53  1  0.66157325  0.89967582  0.85005686  1
  Ti  Ti54  1  0.16055364  0.06168406  0.19895476  1
  Ti  Ti55  1  0.22558071  0.01493289  0.44799130  1
  Ti  Ti56  1  0.18106262  0.01557966  0.85735924  1
  Ti  Ti57  1  0.18517510  0.31700297  0.20092086  1
  Ti  Ti58  1  0.16745713  0.28044544  0.50357125  1
  Ti  Ti59  1  0.22522277  0.35316895  0.77112565  1
  Ti  Ti60  1  0.21890858  0.64887337  0.04251953  1
  Ti  Ti61  1  0.16843967  0.66059725  0.49581564  1
  Ti  Ti62  1  0.17995287  0.70209178  0.85446395  1
  Ti  Ti63  1  0.44013354  -0.05205758  0.09266124  1
  Ti  Ti64  1  0.54357773  0.01100492  0.50878648  1
  Ti  Ti65  1  0.49604323  -0.00649649  0.87451826  1
  Ti  Ti66  1  0.48575815  0.27003340  0.22278362  1
  Ti  Ti67  1  0.51403061  0.33296896  0.47442520  1
  Ti  Ti68  1  0.47179633  0.27894765  0.84175415  1
  Ti  Ti69  1  0.53335946  0.73744799  0.11362576  1
  Ti  Ti70  1  0.46914716  0.63282700  0.46186254  1
  Ti  Ti71  1  0.53348171  0.68889286  0.82806636  1
  Ti  Ti72  1  0.88158240  -0.01062597  0.12055521  1
  Ti  Ti73  1  0.93502146  -0.04588647  0.54422753  1
  Ti  Ti74  1  0.82112787  0.00796713  0.90448862  1
  Ti  Ti75  1  0.78031393  0.42033601  0.12069262  1
  Ti  Ti76  1  0.85154732  0.31972873  0.54677659  1
  Ti  Ti77  1  0.80607938  0.36561304  0.82721646  1
  Ti  Ti78  1  0.81190916  0.82172030  0.17289589  1
  Ti  Ti79  1  0.80906626  0.69395317  0.53804225  1
  Ti  Ti80  1  0.85223912  0.66112371  0.76845603  1
  Ti  Ti81  1  0.10703669  0.11512628  -0.00869412  1
  Ti  Ti82  1  0.13190805  0.16563894  0.35720283  1
  Ti  Ti83  1  0.04327196  0.15658229  0.60567042  1
  Ti  Ti84  1  0.15087484  0.46164857  0.02894162  1
  Ti  Ti85  1  0.05148840  0.47570240  0.30502259  1
  Ti  Ti86  1  0.20208446  0.55272719  0.65449674  1
  Ti  Ti87  1  0.21009053  0.91247534  0.04827025  1
  Ti  Ti88  1  0.21215006  0.77428877  0.33882107  1
  Ti  Ti89  1  0.22490422  0.75584660  0.66278712  1
  Ti  Ti90  1  0.56294123  0.20601333  0.04987659  1
  Ti  Ti91  1  0.48158909  0.07929507  0.28772988  1
  Ti  Ti92  1  0.50455784  0.11498910  0.73007988  1
  Ti  Ti93  1  0.46924582  0.39872949  0.02917089  1
  Ti  Ti94  1  0.45359507  0.48871236  0.29791555  1
  Ti  Ti95  1  0.51256727  0.52176307  0.60791280  1
  Ti  Ti96  1  0.44130518  0.80931944  -0.05454873  1
  Ti  Ti97  1  0.56210984  0.74359589  0.33761789  1
  Ti  Ti98  1  0.47974198  0.85288652  0.71577224  1
  Ti  Ti99  1  0.91118048  0.16230656  0.02189179  1
  Ti  Ti100  1  0.83505077  0.10510744  0.27668221  1
  Ti  Ti101  1  0.78796273  0.17331160  0.75066275  1
  Ti  Ti102  1  0.81653948  0.52656624  -0.05953507  1
  Ti  Ti103  1  0.83773675  0.51273762  0.27838568  1
  Ti  Ti104  1  0.80753119  0.49896830  0.64372301  1
  Ti  Ti105  1  0.79194861  0.74925765  -0.05717236  1
  Ti  Ti106  1  0.85034657  0.93116240  0.35544146  1
  Ti  Ti107  1  0.82664510  0.85921783  0.73811983  1
  Co  Co108  1  0.50477193  0.55091423  0.77188224  1
  Co  Co109  1  0.15030296  0.07672979  0.71288833  1
  Co  Co110  1  0.11176347  0.97723688  0.57764247  1
  Co  Co111  1  0.91958906  0.80841612  0.45603595  1
  Co  Co112  1  0.74736014  0.91513531  1.02600546  1
  Co  Co113  1  0.58251652  0.22331271  0.35034788  1
  Co  Co114  1  0.57528533  0.88751866  0.02072613  1
  Co  Co115  1  0.51369027  0.91137719  0.37324159  1
  Co  Co116  1  0.50703750  0.56993447  0.12256845  1
  Co  Co117  1  0.18458388  0.20929297  0.08108685  1
  Co  Co118  1  0.14724128  0.34601142  0.35385729  1
  Co  Co119  1  0.03806462  0.58754508  0.42650864  1
  Co  Co120  1  0.30980020  1.00444755  0.16715677  1
  Co  Co121  1  0.76087449  0.33334709  0.67799172  1
  Co  Co122  1  0.02300850  0.31655748  0.58770999  1
  Co  Co123  1  0.62082947  0.76212959  0.93468294  1
  Co  Co124  1  0.58117755  0.03306768  0.16035270  1
  Co  Co125  1  0.68956160  0.77502260  0.07709411  1
  Co  Co126  1  0.28581933  0.18611837  0.44129934  1
  Co  Co127  1  0.36045444  0.01988551  0.79362489  1
  Co  Co128  1  0.68352321  0.72023163  0.22686390  1
  Co  Co129  1  0.89637170  0.65593532  0.39388438  1
  Co  Co130  1  0.52246860  0.42154181  0.18118912  1
  Co  Co131  1  0.67525527  0.06108354  0.81067746  1
  Co  Co132  1  0.14526105  0.89820707  0.72106504  1
  Co  Co133  1  0.49154164  0.55573949  0.95967643  1
  Co  Co134  1  0.51227865  0.39368775  0.72009484  1
  Co  Co135  1  0.64496532  0.28411142  0.81275687  1
  Co  Co136  1  0.22452320  0.21793600  0.89980274  1
  Co  Co137  1  0.12425154  0.85172573  0.88396705  1
  Co  Co138  1  0.26407461  0.64417578  0.20639739  1
  Co  Co139  1  0.92115319  0.38171312  0.26237628  1
  Co  Co140  1  0.39643483  0.03618551  0.42500210  1
  Co  Co141  1  0.70595634  0.75436036  0.78916077  1
  Co  Co142  1  0.32970228  0.56900113  0.55099913  1
  Co  Co143  1  0.43361353  0.99081390  0.64339311  1
  Co  Co144  1  0.16013943  0.61403440  0.32588328  1
  Co  Co145  1  0.08244070  0.46159406  0.72960385  1
  Co  Co146  1  0.35259512  0.36444380  0.18830205  1
  Co  Co147  1  0.05555519  0.74322104  0.39663829  1
  Co  Co148  1  0.41389076  0.22347899  0.98854826  1
  Co  Co149  1  0.55457386  0.43196962  0.87692874  1
  Co  Co150  1  0.29035682  0.10181184  0.30829049  1
  Co  Co151  1  0.05437400  0.39190502  0.16110008  1
  Co  Co152  1  0.89993921  0.86152040  0.01059785  1
  Co  Co153  1  0.75829547  0.79565800  0.36900321  1
  Co  Co154  1  0.30859148  0.48956384  -0.01566486  1
  Co  Co155  1  0.28096575  0.78524257  0.96878632  1
  Co  Co156  1  0.44828581  0.11226904  0.11247663  1
  Co  Co157  1  0.07071842  0.45544179  0.50471076  1
  Co  Co158  1  0.43061871  0.20397329  0.38476061  1
  Co  Co159  1  0.95785019  0.45618312  0.62378519  1
  Co  Co160  1  0.92934967  0.80032655  0.29161882  1
  Co  Co161  1  0.62401587  0.47120543  0.06389362  1
  Ni  Ni162  1  0.20919778  0.12541932  0.57223184  1
  Ni  Ni163  1  0.99247754  0.04233479  0.28746879  1
  Ni  Ni164  1  0.73728146  0.99196790  0.19823999  1
  Ni  Ni165  1  0.90944563  0.50284527  0.78127279  1
  Ni  Ni166  1  0.28641291  0.26351009  0.62198991  1
  Ni  Ni167  1  0.91614429  0.77922306  0.62675858  1
  Ni  Ni168  1  0.01747875  0.07465657  0.12588602  1
  Ni  Ni169  1  0.58306468  0.54299020  0.38487369  1
  Ni  Ni170  1  0.21207369  0.51336921  0.84000704  1
  Ni  Ni171  1  0.77334376  0.03206164  0.47495694  1
  Ni  Ni172  1  0.43058596  0.66551749  0.23712648  1
  Ni  Ni173  1  0.38944161  0.67113950  0.05972275  1
  Ni  Ni174  1  0.98436281  0.07435168  0.87645734  1
  Ni  Ni175  1  0.18094685  0.39376766  0.61534426  1
  Ni  Ni176  1  0.34269179  0.56274418  0.73410054  1
  Ni  Ni177  1  0.64460082  0.32233525  0.14025860  1
  Ni  Ni178  1  0.83267982  0.31916024  0.98551675  1
  Ni  Ni179  1  0.51660081  0.76946540  0.54047741  1
  Ni  Ni180  1  0.08579239  0.63433456  0.73225290  1
  Ni  Ni181  1  0.05282124  0.05053793  0.44699857  1
  Ni  Ni182  1  0.34152866  0.94880878  0.94803831  1
  Ni  Ni183  1  0.13087982  0.73888330  0.15761527  1
  Ni  Ni184  1  0.88910593  0.08747654  0.63761259  1
  Ni  Ni185  1  0.81495597  0.62076942  0.08463416  1
  Ni  Ni186  1  0.62078928  0.11482954  0.59953060  1
  Ni  Ni187  1  0.84023864  0.67285769  0.23751587  1
  Ni  Ni188  1  0.40497426  0.45996474  0.45803739  1
  Ni  Ni189  1  0.32058264  0.72676071  0.50378336  1
  Ni  Ni190  1  0.69048850  0.60585071  0.85346726  1
  Ni  Ni191  1  0.76825870  0.17807239  0.58403732  1
  Ni  Ni192  1  0.91355541  0.31274721  0.11995849  1
  Ni  Ni193  1  0.18856039  0.89164097  0.22218630  1
  Ni  Ni194  1  0.06340950  0.61874988  1.01644495  1
  Ni  Ni195  1  0.76566192  0.10562312  0.08212605  1
  Ni  Ni196  1  0.94923280  0.41640134  0.92496336  1
  Ni  Ni197  1  0.87439733  0.24011019  0.35476583  1
  Ni  Ni198  1  0.44696323  0.26497691  0.64909760  1
  Ni  Ni199  1  0.56800048  0.15370150  0.89052796  1
  Ni  Ni200  1  0.46106794  0.83850412  0.23208028  1
  Ni  Ni201  1  0.80510328  0.37552039  0.38131294  1
  Ni  Ni202  1  0.12030832  0.56131256  0.16534537  1
  Ni  Ni203  1  0.23125047  0.47229579  0.26448076  1
  Ni  Ni204  1  0.77791289  0.28801354  0.23734256  1
  Ni  Ni205  1  0.22278447  0.85775082  0.51225498  1
  Ni  Ni206  1  0.10787970  0.38238165  0.87942341  1
  Ni  Ni207  1  0.58742038  0.97404393  0.69956875  1
  Ni  Ni208  1  0.90712664  0.22590719  0.86568088  1
  Ni  Ni209  1  0.39367507  0.77168968  0.36424110  1
  Ni  Ni210  1  0.35942484  0.73522476  0.78831053  1
  Ni  Ni211  1  0.95503013  0.74294018  0.89544199  1
  Ni  Ni212  1  0.63502625  0.41369248  0.59381734  1
  Ni  Ni213  1  0.67794530  0.57916790  0.58053112  1
  Ni  Ni214  1  0.79403297  0.86562949  0.54783285  1
  Ni  Ni215  1  0.94577414  0.90650268  0.85062881  1
