# generated using pymatgen
data_Ti2CoNi
_symmetry_space_group_name_H-M   'P 1'
_cell_length_a   14.57494246
_cell_length_b   14.55317767
_cell_length_c   14.59606779
_cell_angle_alpha   89.79988006
_cell_angle_beta   90.05004203
_cell_angle_gamma   90.04468953
_symmetry_Int_Tables_number   1
_chemical_formula_structural   Ti2CoNi
_chemical_formula_sum   'Ti108 Co54 Ni54'
_cell_volume   3095.97614756
_cell_formula_units_Z   54
loop_
 _symmetry_equiv_pos_site_id
 _symmetry_equiv_pos_as_xyz
  1  'x, y, z'
loop_
 _atom_site_type_symbol
 _atom_site_label
 _atom_site_symmetry_multiplicity
 _atom_site_fract_x
 _atom_site_fract_y
 _atom_site_fract_z
 _atom_site_occupancy
  Ti  Ti0  1  0.03183687  0.09639062  -0.05095166  1
  Ti  Ti1  1  -0.03623324  -0.12346441  0.32699721  1
  Ti  Ti2  1  -0.03182216  0.03407161  0.64337068  1
  Ti  Ti3  1  0.03877644  0.32447431  -0.03543679  1
  Ti  Ti4  1  0.03736987  0.30223707  0.32258514  1
  Ti  Ti5  1  -0.01816993  0.34120794  0.76490457  1
  Ti  Ti6  1  -0.06187773  0.59723219  -0.01521615  1
  Ti  Ti7  1  0.04823039  0.67962206  0.27418138  1
  Ti  Ti8  1  -0.00229789  0.60999783  0.67159053  1
  Ti  Ti9  1  0.39663117  0.04296861  0.01127532  1
  Ti  Ti10  1  0.33825283  -0.04710272  0.38489384  1
  Ti  Ti11  1  0.26480016  -0.04229232  0.69207195  1
  Ti  Ti12  1  0.36312303  0.38044745  -0.01297597  1
  Ti  Ti13  1  0.33124010  0.29963020  0.25370305  1
  Ti  Ti14  1  0.35075745  0.33232941  0.57265157  1
  Ti  Ti15  1  0.38419211  0.73439993  -0.00333494  1
  Ti  Ti16  1  0.33218307  0.63245918  0.32008587  1
  Ti  Ti17  1  0.26900705  0.69696341  0.65712524  1
  Ti  Ti18  1  0.72964222  -0.04202254  0.04380823  1
  Ti  Ti19  1  0.60574186  0.04386538  0.30492616  1
  Ti  Ti20  1  0.67331112  -0.04037989  0.69304616  1
  Ti  Ti21  1  0.60030513  0.41693144  0.02391709  1
  Ti  Ti22  1  0.71944928  0.31676731  0.29562637  1
  Ti  Ti23  1  0.69159601  0.37631698  0.63654467  1
  Ti  Ti24  1  0.74408107  0.68947997  0.07046949  1
  Ti  Ti25  1  0.57194856  0.63052994  0.32256600  1
  Ti  Ti26  1  0.66647561  0.62454279  0.66227824  1
  Ti  Ti27  1  -0.00934819  0.16476921  0.20293949  1
  Ti  Ti28  1  0.03699103  0.14285516  0.50108644  1
  Ti  Ti29  1  0.05947241  0.17230519  0.77764492  1
  Ti  Ti30  1  -0.02651585  0.49368765  0.25153905  1
  Ti  Ti31  1  0.01808033  0.43622753  0.57508976  1
  Ti  Ti32  1  0.07212739  0.50877043  0.88163618  1
  Ti  Ti33  1  -0.01350980  0.86630785  0.13591035  1
  Ti  Ti34  1  0.01983633  0.88956806  0.50389909  1
  Ti  Ti35  1  0.00798643  0.89615607  0.83648162  1
  Ti  Ti36  1  0.31694970  0.09659378  0.17315197  1
  Ti  Ti37  1  0.39744021  0.10356124  0.51799921  1
  Ti  Ti38  1  0.33929130  0.20715172  0.89830371  1
  Ti  Ti39  1  0.29626671  0.59848370  0.12997316  1
  Ti  Ti40  1  0.30630585  0.52263925  0.50487314  1
  Ti  Ti41  1  0.41195786  0.44483610  0.80884154  1
  Ti  Ti42  1  0.31879396  0.85102281  0.17342568  1
  Ti  Ti43  1  0.34621927  0.80512077  0.51223056  1
  Ti  Ti44  1  0.34929694  0.88554072  0.86318797  1
  Ti  Ti45  1  0.66339173  0.16150535  0.13659630  1
  Ti  Ti46  1  0.70963823  0.15606654  0.46767611  1
  Ti  Ti47  1  0.66711635  0.26129567  0.83371182  1
  Ti  Ti48  1  0.66935449  0.52774535  0.16560234  1
  Ti  Ti49  1  0.60677055  0.45827550  0.45647415  1
  Ti  Ti50  1  0.68104419  0.45963691  0.82539516  1
  Ti  Ti51  1  0.63080352  0.85611630  0.18965999  1
  Ti  Ti52  1  0.70449222  0.82519055  0.51239851  1
  Ti  Ti53  1  0.76255513  0.79641356  0.77476374  1
  Ti  Ti54  1  0.14948775  0.00060442  0.11011563  1
  Ti  Ti55  1  0.13656264  -0.01242325  0.41288263  1
  Ti  Ti56  1  0.21140198  0.02739418  0.87822539  1
  Ti  Ti57  1  0.11360571  0.37572387  0.17651884  1
  Ti  Ti58  1  0.16011352  0.29771787  0.47872448  1
  Ti  Ti59  1  0.18334396  0.33799409  0.82168058  1
  Ti  Ti60  1  0.09216030  0.65074948  0.09262190  1
  Ti  Ti61  1  0.10158194  0.64694040  0.50561263  1
  Ti  Ti62  1  0.11830340  0.69564718  0.78459375  1
  Ti  Ti63  1  0.46261788  -0.02591157  0.21544412  1
  Ti  Ti64  1  0.54037661  -0.08889360  0.55117211  1
  Ti  Ti65  1  0.54506509  -0.01580175  0.88570668  1
  Ti  Ti66  1  0.53091173  0.32770208  0.20794357  1
  Ti  Ti67  1  0.48589578  0.30250482  0.41920337  1
  Ti  Ti68  1  0.45287741  0.26878307  0.73939447  1
  Ti  Ti69  1  0.55530572  0.68127522  0.13249669  1
  Ti  Ti70  1  0.56959377  0.68210306  0.51195546  1
  Ti  Ti71  1  0.54108804  0.67916700  0.85993559  1
  Ti  Ti72  1  0.87310224  0.00672400  0.22991999  1
  Ti  Ti73  1  0.85205216  -0.00277842  0.46257388  1
  Ti  Ti74  1  0.77806686  -0.00086672  0.85157460  1
  Ti  Ti75  1  0.91794887  0.35531637  0.13138165  1
  Ti  Ti76  1  0.80547869  0.33855173  0.48529427  1
  Ti  Ti77  1  0.80001869  0.32516954  0.97789463  1
  Ti  Ti78  1  0.90792222  0.67787375  0.15037398  1
  Ti  Ti79  1  0.86274375  0.64331895  0.48870730  1
  Ti  Ti80  1  0.84706704  0.62829425  0.81675624  1
  Ti  Ti81  1  0.13047282  0.21076879  0.07403300  1
  Ti  Ti82  1  0.24097891  0.13619125  0.35416368  1
  Ti  Ti83  1  0.18768781  0.15783695  0.65170642  1
  Ti  Ti84  1  0.18126552  0.46899507  0.03222260  1
  Ti  Ti85  1  0.16545705  0.53034812  0.35965903  1
  Ti  Ti86  1  0.27560636  0.46248039  0.69486926  1
  Ti  Ti87  1  0.19271069  0.79646963  0.01558060  1
  Ti  Ti88  1  0.14758026  0.84699578  0.27758727  1
  Ti  Ti89  1  0.11324317  0.83623614  0.65121582  1
  Ti  Ti90  1  0.51964212  0.16844157  -0.02694322  1
  Ti  Ti91  1  0.43251711  0.14103778  0.31941693  1
  Ti  Ti92  1  0.51041645  0.08501970  0.71246920  1
  Ti  Ti93  1  0.45234830  0.55170420  0.02840685  1
  Ti  Ti94  1  0.42629415  0.46134080  0.32900203  1
  Ti  Ti95  1  0.47800528  0.50411101  0.61574595  1
  Ti  Ti96  1  0.58162009  0.81417867  -0.00590730  1
  Ti  Ti97  1  0.53493745  0.83343658  0.36371506  1
  Ti  Ti98  1  0.45762420  0.79529550  0.67814602  1
  Ti  Ti99  1  0.79954708  0.14445413  -0.04903346  1
  Ti  Ti100  1  0.88183814  0.18954641  0.36229437  1
  Ti  Ti101  1  0.83683665  0.17096733  0.72811663  1
  Ti  Ti102  1  0.76590861  0.51956143  -0.01964460  1
  Ti  Ti103  1  0.80860035  0.58916309  0.29938995  1
  Ti  Ti104  1  0.82168301  0.50660427  0.65192566  1
  Ti  Ti105  1  0.85529435  0.81286431  -0.03059308  1
  Ti  Ti106  1  0.75279233  0.87522402  0.32584314  1
  Ti  Ti107  1  0.85930317  0.84993033  0.60531601  1
  Co  Co108  1  0.08684628  0.15509617  0.34751334  1
  Co  Co109  1  0.48912873  0.30328798  0.05906852  1
  Co  Co110  1  0.48295809  0.21015753  0.58293759  1
  Co  Co111  1  0.08602652  0.92937467  0.97925144  1
  Co  Co112  1  0.17737405  0.86386465  0.81026559  1
  Co  Co113  1  0.53332716  0.35835629  0.57659336  1
  Co  Co114  1  0.43538862  0.71169764  0.41932260  1
  Co  Co115  1  0.96179436  0.30161389  0.47748026  1
  Co  Co116  1  0.11141980  0.65296946  0.93795860  1
  Co  Co117  1  0.56742526  1.00760094  0.08716580  1
  Co  Co118  1  0.26187247  0.60840132  -0.02492873  1
  Co  Co119  1  0.98232074  0.73901744  0.57044802  1
  Co  Co120  1  0.49090294  -0.00930265  0.41717543  1
  Co  Co121  1  0.39933124  0.42533603  0.14194174  1
  Co  Co122  1  0.43199768  0.89384710  1.00589192  1
  Co  Co123  1  0.36190285  0.21641130  0.07541953  1
  Co  Co124  1  0.86784725  0.74486575  0.29124375  1
  Co  Co125  1  0.68964170  0.61327544  0.82187457  1
  Co  Co126  1  0.54405018  0.55871200  0.75174682  1
  Co  Co127  1  0.12254630  1.00780659  0.59879448  1
  Co  Co128  1  0.30096236  0.79563754  0.34431134  1
  Co  Co129  1  0.39024983  0.73503140  0.80441326  1
  Co  Co130  1  0.68776462  0.88737085  0.89625542  1
  Co  Co131  1  0.65417320  0.08541102  0.95699917  1
  Co  Co132  1  0.56096091  0.39462547  0.74005239  1
  Co  Co133  1  0.88470623  0.35044766  0.30959455  1
  Co  Co134  1  0.60250429  0.24460425  0.68449149  1
  Co  Co135  1  0.10288468  0.00744789  0.75522333  1
  Co  Co136  1  0.82838521  0.23209416  0.19425936  1
  Co  Co137  1  0.62217484  0.60114740  -0.00473478  1
  Co  Co138  1  0.71555335  0.16572189  0.62740901  1
  Co  Co139  1  0.76794600  0.06406779  0.33779367  1
  Co  Co140  1  0.25127323  0.73529079  0.87455648  1
  Co  Co141  1  0.39175468  0.59141892  0.87820472  1
  Co  Co142  1  0.26185586  0.66983889  0.46772282  1
  Co  Co143  1  0.49095584  0.14772231  0.16573896  1
  Co  Co144  1  0.40906077  0.65638109  0.57915115  1
  Co  Co145  1  0.53426359  0.49521520  0.89756301  1
  Co  Co146  1  0.44293436  0.74319558  0.26166706  1
  Co  Co147  1  0.66076076  0.10660003  0.78853526  1
  Co  Co148  1  0.46583660  0.55627899  0.45332225  1
  Co  Co149  1  0.58993617  0.06768326  0.57610929  1
  Co  Co150  1  0.71286357  0.99869941  0.19598630  1
  Co  Co151  1  0.22258045  0.90697444  0.53097293  1
  Co  Co152  1  0.71097161  0.73151054  0.91804217  1
  Co  Co153  1  0.26959239  0.93711548  0.02532557  1
  Co  Co154  1  0.97055981  0.04726215  0.37715344  1
  Co  Co155  1  0.59499280  0.20951157  0.30289611  1
  Co  Co156  1  0.78110870  1.02554464  0.59725075  1
  Co  Co157  1  0.87928554  0.35032057  0.62959376  1
  Co  Co158  1  0.65114835  0.26101240  1.00648838  1
  Co  Co159  1  0.25962291  0.59804842  0.78528895  1
  Co  Co160  1  0.01358245  0.48470600  0.07192160  1
  Co  Co161  1  0.25673721  0.33293161  0.10963042  1
  Ni  Ni162  1  0.93636104  0.20575588  0.04546182  1
  Ni  Ni163  1  0.54702696  0.14502562  0.44135684  1
  Ni  Ni164  1  0.96905379  0.72196132  0.86812663  1
  Ni  Ni165  1  0.24443994  0.11189719  1.01736803  1
  Ni  Ni166  1  0.15119446  0.79435655  0.43671266  1
  Ni  Ni167  1  0.73022128  0.36768858  0.12843793  1
  Ni  Ni168  1  0.05714860  0.99970652  0.24861787  1
  Ni  Ni169  1  0.51814138  0.32405612  0.89391904  1
  Ni  Ni170  1  -0.01742526  0.03422818  0.09380994  1
  Ni  Ni171  1  0.45372989  0.57199926  0.20335838  1
  Ni  Ni172  1  0.38537004  0.95205080  0.58145226  1
  Ni  Ni173  1  0.18269523  0.22237370  0.22571017  1
  Ni  Ni174  1  0.93817529  0.06266979  0.81967067  1
  Ni  Ni175  1  0.16295164  0.54590800  0.61133676  1
  Ni  Ni176  1  0.86052047  0.94435719  0.73047359  1
  Ni  Ni177  1  0.76659007  0.45919349  0.38151668  1
  Ni  Ni178  1  0.13274397  0.53976844  0.19738591  1
  Ni  Ni179  1  0.70612703  0.71038949  0.23310063  1
  Ni  Ni180  1  0.38956711  0.06074920  0.82985285  1
  Ni  Ni181  1  0.57137910  0.83920297  0.79966036  1
  Ni  Ni182  1  0.10153500  0.46443243  0.73198912  1
  Ni  Ni183  1  0.86984446  0.17390323  0.55611664  1
  Ni  Ni184  1  0.90547862  0.97447497  -0.03493237  1
  Ni  Ni185  1  -0.04148229  0.77858993  0.72320376  1
  Ni  Ni186  1  0.93473518  0.49351466  0.77342292  1
  Ni  Ni187  1  0.85795693  0.81199986  0.44466797  1
  Ni  Ni188  1  0.72117649  0.55537570  0.51680106  1
  Ni  Ni189  1  0.82412411  0.09508252  0.10431402  1
  Ni  Ni190  1  0.71516286  0.70174007  0.39690825  1
  Ni  Ni191  1  0.02834393  0.26078022  0.62298254  1
  Ni  Ni192  1  0.01699000  0.77709250  0.00837985  1
  Ni  Ni193  1  0.23442686  0.08698623  0.51223237  1
  Ni  Ni194  1  0.26963471  0.45985176  0.23507548  1
  Ni  Ni195  1  0.66921968  0.98265404  0.45455741  1
  Ni  Ni196  1  0.81186638  0.83832570  0.15380902  1
  Ni  Ni197  1  0.83298545  0.68626975  0.65097885  1
  Ni  Ni198  1  0.32606575  0.24816849  0.43451305  1
  Ni  Ni199  1  0.60192618  0.45287481  0.29314739  1
  Ni  Ni200  1  0.91714055  0.43147369  0.92709714  1
  Ni  Ni201  1  0.29249663  0.26245261  0.72835221  1
  Ni  Ni202  1  0.91532582  0.23587890  0.87654666  1
  Ni  Ni203  1  0.81105510  0.36384993  0.78840968  1
  Ni  Ni204  1  0.48033938  0.82824154  0.13445178  1
  Ni  Ni205  1  0.16772907  0.19982087  0.90538477  1
  Ni  Ni206  1  0.05246366  0.43087292  0.41496649  1
  Ni  Ni207  1  0.23038128  -0.00998619  0.26308582  1
  Ni  Ni208  1  0.25569719  0.47072070  0.88017895  1
  Ni  Ni209  1  0.84122205  0.51457420  0.13315427  1
  Ni  Ni210  1  0.27126148  0.39872834  0.39193879  1
  Ni  Ni211  1  0.97814189  0.57330763  0.39232141  1
  Ni  Ni212  1  -0.00601444  0.73525386  0.41063185  1
  Ni  Ni213  1  0.21011593  0.71254077  0.20874046  1
  Ni  Ni214  1  0.63310658  0.79012065  0.65478260  1
  Ni  Ni215  1  0.17322624  0.33990524  0.63950313  1
