# generated using pymatgen
data_Ti2CoNi
_symmetry_space_group_name_H-M   'P 1'
_cell_length_a   14.46336789
_cell_length_b   14.50115450
_cell_length_c   14.52429767
_cell_angle_alpha   89.90672672
_cell_angle_beta   89.45794282
_cell_angle_gamma   89.63480380
_symmetry_Int_Tables_number   1
_chemical_formula_structural   Ti2CoNi
_chemical_formula_sum   'Ti108 Co54 Ni54'
_cell_volume   3046.05935943
_cell_formula_units_Z   54
loop_
 _symmetry_equiv_pos_site_id
 _symmetry_equiv_pos_as_xyz
  1  'x, y, z'
loop_
 _atom_site_type_symbol
 _atom_site_label
 _atom_site_symmetry_multiplicity
 _atom_site_fract_x
 _atom_site_fract_y
 _atom_site_fract_z
 _atom_site_occupancy
  Ti  Ti0  1  0.01830787  0.00265286  0.05565098  1
  Ti  Ti1  1  -0.05225603  -0.00304474  0.37761321  1
  Ti  Ti2  1  -0.01374921  0.02433346  0.72249852  1
  Ti  Ti3  1  0.04820582  0.33049576  0.00482196  1
  Ti  Ti4  1  -0.01853343  0.33813532  0.27851083  1
  Ti  Ti5  1  -0.03480065  0.44821421  0.64942409  1
  Ti  Ti6  1  -0.02594255  0.71678789  -0.05218061  1
  Ti  Ti7  1  -0.03558208  0.66459999  0.33586685  1
  Ti  Ti8  1  0.02266425  0.65589613  0.63215559  1
  Ti  Ti9  1  0.33323441  0.04759292  -0.02839399  1
  Ti  Ti10  1  0.33454907  0.08370152  0.36301275  1
  Ti  Ti11  1  0.31839540  0.08348670  0.72164833  1
  Ti  Ti12  1  0.29358671  0.38229109  -0.00914412  1
  Ti  Ti13  1  0.28569235  0.31726867  0.35913902  1
  Ti  Ti14  1  0.35865567  0.33135745  0.69623002  1
  Ti  Ti15  1  0.31964700  0.69305184  -0.02049459  1
  Ti  Ti16  1  0.37235960  0.60526243  0.28197195  1
  Ti  Ti17  1  0.22538005  0.62433924  0.71862140  1
  Ti  Ti18  1  0.69935914  0.03510882  0.01023844  1
  Ti  Ti19  1  0.60425004  -0.00189305  0.30861183  1
  Ti  Ti20  1  0.76647661  0.05333216  0.71834878  1
  Ti  Ti21  1  0.74271862  0.34879344  0.06299352  1
  Ti  Ti22  1  0.67230527  0.26494075  0.42541329  1
  Ti  Ti23  1  0.62113107  0.34471842  0.73666275  1
  Ti  Ti24  1  0.58074617  0.74851021  -0.02687062  1
  Ti  Ti25  1  0.68215913  0.60700017  0.34495527  1
  Ti  Ti26  1  0.74168632  0.72081778  0.69593527  1
  Ti  Ti27  1  -0.06479443  0.19755787  0.11933314  1
  Ti  Ti28  1  0.02520056  0.17101262  0.45512028  1
  Ti  Ti29  1  0.03166189  0.12693504  0.89915650  1
  Ti  Ti30  1  -0.01478777  0.52509661  0.07189071  1
  Ti  Ti31  1  -0.00650466  0.44357112  0.45858717  1
  Ti  Ti32  1  -0.03929609  0.44720301  0.84322580  1
  Ti  Ti33  1  0.10374396  0.79112802  0.18620694  1
  Ti  Ti34  1  0.00537037  0.78081534  0.48147999  1
  Ti  Ti35  1  -0.00315381  0.81444365  0.77213667  1
  Ti  Ti36  1  0.32062011  0.12702673  0.16004528  1
  Ti  Ti37  1  0.34222185  0.21675196  0.54016215  1
  Ti  Ti38  1  0.35354682  0.22242712  0.86271495  1
  Ti  Ti39  1  0.36769354  0.45807642  0.15720458  1
  Ti  Ti40  1  0.31856028  0.43896085  0.53046448  1
  Ti  Ti41  1  0.33268909  0.52355919  0.87335959  1
  Ti  Ti42  1  0.31466222  0.86922777  0.27174599  1
  Ti  Ti43  1  0.38291360  0.86533017  0.49205219  1
  Ti  Ti44  1  0.32026854  0.78645338  0.80420751  1
  Ti  Ti45  1  0.62164905  0.12614963  0.14082788  1
  Ti  Ti46  1  0.69387099  0.17991014  0.60806669  1
  Ti  Ti47  1  0.69442549  0.19379475  0.83539092  1
  Ti  Ti48  1  0.69413132  0.48094040  0.21018266  1
  Ti  Ti49  1  0.66746529  0.44684923  0.51428960  1
  Ti  Ti50  1  0.63994990  0.55312543  0.76933307  1
  Ti  Ti51  1  0.65307629  0.76876002  0.18104780  1
  Ti  Ti52  1  0.76254004  0.76453349  0.48082550  1
  Ti  Ti53  1  0.64268982  0.87744540  0.75774881  1
  Ti  Ti54  1  0.20045385  -0.04471005  0.10149357  1
  Ti  Ti55  1  0.15049822  -0.00912422  0.51989461  1
  Ti  Ti56  1  0.18645286  -0.05582138  0.82495127  1
  Ti  Ti57  1  0.21533799  0.32559288  0.16345013  1
  Ti  Ti58  1  0.14911374  0.32050801  0.49696836  1
  Ti  Ti59  1  0.09187699  0.31363100  0.77218919  1
  Ti  Ti60  1  0.12672919  0.59804050  0.22097153  1
  Ti  Ti61  1  0.20725304  0.71446855  0.50057988  1
  Ti  Ti62  1  0.16068477  0.72952846  0.88889319  1
  Ti  Ti63  1  0.48212269  -0.13058328  0.19315441  1
  Ti  Ti64  1  0.51730383  0.02720917  0.51190176  1
  Ti  Ti65  1  0.52972554  -0.04330965  0.91623555  1
  Ti  Ti66  1  0.53564929  0.31669700  0.11934818  1
  Ti  Ti67  1  0.47762627  0.35765072  0.50298943  1
  Ti  Ti68  1  0.47826808  0.41884992  0.84434440  1
  Ti  Ti69  1  0.45186569  0.68991977  0.12702911  1
  Ti  Ti70  1  0.45672515  0.66774857  0.53231134  1
  Ti  Ti71  1  0.47316171  0.64808636  0.83582384  1
  Ti  Ti72  1  0.86023323  -0.03727936  0.18942416  1
  Ti  Ti73  1  0.79319137  0.01550426  0.51074653  1
  Ti  Ti74  1  0.85997800  0.00144161  0.87666791  1
  Ti  Ti75  1  0.78974312  0.28874863  0.25360063  1
  Ti  Ti76  1  0.85956130  0.31713526  0.47194386  1
  Ti  Ti77  1  0.87780065  0.30457995  0.72333327  1
  Ti  Ti78  1  0.92666525  0.68564137  0.15123781  1
  Ti  Ti79  1  0.85618479  0.61421521  0.51740684  1
  Ti  Ti80  1  0.77220700  0.70417719  0.87714191  1
  Ti  Ti81  1  0.16272732  0.16360185  0.03846532  1
  Ti  Ti82  1  0.12500742  0.20539187  0.30122755  1
  Ti  Ti83  1  0.12877355  0.15615010  0.61543629  1
  Ti  Ti84  1  0.19009455  0.52790239  0.04065635  1
  Ti  Ti85  1  0.19701723  0.53447255  0.40406736  1
  Ti  Ti86  1  0.13111604  0.51428873  0.57433030  1
  Ti  Ti87  1  0.09066412  0.83831453  0.00926740  1
  Ti  Ti88  1  0.10736530  0.87253776  0.35803102  1
  Ti  Ti89  1  0.15725313  0.81071403  0.64495717  1
  Ti  Ti90  1  0.52191131  0.15447202  -0.02947468  1
  Ti  Ti91  1  0.46308655  0.26337455  0.32954961  1
  Ti  Ti92  1  0.55794744  0.09793002  0.72358827  1
  Ti  Ti93  1  0.60673521  0.47647293  0.03882757  1
  Ti  Ti94  1  0.55998572  0.42787621  0.34391227  1
  Ti  Ti95  1  0.51517881  0.49833968  0.63691504  1
  Ti  Ti96  1  0.40577704  0.86142972  0.00794994  1
  Ti  Ti97  1  0.57868076  0.78674121  0.37445645  1
  Ti  Ti98  1  0.46689314  0.80817044  0.67528541  1
  Ti  Ti99  1  0.84370365  0.18432645  -0.03458934  1
  Ti  Ti100  1  0.77820753  0.10617077  0.32406915  1
  Ti  Ti101  1  0.89975577  0.15879627  0.59109264  1
  Ti  Ti102  1  0.78566775  0.51215114  -0.08286375  1
  Ti  Ti103  1  0.89013303  0.51336435  0.23138765  1
  Ti  Ti104  1  0.82247003  0.55482542  0.70433683  1
  Ti  Ti105  1  0.78517764  0.81443427  0.03468293  1
  Ti  Ti106  1  0.76246637  0.89468486  0.34525931  1
  Ti  Ti107  1  0.85106122  0.90113638  0.66803656  1
  Co  Co108  1  0.19382217  0.57355070  0.87171807  1
  Co  Co109  1  0.67575702  0.22292358  -0.00468185  1
  Co  Co110  1  0.03524381  0.93303847  0.87403146  1
  Co  Co111  1  0.79933810  0.50814336  0.08707100  1
  Co  Co112  1  0.50232453  0.95502042  0.74756664  1
  Co  Co113  1  0.94818304  0.27069444  0.87417996  1
  Co  Co114  1  0.16536190  0.37056164  0.64370083  1
  Co  Co115  1  0.84380331  0.53403620  0.37601239  1
  Co  Co116  1  0.76209196  0.64612097  0.18806559  1
  Co  Co117  1  0.88817049  0.88464559  0.48039572  1
  Co  Co118  1  0.66129864  0.03484641  0.84984412  1
  Co  Co119  1  0.28860027  0.58785035  0.58019237  1
  Co  Co120  1  0.04842488  0.56193635  0.93348207  1
  Co  Co121  1  1.01212552  0.87424939  0.61561917  1
  Co  Co122  1  0.12983645  0.97669655  0.67217974  1
  Co  Co123  1  0.72070143  0.65916589  0.03091777  1
  Co  Co124  1  0.36684238  0.94165519  0.84952388  1
  Co  Co125  1  0.66065428  0.08975167  0.45292721  1
  Co  Co126  1  0.64152907  0.42756563  0.87745254  1
  Co  Co127  1  0.63034803  0.31813440  0.23655599  1
  Co  Co128  1  0.30509354  0.79982981  0.12014879  1
  Co  Co129  1  0.83033898  0.46623182  0.53323563  1
  Co  Co130  1  0.87068449  0.62452496  -0.00271913  1
  Co  Co131  1  0.06881953  0.26076996  0.15959311  1
  Co  Co132  1  0.51087413  0.50067588  0.20832964  1
  Co  Co133  1  0.48581756  0.09951800  0.37263793  1
  Co  Co134  1  0.02541100  0.50566090  0.32171459  1
  Co  Co135  1  -0.00006900  0.29480776  0.57944841  1
  Co  Co136  1  0.64847783  0.91612026  0.47116989  1
  Co  Co137  1  0.54174627  0.19790334  0.48979430  1
  Co  Co138  1  0.62560701  0.59059160  0.92457204  1
  Co  Co139  1  0.41606506  0.75847352  0.35231010  1
  Co  Co140  1  0.23868391  0.48374549  0.25307894  1
  Co  Co141  1  0.31624356  0.21742513  0.02633414  1
  Co  Co142  1  0.22067518  0.12459137  0.89132471  1
  Co  Co143  1  0.66003267  0.00111411  0.61809497  1
  Co  Co144  1  0.77337413  0.41855080  0.76940326  1
  Co  Co145  1  0.23697723  0.23169615  0.74543835  1
  Co  Co146  1  0.76637884  0.32385954  0.89347311  1
  Co  Co147  1  0.71448763  0.85423919  0.61085672  1
  Co  Co148  1  0.35317960  0.96549260  0.13113196  1
  Co  Co149  1  0.13813941  0.10738306  0.76596223  1
  Co  Co150  1  0.45402640  0.92203242  0.36265678  1
  Co  Co151  1  0.88287150  0.37775828  -0.01482732  1
  Co  Co152  1  0.95580350  0.83746139  0.12205270  1
  Co  Co153  1  1.00222517  0.18645982  0.72968585  1
  Co  Co154  1  0.60335046  0.31454277  0.59138685  1
  Co  Co155  1  0.45119173  0.08288760  0.84499174  1
  Co  Co156  1  0.81414896  0.70334629  0.33344419  1
  Co  Co157  1  0.24873183  0.87074745  0.96439771  1
  Co  Co158  1  0.60008621  0.61062113  0.12055565  1
  Co  Co159  1  0.48079635  0.81310112  0.84904618  1
  Co  Co160  1  0.13703753  0.42476367  0.89772702  1
  Co  Co161  1  0.90106671  0.37067251  0.14105501  1
  Ni  Ni162  1  0.04897640  0.61277509  0.47186790  1
  Ni  Ni163  1  0.10766320  0.05201079  0.36122244  1
  Ni  Ni164  1  0.50620453  0.58182969  0.39710250  1
  Ni  Ni165  1  0.39724536  0.64641162  0.69479618  1
  Ni  Ni166  1  0.31195562  0.05056007  0.52880410  1
  Ni  Ni167  1  0.13554205  0.38433439  0.32620991  1
  Ni  Ni168  1  0.82713195  0.84493581  0.82405928  1
  Ni  Ni169  1  0.60231972  0.76287850  0.54361343  1
  Ni  Ni170  1  0.76459037  0.34080453  0.61192317  1
  Ni  Ni171  1  0.50417558  0.01936219  0.08035299  1
  Ni  Ni172  1  0.24216203  0.72595816  0.26299273  1
  Ni  Ni173  1  0.90449611  0.20585988  0.35627756  1
  Ni  Ni174  1  0.60216065  0.88881406  0.06253677  1
  Ni  Ni175  1  0.09981876  0.50164932  0.74439814  1
  Ni  Ni176  1  0.23005457  0.01772179  0.25580466  1
  Ni  Ni177  1  0.44611525  0.29895002  0.97521432  1
  Ni  Ni178  1  0.50271913  0.25051260  0.79780168  1
  Ni  Ni179  1  0.28675931  0.62323243  0.13858265  1
  Ni  Ni180  1  0.93077809  0.83927353  0.31286010  1
  Ni  Ni181  1  0.44871358  0.45073877  0.01199992  1
  Ni  Ni182  1  0.38610889  0.27888443  0.17204367  1
  Ni  Ni183  1  0.03948197  0.95423659  0.22480266  1
  Ni  Ni184  1  0.47748022  0.14034766  0.21050666  1
  Ni  Ni185  1  0.41176979  0.96893054  0.62292822  1
  Ni  Ni186  1  0.81253319  0.80578177  0.20011933  1
  Ni  Ni187  1  0.92054911  0.87168766  0.96686507  1
  Ni  Ni188  1  0.34200988  0.60612993  0.43666892  1
  Ni  Ni189  1  0.36120947  0.49435039  0.71163522  1
  Ni  Ni190  1  0.31954469  0.75964374  0.61381420  1
  Ni  Ni191  1  0.47815077  0.21165008  0.63586514  1
  Ni  Ni192  1  0.53605179  0.66589884  0.26226609  1
  Ni  Ni193  1  0.86661335  0.04292601  1.04251664  1
  Ni  Ni194  1  0.69455768  0.88798230  0.91758909  1
  Ni  Ni195  1  0.28272926  0.91324259  0.69047667  1
  Ni  Ni196  1  0.25689154  0.93425922  0.40654163  1
  Ni  Ni197  1  0.89261780  0.75334773  0.60916845  1
  Ni  Ni198  1  0.06573182  0.65615171  0.78492736  1
  Ni  Ni199  1  0.47372315  0.60194577  0.99261310  1
  Ni  Ni200  1  0.20855560  0.16310137  0.44623552  1
  Ni  Ni201  1  0.68630451  0.58558372  0.60103427  1
  Ni  Ni202  1  0.73478776  0.41654114  0.35757214  1
  Ni  Ni203  1  0.38697760  0.45517104  0.34482828  1
  Ni  Ni204  1  0.11835911  0.09399426  0.17282793  1
  Ni  Ni205  1  0.61280344  0.17049102  0.30278190  1
  Ni  Ni206  1  0.09684532  0.67314445  0.06410690  1
  Ni  Ni207  1  0.19489716  0.27954553  0.90894542  1
  Ni  Ni208  1  0.78475596  0.13209519  0.15895465  1
  Ni  Ni209  1  0.90883845  0.61034292  0.82717120  1
  Ni  Ni210  1  0.86102627  0.15678375  0.79556796  1
  Ni  Ni211  1  0.57331625  0.68228561  0.68576270  1
  Ni  Ni212  1  0.12226131  0.69708413  0.35683850  1
  Ni  Ni213  1  0.98760604  0.02158584  0.54308120  1
  Ni  Ni214  1  0.09201912  0.44448349  0.16565691  1
  Ni  Ni215  1  0.96814505  0.10211556  0.24166422  1
