# generated using pymatgen
data_Ti2CoNi
_symmetry_space_group_name_H-M   'P 1'
_cell_length_a   14.62842838
_cell_length_b   14.61807636
_cell_length_c   14.62664465
_cell_angle_alpha   90.02437290
_cell_angle_beta   90.11255041
_cell_angle_gamma   90.03230791
_symmetry_Int_Tables_number   1
_chemical_formula_structural   Ti2CoNi
_chemical_formula_sum   'Ti108 Co54 Ni54'
_cell_volume   3127.74731672
_cell_formula_units_Z   54
loop_
 _symmetry_equiv_pos_site_id
 _symmetry_equiv_pos_as_xyz
  1  'x, y, z'
loop_
 _atom_site_type_symbol
 _atom_site_label
 _atom_site_symmetry_multiplicity
 _atom_site_fract_x
 _atom_site_fract_y
 _atom_site_fract_z
 _atom_site_occupancy
  Ti  Ti0  1  -0.09305385  -0.01147264  -0.06880591  1
  Ti  Ti1  1  0.05089378  0.06593801  0.34262364  1
  Ti  Ti2  1  -0.05074390  0.01259947  0.64567981  1
  Ti  Ti3  1  -0.00478199  0.32089000  0.02423767  1
  Ti  Ti4  1  -0.01191921  0.28077164  0.31570192  1
  Ti  Ti5  1  -0.01241225  0.32386141  0.57788310  1
  Ti  Ti6  1  -0.04385492  0.68257858  -0.01564903  1
  Ti  Ti7  1  0.04055439  0.73989555  0.36570276  1
  Ti  Ti8  1  -0.03233519  0.62161297  0.67727496  1
  Ti  Ti9  1  0.35305961  -0.06660667  -0.03045320  1
  Ti  Ti10  1  0.31651148  0.00647168  0.29176570  1
  Ti  Ti11  1  0.30293043  0.03540834  0.69193154  1
  Ti  Ti12  1  0.32482425  0.36871158  0.00645400  1
  Ti  Ti13  1  0.32853910  0.34336421  0.35686889  1
  Ti  Ti14  1  0.27684479  0.28124956  0.67985445  1
  Ti  Ti15  1  0.33282956  0.73850735  0.00781669  1
  Ti  Ti16  1  0.37687107  0.65737090  0.31520917  1
  Ti  Ti17  1  0.39062840  0.58345302  0.65815285  1
  Ti  Ti18  1  0.68053718  -0.04975115  -0.02647702  1
  Ti  Ti19  1  0.64913823  0.08053433  0.24414037  1
  Ti  Ti20  1  0.64645621  -0.01497403  0.61243583  1
  Ti  Ti21  1  0.64665689  0.36541845  0.05052058  1
  Ti  Ti22  1  0.64549907  0.34589481  0.27090190  1
  Ti  Ti23  1  0.64060069  0.20002644  0.57451523  1
  Ti  Ti24  1  0.59661913  0.67586359  0.02369076  1
  Ti  Ti25  1  0.73109324  0.64539726  0.33875760  1
  Ti  Ti26  1  0.62765998  0.76540637  0.66062430  1
  Ti  Ti27  1  -0.05617191  0.10655385  0.08106598  1
  Ti  Ti28  1  -0.06559527  0.15156842  0.50047992  1
  Ti  Ti29  1  0.01825788  0.16081122  0.76257267  1
  Ti  Ti30  1  0.00488645  0.58916032  0.23567646  1
  Ti  Ti31  1  0.02499077  0.51168842  0.51737694  1
  Ti  Ti32  1  0.01207116  0.43656216  0.81025000  1
  Ti  Ti33  1  -0.00784792  0.80759415  0.18921372  1
  Ti  Ti34  1  -0.01126379  0.91576599  0.46660120  1
  Ti  Ti35  1  0.07221423  0.90529047  0.81141206  1
  Ti  Ti36  1  0.35004039  0.15920433  0.12589294  1
  Ti  Ti37  1  0.37614399  0.17926961  0.54625307  1
  Ti  Ti38  1  0.32227351  0.16846357  0.92904299  1
  Ti  Ti39  1  0.39274517  0.52358653  0.09223383  1
  Ti  Ti40  1  0.25705939  0.48586150  0.54572005  1
  Ti  Ti41  1  0.34117232  0.51519849  0.84681620  1
  Ti  Ti42  1  0.29538574  0.82593227  0.17512166  1
  Ti  Ti43  1  0.32087837  0.83464172  0.57999133  1
  Ti  Ti44  1  0.34247835  0.76212948  0.79541464  1
  Ti  Ti45  1  0.75009775  0.22824924  0.15448695  1
  Ti  Ti46  1  0.72421241  0.19342818  0.37327190  1
  Ti  Ti47  1  0.59290063  0.24679275  0.88757457  1
  Ti  Ti48  1  0.72665306  0.51652246  0.13197052  1
  Ti  Ti49  1  0.65158903  0.49626060  0.50767999  1
  Ti  Ti50  1  0.68642841  0.55540392  0.87264445  1
  Ti  Ti51  1  0.75338125  0.83136097  0.26832386  1
  Ti  Ti52  1  0.67557626  0.84235097  0.48123012  1
  Ti  Ti53  1  0.64652566  0.78832775  0.86391124  1
  Ti  Ti54  1  0.11752444  -0.00572323  0.14828148  1
  Ti  Ti55  1  0.18332839  -0.04539777  0.44189509  1
  Ti  Ti56  1  0.20987990  0.01991090  0.86849037  1
  Ti  Ti57  1  0.17111463  0.28421624  0.22596749  1
  Ti  Ti58  1  0.12459817  0.38128513  0.40860130  1
  Ti  Ti59  1  0.20130627  0.32605509  0.86727877  1
  Ti  Ti60  1  0.20695113  0.56991080  0.16676418  1
  Ti  Ti61  1  0.17431172  0.65178759  0.49236016  1
  Ti  Ti62  1  0.14238007  0.68589195  0.88764937  1
  Ti  Ti63  1  0.49524466  -0.05334271  0.21791846  1
  Ti  Ti64  1  0.50460292  -0.04069715  0.42742699  1
  Ti  Ti65  1  0.49597971  0.06629737  0.88579740  1
  Ti  Ti66  1  0.43629577  0.31829418  0.20589045  1
  Ti  Ti67  1  0.42232448  0.36965676  0.53081587  1
  Ti  Ti68  1  0.41817364  0.31497571  0.83344272  1
  Ti  Ti69  1  0.53377475  0.60472387  0.21282272  1
  Ti  Ti70  1  0.51046370  0.69023185  0.52119330  1
  Ti  Ti71  1  0.51791291  0.64299130  0.80826163  1
  Ti  Ti72  1  0.83277825  -0.04989003  0.14240714  1
  Ti  Ti73  1  0.81002607  0.00427562  0.45486554  1
  Ti  Ti74  1  0.79411196  0.02308310  0.78354425  1
  Ti  Ti75  1  0.92746892  0.41575338  0.18721964  1
  Ti  Ti76  1  0.79103221  0.36494691  0.57654292  1
  Ti  Ti77  1  0.79290269  0.39497158  0.77424106  1
  Ti  Ti78  1  0.81191635  0.68866046  0.14350498  1
  Ti  Ti79  1  0.83937597  0.57643280  0.51718500  1
  Ti  Ti80  1  0.84301282  0.72557422  0.81786467  1
  Ti  Ti81  1  0.11144325  0.17330963  -0.03948090  1
  Ti  Ti82  1  0.22326102  0.16426368  0.39902539  1
  Ti  Ti83  1  0.15171310  0.17677888  0.60420280  1
  Ti  Ti84  1  0.06096984  0.51427892  0.00681716  1
  Ti  Ti85  1  0.23177609  0.52139462  0.34130284  1
  Ti  Ti86  1  0.18609117  0.46403204  0.72587591  1
  Ti  Ti87  1  0.14273329  0.78545333  0.05647005  1
  Ti  Ti88  1  0.24123999  0.78741085  0.36627543  1
  Ti  Ti89  1  0.14456567  0.76073464  0.67682157  1
  Ti  Ti90  1  0.57518807  0.10371960  0.06014434  1
  Ti  Ti91  1  0.50767518  0.17312142  0.36112794  1
  Ti  Ti92  1  0.50739319  0.10988498  0.69227507  1
  Ti  Ti93  1  0.50740537  0.45989036  -0.08416564  1
  Ti  Ti94  1  0.50523077  0.46761098  0.35580223  1
  Ti  Ti95  1  0.52162217  0.43853701  0.70361179  1
  Ti  Ti96  1  0.52331521  0.86088644  0.05345571  1
  Ti  Ti97  1  0.54732093  0.77589491  0.33149093  1
  Ti  Ti98  1  0.47910252  0.90694818  0.71286705  1
  Ti  Ti99  1  0.79337687  0.20499962  -0.03518243  1
  Ti  Ti100  1  0.87583711  0.12857321  0.27596265  1
  Ti  Ti101  1  0.81810464  0.20432637  0.70157512  1
  Ti  Ti102  1  0.85906367  0.48083138  -0.05144629  1
  Ti  Ti103  1  0.79683116  0.45199984  0.36557123  1
  Ti  Ti104  1  0.74657260  0.59527165  0.68288300  1
  Ti  Ti105  1  0.83566020  0.81817442  0.00898918  1
  Ti  Ti106  1  0.85460732  0.77329350  0.44459854  1
  Ti  Ti107  1  0.95872150  0.81987275  0.63043069  1
  Co  Co108  1  0.09270816  0.43914612  0.25041890  1
  Co  Co109  1  0.19262009  0.92615475  1.01949506  1
  Co  Co110  1  0.15606107  0.72437187  0.23316527  1
  Co  Co111  1  0.67860535  0.44952672  0.67037796  1
  Co  Co112  1  0.73528179  0.35887143  0.92240878  1
  Co  Co113  1  0.25927070  0.29256052  0.49502190  1
  Co  Co114  1  0.84301697  0.55959391  0.24995773  1
  Co  Co115  1  0.91332491  0.25186989  0.15416104  1
  Co  Co116  1  0.96901244  0.82839125  0.91485846  1
  Co  Co117  1  0.45557773  0.74177461  0.67445006  1
  Co  Co118  1  0.95994615  0.44458039  0.36247968  1
  Co  Co119  1  0.78487231  0.87877526  0.86885617  1
  Co  Co120  1  0.34565933  0.18849995  0.29117763  1
  Co  Co121  1  0.43862418  0.01992878  0.07278050  1
  Co  Co122  1  0.65857460  0.05658746  0.43588804  1
  Co  Co123  1  0.40827203  0.78130374  0.43962790  1
  Co  Co124  1  0.29526560  0.98104393  0.13561149  1
  Co  Co125  1  0.78830843  0.19624245  0.52133337  1
  Co  Co126  1  0.36561772  0.49842175  0.42637236  1
  Co  Co127  1  0.70373207  0.33653571  0.44332212  1
  Co  Co128  1  0.26118899  0.05345518  0.53918831  1
  Co  Co129  1  0.48082401  0.36776893  0.04743921  1
  Co  Co130  1  0.81946746  0.31151368  0.28421674  1
  Co  Co131  1  0.39393090  0.84854413  0.30054041  1
  Co  Co132  1  0.37786098  0.50136997  0.25134618  1
  Co  Co133  1  0.42123183  0.99830080  0.57904911  1
  Co  Co134  1  0.51478781  0.85636696  0.55708756  1
  Co  Co135  1  0.96841482  -0.00625901  0.21746054  1
  Co  Co136  1  0.88629028  0.72698576  0.28537565  1
  Co  Co137  1  0.38028596  0.08021274  0.42184096  1
  Co  Co138  1  0.91675783  0.88652278  0.32486200  1
  Co  Co139  1  0.58691455  0.35506151  0.57004190  1
  Co  Co140  1  0.33399677  0.64405123  0.47833255  1
  Co  Co141  1  0.19568891  0.17193889  0.79063435  1
  Co  Co142  1  0.62202439  0.40959712  0.82762064  1
  Co  Co143  1  0.52565526  0.10056875  0.51526837  1
  Co  Co144  1  0.92026793  0.60893869  0.39001055  1
  Co  Co145  1  0.04130884  0.28616624  0.86575038  1
  Co  Co146  1  0.78829198  0.06874239  0.61738903  1
  Co  Co147  1  0.46279242  0.22289194  0.99069838  1
  Co  Co148  1  0.47730298  0.11072057  0.21669315  1
  Co  Co149  1  0.81676637  0.89904232  0.57750785  1
  Co  Co150  1  0.08146593  0.56407970  0.37478162  1
  Co  Co151  1  0.93636119  0.31132735  0.72805063  1
  Co  Co152  1  0.10919211  0.30131874  0.72312113  1
  Co  Co153  1  0.98662616  0.69608202  0.52360511  1
  Co  Co154  1  0.34291187  0.92541374  0.44499446  1
  Co  Co155  1  0.27879624  0.68512156  0.62722024  1
  Co  Co156  1  0.91013044  0.89677564  0.76850397  1
  Co  Co157  1  0.88839240  0.31691187  0.89426401  1
  Co  Co158  1  0.87812393  0.30174644  0.43634446  1
  Co  Co159  1  0.78326443  0.99867819  0.29604294  1
  Co  Co160  1  0.06703629  0.01997613  -0.03687355  1
  Co  Co161  1  0.82315779  0.36233717  0.06098876  1
  Ni  Ni162  1  0.14057710  0.40046735  0.09165679  1
  Ni  Ni163  1  0.62621265  0.28770150  0.72058114  1
  Ni  Ni164  1  0.56796502  0.52271607  0.05094054  1
  Ni  Ni165  1  0.75624822  0.84036753  0.71764073  1
  Ni  Ni166  1  0.28272164  0.39495205  0.17185512  1
  Ni  Ni167  1  0.22079067  0.08610090  1.04081109  1
  Ni  Ni168  1  0.54549459  0.44301545  0.18584683  1
  Ni  Ni169  1  0.22287741  0.83467108  0.89135321  1
  Ni  Ni170  1  0.85894740  0.54871020  0.79374664  1
  Ni  Ni171  1  0.66409101  0.12583312  0.74269032  1
  Ni  Ni172  1  0.09478248  0.89831439  0.29920703  1
  Ni  Ni173  1  0.00898476  0.74756777  0.78327340  1
  Ni  Ni174  1  0.68942239  0.67004487  0.51361048  1
  Ni  Ni175  1  0.57875345  0.59723126  0.65298347  1
  Ni  Ni176  1  0.57929290  0.61190010  0.38892453  1
  Ni  Ni177  1  0.77737038  0.64829744  0.98146285  1
  Ni  Ni178  1  0.21593378  0.25590889  0.06378827  1
  Ni  Ni179  1  0.23304030  0.89339117  0.73820247  1
  Ni  Ni180  1  0.46093262  0.75620202  0.17387110  1
  Ni  Ni181  1  0.18212248  0.49452095  0.89523985  1
  Ni  Ni182  1  0.37076246  0.16455498  0.76995880  1
  Ni  Ni183  1  0.75124564  0.07737518  0.07367210  1
  Ni  Ni184  1  0.47557936  0.75829750  0.92503992  1
  Ni  Ni185  1  0.50992992  0.90443632  0.87971472  1
  Ni  Ni186  1  0.00314708  0.59641846  0.85358322  1
  Ni  Ni187  1  0.13040089  0.59224606  0.64035979  1
  Ni  Ni188  1  0.99515712  0.90562387  0.05698930  1
  Ni  Ni189  1  0.64562340  0.71645032  0.19455556  1
  Ni  Ni190  1  0.94632600  0.15353652  0.91457733  1
  Ni  Ni191  1  0.08059969  0.22504750  0.45669306  1
  Ni  Ni192  1  0.14604345  0.36731269  0.58049593  1
  Ni  Ni193  1  0.56924077  0.24331918  0.14341009  1
  Ni  Ni194  1  0.54347418  0.32015929  0.41545826  1
  Ni  Ni195  1  0.23986493  0.62527499  0.77330181  1
  Ni  Ni196  1  0.04431620  0.15784911  0.20307106  1
  Ni  Ni197  1  0.07619316  0.06083791  0.51922795  1
  Ni  Ni198  1  0.06894981  0.65035913  0.10097257  1
  Ni  Ni199  1  0.48984333  0.52441267  0.52907920  1
  Ni  Ni200  1  0.23242445  0.60655731  0.00927539  1
  Ni  Ni201  1  0.90766803  0.46676390  0.64689308  1
  Ni  Ni202  1  0.42591164  0.60929937  0.95394513  1
  Ni  Ni203  1  0.20628176  0.11723292  0.21814596  1
  Ni  Ni204  1  0.90014567  0.55277009  0.08938050  1
  Ni  Ni205  1  0.35347488  0.42088845  0.70073424  1
  Ni  Ni206  1  0.68869379  0.80487486  0.06903665  1
  Ni  Ni207  1  0.63721692  0.92891907  0.32888223  1
  Ni  Ni208  1  0.65783334  0.94576121  0.14901515  1
  Ni  Ni209  1  0.12851092  0.03935222  0.71498343  1
  Ni  Ni210  1  0.46033018  0.27486063  0.67000890  1
  Ni  Ni211  1  0.12250248  0.80634884  0.50245439  1
  Ni  Ni212  1  0.11361023  0.92272388  0.61075152  1
  Ni  Ni213  1  0.63624068  0.95803257  0.78705399  1
  Ni  Ni214  1  0.67277943  0.09722444  0.90594495  1
  Ni  Ni215  1  0.81891134  0.72774442  0.60536381  1
