# generated using pymatgen
data_Ti2CoNi
_symmetry_space_group_name_H-M   'P 1'
_cell_length_a   14.40662750
_cell_length_b   14.54393782
_cell_length_c   14.54475840
_cell_angle_alpha   90.12049039
_cell_angle_beta   90.31504550
_cell_angle_gamma   89.75706065
_symmetry_Int_Tables_number   1
_chemical_formula_structural   Ti2CoNi
_chemical_formula_sum   'Ti108 Co54 Ni54'
_cell_volume   3047.47000415
_cell_formula_units_Z   54
loop_
 _symmetry_equiv_pos_site_id
 _symmetry_equiv_pos_as_xyz
  1  'x, y, z'
loop_
 _atom_site_type_symbol
 _atom_site_label
 _atom_site_symmetry_multiplicity
 _atom_site_fract_x
 _atom_site_fract_y
 _atom_site_fract_z
 _atom_site_occupancy
  Ti  Ti0  1  -0.01678308  0.03418654  -0.05040346  1
  Ti  Ti1  1  0.01741416  -0.03852980  0.26201413  1
  Ti  Ti2  1  -0.01883250  -0.07093219  0.65404880  1
  Ti  Ti3  1  0.03670118  0.38125766  0.01397830  1
  Ti  Ti4  1  0.03796790  0.26790943  0.45070158  1
  Ti  Ti5  1  0.02736544  0.34876931  0.62030589  1
  Ti  Ti6  1  0.00501750  0.66858767  0.02963500  1
  Ti  Ti7  1  -0.03351857  0.69782362  0.32345726  1
  Ti  Ti8  1  0.08336589  0.63649001  0.68298417  1
  Ti  Ti9  1  0.40433094  0.00130543  -0.07991343  1
  Ti  Ti10  1  0.44183914  -0.03631194  0.38345117  1
  Ti  Ti11  1  0.36634184  0.01548743  0.63732749  1
  Ti  Ti12  1  0.30664223  0.40497117  0.06580448  1
  Ti  Ti13  1  0.33144088  0.30533349  0.23771585  1
  Ti  Ti14  1  0.35267758  0.34499104  0.63182914  1
  Ti  Ti15  1  0.26663168  0.68559208  -0.02358037  1
  Ti  Ti16  1  0.28815069  0.65621977  0.37831582  1
  Ti  Ti17  1  0.37389966  0.65747435  0.70574499  1
  Ti  Ti18  1  0.58672162  -0.03545875  -0.04965371  1
  Ti  Ti19  1  0.71018263  0.01718563  0.34676159  1
  Ti  Ti20  1  0.71787219  0.06502841  0.71486115  1
  Ti  Ti21  1  0.78209663  0.28439310  0.01082810  1
  Ti  Ti22  1  0.66677063  0.32491254  0.34435776  1
  Ti  Ti23  1  0.67826412  0.30564400  0.65925319  1
  Ti  Ti24  1  0.65649943  0.71463992  0.03145547  1
  Ti  Ti25  1  0.72999754  0.70987619  0.30409488  1
  Ti  Ti26  1  0.63920761  0.64953299  0.73325529  1
  Ti  Ti27  1  -0.03870679  0.22510573  0.25887008  1
  Ti  Ti28  1  -0.01033712  0.10992895  0.54051743  1
  Ti  Ti29  1  0.02190911  0.17627331  0.80841329  1
  Ti  Ti30  1  -0.01903706  0.42289239  0.19476765  1
  Ti  Ti31  1  -0.01719783  0.45905480  0.45314870  1
  Ti  Ti32  1  -0.05311635  0.48997600  0.77365645  1
  Ti  Ti33  1  0.02974523  0.78334345  0.18254115  1
  Ti  Ti34  1  -0.00906414  0.80898007  0.46469562  1
  Ti  Ti35  1  -0.03352785  0.84300753  0.88981925  1
  Ti  Ti36  1  0.32539966  0.10463316  0.20350823  1
  Ti  Ti37  1  0.34885496  0.19730023  0.40838782  1
  Ti  Ti38  1  0.28765265  0.24364705  0.92920322  1
  Ti  Ti39  1  0.29286974  0.52865789  0.23665480  1
  Ti  Ti40  1  0.42068424  0.55774702  0.51040002  1
  Ti  Ti41  1  0.18278121  0.45000995  0.86518106  1
  Ti  Ti42  1  0.30143226  0.91690384  0.11015046  1
  Ti  Ti43  1  0.34938302  0.80921630  0.50756281  1
  Ti  Ti44  1  0.31520909  0.79477128  0.83487001  1
  Ti  Ti45  1  0.66171436  0.12701132  0.09063359  1
  Ti  Ti46  1  0.57550178  0.14775739  0.42826351  1
  Ti  Ti47  1  0.77589229  0.21495708  0.82055728  1
  Ti  Ti48  1  0.65646900  0.44335440  0.09055540  1
  Ti  Ti49  1  0.66629823  0.52466104  0.41114239  1
  Ti  Ti50  1  0.68129697  0.49428405  0.88518376  1
  Ti  Ti51  1  0.60894940  0.88582262  0.11892669  1
  Ti  Ti52  1  0.63499507  0.82604951  0.54707533  1
  Ti  Ti53  1  0.65544057  0.84658757  0.79664072  1
  Ti  Ti54  1  0.14069131  0.02552005  0.10470373  1
  Ti  Ti55  1  0.15254327  -0.07928141  0.53965003  1
  Ti  Ti56  1  0.19940587  0.05977608  0.88204511  1
  Ti  Ti57  1  0.13963935  0.24844929  0.17058114  1
  Ti  Ti58  1  0.20492466  0.24836223  0.52782038  1
  Ti  Ti59  1  0.20540970  0.31910460  0.75335501  1
  Ti  Ti60  1  0.24439004  0.72415729  0.21567967  1
  Ti  Ti61  1  0.15075396  0.69870089  0.49777145  1
  Ti  Ti62  1  0.09712483  0.66651643  0.86205141  1
  Ti  Ti63  1  0.50798846  0.04980850  0.13252316  1
  Ti  Ti64  1  0.59390278  0.00736432  0.54140321  1
  Ti  Ti65  1  0.52748856  0.03707825  0.77552540  1
  Ti  Ti66  1  0.51991068  0.34189232  0.18186694  1
  Ti  Ti67  1  0.49843453  0.27334425  0.53320015  1
  Ti  Ti68  1  0.54243567  0.35572333  0.78042822  1
  Ti  Ti69  1  0.49999866  0.63680504  0.15451098  1
  Ti  Ti70  1  0.56621930  0.66265293  0.51479607  1
  Ti  Ti71  1  0.43149276  0.59542946  0.91207485  1
  Ti  Ti72  1  0.76627572  -0.02853244  0.17566478  1
  Ti  Ti73  1  0.81369059  -0.05389934  0.51528124  1
  Ti  Ti74  1  0.81718284  -0.02903265  0.85871958  1
  Ti  Ti75  1  0.79493291  0.33237084  0.19980892  1
  Ti  Ti76  1  0.83465247  0.33090782  0.51981789  1
  Ti  Ti77  1  0.80457273  0.38293413  0.77561297  1
  Ti  Ti78  1  0.87439564  0.64738289  0.17184038  1
  Ti  Ti79  1  0.84497511  0.61581363  0.43711474  1
  Ti  Ti80  1  0.83690563  0.73825586  0.79277770  1
  Ti  Ti81  1  0.08497966  0.19003655  -0.00087732  1
  Ti  Ti82  1  0.19062995  0.08740680  0.40195621  1
  Ti  Ti83  1  0.24767840  0.13782881  0.70871178  1
  Ti  Ti84  1  0.16600161  0.53261295  0.07861068  1
  Ti  Ti85  1  0.12312742  0.55031913  0.35162893  1
  Ti  Ti86  1  0.26991031  0.51392166  0.64599944  1
  Ti  Ti87  1  0.10674785  0.85412664  0.02316670  1
  Ti  Ti88  1  0.20515355  0.88433997  0.36046326  1
  Ti  Ti89  1  0.18263724  0.88184420  0.71527144  1
  Ti  Ti90  1  0.50709754  0.17677504  -0.07556495  1
  Ti  Ti91  1  0.47710180  0.16125568  0.29386755  1
  Ti  Ti92  1  0.46091744  0.20039419  0.70865094  1
  Ti  Ti93  1  0.50275682  0.42207582  -0.04715158  1
  Ti  Ti94  1  0.46491486  0.49994048  0.32835491  1
  Ti  Ti95  1  0.50641883  0.44204877  0.61417893  1
  Ti  Ti96  1  0.47375819  0.77788746  -0.03454796  1
  Ti  Ti97  1  0.52921601  0.81444506  0.34402116  1
  Ti  Ti98  1  0.37984711  0.84575508  0.68109896  1
  Ti  Ti99  1  0.88242417  0.11065851  0.11542572  1
  Ti  Ti100  1  0.76007218  0.18634280  0.37615379  1
  Ti  Ti101  1  0.83995861  0.19674190  0.62568744  1
  Ti  Ti102  1  0.80220733  0.58424900  0.03004716  1
  Ti  Ti103  1  0.79821644  0.50667783  0.26929496  1
  Ti  Ti104  1  0.78761039  0.52946934  0.66369085  1
  Ti  Ti105  1  0.85561325  0.85847038  0.03875630  1
  Ti  Ti106  1  0.86312817  0.87287151  0.34546417  1
  Ti  Ti107  1  0.85712120  0.73835971  0.57998298  1
  Co  Co108  1  0.85417091  0.41464823  0.06834200  1
  Co  Co109  1  0.18190924  0.24378125  0.35355922  1
  Co  Co110  1  0.70597869  0.86717116  0.27782683  1
  Co  Co111  1  0.40884417  0.12015434  0.01354480  1
  Co  Co112  1  0.26332241  0.07154495  1.02942229  1
  Co  Co113  1  0.21794028  0.39589709  0.30089014  1
  Co  Co114  1  0.67734268  0.61477453  0.17393011  1
  Co  Co115  1  0.03387223  0.11511480  0.14882789  1
  Co  Co116  1  0.39776473  0.68496605  0.25112878  1
  Co  Co117  1  0.50039768  0.59732086  0.65590303  1
  Co  Co118  1  0.12326026  0.53109531  0.55011998  1
  Co  Co119  1  0.19465419  0.39338333  0.57862620  1
  Co  Co120  1  0.48436696  0.31636778  0.37183883  1
  Co  Co121  1  0.32303949  0.59648118  0.09155213  1
  Co  Co122  1  0.34258336  0.17605696  0.57872371  1
  Co  Co123  1  0.34913359  0.83182465  0.30523232  1
  Co  Co124  1  0.74026734  0.10423643  0.53170498  1
  Co  Co125  1  0.68183283  0.28319690  0.50483734  1
  Co  Co126  1  0.85848537  0.12693277  0.94961736  1
  Co  Co127  1  0.26286118  0.53715335  0.46883110  1
  Co  Co128  1  0.60005588  0.75273167  0.20231069  1
  Co  Co129  1  0.47137862  0.89951792  0.52440054  1
  Co  Co130  1  0.17563180  0.07554296  0.57537111  1
  Co  Co131  1  0.06208721  0.36158210  0.30827989  1
  Co  Co132  1  0.89325829  0.83758513  0.20913624  1
  Co  Co133  1  0.07323154  0.78281618  0.60960360  1
  Co  Co134  1  0.96722949  0.52773704  0.06851880  1
  Co  Co135  1  0.75537398  0.77868122  0.14525879  1
  Co  Co136  1  0.43755435  0.92887611  0.20960618  1
  Co  Co137  1  0.48177406  0.73040124  0.78179044  1
  Co  Co138  1  0.92961531  0.26578794  0.91021077  1
  Co  Co139  1  0.62094878  0.46082183  0.25203752  1
  Co  Co140  1  0.71899241  0.77244999  0.67566283  1
  Co  Co141  1  0.72746507  0.93498753  0.64543877  1
  Co  Co142  1  0.13874822  0.40300626  0.43677771  1
  Co  Co143  1  0.43770042  0.90363038  0.03834392  1
  Co  Co144  1  0.86654980  0.03431866  0.63195341  1
  Co  Co145  1  0.14853553  0.86550023  0.20013658  1
  Co  Co146  1  0.95061899  0.54615556  0.31599392  1
  Co  Co147  1  0.89893370  0.07149174  0.78141160  1
  Co  Co148  1  0.09945673  0.47233075  0.71267955  1
  Co  Co149  1  0.56505372  0.62107550  0.32391343  1
  Co  Co150  1  0.29854176  1.02491866  0.48982643  1
  Co  Co151  1  0.29271602  0.21622019  0.10169757  1
  Co  Co152  1  0.91685587  0.28461880  0.72410466  1
  Co  Co153  1  0.46788177  0.19933946  0.14119495  1
  Co  Co154  1  0.51442899  0.75566869  0.63245738  1
  Co  Co155  1  0.45499006  0.08690143  0.50979194  1
  Co  Co156  1  0.95449293  0.26097628  0.08908503  1
  Co  Co157  1  0.30662256  0.50814054  0.95085145  1
  Co  Co158  1  0.17737445  0.33809114  1.00392889  1
  Co  Co159  1  0.83722413  0.87471956  0.73435931  1
  Co  Co160  1  0.61067969  0.92399398  0.40735756  1
  Co  Co161  1  0.16489768  0.39475794  0.15940077  1
  Ni  Ni162  1  0.59855058  0.28758623  0.04914032  1
  Ni  Ni163  1  0.72524944  0.64672085  0.56577945  1
  Ni  Ni164  1  0.11499566  0.03508731  0.69797990  1
  Ni  Ni165  1  0.58213995  0.67482089  0.88841594  1
  Ni  Ni166  1  0.78120628  0.16893431  0.20238552  1
  Ni  Ni167  1  0.02969268  0.53858288  0.91926609  1
  Ni  Ni168  1  0.88535858  0.37025572  0.33482800  1
  Ni  Ni169  1  0.07661012  0.20060906  0.65985214  1
  Ni  Ni170  1  0.99001433  0.96625307  0.45230255  1
  Ni  Ni171  1  0.42348636  0.29242449  1.00955006  1
  Ni  Ni172  1  0.24407563  0.58845194  0.81228004  1
  Ni  Ni173  1  0.66577805  0.08547761  0.89077868  1
  Ni  Ni174  1  0.59766845  0.14067380  0.61622669  1
  Ni  Ni175  1  0.76452182  0.01083191  0.01067304  1
  Ni  Ni176  1  0.61651069  0.18870219  0.77277218  1
  Ni  Ni177  1  0.03535653  0.09306793  0.35345699  1
  Ni  Ni178  1  0.66097825  0.32238020  0.89653277  1
  Ni  Ni179  1  0.21627748  0.00431304  0.25082741  1
  Ni  Ni180  1  0.34453864  0.44823881  0.79753695  1
  Ni  Ni181  1  0.58286787  0.56378758  0.01455578  1
  Ni  Ni182  1  0.13926957  0.82148258  0.86171585  1
  Ni  Ni183  1  0.37585560  0.30442868  0.81514141  1
  Ni  Ni184  1  0.99068684  0.94719950  0.09873660  1
  Ni  Ni185  1  0.72499751  0.83973658  0.95880059  1
  Ni  Ni186  1  0.48073127  0.88346477  0.82158956  1
  Ni  Ni187  1  0.90766549  0.18885767  0.41721160  1
  Ni  Ni188  1  0.34524279  0.39971941  0.43983481  1
  Ni  Ni189  1  0.38639954  0.76668392  0.12152377  1
  Ni  Ni190  1  0.98791479  0.65022656  0.53195734  1
  Ni  Ni191  1  0.55547926  0.90659266  0.67220560  1
  Ni  Ni192  1  0.26284635  0.91109362  -0.05131156  1
  Ni  Ni193  1  0.25264143  0.74522135  0.62775760  1
  Ni  Ni194  1  0.05255441  0.35299524  0.81463154  1
  Ni  Ni195  1  0.62920567  0.16107087  0.26893884  1
  Ni  Ni196  1  0.07647645  0.59272350  0.20050535  1
  Ni  Ni197  1  0.44292778  0.69973540  0.41685548  1
  Ni  Ni198  1  0.12701518  0.75517593  0.34558157  1
  Ni  Ni199  1  0.86586514  0.71381873  0.95714256  1
  Ni  Ni200  1  0.74426976  0.79516642  0.43901476  1
  Ni  Ni201  1  0.44179497  0.49166240  0.09723870  1
  Ni  Ni202  1  0.87918357  0.06707616  0.28838906  1
  Ni  Ni203  1  0.73600989  0.66104237  0.88488744  1
  Ni  Ni204  1  0.87820864  0.45972795  0.92588706  1
  Ni  Ni205  1  0.96284637  0.50195863  0.60680161  1
  Ni  Ni206  1  0.06952743  0.96252260  0.82824399  1
  Ni  Ni207  1  0.50837766  0.52192845  0.79415020  1
  Ni  Ni208  1  0.29675808  0.96694601  0.78117277  1
  Ni  Ni209  1  0.91434791  0.62870031  0.70161369  1
  Ni  Ni210  1  -0.01364105  0.78449752  0.74239404  1
  Ni  Ni211  1  0.64199696  0.47290742  0.70208309  1
  Ni  Ni212  1  0.71217515  0.44398493  0.55125391  1
  Ni  Ni213  1  0.15498460  0.70412842  0.09373704  1
  Ni  Ni214  1  0.36766693  0.14097707  0.83496980  1
  Ni  Ni215  1  0.56157234  0.41909712  0.45792780  1
