# generated using pymatgen
data_Ti2CoNi
_symmetry_space_group_name_H-M   'P 1'
_cell_length_a   14.49879954
_cell_length_b   14.46746477
_cell_length_c   14.51435786
_cell_angle_alpha   90.30391939
_cell_angle_beta   89.73176758
_cell_angle_gamma   90.16708818
_symmetry_Int_Tables_number   1
_chemical_formula_structural   Ti2CoNi
_chemical_formula_sum   'Ti108 Co54 Ni54'
_cell_volume   3044.45543132
_cell_formula_units_Z   54
loop_
 _symmetry_equiv_pos_site_id
 _symmetry_equiv_pos_as_xyz
  1  'x, y, z'
loop_
 _atom_site_type_symbol
 _atom_site_label
 _atom_site_symmetry_multiplicity
 _atom_site_fract_x
 _atom_site_fract_y
 _atom_site_fract_z
 _atom_site_occupancy
  Ti  Ti0  1  0.05398189  0.00110778  -0.04241215  1
  Ti  Ti1  1  0.05319234  0.00153908  0.30513029  1
  Ti  Ti2  1  0.01070103  0.10392616  0.62904802  1
  Ti  Ti3  1  0.01642240  0.38895075  0.05395235  1
  Ti  Ti4  1  0.07457054  0.31314747  0.39813801  1
  Ti  Ti5  1  -0.04141001  0.28953261  0.70528428  1
  Ti  Ti6  1  -0.01233038  0.70291719  0.01131088  1
  Ti  Ti7  1  -0.07138882  0.68884346  0.29446115  1
  Ti  Ti8  1  -0.12329895  0.64318839  0.70022252  1
  Ti  Ti9  1  0.38356272  0.00877539  -0.04384480  1
  Ti  Ti10  1  0.37126321  -0.01043257  0.27365667  1
  Ti  Ti11  1  0.32744118  -0.01077997  0.60546980  1
  Ti  Ti12  1  0.32886049  0.32413598  -0.03827679  1
  Ti  Ti13  1  0.33210809  0.42205279  0.36341342  1
  Ti  Ti14  1  0.32675078  0.38667582  0.68156093  1
  Ti  Ti15  1  0.28740984  0.65938518  -0.08094658  1
  Ti  Ti16  1  0.43458189  0.73370634  0.32664722  1
  Ti  Ti17  1  0.30575846  0.75695827  0.67793001  1
  Ti  Ti18  1  0.65499550  0.01993621  0.02437660  1
  Ti  Ti19  1  0.68001523  0.02832554  0.36213017  1
  Ti  Ti20  1  0.65102803  0.02824997  0.73814888  1
  Ti  Ti21  1  0.60337368  0.40455454  0.00758262  1
  Ti  Ti22  1  0.61244993  0.33709154  0.38626475  1
  Ti  Ti23  1  0.70238787  0.34539095  0.67796549  1
  Ti  Ti24  1  0.68742237  0.71762862  -0.04464385  1
  Ti  Ti25  1  0.71970062  0.63843688  0.30869372  1
  Ti  Ti26  1  0.69117385  0.63546250  0.66781703  1
  Ti  Ti27  1  -0.02958439  0.09765254  0.15111933  1
  Ti  Ti28  1  -0.04642916  0.15816325  0.42488984  1
  Ti  Ti29  1  0.03662714  0.16947018  0.83009857  1
  Ti  Ti30  1  0.00402693  0.51563741  0.22577354  1
  Ti  Ti31  1  0.04295089  0.50748244  0.52209633  1
  Ti  Ti32  1  0.04127548  0.45143248  0.83928339  1
  Ti  Ti33  1  -0.03528955  0.90244590  0.16770826  1
  Ti  Ti34  1  0.04108270  0.82070192  0.51626214  1
  Ti  Ti35  1  -0.02514780  0.84856619  0.86159905  1
  Ti  Ti36  1  0.23636467  0.16586490  0.11851149  1
  Ti  Ti37  1  0.37059994  0.11402871  0.47121685  1
  Ti  Ti38  1  0.40065096  0.16365231  0.84469399  1
  Ti  Ti39  1  0.33626389  0.43923883  0.15106358  1
  Ti  Ti40  1  0.35374230  0.52802865  0.52501869  1
  Ti  Ti41  1  0.22821512  0.51136597  0.79951872  1
  Ti  Ti42  1  0.36107425  0.81943198  0.18236069  1
  Ti  Ti43  1  0.26320403  0.85288212  0.52041973  1
  Ti  Ti44  1  0.29116989  0.82927321  0.88483586  1
  Ti  Ti45  1  0.67913553  0.16202591  0.13641392  1
  Ti  Ti46  1  0.69696313  0.21462924  0.51828087  1
  Ti  Ti47  1  0.58087662  0.17026275  0.84480146  1
  Ti  Ti48  1  0.64995621  0.47179156  0.20499189  1
  Ti  Ti49  1  0.68982985  0.51372008  0.50346724  1
  Ti  Ti50  1  0.60731389  0.44769024  0.79605041  1
  Ti  Ti51  1  0.67103114  0.85365149  0.22696687  1
  Ti  Ti52  1  0.69126071  0.74724318  0.51682945  1
  Ti  Ti53  1  0.70137485  0.89864129  0.85766836  1
  Ti  Ti54  1  0.17059638  -0.14073080  0.24150730  1
  Ti  Ti55  1  0.21936350  -0.01610105  0.39830787  1
  Ti  Ti56  1  0.20398153  0.03800783  0.85197801  1
  Ti  Ti57  1  0.11241915  0.31345443  0.20377399  1
  Ti  Ti58  1  0.18399627  0.30205828  0.59554958  1
  Ti  Ti59  1  0.15621794  0.29770014  0.78841367  1
  Ti  Ti60  1  0.12398297  0.63272874  0.10451410  1
  Ti  Ti61  1  0.19252277  0.61736417  0.51673089  1
  Ti  Ti62  1  0.14162337  0.72573744  0.79450584  1
  Ti  Ti63  1  0.55624191  0.00757181  0.18560229  1
  Ti  Ti64  1  0.51954291  0.03797163  0.54909582  1
  Ti  Ti65  1  0.47541647  0.00587482  0.75772200  1
  Ti  Ti66  1  0.53719679  0.28934476  0.16957833  1
  Ti  Ti67  1  0.41312642  0.30815926  0.49302629  1
  Ti  Ti68  1  0.48485243  0.32217200  0.75646270  1
  Ti  Ti69  1  0.55466837  0.67765843  0.16881784  1
  Ti  Ti70  1  0.51601304  0.62552606  0.46066928  1
  Ti  Ti71  1  0.47229442  0.60819260  0.86303313  1
  Ti  Ti72  1  0.79735283  0.00853301  0.19462847  1
  Ti  Ti73  1  0.78610982  -0.08350746  0.53088531  1
  Ti  Ti74  1  0.90109366  0.03431328  0.81012409  1
  Ti  Ti75  1  0.84439497  0.39505374  0.19968974  1
  Ti  Ti76  1  0.82042391  0.35868035  0.52725046  1
  Ti  Ti77  1  0.82183929  0.34980731  0.81209824  1
  Ti  Ti78  1  0.83187193  0.66993015  0.09132695  1
  Ti  Ti79  1  0.84370485  0.63423311  0.47643096  1
  Ti  Ti80  1  0.83723084  0.56612313  0.88765276  1
  Ti  Ti81  1  0.08592238  0.20029745  0.00810037  1
  Ti  Ti82  1  0.20089688  0.15444119  0.30530443  1
  Ti  Ti83  1  0.19178684  0.11666326  0.69170714  1
  Ti  Ti84  1  0.18653873  0.47004228  -0.00674708  1
  Ti  Ti85  1  0.22841286  0.56532677  0.27359849  1
  Ti  Ti86  1  0.08775969  0.57969866  0.69367829  1
  Ti  Ti87  1  0.16164048  0.86342929  0.05420550  1
  Ti  Ti88  1  0.18922227  0.72475727  0.38392810  1
  Ti  Ti89  1  0.14973136  0.90009495  0.68684166  1
  Ti  Ti90  1  0.49705825  0.14324969  0.02173554  1
  Ti  Ti91  1  0.37916494  0.21215379  0.30998683  1
  Ti  Ti92  1  0.53515477  0.20115110  0.63799558  1
  Ti  Ti93  1  0.46381725  0.55307390  0.05698577  1
  Ti  Ti94  1  0.49640587  0.53399130  0.27542825  1
  Ti  Ti95  1  0.52108388  0.48956783  0.61620610  1
  Ti  Ti96  1  0.47279241  0.83311016  0.02563276  1
  Ti  Ti97  1  0.52920520  0.89900098  0.36094450  1
  Ti  Ti98  1  0.47676748  0.85790713  0.61577498  1
  Ti  Ti99  1  0.81955445  0.27103897  -0.00833801  1
  Ti  Ti100  1  0.82655078  0.21258503  0.24458948  1
  Ti  Ti101  1  0.83248038  0.15618748  0.67095778  1
  Ti  Ti102  1  0.77475077  0.45648853  0.03411412  1
  Ti  Ti103  1  0.92265873  0.48725968  0.39770065  1
  Ti  Ti104  1  0.93320047  0.46595298  0.68860258  1
  Ti  Ti105  1  0.81792363  0.86958600  0.03684246  1
  Ti  Ti106  1  0.91083290  0.89530996  0.35189056  1
  Ti  Ti107  1  0.82618564  0.84626261  0.72741819  1
  Co  Co108  1  0.92786776  0.98000479  0.04337934  1
  Co  Co109  1  0.42251947  0.49357360  0.76230287  1
  Co  Co110  1  0.81859619  0.09624507  0.07545793  1
  Co  Co111  1  0.91120992  0.42646225  0.93792612  1
  Co  Co112  1  0.97535234  0.36819687  0.54363089  1
  Co  Co113  1  0.14774752  0.47569476  0.16685227  1
  Co  Co114  1  0.76321702  0.49676891  0.74505209  1
  Co  Co115  1  0.34043557  0.51378991  0.93934622  1
  Co  Co116  1  0.06470970  0.21572862  0.55741599  1
  Co  Co117  1  0.43893880  0.88844833  0.86834680  1
  Co  Co118  1  0.48596040  0.37673402  0.29030596  1
  Co  Co119  1  0.05993531  0.81657259  0.35390065  1
  Co  Co120  1  0.46360580  0.43024689  0.89911956  1
  Co  Co121  1  -0.03243701  0.28395349  0.90813750  1
  Co  Co122  1  0.89203670  0.23282172  0.54894191  1
  Co  Co123  1  0.27799005  0.58645026  0.08151342  1
  Co  Co124  1  0.22680407  0.33522091  0.10105778  1
  Co  Co125  1  0.78068424  0.15374642  0.37713409  1
  Co  Co126  1  0.14525052  0.31442674  0.94657702  1
  Co  Co127  1  0.94122037  0.12923080  0.96333237  1
  Co  Co128  1  0.69122213  0.84432505  0.64417080  1
  Co  Co129  1  0.80822675  1.00936739  0.93073506  1
  Co  Co130  1  0.50266130  0.28077334  0.93475273  1
  Co  Co131  1  0.44599507  0.38089788  0.05368692  1
  Co  Co132  1  0.96799658  0.35114943  0.27285802  1
  Co  Co133  1  0.30664499  0.25361094  0.76638654  1
  Co  Co134  1  0.29143155  0.75902442  0.05076553  1
  Co  Co135  1  0.10593546  0.10954570  0.43484147  1
  Co  Co136  1  0.33342250  0.23635330  0.60091372  1
  Co  Co137  1  1.08881201  0.50855537  0.35288955  1
  Co  Co138  1  0.51555530  0.83278487  0.20356625  1
  Co  Co139  1  0.25894924  0.61253330  0.67404037  1
  Co  Co140  1  -0.00735669  0.64887332  0.57421359  1
  Co  Co141  1  0.02779537  0.65578112  0.41840383  1
  Co  Co142  1  0.13519352  0.88179293  0.86862599  1
  Co  Co143  1  0.87437874  0.30309583  0.38270914  1
  Co  Co144  1  0.02280912  0.18013851  0.28910976  1
  Co  Co145  1  0.25654759  0.31510666  0.27436027  1
  Co  Co146  1  0.55646486  0.77368003  0.87775211  1
  Co  Co147  1  0.54257557  0.62301241  0.72659203  1
  Co  Co148  1  0.42031336  0.62862795  0.63048546  1
  Co  Co149  1  0.08562657  0.66452840  0.25716177  1
  Co  Co150  1  0.37699017  0.26126929  0.15526793  1
  Co  Co151  1  0.62212446  0.47927720  0.36138549  1
  Co  Co152  1  0.56218950  0.87683154  0.75675718  1
  Co  Co153  1  0.77875375  0.44894125  0.35663903  1
  Co  Co154  1  0.23647524  0.71086360  0.21463053  1
  Co  Co155  1  0.45178772  0.74892288  0.75293471  1
  Co  Co156  1  0.64228893  0.23422610  -0.00043224  1
  Co  Co157  1  0.38287519  0.62386424  0.19460841  1
  Co  Co158  1  0.13715172  0.73801405  0.61688666  1
  Co  Co159  1  0.55150571  0.01401314  0.90951910  1
  Co  Co160  1  0.33979715  0.89630861  0.74078164  1
  Co  Co161  1  0.21573730  0.12859444  0.53044996  1
  Ni  Ni162  1  0.95248291  0.24815767  0.12531488  1
  Ni  Ni163  1  0.66235809  0.31257092  0.85760250  1
  Ni  Ni164  1  0.00244452  0.77032507  0.69247506  1
  Ni  Ni165  1  0.55728921  0.72329448  0.59728556  1
  Ni  Ni166  1  0.86855329  0.75196582  0.91966178  1
  Ni  Ni167  1  0.37303516  0.73462444  0.50583053  1
  Ni  Ni168  1  0.93459798  0.53154112  0.06126580  1
  Ni  Ni169  1  0.38268230  0.09110833  0.13392742  1
  Ni  Ni170  1  0.05778949  0.00440386  0.77441450  1
  Ni  Ni171  1  0.58711898  0.35005680  0.55962893  1
  Ni  Ni172  1  0.60453008  0.91500332  0.51958316  1
  Ni  Ni173  1  0.83832088  0.76801959  0.39191920  1
  Ni  Ni174  1  0.64743288  0.55150714  0.91515962  1
  Ni  Ni175  1  0.82101657  0.81598926  0.21860213  1
  Ni  Ni176  1  0.60167160  0.16968559  0.29171767  1
  Ni  Ni177  1  0.10272199  0.59746355  0.90238073  1
  Ni  Ni178  1  0.69063997  0.86661007  0.39285085  1
  Ni  Ni179  1  0.31406460  0.84758951  0.35318336  1
  Ni  Ni180  1  0.63474826  0.86418838  0.02823886  1
  Ni  Ni181  1  0.60531117  0.73477155  0.35747514  1
  Ni  Ni182  1  0.18600028  0.42197565  0.44141616  1
  Ni  Ni183  1  0.22198419  0.01398925  0.22388614  1
  Ni  Ni184  1  0.70051357  0.73971133  0.13273849  1
  Ni  Ni185  1  0.68618875  0.06055310  0.57934145  1
  Ni  Ni186  1  0.25695489  0.15886110  0.96014925  1
  Ni  Ni187  1  0.74930541  0.71906514  0.80855655  1
  Ni  Ni188  1  0.20562130  0.47085839  0.60297777  1
  Ni  Ni189  1  0.82856577  0.56570154  0.21189829  1
  Ni  Ni190  1  0.08542447  0.39282667  0.68774268  1
  Ni  Ni191  1  0.26210726  0.25514536  0.42797701  1
  Ni  Ni192  1  0.83641590  0.18420838  0.84209567  1
  Ni  Ni193  1  0.10469035  0.01850681  0.12621833  1
  Ni  Ni194  1  0.79951908  -0.00522544  0.67668291  1
  Ni  Ni195  1  0.64459673  0.57781305  0.07149100  1
  Ni  Ni196  1  0.89439467  0.04860010  0.30030593  1
  Ni  Ni197  1  0.13519455  0.74611466  0.95370595  1
  Ni  Ni198  1  0.99198559  0.64967992  0.81359393  1
  Ni  Ni199  1  0.33588064  0.61900432  0.40051946  1
  Ni  Ni200  1  0.39615145  0.95345041  0.44580461  1
  Ni  Ni201  1  0.97661993  0.99931039  0.46829484  1
  Ni  Ni202  1  0.68473217  0.19520949  0.71890039  1
  Ni  Ni203  1  0.01048868  0.76340010  0.15267586  1
  Ni  Ni204  1  0.82636608  0.50327836  0.58390864  1
  Ni  Ni205  1  0.49127934  0.45435946  0.45425456  1
  Ni  Ni206  1  0.87615962  0.78514798  0.57204716  1
  Ni  Ni207  1  0.48649199  0.08103275  0.35170236  1
  Ni  Ni208  1  0.82890362  0.06723209  0.51598952  1
  Ni  Ni209  1  0.96865447  0.92336883  0.63388405  1
  Ni  Ni210  1  0.12676182  0.99126131  0.54447838  1
  Ni  Ni211  1  0.40368902  0.12826619  0.67747390  1
  Ni  Ni212  1  0.53296375  0.18474394  0.46747808  1
  Ni  Ni213  1  0.70615546  0.32618372  0.11172452  1
  Ni  Ni214  1  0.31070062  0.93977788  0.08931187  1
  Ni  Ni215  1  0.69436534  0.31054291  0.25859441  1
