# generated using pymatgen
data_Ti2CoNi
_symmetry_space_group_name_H-M   'P 1'
_cell_length_a   14.54876759
_cell_length_b   14.60490218
_cell_length_c   14.62244182
_cell_angle_alpha   90.02466391
_cell_angle_beta   90.28772052
_cell_angle_gamma   90.06923047
_symmetry_Int_Tables_number   1
_chemical_formula_structural   Ti2CoNi
_chemical_formula_sum   'Ti108 Co54 Ni54'
_cell_volume   3106.98335640
_cell_formula_units_Z   54
loop_
 _symmetry_equiv_pos_site_id
 _symmetry_equiv_pos_as_xyz
  1  'x, y, z'
loop_
 _atom_site_type_symbol
 _atom_site_label
 _atom_site_symmetry_multiplicity
 _atom_site_fract_x
 _atom_site_fract_y
 _atom_site_fract_z
 _atom_site_occupancy
  Ti  Ti0  1  0.01772197  -0.01193215  -0.04182736  1
  Ti  Ti1  1  -0.00698517  0.01534985  0.29819075  1
  Ti  Ti2  1  0.02037956  -0.03511003  0.61636655  1
  Ti  Ti3  1  -0.08072005  0.29186936  -0.03553300  1
  Ti  Ti4  1  0.05631040  0.27079615  0.34737830  1
  Ti  Ti5  1  0.08466595  0.33252750  0.65950044  1
  Ti  Ti6  1  -0.02285510  0.67894125  0.03720998  1
  Ti  Ti7  1  0.03463891  0.68619466  0.26749655  1
  Ti  Ti8  1  0.04889530  0.71047191  0.68222627  1
  Ti  Ti9  1  0.42294663  -0.00891607  0.01811969  1
  Ti  Ti10  1  0.45804827  -0.03319351  0.29828793  1
  Ti  Ti11  1  0.29376003  0.05751974  0.62564286  1
  Ti  Ti12  1  0.28915189  0.28890164  -0.06399465  1
  Ti  Ti13  1  0.31154692  0.41024244  0.33014474  1
  Ti  Ti14  1  0.27039805  0.36855748  0.73865699  1
  Ti  Ti15  1  0.27200962  0.59471508  -0.01995417  1
  Ti  Ti16  1  0.28939696  0.64661798  0.32821365  1
  Ti  Ti17  1  0.38219510  0.67547283  0.67071021  1
  Ti  Ti18  1  0.60675653  0.03423562  -0.03087952  1
  Ti  Ti19  1  0.67555605  -0.00289373  0.40533623  1
  Ti  Ti20  1  0.60913651  -0.00404375  0.70617976  1
  Ti  Ti21  1  0.63577914  0.41461439  -0.02593598  1
  Ti  Ti22  1  0.70987457  0.36240177  0.37741068  1
  Ti  Ti23  1  0.62020344  0.32137210  0.69824221  1
  Ti  Ti24  1  0.66332306  0.65502811  0.06545061  1
  Ti  Ti25  1  0.60541978  0.60151024  0.24956314  1
  Ti  Ti26  1  0.60589709  0.70410059  0.65764233  1
  Ti  Ti27  1  -0.00776216  0.21828185  0.15459357  1
  Ti  Ti28  1  0.00623183  0.19852095  0.52664653  1
  Ti  Ti29  1  -0.07132699  0.14212844  0.82580529  1
  Ti  Ti30  1  0.05197007  0.53140876  0.14420640  1
  Ti  Ti31  1  -0.01037704  0.46585560  0.51650353  1
  Ti  Ti32  1  -0.03238666  0.45532023  0.77788368  1
  Ti  Ti33  1  -0.04817187  0.86563980  0.13976390  1
  Ti  Ti34  1  -0.04957208  0.76491627  0.48616834  1
  Ti  Ti35  1  0.06617170  0.86788944  0.79298047  1
  Ti  Ti36  1  0.30510355  0.22536311  0.21105953  1
  Ti  Ti37  1  0.33342114  0.20428001  0.49351310  1
  Ti  Ti38  1  0.31439603  0.08908249  0.84849879  1
  Ti  Ti39  1  0.35172671  0.47509682  0.10790554  1
  Ti  Ti40  1  0.34341894  0.50222542  0.58602484  1
  Ti  Ti41  1  0.37385070  0.47484114  0.87445748  1
  Ti  Ti42  1  0.30228539  0.84517769  0.21192735  1
  Ti  Ti43  1  0.38531763  0.93017827  0.49175736  1
  Ti  Ti44  1  0.30188647  0.87429435  0.81674757  1
  Ti  Ti45  1  0.65206130  0.15313238  0.11903420  1
  Ti  Ti46  1  0.60295493  0.24195078  0.51889270  1
  Ti  Ti47  1  0.71145712  0.10720554  0.80771394  1
  Ti  Ti48  1  0.73251152  0.47690634  0.15662286  1
  Ti  Ti49  1  0.64617490  0.58711722  0.47775438  1
  Ti  Ti50  1  0.73049309  0.53078856  0.77483777  1
  Ti  Ti51  1  0.75335942  0.85514607  0.15595870  1
  Ti  Ti52  1  0.70577465  0.79181233  0.50501303  1
  Ti  Ti53  1  0.71763946  0.81813019  0.95535793  1
  Ti  Ti54  1  0.15421739  -0.07043532  0.08162530  1
  Ti  Ti55  1  0.14457013  -0.01054442  0.47544695  1
  Ti  Ti56  1  0.12434550  0.12590397  0.90202348  1
  Ti  Ti57  1  0.15203026  0.37116497  0.21873807  1
  Ti  Ti58  1  0.18732117  0.33668893  0.48160093  1
  Ti  Ti59  1  0.09128572  0.30405905  0.85355330  1
  Ti  Ti60  1  0.20145128  0.65835957  0.14030160  1
  Ti  Ti61  1  0.19128849  0.67352932  0.56668356  1
  Ti  Ti62  1  0.11937976  0.61596167  0.86369696  1
  Ti  Ti63  1  0.47425386  0.10531641  0.16429183  1
  Ti  Ti64  1  0.47530252  0.09666639  0.47015789  1
  Ti  Ti65  1  0.52573717  -0.08709609  0.85456296  1
  Ti  Ti66  1  0.47045138  0.34051785  0.20836669  1
  Ti  Ti67  1  0.43454628  0.36653659  0.48332092  1
  Ti  Ti68  1  0.49080470  0.32480688  0.86181673  1
  Ti  Ti69  1  0.45835231  0.67840835  0.16184892  1
  Ti  Ti70  1  0.50038808  0.75947993  0.49340771  1
  Ti  Ti71  1  0.52012453  0.60459375  0.79882525  1
  Ti  Ti72  1  0.85016273  0.08377142  0.16079311  1
  Ti  Ti73  1  0.82913777  -0.02659198  0.53897284  1
  Ti  Ti74  1  0.86235637  -0.03823613  0.76197795  1
  Ti  Ti75  1  0.82603282  0.30298691  0.21533735  1
  Ti  Ti76  1  0.87636293  0.30475422  0.44327057  1
  Ti  Ti77  1  0.74350724  0.29661951  0.86515207  1
  Ti  Ti78  1  0.82258882  0.64835695  0.22898869  1
  Ti  Ti79  1  0.82649832  0.62630072  0.44534876  1
  Ti  Ti80  1  0.84101606  0.69283922  0.87508382  1
  Ti  Ti81  1  0.15857499  0.12539647  0.08932122  1
  Ti  Ti82  1  0.22233684  0.04120038  0.28809395  1
  Ti  Ti83  1  0.10101132  0.13521508  0.68997656  1
  Ti  Ti84  1  0.04771117  0.45617394  -0.03580982  1
  Ti  Ti85  1  0.17267271  0.53215523  0.44069831  1
  Ti  Ti86  1  0.23190427  0.57230008  0.72701713  1
  Ti  Ti87  1  0.12935508  0.78732893  -0.04215608  1
  Ti  Ti88  1  0.24136392  0.82430531  0.42441124  1
  Ti  Ti89  1  0.20514560  0.86103110  0.63933960  1
  Ti  Ti90  1  0.47959489  0.19739606  -0.00554562  1
  Ti  Ti91  1  0.56296886  0.15240158  0.32873442  1
  Ti  Ti92  1  0.48075565  0.15300968  0.67540256  1
  Ti  Ti93  1  0.49981155  0.55100507  -0.01396047  1
  Ti  Ti94  1  0.52467636  0.49212451  0.37526886  1
  Ti  Ti95  1  0.53931246  0.49193548  0.63537807  1
  Ti  Ti96  1  0.55214633  0.83289663  0.04065273  1
  Ti  Ti97  1  0.57811542  0.81383210  0.31542342  1
  Ti  Ti98  1  0.45573000  0.85574371  0.67880342  1
  Ti  Ti99  1  0.80378193  0.10621386  -0.03135986  1
  Ti  Ti100  1  0.77124935  0.14863824  0.34057751  1
  Ti  Ti101  1  0.81948953  0.21615916  0.66928407  1
  Ti  Ti102  1  0.80241304  0.55118722  -0.02077075  1
  Ti  Ti103  1  0.89234624  0.47811833  0.32602751  1
  Ti  Ti104  1  0.85729993  0.48723973  0.63520962  1
  Ti  Ti105  1  0.91261590  0.84443924  -0.06001552  1
  Ti  Ti106  1  0.82228472  0.86336074  0.37261392  1
  Ti  Ti107  1  0.81594601  0.73304276  0.68593859  1
  Co  Co108  1  0.61706352  0.76541807  0.17547051  1
  Co  Co109  1  0.69283940  0.46146295  0.62346955  1
  Co  Co110  1  -0.00732254  0.37461991  0.08841641  1
  Co  Co111  1  0.07902631  0.25975161  1.00728973  1
  Co  Co112  1  0.28044499  0.74814231  0.92254973  1
  Co  Co113  1  0.39944276  0.26575293  0.34820765  1
  Co  Co114  1  0.57499929  0.45432757  0.81797575  1
  Co  Co115  1  0.40080114  -0.00004817  0.73923623  1
  Co  Co116  1  0.93843306  0.63158140  0.57787264  1
  Co  Co117  1  0.20266750  0.73727981  0.76634905  1
  Co  Co118  1  0.78611992  0.36971927  0.72446049  1
  Co  Co119  1  0.13063497  0.69320427  0.41296492  1
  Co  Co120  1  0.92561407  0.18486726  0.31318178  1
  Co  Co121  1  0.80175972  0.97839450  0.27275417  1
  Co  Co122  1  0.83757453  0.43206312  0.87124223  1
  Co  Co123  1  0.05493218  0.42142621  0.38632068  1
  Co  Co124  1  0.36704238  0.52311924  0.42833071  1
  Co  Co125  1  0.02199365  0.02853121  0.13453069  1
  Co  Co126  1  0.59302034  0.87191552  0.59062518  1
  Co  Co127  1  0.08121469  0.11343483  0.38746969  1
  Co  Co128  1  0.23959177  0.52252077  0.22466750  1
  Co  Co129  1  0.76121081  0.05814628  0.65908822  1
  Co  Co130  1  1.00403776  0.72544335  0.84962110  1
  Co  Co131  1  0.86867664  0.96746263  0.03613580  1
  Co  Co132  1  0.57589659  0.73022682  0.91216690  1
  Co  Co133  1  0.69548490  0.69537078  0.81127255  1
  Co  Co134  1  0.13327363  0.17194402  0.23914287  1
  Co  Co135  1  0.29360940  1.04692561  0.43953526  1
  Co  Co136  1  0.57216376  0.96699017  0.14088824  1
  Co  Co137  1  0.29731719  0.87727692  0.03719859  1
  Co  Co138  1  0.33523948  0.72959871  0.08164851  1
  Co  Co139  1  0.43230461  0.68049315  0.96736809  1
  Co  Co140  1  0.48261962  1.00384192  0.59963404  1
  Co  Co141  1  -0.04468880  0.57283838  0.91060337  1
  Co  Co142  1  0.92443257  0.09101472  0.63103153  1
  Co  Co143  1  0.62796386  0.82777921  0.76423889  1
  Co  Co144  1  0.41606161  0.83455213  0.94294373  1
  Co  Co145  1  0.09595900  0.53715113  0.29378189  1
  Co  Co146  1  0.66335488  0.05366568  0.24033126  1
  Co  Co147  1  0.17646795  0.95103431  0.89226412  1
  Co  Co148  1  0.71749486  -0.00616981  0.07737793  1
  Co  Co149  1  0.78896397  0.46661181  0.48007848  1
  Co  Co150  1  0.54516401  0.91876821  0.44550128  1
  Co  Co151  1  0.72946039  0.52740496  0.32782736  1
  Co  Co152  1  0.60724835  0.40524721  0.50132154  1
  Co  Co153  1  0.96310465  0.13153744  1.01355685  1
  Co  Co154  1  0.02456622  0.02493732  0.79021080  1
  Co  Co155  1  0.92421606  0.33695823  0.61481675  1
  Co  Co156  1  0.34144047  0.63594760  0.82966048  1
  Co  Co157  1  0.98532232  0.38885599  0.24058323  1
  Co  Co158  1  0.82423271  0.71970767  0.06868951  1
  Co  Co159  1  0.45692680  0.75488509  0.80826320  1
  Co  Co160  1  0.45217613  0.86088837  0.16476194  1
  Co  Co161  1  0.74875916  0.32155379  0.56114205  1
  Ni  Ni162  1  0.77431869  0.15722703  0.51052113  1
  Ni  Ni163  1  0.75583698  0.96025859  0.89475538  1
  Ni  Ni164  1  0.21194352  0.21336483  0.78573845  1
  Ni  Ni165  1  0.74686628  0.88384074  0.65599945  1
  Ni  Ni166  1  0.33286787  0.16339227  0.05781390  1
  Ni  Ni167  1  0.38051345  0.11049506  0.31568112  1
  Ni  Ni168  1  0.91608031  0.08403374  0.44653823  1
  Ni  Ni169  1  0.17729372  0.99427356  0.73221947  1
  Ni  Ni170  1  0.24974638  0.24305620  0.63211711  1
  Ni  Ni171  1  0.41844413  0.53549673  0.25050371  1
  Ni  Ni172  1  0.42807845  0.42534993  0.72964067  1
  Ni  Ni173  1  0.69971396  0.70001524  0.35296652  1
  Ni  Ni174  1  0.18301995  0.45497984  0.60050910  1
  Ni  Ni175  1  0.54885413  0.31842217  0.36539258  1
  Ni  Ni176  1  0.33526573  0.80018149  0.57386915  1
  Ni  Ni177  1  0.97688484  0.93069883  0.44901415  1
  Ni  Ni178  1  0.90537498  0.78266112  0.27251002  1
  Ni  Ni179  1  0.78176479  0.23866591  0.06187311  1
  Ni  Ni180  1  0.65447920  0.25688876  0.24668464  1
  Ni  Ni181  1  0.62918118  0.07449028  0.54985285  1
  Ni  Ni182  1  0.17019427  0.15356362  0.52283827  1
  Ni  Ni183  1  0.93447860  0.83815381  0.66407324  1
  Ni  Ni184  1  0.21412659  0.43934121  0.91419164  1
  Ni  Ni185  1  0.80034725  0.39198992  0.02948359  1
  Ni  Ni186  1  0.40208821  0.80800512  0.35541273  1
  Ni  Ni187  1  0.60031467  0.31919555  0.09883529  1
  Ni  Ni188  1  0.58109539  0.19842466  0.80365825  1
  Ni  Ni189  1  0.75169215  0.61489170  0.59918115  1
  Ni  Ni190  1  0.48453638  0.59952252  0.53189784  1
  Ni  Ni191  1  0.47072777  0.65523733  0.35771835  1
  Ni  Ni192  1  0.05928715  0.54430020  0.65114687  1
  Ni  Ni193  1  0.92697697  0.61199771  0.74741293  1
  Ni  Ni194  1  0.61758418  0.41556297  0.24732143  1
  Ni  Ni195  1  0.09596708  0.82521891  0.51787852  1
  Ni  Ni196  1  0.37557166  0.23550528  0.77678464  1
  Ni  Ni197  1  0.44718478  0.36753577  0.02325826  1
  Ni  Ni198  1  0.21980345  0.29490838  0.08381582  1
  Ni  Ni199  1  0.64620293  0.57895522  0.91337261  1
  Ni  Ni200  1  0.53475674  0.48718759  0.12928097  1
  Ni  Ni201  1  0.89401130  0.51522021  0.10927170  1
  Ni  Ni202  1  0.17651442  0.77021201  0.27758684  1
  Ni  Ni203  1  0.18365247  0.46198491  0.07541679  1
  Ni  Ni204  1  0.31673561  0.00878711  0.15472458  1
  Ni  Ni205  1  0.12470150  0.91785282  0.24043678  1
  Ni  Ni206  1  0.48353578  0.08551060  0.85427953  1
  Ni  Ni207  1  0.33887426  0.67089254  0.48509993  1
  Ni  Ni208  1  0.98818330  0.60168737  0.40548628  1
  Ni  Ni209  1  0.42458420  0.30080282  0.62765995  1
  Ni  Ni210  1  0.23003601  0.22403370  0.36137426  1
  Ni  Ni211  1  0.12947325  0.45558532  0.77820477  1
  Ni  Ni212  1  0.92023974  0.29885858  0.78811128  1
  Ni  Ni213  1  0.64121266  0.20956106  0.95717480  1
  Ni  Ni214  1  0.09280132  0.78229242  0.13061226  1
  Ni  Ni215  1  0.26143545  0.03644365  0.99550268  1
