# generated using pymatgen
data_Ti2CoNi
_symmetry_space_group_name_H-M   'P 1'
_cell_length_a   14.53639630
_cell_length_b   14.53197636
_cell_length_c   14.51624086
_cell_angle_alpha   89.98539469
_cell_angle_beta   89.90655584
_cell_angle_gamma   90.07441911
_symmetry_Int_Tables_number   1
_chemical_formula_structural   Ti2CoNi
_chemical_formula_sum   'Ti108 Co54 Ni54'
_cell_volume   3066.44122142
_cell_formula_units_Z   54
loop_
 _symmetry_equiv_pos_site_id
 _symmetry_equiv_pos_as_xyz
  1  'x, y, z'
loop_
 _atom_site_type_symbol
 _atom_site_label
 _atom_site_symmetry_multiplicity
 _atom_site_fract_x
 _atom_site_fract_y
 _atom_site_fract_z
 _atom_site_occupancy
  Ti  Ti0  1  -0.06699277  -0.04078037  -0.03207193  1
  Ti  Ti1  1  0.01315933  0.00759566  0.33714524  1
  Ti  Ti2  1  -0.03291095  -0.00001379  0.62092885  1
  Ti  Ti3  1  -0.03100222  0.35752766  -0.05104086  1
  Ti  Ti4  1  -0.04681046  0.36862772  0.42410332  1
  Ti  Ti5  1  0.04248663  0.32092520  0.60741488  1
  Ti  Ti6  1  -0.02560400  0.67036077  -0.06681138  1
  Ti  Ti7  1  -0.03621475  0.70650974  0.27994590  1
  Ti  Ti8  1  -0.00230449  0.54744557  0.70062582  1
  Ti  Ti9  1  0.30804706  -0.02779549  0.04421519  1
  Ti  Ti10  1  0.31771661  0.06230925  0.36221766  1
  Ti  Ti11  1  0.38134519  0.04825214  0.74841287  1
  Ti  Ti12  1  0.38389125  0.38134658  -0.02709764  1
  Ti  Ti13  1  0.33438506  0.36363076  0.33244638  1
  Ti  Ti14  1  0.27143847  0.37452760  0.69024364  1
  Ti  Ti15  1  0.32103354  0.64830619  -0.05803014  1
  Ti  Ti16  1  0.30268917  0.65564680  0.25268249  1
  Ti  Ti17  1  0.37312796  0.67676491  0.74076819  1
  Ti  Ti18  1  0.66990696  0.02881740  -0.09839424  1
  Ti  Ti19  1  0.68410436  0.00999526  0.38501707  1
  Ti  Ti20  1  0.73219484  0.01553314  0.61877483  1
  Ti  Ti21  1  0.67388573  0.32343207  -0.00391587  1
  Ti  Ti22  1  0.63823266  0.37197019  0.33078500  1
  Ti  Ti23  1  0.69909479  0.33416211  0.71624352  1
  Ti  Ti24  1  0.72391051  0.71545300  -0.07069620  1
  Ti  Ti25  1  0.69748388  0.69451333  0.33595749  1
  Ti  Ti26  1  0.63887498  0.68570905  0.65960881  1
  Ti  Ti27  1  0.05521445  0.20399290  0.17500774  1
  Ti  Ti28  1  -0.03066342  0.18520800  0.46370934  1
  Ti  Ti29  1  0.01978417  0.14585860  0.87653113  1
  Ti  Ti30  1  0.00430270  0.49718320  0.23520675  1
  Ti  Ti31  1  0.05397814  0.52875220  0.51459198  1
  Ti  Ti32  1  0.06121238  0.50389682  0.87275035  1
  Ti  Ti33  1  -0.06161711  0.88206104  0.19508005  1
  Ti  Ti34  1  0.02172785  0.84027374  0.54124304  1
  Ti  Ti35  1  0.00254182  0.83830514  0.82325165  1
  Ti  Ti36  1  0.34658692  0.20056963  0.11742558  1
  Ti  Ti37  1  0.32074743  0.18969034  0.50972039  1
  Ti  Ti38  1  0.34988235  0.16709896  0.91213228  1
  Ti  Ti39  1  0.36597932  0.49910434  0.11893770  1
  Ti  Ti40  1  0.38125396  0.46275810  0.51193045  1
  Ti  Ti41  1  0.39381469  0.49107603  0.80490548  1
  Ti  Ti42  1  0.29144689  0.88592327  0.22891121  1
  Ti  Ti43  1  0.34489563  0.79504663  0.46058896  1
  Ti  Ti44  1  0.34048392  0.86395511  0.77815633  1
  Ti  Ti45  1  0.61244284  0.21073147  0.20281223  1
  Ti  Ti46  1  0.67076641  0.24853107  0.49651958  1
  Ti  Ti47  1  0.63004075  0.19841618  0.83119618  1
  Ti  Ti48  1  0.66953703  0.55006108  0.23823913  1
  Ti  Ti49  1  0.65859343  0.51842505  0.46646743  1
  Ti  Ti50  1  0.65126037  0.52229084  0.90045105  1
  Ti  Ti51  1  0.62168598  0.78639481  0.14508001  1
  Ti  Ti52  1  0.69201997  0.80208080  0.48966538  1
  Ti  Ti53  1  0.63914461  0.85332867  0.79651939  1
  Ti  Ti54  1  0.13482601  0.00222988  0.15096290  1
  Ti  Ti55  1  0.15454973  0.01526257  0.53138477  1
  Ti  Ti56  1  0.13820817  -0.01968604  0.85013064  1
  Ti  Ti57  1  0.16717275  0.40504299  0.11073704  1
  Ti  Ti58  1  0.17403108  0.31111611  0.44584518  1
  Ti  Ti59  1  0.13495255  0.29937512  0.86077108  1
  Ti  Ti60  1  0.11152678  0.65445823  0.14676954  1
  Ti  Ti61  1  0.19146146  0.68443052  0.45451399  1
  Ti  Ti62  1  0.10791649  0.68792540  0.77953853  1
  Ti  Ti63  1  0.49975066  -0.05529911  0.19810722  1
  Ti  Ti64  1  0.46078231  -0.02834351  0.47317951  1
  Ti  Ti65  1  0.47778752  -0.07390138  0.88722822  1
  Ti  Ti66  1  0.50124367  0.31879313  0.10328623  1
  Ti  Ti67  1  0.47748995  0.29629271  0.52258124  1
  Ti  Ti68  1  0.46673741  0.31893921  0.79766125  1
  Ti  Ti69  1  0.49740694  0.63471195  0.20642756  1
  Ti  Ti70  1  0.46284442  0.64738078  0.56667702  1
  Ti  Ti71  1  0.54068240  0.68489490  0.84829832  1
  Ti  Ti72  1  0.69572458  0.04796278  0.09260551  1
  Ti  Ti73  1  0.88045618  0.01856163  0.45582677  1
  Ti  Ti74  1  0.81317444  -0.06134627  0.79050641  1
  Ti  Ti75  1  0.85047870  0.34405054  0.11012247  1
  Ti  Ti76  1  0.83720286  0.29017913  0.58544242  1
  Ti  Ti77  1  0.83628147  0.27666030  0.84373286  1
  Ti  Ti78  1  0.90996505  0.64985435  0.09921593  1
  Ti  Ti79  1  0.87222552  0.70410135  0.46334617  1
  Ti  Ti80  1  0.86349334  0.67043032  0.77665736  1
  Ti  Ti81  1  0.17812510  0.12704860  0.00070147  1
  Ti  Ti82  1  0.12711275  0.14889995  0.35656164  1
  Ti  Ti83  1  0.22728364  0.15970090  0.66850176  1
  Ti  Ti84  1  0.22859146  0.46594392  -0.06394625  1
  Ti  Ti85  1  0.23963562  0.51818809  0.41159192  1
  Ti  Ti86  1  0.20349076  0.56097021  0.65192096  1
  Ti  Ti87  1  0.15355660  0.78732195  -0.03290805  1
  Ti  Ti88  1  0.14454581  0.85702919  0.39818502  1
  Ti  Ti89  1  0.19653915  0.81619037  0.61829935  1
  Ti  Ti90  1  0.48630837  0.08358847  0.07357725  1
  Ti  Ti91  1  0.46862099  0.12096046  0.28772694  1
  Ti  Ti92  1  0.51201675  0.13062486  0.62766097  1
  Ti  Ti93  1  0.56182184  0.50632562  0.06559572  1
  Ti  Ti94  1  0.50896899  0.56307751  0.37502685  1
  Ti  Ti95  1  0.56642961  0.49537757  0.69058522  1
  Ti  Ti96  1  0.44831014  0.81229920  0.04888563  1
  Ti  Ti97  1  0.57447455  0.84658057  0.34418247  1
  Ti  Ti98  1  0.51578805  0.93257870  0.65257424  1
  Ti  Ti99  1  0.89135846  0.16344364  0.03969794  1
  Ti  Ti100  1  0.81880081  0.12414139  0.25898812  1
  Ti  Ti101  1  0.92626058  0.16310261  0.71580186  1
  Ti  Ti102  1  0.76845633  0.51508988  0.07571669  1
  Ti  Ti103  1  0.82851731  0.42844255  0.29712754  1
  Ti  Ti104  1  0.77500015  0.49874542  0.64387832  1
  Ti  Ti105  1  0.82820882  0.81213996  0.06803523  1
  Ti  Ti106  1  0.80705243  0.87116948  0.33188354  1
  Ti  Ti107  1  0.85766223  0.81914785  0.65287078  1
  Co  Co108  1  0.58655363  1.02900642  0.76031584  1
  Co  Co109  1  0.81243368  0.58658934  0.92489001  1
  Co  Co110  1  0.80274634  0.75356652  0.22074697  1
  Co  Co111  1  0.50792457  0.07711686  0.91216759  1
  Co  Co112  1  0.75700072  0.44336534  0.80776694  1
  Co  Co113  1  0.91928566  0.27280075  0.25551865  1
  Co  Co114  1  0.35381201  0.04456512  0.57941882  1
  Co  Co115  1  0.14746654  0.62740900  0.94657120  1
  Co  Co116  1  0.71261429  0.60315766  0.77464410  1
  Co  Co117  1  0.55613006  0.28035670  0.66850942  1
  Co  Co118  1  0.23673782  0.57818349  0.07799395  1
  Co  Co119  1  0.37207184  0.23842716  0.67439733  1
  Co  Co120  1  0.97041470  0.99551933  0.78636902  1
  Co  Co121  1  0.84480281  0.12887284  0.58514690  1
  Co  Co122  1  0.36709720  0.53427248  0.65590804  1
  Co  Co123  1  0.08989984  0.90938976  0.70005454  1
  Co  Co124  1  0.80831438  0.41262081  0.95106050  1
  Co  Co125  1  0.61115893  0.16997627  0.01645024  1
  Co  Co126  1  0.72003651  0.66171059  0.11784440  1
  Co  Co127  1  0.86711674  0.08368519  0.87937012  1
  Co  Co128  1  0.06267392  0.24915563  1.02259906  1
  Co  Co129  1  0.55746726  0.23623906  0.37416925  1
  Co  Co130  1  0.37443761  0.51374982  0.29392842  1
  Co  Co131  1  0.27634193  0.94212498  0.45628418  1
  Co  Co132  1  -0.00679066  0.74723330  0.68636490  1
  Co  Co133  1  0.48404262  0.24200570  0.95837789  1
  Co  Co134  1  0.02701427  0.08214794  0.04121817  1
  Co  Co135  1  0.08556407  0.87384985  0.24181412  1
  Co  Co136  1  0.61508528  0.93405932  0.51449580  1
  Co  Co137  1  0.90492363  0.50123314  0.82436213  1
  Co  Co138  1  0.28144782  0.21897090  0.34466994  1
  Co  Co139  1  0.34805478  0.04374397  0.18436184  1
  Co  Co140  1  0.02857357  0.78581359  0.09591848  1
  Co  Co141  1  0.46918822  0.73156896  0.37351751  1
  Co  Co142  1  0.74685447  0.20897172  0.10686334  1
  Co  Co143  1  0.36245588  0.62312847  0.42771510  1
  Co  Co144  1  0.19488184  0.83009561  0.11786170  1
  Co  Co145  1  0.62673668  0.09297039  0.51639798  1
  Co  Co146  1  0.58923694  0.66448015  0.01778999  1
  Co  Co147  1  0.57383820  0.94878621  0.03870925  1
  Co  Co148  1  0.77427383  0.13334687  0.44050969  1
  Co  Co149  1  0.50975301  0.80611635  0.52735511  1
  Co  Co150  1  0.45413086  0.28660844  0.25627460  1
  Co  Co151  1  0.47776129  0.16219927  0.78806987  1
  Co  Co152  1  0.23655079  0.56916265  0.80913129  1
  Co  Co153  1  0.69211034  0.17982832  0.65276723  1
  Co  Co154  1  0.07151099  0.52297109  0.05364943  1
  Co  Co155  1  0.59142881  0.67343422  0.47493101  1
  Co  Co156  1  0.75507350  0.16986733  0.94310171  1
  Co  Co157  1  0.44214783  0.39368185  0.64976276  1
  Co  Co158  1  0.82130122  0.26832465  0.38886074  1
  Co  Co159  1  0.92874421  0.50928848  -0.00080571  1
  Co  Co160  1  0.75907169  0.10461493  0.76835805  1
  Co  Co161  1  0.78908610  0.56687933  0.38602836  1
  Ni  Ni162  1  0.69591032  0.85605428  0.64457695  1
  Ni  Ni163  1  0.54518810  0.39955292  0.91873904  1
  Ni  Ni164  1  0.78186631  0.40453431  0.47036876  1
  Ni  Ni165  1  0.84458577  0.87384626  0.50253014  1
  Ni  Ni166  1  0.21935295  0.14216381  0.20827615  1
  Ni  Ni167  1  0.47443092  0.12824382  0.46233032  1
  Ni  Ni168  1  0.09084264  0.67410760  0.59264828  1
  Ni  Ni169  1  0.17543724  0.75035546  0.27562354  1
  Ni  Ni170  1  0.37123364  0.83421082  0.62080943  1
  Ni  Ni171  1  0.18298890  -0.00520757  0.30953517  1
  Ni  Ni172  1  0.66338797  0.39690252  0.15792914  1
  Ni  Ni173  1  0.96194233  0.06237535  0.19102618  1
  Ni  Ni174  1  0.84088255  0.58341156  0.23069902  1
  Ni  Ni175  1  0.47082594  0.55296588  0.93235171  1
  Ni  Ni176  1  0.98913717  0.31536090  0.77196486  1
  Ni  Ni177  1  0.23531024  0.29110261  0.00618360  1
  Ni  Ni178  1  0.31951016  0.83702523  0.94701503  1
  Ni  Ni179  1  0.74028976  0.63977372  0.53870673  1
  Ni  Ni180  1  0.12665940  0.17900121  0.53248587  1
  Ni  Ni181  1  0.51515619  0.45337258  0.22660520  1
  Ni  Ni182  1  0.09793476  0.45059065  0.37403215  1
  Ni  Ni183  1  0.92098031  0.44457932  0.57680835  1
  Ni  Ni184  1  0.06334152  0.30413138  0.31249252  1
  Ni  Ni185  1  0.59480775  0.82000784  0.95551875  1
  Ni  Ni186  1  0.75671412  0.28752093  0.24320255  1
  Ni  Ni187  1  0.19787561  0.14171200  0.82697004  1
  Ni  Ni188  1  0.50504870  0.77936970  0.70592434  1
  Ni  Ni189  1  0.88947372  0.62727798  0.61007200  1
  Ni  Ni190  1  0.95017575  0.55132448  0.38968029  1
  Ni  Ni191  1  0.03131661  0.70160501  0.43592747  1
  Ni  Ni192  1  0.08661073  0.08180208  0.70787174  1
  Ni  Ni193  1  0.20763324  0.50280368  0.24141268  1
  Ni  Ni194  1  0.74372750  0.90699994  0.96862543  1
  Ni  Ni195  1  0.43727489  0.78599853  0.22166053  1
  Ni  Ni196  1  0.24194133  0.97348563  0.68262214  1
  Ni  Ni197  1  0.96782508  0.85286768  0.38163995  1
  Ni  Ni198  1  0.09051484  0.92964212  1.01347224  1
  Ni  Ni199  1  0.43255265  0.64743680  0.05976588  1
  Ni  Ni200  1  0.63530176  0.39324131  0.57087744  1
  Ni  Ni201  1  0.29444056  0.31182774  0.84208095  1
  Ni  Ni202  1  0.11328015  0.42711681  0.72439028  1
  Ni  Ni203  1  0.31663279  0.34920540  0.16640756  1
  Ni  Ni204  1  0.40678657  0.90081335  0.34063734  1
  Ni  Ni205  1  0.84440344  0.98949018  0.10736379  1
  Ni  Ni206  1  0.29793128  0.67592939  0.58237830  1
  Ni  Ni207  1  0.29471685  0.00462640  0.88420919  1
  Ni  Ni208  1  0.10705745  0.60629519  0.32399349  1
  Ni  Ni209  1  0.49003557  0.39490973  0.38854265  1
  Ni  Ni210  1  0.85726439  0.80957032  0.89051139  1
  Ni  Ni211  1  1.00622545  0.37463029  0.12875087  1
  Ni  Ni212  1  0.62050693  0.05359876  0.23978249  1
  Ni  Ni213  1  0.70689592  0.91190209  0.20888041  1
  Ni  Ni214  1  0.17953447  0.42304043  0.55963362  1
  Ni  Ni215  1  0.24616507  0.74425654  0.82610937  1
