# generated using pymatgen
data_Ti2CoNi
_symmetry_space_group_name_H-M   'P 1'
_cell_length_a   14.50948126
_cell_length_b   14.51755506
_cell_length_c   14.60577262
_cell_angle_alpha   90.07901499
_cell_angle_beta   90.07075490
_cell_angle_gamma   90.10977897
_symmetry_Int_Tables_number   1
_chemical_formula_structural   Ti2CoNi
_chemical_formula_sum   'Ti108 Co54 Ni54'
_cell_volume   3076.58104699
_cell_formula_units_Z   54
loop_
 _symmetry_equiv_pos_site_id
 _symmetry_equiv_pos_as_xyz
  1  'x, y, z'
loop_
 _atom_site_type_symbol
 _atom_site_label
 _atom_site_symmetry_multiplicity
 _atom_site_fract_x
 _atom_site_fract_y
 _atom_site_fract_z
 _atom_site_occupancy
  Ti  Ti0  1  -0.03605568  0.10233424  -0.06510541  1
  Ti  Ti1  1  0.06836347  0.00055418  0.32855452  1
  Ti  Ti2  1  -0.06187725  0.01286401  0.70772207  1
  Ti  Ti3  1  -0.02365199  0.29247232  -0.06664786  1
  Ti  Ti4  1  -0.00805689  0.36953009  0.29768643  1
  Ti  Ti5  1  -0.04927245  0.30927887  0.61967564  1
  Ti  Ti6  1  0.02091001  0.65850546  0.03086995  1
  Ti  Ti7  1  -0.02815993  0.73454589  0.34081988  1
  Ti  Ti8  1  0.02803127  0.60082404  0.66716935  1
  Ti  Ti9  1  0.33463043  -0.02292336  0.00079036  1
  Ti  Ti10  1  0.33532024  0.03424516  0.41696994  1
  Ti  Ti11  1  0.26756501  -0.05769674  0.68435238  1
  Ti  Ti12  1  0.36493210  0.31872483  -0.02837490  1
  Ti  Ti13  1  0.29377607  0.29530896  0.29954876  1
  Ti  Ti14  1  0.36392607  0.29453756  0.65510684  1
  Ti  Ti15  1  0.29742603  0.62191083  0.02717929  1
  Ti  Ti16  1  0.24853323  0.56552484  0.31224603  1
  Ti  Ti17  1  0.35083880  0.71364499  0.66746966  1
  Ti  Ti18  1  0.65547251  -0.02820070  0.00781975  1
  Ti  Ti19  1  0.70276738  0.01471193  0.30977587  1
  Ti  Ti20  1  0.70028291  -0.06119060  0.65165505  1
  Ti  Ti21  1  0.64863166  0.45515832  0.05581211  1
  Ti  Ti22  1  0.63956756  0.32246394  0.40155781  1
  Ti  Ti23  1  0.69481348  0.32829824  0.65496626  1
  Ti  Ti24  1  0.59926439  0.64501759  0.02751681  1
  Ti  Ti25  1  0.64564472  0.73777000  0.32545884  1
  Ti  Ti26  1  0.72606783  0.64122291  0.70896475  1
  Ti  Ti27  1  -0.02713277  0.18855831  0.23369283  1
  Ti  Ti28  1  0.01285425  0.18253514  0.43197744  1
  Ti  Ti29  1  0.03990873  0.19404501  0.73992024  1
  Ti  Ti30  1  0.03993357  0.49128846  0.12568440  1
  Ti  Ti31  1  0.01143605  0.54495620  0.43183034  1
  Ti  Ti32  1  0.05269903  0.54576447  0.84791155  1
  Ti  Ti33  1  -0.05872278  0.83152670  0.18374694  1
  Ti  Ti34  1  0.03504237  0.85245058  0.46805740  1
  Ti  Ti35  1  0.00270846  0.81416217  0.77758295  1
  Ti  Ti36  1  0.35707529  0.09107015  0.17283764  1
  Ti  Ti37  1  0.27646609  0.21270539  0.48826532  1
  Ti  Ti38  1  0.34250935  0.14732634  0.85219111  1
  Ti  Ti39  1  0.34954065  0.46432977  0.14783513  1
  Ti  Ti40  1  0.31364078  0.45006260  0.53467757  1
  Ti  Ti41  1  0.29268323  0.49564094  0.86181150  1
  Ti  Ti42  1  0.40930320  0.88612353  0.15126482  1
  Ti  Ti43  1  0.33868808  0.82142345  0.50794794  1
  Ti  Ti44  1  0.39745235  0.94195360  0.82086648  1
  Ti  Ti45  1  0.58131933  0.13341365  0.14909428  1
  Ti  Ti46  1  0.64773831  0.11229935  0.54236430  1
  Ti  Ti47  1  0.71226640  0.20292349  0.84737751  1
  Ti  Ti48  1  0.57207932  0.57717768  0.20032810  1
  Ti  Ti49  1  0.69010512  0.46809221  0.51708535  1
  Ti  Ti50  1  0.65707029  0.51175739  0.85426830  1
  Ti  Ti51  1  0.65375325  0.79427848  0.11980272  1
  Ti  Ti52  1  0.69587666  0.77534816  0.53426462  1
  Ti  Ti53  1  0.61395851  0.89548939  0.83414960  1
  Ti  Ti54  1  0.18460520  -0.08493646  0.15039012  1
  Ti  Ti55  1  0.18639302  -0.05094037  0.52204720  1
  Ti  Ti56  1  0.13844904  0.02557442  0.81631238  1
  Ti  Ti57  1  0.23194690  0.31405014  0.13494384  1
  Ti  Ti58  1  0.15252814  0.34401700  0.59817633  1
  Ti  Ti59  1  0.15262313  0.34854996  0.83347680  1
  Ti  Ti60  1  0.14137098  0.71953909  0.15985987  1
  Ti  Ti61  1  0.24893811  0.62695280  0.51206745  1
  Ti  Ti62  1  0.28403756  0.71300431  0.83792345  1
  Ti  Ti63  1  0.49588436  0.00616546  0.27607318  1
  Ti  Ti64  1  0.52035799  -0.09036668  0.51552041  1
  Ti  Ti65  1  0.54833753  0.07477512  0.80789230  1
  Ti  Ti66  1  0.48317825  0.37251149  0.24144063  1
  Ti  Ti67  1  0.43028217  0.31446941  0.46343849  1
  Ti  Ti68  1  0.50452599  0.40669764  0.76334130  1
  Ti  Ti69  1  0.41768692  0.70209073  0.24557945  1
  Ti  Ti70  1  0.50176854  0.69485023  0.44637136  1
  Ti  Ti71  1  0.57647038  0.68279683  0.84439297  1
  Ti  Ti72  1  0.88783868  0.00860071  0.23349671  1
  Ti  Ti73  1  0.83342810  0.06654186  0.51281015  1
  Ti  Ti74  1  0.78740722  0.00586304  0.85363098  1
  Ti  Ti75  1  0.76705169  0.34784823  0.16141611  1
  Ti  Ti76  1  0.85904737  0.37780563  0.47008951  1
  Ti  Ti77  1  0.80455246  0.39465095  0.81311662  1
  Ti  Ti78  1  0.80920821  0.69918431  0.21490931  1
  Ti  Ti79  1  0.89468669  0.68738345  0.52273246  1
  Ti  Ti80  1  0.82123638  0.71145716  0.87892242  1
  Ti  Ti81  1  0.08061164  0.17767776  0.06459118  1
  Ti  Ti82  1  0.20387379  0.13364698  0.28663739  1
  Ti  Ti83  1  0.22343166  0.19342659  0.72132616  1
  Ti  Ti84  1  0.16974485  0.45617646  0.00301704  1
  Ti  Ti85  1  0.16590293  0.42447897  0.40556064  1
  Ti  Ti86  1  0.22817571  0.56039746  0.69905524  1
  Ti  Ti87  1  0.14301827  0.79266422  -0.05458635  1
  Ti  Ti88  1  0.15068671  0.72318761  0.34425264  1
  Ti  Ti89  1  0.15298320  0.76074907  0.64495496  1
  Ti  Ti90  1  0.45832675  0.15296443  -0.00098323  1
  Ti  Ti91  1  0.44042547  0.18041663  0.32024241  1
  Ti  Ti92  1  0.53470765  0.21090477  0.68952156  1
  Ti  Ti93  1  0.47475300  0.50337694  -0.05560435  1
  Ti  Ti94  1  0.54896123  0.50344723  0.37176111  1
  Ti  Ti95  1  0.50816585  0.47162509  0.58158203  1
  Ti  Ti96  1  0.50131478  0.81833492  -0.02972205  1
  Ti  Ti97  1  0.40885903  0.86455778  0.34779796  1
  Ti  Ti98  1  0.56078209  0.75957171  0.66214093  1
  Ti  Ti99  1  0.77524470  0.15131704  0.03739375  1
  Ti  Ti100  1  0.76988036  0.17715436  0.22569906  1
  Ti  Ti101  1  0.81764144  0.17370049  0.66448019  1
  Ti  Ti102  1  0.86770589  0.45819430  -0.01325050  1
  Ti  Ti103  1  0.88974507  0.53574473  0.28169594  1
  Ti  Ti104  1  0.84783927  0.48810622  0.65041549  1
  Ti  Ti105  1  0.94506629  0.85209925  -0.02593898  1
  Ti  Ti106  1  0.82195094  0.85629091  0.38204589  1
  Ti  Ti107  1  0.87111033  0.88004934  0.58847814  1
  Co  Co108  1  0.97310180  0.46764262  0.56321407  1
  Co  Co109  1  0.55483827  0.32106802  0.57044819  1
  Co  Co110  1  0.18665647  0.77944115  0.48644737  1
  Co  Co111  1  0.12003673  0.19595066  0.57586170  1
  Co  Co112  1  0.67779596  0.48582991  0.68821325  1
  Co  Co113  1  0.52568446  0.04238724  0.61600950  1
  Co  Co114  1  0.55418757  0.20109324  0.46428096  1
  Co  Co115  1  0.90313183  0.41137104  0.15528921  1
  Co  Co116  1  0.41946470  0.55475937  0.27884245  1
  Co  Co117  1  0.32794543  0.82113688  0.93687470  1
  Co  Co118  1  0.88156380  0.10990551  0.35632222  1
  Co  Co119  1  0.06590797  0.90942439  0.62993837  1
  Co  Co120  1  0.53211575  0.91870850  0.70767812  1
  Co  Co121  1  0.75113552  0.53229414  0.14432501  1
  Co  Co122  1  0.50021331  0.99622339  0.93722094  1
  Co  Co123  1  0.48959450  0.01130655  0.08853246  1
  Co  Co124  1  0.11529837  0.05619427  0.65856411  1
  Co  Co125  1  0.45436420  0.57786378  0.09545752  1
  Co  Co126  1  0.05042956  0.33321164  0.11022158  1
  Co  Co127  1  0.73305721  0.17701514  0.39039687  1
  Co  Co128  1  0.35529978  0.31926843  0.81510538  1
  Co  Co129  1  0.27499831  0.79173512  0.24221472  1
  Co  Co130  1  0.08673001  0.85574600  0.26680370  1
  Co  Co131  1  0.64058975  0.43061233  0.23752970  1
  Co  Co132  1  0.43123988  0.61788488  0.58564191  1
  Co  Co133  1  0.49321347  0.05108119  0.44399429  1
  Co  Co134  1  0.41437508  0.73829918  0.07940258  1
  Co  Co135  1  0.16339857  0.09292334  0.45322117  1
  Co  Co136  1  0.26170381  0.09403518  0.59555765  1
  Co  Co137  1  0.12789132  0.69475940  0.79063522  1
  Co  Co138  1  0.24947497  0.39849645  0.71655065  1
  Co  Co139  1  0.22608561  0.88780302  0.37466154  1
  Co  Co140  1  0.44893351  0.78050932  0.81082929  1
  Co  Co141  1  0.71854327  0.94059466  0.48885247  1
  Co  Co142  1  0.39563434  0.08272758  0.70265995  1
  Co  Co143  1  0.88560823  0.57969748  0.08504367  1
  Co  Co144  1  0.59794113  0.13160545  0.32701358  1
  Co  Co145  1  0.42477508  0.65854045  0.93917643  1
  Co  Co146  1  0.97130825  0.66224120  0.18865692  1
  Co  Co147  1  0.40295532  0.56437263  0.43842502  1
  Co  Co148  1  0.74515366  0.01342928  0.13669003  1
  Co  Co149  1  0.40148310  0.61213034  0.78889696  1
  Co  Co150  1  0.80734938  0.69510939  0.38588276  1
  Co  Co151  1  0.30079640  0.97081813  0.26221127  1
  Co  Co152  1  0.40504679  0.86180932  0.64873805  1
  Co  Co153  1  0.83156256  0.54191447  0.43900641  1
  Co  Co154  1  0.98108111  0.77124989  0.62805924  1
  Co  Co155  1  0.05812174  0.84677342  0.07885824  1
  Co  Co156  1  0.38262971  0.49055974  0.69167735  1
  Co  Co157  1  0.41916553  0.16122258  0.55573908  1
  Co  Co158  1  0.76170533  0.61665972  0.56382598  1
  Co  Co159  1  0.59410145  0.62483495  0.57645210  1
  Co  Co160  1  0.17001944  0.43692579  0.23844962  1
  Co  Co161  1  0.98432663  0.69167803  0.87774504  1
  Ni  Ni162  1  0.76796811  0.31482503  0.97670649  1
  Ni  Ni163  1  0.31603773  0.70993914  0.38134754  1
  Ni  Ni164  1  0.81955147  0.74181121  0.05035459  1
  Ni  Ni165  1  0.03397829  0.34601266  0.47596073  1
  Ni  Ni166  1  0.63109298  0.28047098  0.07688654  1
  Ni  Ni167  1  0.61861808  0.13654925  0.96187590  1
  Ni  Ni168  1  0.85053278  0.86925008  0.77235281  1
  Ni  Ni169  1  0.13503879  0.18296317  0.88071826  1
  Ni  Ni170  1  0.90968919  0.24311114  0.08406799  1
  Ni  Ni171  1  0.19438420  0.56465692  0.14080037  1
  Ni  Ni172  1  0.93178992  0.97216638  0.42439187  1
  Ni  Ni173  1  0.75697408  0.25461364  0.53011128  1
  Ni  Ni174  1  0.71717144  0.57384957  0.29599691  1
  Ni  Ni175  1  0.77265132  0.86850130  0.21952350  1
  Ni  Ni176  1  0.84983981  0.27920558  0.33847954  1
  Ni  Ni177  1  0.86546752  0.14158724  0.81782517  1
  Ni  Ni178  1  0.07815690  0.57569421  0.27517427  1
  Ni  Ni179  1  0.97387293  0.12627593  0.58812382  1
  Ni  Ni180  1  0.64652407  0.34088749  0.80574671  1
  Ni  Ni181  1  0.11714959  0.27657717  0.24550177  1
  Ni  Ni182  1  0.57541544  0.36661696  0.94125128  1
  Ni  Ni183  1  0.06839463  0.43843528  0.69808488  1
  Ni  Ni184  1  0.75219391  0.59092048  0.97226758  1
  Ni  Ni185  1  0.67329540  0.77359718  0.94968975  1
  Ni  Ni186  1  0.16218408  0.61628321  0.93523150  1
  Ni  Ni187  1  0.35565729  0.42661693  0.36374715  1
  Ni  Ni188  1  0.90352501  0.28167372  0.77111887  1
  Ni  Ni189  1  0.53585662  0.81446553  0.23861583  1
  Ni  Ni190  1  0.88851767  0.66278594  0.72750651  1
  Ni  Ni191  1  0.19432583  0.05580422  0.97190714  1
  Ni  Ni192  1  0.13466141  0.51453734  0.55266597  1
  Ni  Ni193  1  0.60731641  0.94173266  0.17358404  1
  Ni  Ni194  1  0.06624096  0.67653846  0.51186539  1
  Ni  Ni195  1  0.28095371  0.16972992  0.04383542  1
  Ni  Ni196  1  0.26563244  0.79923923  0.07637515  1
  Ni  Ni197  1  0.18579152  0.29293578  0.98467198  1
  Ni  Ni198  1  0.50938051  0.24086452  0.85811058  1
  Ni  Ni199  1  0.54172229  0.57328061  0.72627223  1
  Ni  Ni200  1  0.61015327  0.26701757  0.24239703  1
  Ni  Ni201  1  -0.01024517  0.95912138  0.86071881  1
  Ni  Ni202  1  0.48553156  0.37834623  0.07340467  1
  Ni  Ni203  1  0.18355125  0.07033157  0.13995069  1
  Ni  Ni204  1  0.02451880  -0.00020057  0.13611167  1
  Ni  Ni205  1  0.97391358  0.41385943  0.82677512  1
  Ni  Ni206  1  0.15233470  0.25889569  0.39945780  1
  Ni  Ni207  1  0.85789589  1.00508476  0.01520412  1
  Ni  Ni208  1  0.69207925  0.08182126  0.72387851  1
  Ni  Ni209  1  0.76228622  0.42431908  0.34286151  1
  Ni  Ni210  1  0.71013578  0.79192874  0.76662546  1
  Ni  Ni211  1  0.78762558  0.87431666  0.94709888  1
  Ni  Ni212  1  0.60802092  0.89599185  0.37645143  1
  Ni  Ni213  1  0.16508976  0.86269647  0.78730182  1
  Ni  Ni214  1  0.39999818  0.24663717  0.13765415  1
  Ni  Ni215  1  0.66509629  0.61841284  0.43768184  1
