# generated using pymatgen
data_Ti2CoNi
_symmetry_space_group_name_H-M   'P 1'
_cell_length_a   14.60947324
_cell_length_b   14.57220175
_cell_length_c   14.60484223
_cell_angle_alpha   90.10139329
_cell_angle_beta   89.93224065
_cell_angle_gamma   90.09018907
_symmetry_Int_Tables_number   1
_chemical_formula_structural   Ti2CoNi
_chemical_formula_sum   'Ti108 Co54 Ni54'
_cell_volume   3109.24598358
_cell_formula_units_Z   54
loop_
 _symmetry_equiv_pos_site_id
 _symmetry_equiv_pos_as_xyz
  1  'x, y, z'
loop_
 _atom_site_type_symbol
 _atom_site_label
 _atom_site_symmetry_multiplicity
 _atom_site_fract_x
 _atom_site_fract_y
 _atom_site_fract_z
 _atom_site_occupancy
  Ti  Ti0  1  -0.06437159  0.00667891  -0.00428707  1
  Ti  Ti1  1  -0.03707372  -0.03370961  0.28294242  1
  Ti  Ti2  1  0.01782563  -0.02876320  0.61896877  1
  Ti  Ti3  1  -0.02499580  0.32866376  0.02288098  1
  Ti  Ti4  1  -0.07112930  0.30131693  0.36093264  1
  Ti  Ti5  1  0.07732593  0.27702010  0.75607451  1
  Ti  Ti6  1  0.00920181  0.69288331  -0.01562787  1
  Ti  Ti7  1  0.05223061  0.65607521  0.30669510  1
  Ti  Ti8  1  0.02600996  0.70431575  0.60201843  1
  Ti  Ti9  1  0.35599706  0.02298084  0.01479335  1
  Ti  Ti10  1  0.37023046  -0.02524448  0.32022761  1
  Ti  Ti11  1  0.39225730  -0.00029738  0.63049999  1
  Ti  Ti12  1  0.26346294  0.33347410  0.05163611  1
  Ti  Ti13  1  0.35599039  0.36916257  0.23520129  1
  Ti  Ti14  1  0.36734249  0.37497713  0.68199785  1
  Ti  Ti15  1  0.21406891  0.63107948  0.00255627  1
  Ti  Ti16  1  0.41042818  0.68388945  0.31618144  1
  Ti  Ti17  1  0.28506306  0.66359530  0.69652214  1
  Ti  Ti18  1  0.62026046  0.08325903  0.03081355  1
  Ti  Ti19  1  0.66244327  0.00421802  0.36976062  1
  Ti  Ti20  1  0.60441468  -0.00185246  0.68524203  1
  Ti  Ti21  1  0.68843813  0.31147702  -0.06846660  1
  Ti  Ti22  1  0.67124854  0.31950440  0.29733962  1
  Ti  Ti23  1  0.66964262  0.34258711  0.58855989  1
  Ti  Ti24  1  0.69128457  0.67151643  -0.08108826  1
  Ti  Ti25  1  0.76003337  0.61631290  0.34751719  1
  Ti  Ti26  1  0.68688302  0.65777421  0.63517367  1
  Ti  Ti27  1  -0.05385526  0.20764803  0.17447687  1
  Ti  Ti28  1  -0.02321246  0.15719359  0.48736294  1
  Ti  Ti29  1  0.06616504  0.11206419  0.85236891  1
  Ti  Ti30  1  -0.03624270  0.57859447  0.13310863  1
  Ti  Ti31  1  -0.00992641  0.47624819  0.54959254  1
  Ti  Ti32  1  -0.05924866  0.46150976  0.83716337  1
  Ti  Ti33  1  0.01961291  0.79003280  0.15453122  1
  Ti  Ti34  1  0.00718400  0.87600956  0.46897295  1
  Ti  Ti35  1  -0.01539536  0.86142072  0.88594842  1
  Ti  Ti36  1  0.37866021  0.18353283  0.22436774  1
  Ti  Ti37  1  0.34090586  0.16047293  0.44320110  1
  Ti  Ti38  1  0.29162375  0.20005303  0.88082482  1
  Ti  Ti39  1  0.37545051  0.54125805  0.15665341  1
  Ti  Ti40  1  0.31168291  0.48111970  0.51778902  1
  Ti  Ti41  1  0.37686681  0.50592951  0.83792947  1
  Ti  Ti42  1  0.28654088  0.85106933  0.15606395  1
  Ti  Ti43  1  0.33372962  0.77592603  0.51029556  1
  Ti  Ti44  1  0.36010600  0.84219494  0.86912104  1
  Ti  Ti45  1  0.65670965  0.25539328  0.11610026  1
  Ti  Ti46  1  0.65385866  0.19713265  0.45238791  1
  Ti  Ti47  1  0.64224335  0.11528751  0.84173265  1
  Ti  Ti48  1  0.67795552  0.58500654  0.10763711  1
  Ti  Ti49  1  0.63857691  0.54961690  0.48560657  1
  Ti  Ti50  1  0.72478607  0.50693208  0.83843077  1
  Ti  Ti51  1  0.62679826  0.86033126  0.21212179  1
  Ti  Ti52  1  0.68545326  0.86028765  0.55264260  1
  Ti  Ti53  1  0.65165777  0.81628165  0.75537866  1
  Ti  Ti54  1  0.07901738  0.04624333  0.14773801  1
  Ti  Ti55  1  0.18594700  0.01497288  0.50484753  1
  Ti  Ti56  1  0.14040438  -0.05171643  0.80144053  1
  Ti  Ti57  1  0.13619223  0.23678358  0.16354821  1
  Ti  Ti58  1  0.12741263  0.35211947  0.45656696  1
  Ti  Ti59  1  0.22765572  0.37115902  0.85119796  1
  Ti  Ti60  1  0.22943550  0.67325196  0.26542258  1
  Ti  Ti61  1  0.13575517  0.57138282  0.47258792  1
  Ti  Ti62  1  0.12340312  0.62234589  0.81064908  1
  Ti  Ti63  1  0.48477458  -0.01569859  0.15307443  1
  Ti  Ti64  1  0.51733829  0.07935588  0.52420476  1
  Ti  Ti65  1  0.44871493  0.04364580  0.83967060  1
  Ti  Ti66  1  0.54795161  0.45323385  0.18865094  1
  Ti  Ti67  1  0.48235632  0.28803505  0.52786821  1
  Ti  Ti68  1  0.54604692  0.38543639  0.84082475  1
  Ti  Ti69  1  0.52452659  0.66938582  0.17397928  1
  Ti  Ti70  1  0.45927353  0.61589119  0.49106237  1
  Ti  Ti71  1  0.39310995  0.66185308  0.96992040  1
  Ti  Ti72  1  0.78169426  -0.04033902  0.10940258  1
  Ti  Ti73  1  0.84526998  -0.01079836  0.45600512  1
  Ti  Ti74  1  0.78846099  -0.04262971  0.80664659  1
  Ti  Ti75  1  0.84583257  0.41492952  0.20554911  1
  Ti  Ti76  1  0.86537213  0.32699064  0.54903911  1
  Ti  Ti77  1  0.80438774  0.34191605  0.74818924  1
  Ti  Ti78  1  0.81597932  0.77463097  0.17108819  1
  Ti  Ti79  1  0.89314463  0.72522146  0.45034209  1
  Ti  Ti80  1  0.95054302  0.67388178  0.78967560  1
  Ti  Ti81  1  0.18459158  0.13053977  0.01791478  1
  Ti  Ti82  1  0.13511636  0.15669844  0.36919854  1
  Ti  Ti83  1  0.16713669  0.20061435  0.57016353  1
  Ti  Ti84  1  0.11409988  0.45007101  0.06701802  1
  Ti  Ti85  1  0.22490392  0.47720714  0.33047233  1
  Ti  Ti86  1  0.16268926  0.40865376  0.64286270  1
  Ti  Ti87  1  0.16765808  0.82435193  -0.02524139  1
  Ti  Ti88  1  0.16920332  0.86851977  0.35810923  1
  Ti  Ti89  1  0.21465730  0.83991032  0.67541640  1
  Ti  Ti90  1  0.49014135  0.21967819  -0.04937975  1
  Ti  Ti91  1  0.58862852  0.14700851  0.25600130  1
  Ti  Ti92  1  0.48350670  0.20314400  0.72932727  1
  Ti  Ti93  1  0.48077831  0.48344348  0.00307963  1
  Ti  Ti94  1  0.52393549  0.42057337  0.37694057  1
  Ti  Ti95  1  0.53530969  0.53795932  0.70092548  1
  Ti  Ti96  1  0.49643595  0.80481517  0.04756047  1
  Ti  Ti97  1  0.58691701  0.74783763  0.37555704  1
  Ti  Ti98  1  0.47705489  0.74347068  0.68294196  1
  Ti  Ti99  1  0.83167517  0.17104126  0.00202224  1
  Ti  Ti100  1  0.80871443  0.11619203  0.30715915  1
  Ti  Ti101  1  0.90943604  0.17934386  0.71769788  1
  Ti  Ti102  1  0.81775594  0.48139659  0.01772168  1
  Ti  Ti103  1  0.83252863  0.45734569  0.40620109  1
  Ti  Ti104  1  0.84016273  0.53930960  0.67641148  1
  Ti  Ti105  1  0.73232947  0.84689740  -0.03496301  1
  Ti  Ti106  1  0.76926654  0.83138398  0.36060575  1
  Ti  Ti107  1  0.87115066  0.82017224  0.70784666  1
  Co  Co108  1  0.77720935  0.68030806  0.76779422  1
  Co  Co109  1  0.52169453  0.77463678  0.87446371  1
  Co  Co110  1  0.22774032  0.53763301  0.14726108  1
  Co  Co111  1  0.66227835  0.75493659  0.08134672  1
  Co  Co112  1  0.14802506  0.70313945  0.12709630  1
  Co  Co113  1  0.51611510  0.29556001  0.21249792  1
  Co  Co114  1  0.90519814  0.05480120  0.15569236  1
  Co  Co115  1  0.16233987  0.85811755  0.53062019  1
  Co  Co116  1  0.24587965  0.50808155  0.75487429  1
  Co  Co117  1  0.45051572  0.82848381  0.41661036  1
  Co  Co118  1  0.55465019  0.58698769  0.32031983  1
  Co  Co119  1  0.33823212  0.12163164  0.75720359  1
  Co  Co120  1  0.60192867  0.65947748  0.78365165  1
  Co  Co121  1  0.31701088  0.93072901  0.46928498  1
  Co  Co122  1  0.68397673  0.48389191  0.29213275  1
  Co  Co123  1  0.80815839  0.57531588  0.18937653  1
  Co  Co124  1  0.18657223  0.38448443  0.20546541  1
  Co  Co125  1  0.78341864  0.20677327  0.84223547  1
  Co  Co126  1  0.08516384  0.73377971  0.44112979  1
  Co  Co127  1  0.69822286  0.42031988  0.13034417  1
  Co  Co128  1  0.98525233  0.81382424  0.31823948  1
  Co  Co129  1  0.00624683  0.38927282  0.19364502  1
  Co  Co130  1  0.05137857  0.12289955  0.65710135  1
  Co  Co131  1  0.16506164  0.50310455  0.91668996  1
  Co  Co132  1  0.79503870  0.95541451  0.26808659  1
  Co  Co133  1  0.42295651  0.33305049  0.08817583  1
  Co  Co134  1  0.95990353  0.23904398  0.87598149  1
  Co  Co135  1  0.37603736  0.19382885  0.60821059  1
  Co  Co136  1  0.01744264  0.15743536  0.02580583  1
  Co  Co137  1  0.61586092  0.92260814  0.05036662  1
  Co  Co138  1  0.64298929  0.48722380  0.97324207  1
  Co  Co139  1  0.74607309  0.10273732  0.71781649  1
  Co  Co140  1  0.56610128  0.35170518  0.02602957  1
  Co  Co141  1  1.00537983  0.55151917  0.69401621  1
  Co  Co142  1  0.24690115  0.03431627  0.89444990  1
  Co  Co143  1  0.81655468  0.18434923  0.45236807  1
  Co  Co144  1  0.71819748  0.71411526  0.48275289  1
  Co  Co145  1  0.09066131  0.98940119  0.96212126  1
  Co  Co146  1  0.04433745  0.45935397  0.37395911  1
  Co  Co147  1  0.81354563  0.31164001  0.07619218  1
  Co  Co148  1  0.93028748  0.52606928  0.29273969  1
  Co  Co149  1  0.55815995  0.73598899  0.53667663  1
  Co  Co150  1  0.48143350  0.89660909  0.76109916  1
  Co  Co151  1  0.64906725  0.01738472  0.19142066  1
  Co  Co152  1  0.09250405  0.52515129  0.22431905  1
  Co  Co153  1  0.75785883  0.13173374  0.14751519  1
  Co  Co154  1  0.96831663  0.59056160  0.44238835  1
  Co  Co155  1  0.15125544  0.56843646  0.63862522  1
  Co  Co156  1  0.09292670  0.44972284  0.78618509  1
  Co  Co157  1  0.31558198  0.81962775  0.32679618  1
  Co  Co158  1  0.25470109  0.08149323  0.63093932  1
  Co  Co159  1  0.77058054  0.21671125  0.61247932  1
  Co  Co160  1  0.57497906  0.91739988  0.45387976  1
  Co  Co161  1  0.41876990  0.66067993  0.80676637  1
  Ni  Ni162  1  0.02639102  0.29082950  0.58151412  1
  Ni  Ni163  1  0.90496299  0.83915612  0.03931608  1
  Ni  Ni164  1  0.12184819  0.27088383  0.94488381  1
  Ni  Ni165  1  0.20751118  0.96182281  0.06242479  1
  Ni  Ni166  1  0.48241598  0.93389022  0.95479779  1
  Ni  Ni167  1  0.28562292  0.31205681  0.53517897  1
  Ni  Ni168  1  0.29180475  0.62377305  0.42501763  1
  Ni  Ni169  1  0.89430448  0.68798100  0.27824426  1
  Ni  Ni170  1  0.49407661  0.07230461  0.36364591  1
  Ni  Ni171  1  0.49203180  0.15073867  0.10573490  1
  Ni  Ni172  1  0.39288405  0.51539364  0.33109503  1
  Ni  Ni173  1  0.30682090  0.95746899  0.76333464  1
  Ni  Ni174  1  0.68213326  0.46880817  0.68757142  1
  Ni  Ni175  1  0.96821075  0.98245478  0.77201783  1
  Ni  Ni176  1  0.61238967  0.17419823  0.62661668  1
  Ni  Ni177  1  0.30919561  0.48482781  0.99769804  1
  Ni  Ni178  1  0.85319400  0.76191126  0.89822929  1
  Ni  Ni179  1  0.61495737  -0.06250991  0.86489172  1
  Ni  Ni180  1  0.25298551  0.72316758  0.85396247  1
  Ni  Ni181  1  0.69826581  0.05508016  0.53852116  1
  Ni  Ni182  1  0.96011960  0.38697906  0.68962103  1
  Ni  Ni183  1  0.55395723  0.63907430  0.00285711  1
  Ni  Ni184  1  0.85668417  0.59701410  0.89967322  1
  Ni  Ni185  1  0.04543772  0.81978355  0.73027743  1
  Ni  Ni186  1  0.87778028  0.08393037  0.85896346  1
  Ni  Ni187  1  0.04046488  0.02628250  0.41640845  1
  Ni  Ni188  1  0.74782245  1.02002252  0.95160263  1
  Ni  Ni189  1  0.80564658  0.26102537  0.23677036  1
  Ni  Ni190  1  0.19302976  0.70221266  0.56112873  1
  Ni  Ni191  1  0.68139487  0.70031364  0.23877574  1
  Ni  Ni192  1  0.48463320  0.23986358  0.36616166  1
  Ni  Ni193  1  0.86750799  0.08903179  0.58592925  1
  Ni  Ni194  1  0.81628853  0.58091426  0.51994963  1
  Ni  Ni195  1  0.00510937  0.53088690  0.96526768  1
  Ni  Ni196  1  0.07882298  0.29747747  0.30435522  1
  Ni  Ni197  1  0.65294123  0.26698244  0.76032464  1
  Ni  Ni198  1  0.50597763  0.88424872  0.59366765  1
  Ni  Ni199  1  0.48981398  0.45655435  0.55108576  1
  Ni  Ni200  1  0.67953771  0.39157516  0.44011895  1
  Ni  Ni201  1  0.38436099  0.55148115  0.65010978  1
  Ni  Ni202  1  0.84447426  0.34776353  0.91357084  1
  Ni  Ni203  1  0.34580413  0.18916408  0.05084368  1
  Ni  Ni204  1  0.53759844  0.36269794  0.68148996  1
  Ni  Ni205  1  0.24754525  0.27973654  0.33214096  1
  Ni  Ni206  1  0.82597579  0.67192568  0.04271769  1
  Ni  Ni207  1  0.25748531  0.09760345  0.29162783  1
  Ni  Ni208  1  0.85852342  0.84973620  0.54723301  1
  Ni  Ni209  1  0.45123236  0.82683880  0.22454689  1
  Ni  Ni210  1  0.25257808  0.25660604  0.70582095  1
  Ni  Ni211  1  0.12632717  0.89944977  0.20399728  1
  Ni  Ni212  1  0.36909600  0.36295882  0.40771678  1
  Ni  Ni213  1  0.78578482  0.95921987  0.64444301  1
  Ni  Ni214  1  0.38779517  0.34736627  0.91910501  1
  Ni  Ni215  1  0.35478414  0.70503307  0.13488035  1
