# generated using pymatgen
data_Ti2CoNi
_symmetry_space_group_name_H-M   'P 1'
_cell_length_a   14.66224844
_cell_length_b   14.64241557
_cell_length_c   14.66888677
_cell_angle_alpha   90.08045747
_cell_angle_beta   90.19580681
_cell_angle_gamma   90.15125193
_symmetry_Int_Tables_number   1
_chemical_formula_structural   Ti2CoNi
_chemical_formula_sum   'Ti108 Co54 Ni54'
_cell_volume   3149.24157085
_cell_formula_units_Z   54
loop_
 _symmetry_equiv_pos_site_id
 _symmetry_equiv_pos_as_xyz
  1  'x, y, z'
loop_
 _atom_site_type_symbol
 _atom_site_label
 _atom_site_symmetry_multiplicity
 _atom_site_fract_x
 _atom_site_fract_y
 _atom_site_fract_z
 _atom_site_occupancy
  Ti  Ti0  1  -0.01556064  0.08959684  0.04532754  1
  Ti  Ti1  1  0.04134934  0.04497434  0.32333650  1
  Ti  Ti2  1  -0.07560649  0.03526853  0.73863684  1
  Ti  Ti3  1  0.01918080  0.37028018  -0.01995410  1
  Ti  Ti4  1  0.07511342  0.37967131  0.28888459  1
  Ti  Ti5  1  -0.08249280  0.33416604  0.69382607  1
  Ti  Ti6  1  0.05715692  0.65375268  0.05834317  1
  Ti  Ti7  1  0.04017137  0.69426771  0.37170796  1
  Ti  Ti8  1  -0.02480641  0.67677625  0.58834535  1
  Ti  Ti9  1  0.21861847  -0.02977681  -0.06829052  1
  Ti  Ti10  1  0.36445538  -0.06037877  0.39562128  1
  Ti  Ti11  1  0.37019614  -0.02714876  0.62100203  1
  Ti  Ti12  1  0.26307798  0.38614847  0.01685442  1
  Ti  Ti13  1  0.36405460  0.30575817  0.27395062  1
  Ti  Ti14  1  0.34966309  0.33350753  0.59151635  1
  Ti  Ti15  1  0.41877878  0.70470081  -0.03800382  1
  Ti  Ti16  1  0.26787293  0.67162517  0.37559779  1
  Ti  Ti17  1  0.36335739  0.67281919  0.77875751  1
  Ti  Ti18  1  0.74128489  0.04782182  0.04465996  1
  Ti  Ti19  1  0.62219700  -0.03189247  0.32832514  1
  Ti  Ti20  1  0.63748147  -0.00877680  0.66031499  1
  Ti  Ti21  1  0.67235453  0.31324014  -0.05760100  1
  Ti  Ti22  1  0.70706717  0.42411966  0.30608569  1
  Ti  Ti23  1  0.61231904  0.29286412  0.64685005  1
  Ti  Ti24  1  0.69491678  0.62746702  -0.04630823  1
  Ti  Ti25  1  0.64326534  0.77273832  0.34378221  1
  Ti  Ti26  1  0.69783042  0.64674484  0.61861654  1
  Ti  Ti27  1  -0.03229680  0.21390542  0.23565010  1
  Ti  Ti28  1  0.01911536  0.12096520  0.50949041  1
  Ti  Ti29  1  0.01595125  0.20023159  0.86632380  1
  Ti  Ti30  1  -0.00010416  0.51574154  0.17233667  1
  Ti  Ti31  1  -0.04073879  0.46457887  0.51690633  1
  Ti  Ti32  1  -0.02564030  0.52655635  0.80566093  1
  Ti  Ti33  1  0.00382151  0.81477764  0.14551523  1
  Ti  Ti34  1  0.04324545  0.89707893  0.46819240  1
  Ti  Ti35  1  0.05344836  0.88222272  0.79844736  1
  Ti  Ti36  1  0.40882668  0.08177796  0.22093836  1
  Ti  Ti37  1  0.31956201  0.14195142  0.53347908  1
  Ti  Ti38  1  0.28985253  0.16208008  0.88043795  1
  Ti  Ti39  1  0.41130368  0.51088090  0.08657477  1
  Ti  Ti40  1  0.37677988  0.52129632  0.52949724  1
  Ti  Ti41  1  0.29999152  0.49986780  0.85671622  1
  Ti  Ti42  1  0.30386360  0.76414443  0.21349215  1
  Ti  Ti43  1  0.43136352  0.79476220  0.52981950  1
  Ti  Ti44  1  0.26846898  0.82129897  0.83754463  1
  Ti  Ti45  1  0.64598282  0.20713380  0.11975733  1
  Ti  Ti46  1  0.65671865  0.14804735  0.41245336  1
  Ti  Ti47  1  0.68814692  0.06928064  0.86693087  1
  Ti  Ti48  1  0.67953362  0.57374830  0.14583804  1
  Ti  Ti49  1  0.67021880  0.46531028  0.55259025  1
  Ti  Ti50  1  0.63690246  0.46642591  0.81277828  1
  Ti  Ti51  1  0.66955716  0.88966588  0.14904813  1
  Ti  Ti52  1  0.63788357  0.82700873  0.53860853  1
  Ti  Ti53  1  0.68929678  0.79856238  0.75419064  1
  Ti  Ti54  1  0.16284460  -0.05115934  0.15750762  1
  Ti  Ti55  1  0.20175797  -0.03726957  0.52384185  1
  Ti  Ti56  1  0.13782416  0.07145394  0.77960562  1
  Ti  Ti57  1  0.13854579  0.26461072  0.12378323  1
  Ti  Ti58  1  0.15650264  0.27823465  0.46740454  1
  Ti  Ti59  1  0.12326112  0.38395794  0.80593255  1
  Ti  Ti60  1  0.22270355  0.56462060  0.15351090  1
  Ti  Ti61  1  0.25274637  0.67826335  0.58390368  1
  Ti  Ti62  1  0.14419953  0.63387224  0.75176696  1
  Ti  Ti63  1  0.53694285  0.01464628  0.09229094  1
  Ti  Ti64  1  0.49652646  0.06372865  0.45360117  1
  Ti  Ti65  1  0.40859070  -0.02898245  0.84012406  1
  Ti  Ti66  1  0.53963577  0.39597159  0.20177650  1
  Ti  Ti67  1  0.48735938  0.26034990  0.49310494  1
  Ti  Ti68  1  0.43248070  0.28797035  0.77455224  1
  Ti  Ti69  1  0.47636569  0.65057137  0.22905402  1
  Ti  Ti70  1  0.52951829  0.64640905  0.47538383  1
  Ti  Ti71  1  0.55289236  0.64974675  0.81600974  1
  Ti  Ti72  1  0.87254970  -0.04075467  0.15598206  1
  Ti  Ti73  1  0.82090210  0.05407958  0.52520233  1
  Ti  Ti74  1  0.84361351  -0.06864278  0.92027220  1
  Ti  Ti75  1  0.82593691  0.32047220  0.17419939  1
  Ti  Ti76  1  0.82348583  0.34624529  0.45931753  1
  Ti  Ti77  1  0.86554663  0.35895689  0.87057354  1
  Ti  Ti78  1  0.78261955  0.73895322  0.20016170  1
  Ti  Ti79  1  0.78712202  0.69072064  0.45073792  1
  Ti  Ti80  1  0.86344725  0.67358134  0.85883904  1
  Ti  Ti81  1  0.25087261  0.09709959  0.08013738  1
  Ti  Ti82  1  0.23800080  0.15527618  0.28983546  1
  Ti  Ti83  1  0.14803318  0.26535902  0.66252349  1
  Ti  Ti84  1  0.13214352  0.52086514  -0.05813522  1
  Ti  Ti85  1  0.26349480  0.47378928  0.33245859  1
  Ti  Ti86  1  0.16966241  0.46953959  0.60510853  1
  Ti  Ti87  1  0.11826779  0.81871385  -0.02344959  1
  Ti  Ti88  1  0.18337621  0.83545925  0.33779165  1
  Ti  Ti89  1  0.12868002  0.81455539  0.64189544  1
  Ti  Ti90  1  0.43894199  0.18398904  0.01929758  1
  Ti  Ti91  1  0.53010963  0.24904954  0.32122522  1
  Ti  Ti92  1  0.52615530  0.10630923  0.75990083  1
  Ti  Ti93  1  0.57794894  0.47749363  0.00699639  1
  Ti  Ti94  1  0.54195237  0.44288855  0.41880291  1
  Ti  Ti95  1  0.44545404  0.48191929  0.73806246  1
  Ti  Ti96  1  0.35436222  0.89007296  0.06933572  1
  Ti  Ti97  1  0.48053091  0.86032253  0.23686356  1
  Ti  Ti98  1  0.50044955  0.85268588  0.69983561  1
  Ti  Ti99  1  0.83010067  0.21471295  -0.00589042  1
  Ti  Ti100  1  0.82604883  0.19694935  0.35142357  1
  Ti  Ti101  1  0.75039997  0.15743408  0.69411115  1
  Ti  Ti102  1  0.81536646  0.45724639  0.04011583  1
  Ti  Ti103  1  0.85617268  0.56666861  0.27688017  1
  Ti  Ti104  1  0.79255360  0.49330532  0.71633180  1
  Ti  Ti105  1  0.85009359  0.76668221  0.03597281  1
  Ti  Ti106  1  0.89380297  0.81756830  0.32715925  1
  Ti  Ti107  1  0.93217907  0.88385463  0.62533413  1
  Co  Co108  1  0.30411180  0.23011857  0.13834009  1
  Co  Co109  1  0.52054301  0.87139412  0.40886037  1
  Co  Co110  1  0.07194259  0.97809814  0.63729085  1
  Co  Co111  1  0.65377028  0.92226225  -0.01648406  1
  Co  Co112  1  0.54018687  0.05387716  0.93728953  1
  Co  Co113  1  0.89824965  0.19480526  0.76516058  1
  Co  Co114  1  0.73229754  0.33921267  0.76060515  1
  Co  Co115  1  0.28912637  0.57728467  0.00164787  1
  Co  Co116  1  0.68080637  0.75416403  0.05183681  1
  Co  Co117  1  0.68529293  0.26257654  0.26926894  1
  Co  Co118  1  0.45729665  0.54139764  0.90523963  1
  Co  Co119  1  0.11258559  0.54459138  0.32518488  1
  Co  Co120  1  0.03229555  0.15258569  0.67095721  1
  Co  Co121  1  0.40194247  0.39617785  0.40660766  1
  Co  Co122  1  0.51836527  0.94749462  0.55263329  1
  Co  Co123  1  0.27614168  0.39549698  0.71474717  1
  Co  Co124  1  0.48579730  0.89750004  0.96966939  1
  Co  Co125  1  0.29131109  0.22587699  0.70849636  1
  Co  Co126  1  0.58322929  0.54625517  0.67639709  1
  Co  Co127  1  0.25747016  0.40527633  0.47906583  1
  Co  Co128  1  0.77067300  0.92600553  0.60479503  1
  Co  Co129  1  0.91421943  0.79280874  0.48805208  1
  Co  Co130  1  0.82305825  0.54145635  0.56273168  1
  Co  Co131  1  0.31407362  0.26409002  0.42670803  1
  Co  Co132  1  0.10210771  0.43294218  0.44200188  1
  Co  Co133  1  0.44773576  0.80805792  0.83700242  1
  Co  Co134  1  0.60763596  0.24159948  0.80470460  1
  Co  Co135  1  0.86325094  0.08931403  0.89409053  1
  Co  Co136  1  0.70625633  0.62651078  0.29599312  1
  Co  Co137  1  0.36999512  0.67258799  0.11058179  1
  Co  Co138  1  0.76523558  0.03178321  0.37661029  1
  Co  Co139  1  0.22004711  0.56025446  0.46717610  1
  Co  Co140  1  0.40154820  0.35354753  0.11454079  1
  Co  Co141  1  0.77189831  0.90761262  0.27691266  1
  Co  Co142  1  0.16468706  0.79126328  0.13607959  1
  Co  Co143  1  0.91189366  0.96870221  0.41427822  1
  Co  Co144  1  0.88631293  0.06032834  0.28112913  1
  Co  Co145  1  0.60640089  0.73216111  0.18926306  1
  Co  Co146  1  0.54164900  0.31812506  0.04510815  1
  Co  Co147  1  0.48348176  0.21683025  0.16908340  1
  Co  Co148  1  0.38904676  0.13969897  0.36920557  1
  Co  Co149  1  0.80293091  0.50074401  0.41198947  1
  Co  Co150  1  0.13276757  0.74869733  0.49193542  1
  Co  Co151  1  0.92379825  0.61035432  0.43717905  1
  Co  Co152  1  0.74522540  0.79618051  0.90436822  1
  Co  Co153  1  0.54469626  0.63990032  0.04724990  1
  Co  Co154  1  0.76432012  0.21232964  0.84724133  1
  Co  Co155  1  0.07519109  0.58653916  0.50390383  1
  Co  Co156  1  0.77769683  0.35709537  0.61102361  1
  Co  Co157  1  0.66434660  0.58313451  0.44072288  1
  Co  Co158  1  0.58412587  0.77221610  0.92146315  1
  Co  Co159  1  0.55858644  0.71482283  0.65030186  1
  Co  Co160  1  0.26855918  0.76916450  0.01803324  1
  Co  Co161  1  0.52919840  0.37635711  0.87429923  1
  Ni  Ni162  1  0.11609364  0.43863597  0.09648247  1
  Ni  Ni163  1  -0.00204945  0.72820152  0.74902253  1
  Ni  Ni164  1  0.22268259  0.94059738  0.71877463  1
  Ni  Ni165  1  0.76945256  0.87406332  0.44245890  1
  Ni  Ni166  1  0.01806403  0.30733589  0.56478120  1
  Ni  Ni167  1  0.73968232  0.21569709  0.53669062  1
  Ni  Ni168  1  0.19854016  0.09310610  0.63022813  1
  Ni  Ni169  1  0.86699829  0.82971317  0.77715298  1
  Ni  Ni170  1  0.32078425  0.93799401  0.22991769  1
  Ni  Ni171  1  0.86178844  0.60809503  0.09872589  1
  Ni  Ni172  1  0.65419640  0.31631684  0.43731484  1
  Ni  Ni173  1  0.09248346  0.20590565  0.33386478  1
  Ni  Ni174  1  0.03950750  0.88882662  0.28439242  1
  Ni  Ni175  1  0.42123070  0.64570525  0.62770894  1
  Ni  Ni176  1  0.20761765  -0.00495661  0.33099828  1
  Ni  Ni177  1  0.13381049  0.67622357  0.23597602  1
  Ni  Ni178  1  0.68261241  0.38403572  0.12107457  1
  Ni  Ni179  1  0.24582592  0.38968405  0.18607027  1
  Ni  Ni180  1  0.97907662  0.92239559  0.02314299  1
  Ni  Ni181  1  0.58458273  0.10354385  0.24227221  1
  Ni  Ni182  1  0.44807446  0.17870498  0.63342075  1
  Ni  Ni183  1  0.50557946  0.41681598  0.59314889  1
  Ni  Ni184  1  0.13336806  0.11088930  0.95714982  1
  Ni  Ni185  1  0.77051874  -0.03642320  0.76317845  1
  Ni  Ni186  1  0.42220548  0.74802043  0.36033639  1
  Ni  Ni187  1  0.41354181  0.56990889  0.37047295  1
  Ni  Ni188  1  0.57234734  0.54152425  0.29590595  1
  Ni  Ni189  1  0.80667307  0.51574758  0.88552794  1
  Ni  Ni190  1  0.02987616  0.45202864  0.67407758  1
  Ni  Ni191  1  0.21048349  0.67313147  0.89865295  1
  Ni  Ni192  1  0.95825798  0.53199769  0.98033171  1
  Ni  Ni193  1  0.58655702  0.92872201  0.82701407  1
  Ni  Ni194  1  0.34964420  0.08681371  0.73702561  1
  Ni  Ni195  1  0.27548081  0.32308158  0.85168261  1
  Ni  Ni196  1  0.89148644  0.19986919  0.58997114  1
  Ni  Ni197  1  0.10157369  0.11007452  0.17664113  1
  Ni  Ni198  1  0.04241727  0.65690571  0.89025351  1
  Ni  Ni199  1  0.37590193  0.03211850  -0.01116501  1
  Ni  Ni200  1  0.32336237  0.81195071  0.67285396  1
  Ni  Ni201  1  0.90057270  0.39714447  0.30176753  1
  Ni  Ni202  1  0.27754335  0.82072085  0.48991003  1
  Ni  Ni203  1  0.40283947  0.32925921  0.94983470  1
  Ni  Ni204  1  0.96261350  0.79709803  0.91586220  1
  Ni  Ni205  1  0.80569793  0.77210622  0.61875662  1
  Ni  Ni206  1  0.60060859  0.13069634  0.57911738  1
  Ni  Ni207  1  0.96222594  0.67761362  0.21196712  1
  Ni  Ni208  1  0.17317130  0.10732049  0.44791025  1
  Ni  Ni209  1  0.83259678  0.14898250  0.15152660  1
  Ni  Ni210  1  0.97776358  0.29685830  0.40793538  1
  Ni  Ni211  1  0.01762709  1.01474811  0.89019208  1
  Ni  Ni212  1  0.85921897  0.64270862  0.69856244  1
  Ni  Ni213  1  0.96001731  0.25883390  0.07874361  1
  Ni  Ni214  1  0.29065862  0.55257888  0.68935780  1
  Ni  Ni215  1  0.15567419  0.27061208  0.94868362  1
