# generated using pymatgen
data_Ti2CoNi
_symmetry_space_group_name_H-M   'P 1'
_cell_length_a   14.60174900
_cell_length_b   14.59807369
_cell_length_c   14.56627471
_cell_angle_alpha   89.93707340
_cell_angle_beta   89.94464205
_cell_angle_gamma   89.87271224
_symmetry_Int_Tables_number   1
_chemical_formula_structural   Ti2CoNi
_chemical_formula_sum   'Ti108 Co54 Ni54'
_cell_volume   3104.89838525
_cell_formula_units_Z   54
loop_
 _symmetry_equiv_pos_site_id
 _symmetry_equiv_pos_as_xyz
  1  'x, y, z'
loop_
 _atom_site_type_symbol
 _atom_site_label
 _atom_site_symmetry_multiplicity
 _atom_site_fract_x
 _atom_site_fract_y
 _atom_site_fract_z
 _atom_site_occupancy
  Ti  Ti0  1  -0.02095245  -0.02693145  -0.04753875  1
  Ti  Ti1  1  0.00142593  0.06938264  0.39007113  1
  Ti  Ti2  1  -0.03862434  0.08758352  0.67684414  1
  Ti  Ti3  1  0.04350730  0.29495039  -0.00470700  1
  Ti  Ti4  1  0.01835003  0.31022663  0.27200200  1
  Ti  Ti5  1  0.00439934  0.28712102  0.69396421  1
  Ti  Ti6  1  -0.07476084  0.71984832  -0.00017813  1
  Ti  Ti7  1  -0.02853731  0.62272467  0.30708644  1
  Ti  Ti8  1  0.06651314  0.72875787  0.63751884  1
  Ti  Ti9  1  0.31476313  0.00226233  -0.05165235  1
  Ti  Ti10  1  0.33074289  0.02987363  0.41136071  1
  Ti  Ti11  1  0.35905196  -0.03270567  0.62345750  1
  Ti  Ti12  1  0.34490000  0.42618212  0.04770102  1
  Ti  Ti13  1  0.31734158  0.36205053  0.37517369  1
  Ti  Ti14  1  0.33509225  0.38206690  0.69133724  1
  Ti  Ti15  1  0.26803155  0.66126707  0.03878929  1
  Ti  Ti16  1  0.30587578  0.61373796  0.37076945  1
  Ti  Ti17  1  0.32744717  0.69329585  0.71970639  1
  Ti  Ti18  1  0.68218632  0.08808844  0.04033952  1
  Ti  Ti19  1  0.63384511  0.01202129  0.34139040  1
  Ti  Ti20  1  0.66218606  0.01471032  0.68363807  1
  Ti  Ti21  1  0.61435530  0.27823933  -0.03330111  1
  Ti  Ti22  1  0.66504857  0.35444382  0.32814098  1
  Ti  Ti23  1  0.64047804  0.29720866  0.71839366  1
  Ti  Ti24  1  0.59485715  0.67100283  0.00532490  1
  Ti  Ti25  1  0.72628833  0.68770983  0.27927929  1
  Ti  Ti26  1  0.71623896  0.65016350  0.65809063  1
  Ti  Ti27  1  0.01555374  0.12087536  0.18222971  1
  Ti  Ti28  1  0.09411611  0.19704987  0.53698056  1
  Ti  Ti29  1  -0.03667245  0.15971588  0.86052416  1
  Ti  Ti30  1  -0.03202548  0.46803990  0.19408139  1
  Ti  Ti31  1  -0.02347726  0.52617245  0.49915375  1
  Ti  Ti32  1  -0.01161729  0.48514174  0.86809985  1
  Ti  Ti33  1  -0.02706021  0.86631405  0.15549591  1
  Ti  Ti34  1  0.04198728  0.84797579  0.49078071  1
  Ti  Ti35  1  0.01762998  0.81499052  0.81385027  1
  Ti  Ti36  1  0.29664294  0.23261347  0.16481597  1
  Ti  Ti37  1  0.37005501  0.17125160  0.54718812  1
  Ti  Ti38  1  0.32184524  0.21884227  0.83236316  1
  Ti  Ti39  1  0.40534581  0.50941618  0.22416333  1
  Ti  Ti40  1  0.33851568  0.50059623  0.53407793  1
  Ti  Ti41  1  0.33301162  0.49593728  0.85374647  1
  Ti  Ti42  1  0.40539769  0.80477427  0.16955259  1
  Ti  Ti43  1  0.35759706  0.81886884  0.46400321  1
  Ti  Ti44  1  0.32020550  0.80360188  0.90490924  1
  Ti  Ti45  1  0.65085693  0.17382232  0.25088957  1
  Ti  Ti46  1  0.77775996  0.17759525  0.43870611  1
  Ti  Ti47  1  0.74132879  0.12156540  0.82785454  1
  Ti  Ti48  1  0.69480237  0.46841742  0.14816385  1
  Ti  Ti49  1  0.66158355  0.50466936  0.51231986  1
  Ti  Ti50  1  0.63739199  0.56880012  0.80213261  1
  Ti  Ti51  1  0.61678962  0.84176068  0.16226259  1
  Ti  Ti52  1  0.69176972  0.83825905  0.58684846  1
  Ti  Ti53  1  0.58377870  0.88870803  0.82948747  1
  Ti  Ti54  1  0.21529835  0.00599091  0.18028733  1
  Ti  Ti55  1  0.08706168  0.00633982  0.57721108  1
  Ti  Ti56  1  0.16337217  -0.08157901  0.86544534  1
  Ti  Ti57  1  0.14631127  0.39778841  0.12667610  1
  Ti  Ti58  1  0.11774024  0.35379648  0.44319333  1
  Ti  Ti59  1  0.15605993  0.38826423  0.77822134  1
  Ti  Ti60  1  0.20648468  0.74858804  0.21638623  1
  Ti  Ti61  1  0.14716757  0.68363199  0.43033019  1
  Ti  Ti62  1  0.13404186  0.63123596  0.80871600  1
  Ti  Ti63  1  0.46970840  -0.00490700  0.13304721  1
  Ti  Ti64  1  0.50656582  -0.01488739  0.50435528  1
  Ti  Ti65  1  0.47259259  0.05853918  0.76764324  1
  Ti  Ti66  1  0.46874479  0.31417805  0.21429785  1
  Ti  Ti67  1  0.45756723  0.32956386  0.52325550  1
  Ti  Ti68  1  0.46712218  0.33266355  0.84720648  1
  Ti  Ti69  1  0.54502927  0.66162456  0.22061359  1
  Ti  Ti70  1  0.46440821  0.66020806  0.52436473  1
  Ti  Ti71  1  0.47351243  0.67763102  0.83196610  1
  Ti  Ti72  1  0.75966043  -0.00531728  0.20134017  1
  Ti  Ti73  1  0.86407882  -0.00311606  0.52116403  1
  Ti  Ti74  1  0.87279623  -0.02958072  0.79007228  1
  Ti  Ti75  1  0.88263249  0.30995334  0.13385309  1
  Ti  Ti76  1  0.91334909  0.33293634  0.50287284  1
  Ti  Ti77  1  0.78254124  0.43615996  0.84728240  1
  Ti  Ti78  1  0.75729059  0.68320992  0.09056871  1
  Ti  Ti79  1  0.85373569  0.70217101  0.53771316  1
  Ti  Ti80  1  0.78537952  0.66921585  0.87000766  1
  Ti  Ti81  1  0.14804543  0.11887306  0.00127067  1
  Ti  Ti82  1  0.17691540  0.18155167  0.31497346  1
  Ti  Ti83  1  0.15463016  0.15698510  0.71482296  1
  Ti  Ti84  1  0.16810466  0.49639914  -0.03746922  1
  Ti  Ti85  1  0.16500662  0.49460093  0.29482451  1
  Ti  Ti86  1  0.13465233  0.52669039  0.61366623  1
  Ti  Ti87  1  0.17609831  0.86416776  0.05323620  1
  Ti  Ti88  1  0.19240186  0.87940492  0.35965630  1
  Ti  Ti89  1  0.22561979  0.80942216  0.60887695  1
  Ti  Ti90  1  0.47393433  0.13192740  -0.02369921  1
  Ti  Ti91  1  0.50399345  0.15494029  0.39349799  1
  Ti  Ti92  1  0.55517020  0.16191561  0.60229637  1
  Ti  Ti93  1  0.53165382  0.48642673  -0.04417298  1
  Ti  Ti94  1  0.48295449  0.50144457  0.40474439  1
  Ti  Ti95  1  0.52152277  0.43601392  0.66294814  1
  Ti  Ti96  1  0.48278961  0.81777809  -0.00824144  1
  Ti  Ti97  1  0.49540030  0.85818041  0.33116368  1
  Ti  Ti98  1  0.55770739  0.75295601  0.68627753  1
  Ti  Ti99  1  0.81884052  0.23219322  -0.02060765  1
  Ti  Ti100  1  0.85719216  0.15883830  0.27855822  1
  Ti  Ti101  1  0.82407152  0.24054985  0.69400352  1
  Ti  Ti102  1  0.85646214  0.52906269  0.02681190  1
  Ti  Ti103  1  0.83559678  0.47002284  0.36071308  1
  Ti  Ti104  1  0.85534390  0.54723612  0.71504018  1
  Ti  Ti105  1  0.77719794  0.88985149  0.02214859  1
  Ti  Ti106  1  0.86699467  0.79428418  0.33838524  1
  Ti  Ti107  1  0.87291027  0.76247007  0.70917050  1
  Co  Co108  1  0.23896171  0.21125723  0.45948765  1
  Co  Co109  1  0.39781404  0.55756578  0.67104290  1
  Co  Co110  1  0.32146945  0.08559316  0.25901766  1
  Co  Co111  1  0.16786498  0.74115078  0.93103760  1
  Co  Co112  1  0.95578621  0.88229557  0.63048299  1
  Co  Co113  1  0.81902263  0.51426747  0.54455565  1
  Co  Co114  1  0.79796140  0.08906675  0.64425509  1
  Co  Co115  1  0.21571432  0.26573846  0.02510247  1
  Co  Co116  1  0.71000315  0.20784642  0.58166123  1
  Co  Co117  1  0.70014972  0.46791233  0.67515145  1
  Co  Co118  1  0.90358120  0.71897746  0.18542700  1
  Co  Co119  1  0.75650004  0.35893314  0.47127015  1
  Co  Co120  1  -0.02635806  0.61272429  0.63433738  1
  Co  Co121  1  0.33162080  0.11412019  0.70810396  1
  Co  Co122  1  0.70072038  0.86402201  0.30986805  1
  Co  Co123  1  0.34650397  0.65697609  0.20994739  1
  Co  Co124  1  0.91524129  0.16695988  0.54358438  1
  Co  Co125  1  0.80689474  0.92608841  0.65586450  1
  Co  Co126  1  0.33199751  0.77277779  0.32044081  1
  Co  Co127  1  0.44820580  0.25373093  0.69537187  1
  Co  Co128  1  0.59409569  0.74713165  0.37290816  1
  Co  Co129  1  0.48022786  0.51008685  0.80002643  1
  Co  Co130  1  0.88600101  0.99702037  0.09139979  1
  Co  Co131  1  0.10884127  0.61722330  0.21424829  1
  Co  Co132  1  0.12369459  0.35694623  0.61572497  1
  Co  Co133  1  0.62114775  0.34516510  0.55994154  1
  Co  Co134  1  0.73698649  0.76522182  0.43902929  1
  Co  Co135  1  0.45474234  0.66982264  0.35216645  1
  Co  Co136  1  0.01549515  0.45356751  0.36055601  1
  Co  Co137  1  0.91887838  0.00545823  0.24738866  1
  Co  Co138  1  0.32984891  0.91422921  0.07747594  1
  Co  Co139  1  0.62404432  0.23921215  0.43981937  1
  Co  Co140  1  0.62558626  0.89042852  0.45057879  1
  Co  Co141  1  0.02174490  0.46759713  0.03274815  1
  Co  Co142  1  0.05862099  0.62550591  0.96178651  1
  Co  Co143  1  0.97541824  0.60471154  0.11205813  1
  Co  Co144  1  0.03733114  0.82875296  0.97668113  1
  Co  Co145  1  0.55819670  0.59059940  0.64632138  1
  Co  Co146  1  0.80263613  0.02139003  0.36869350  1
  Co  Co147  1  0.26273652  0.36019423  0.52793117  1
  Co  Co148  1  0.61718444  0.41028281  0.83381048  1
  Co  Co149  1  0.98815275  0.69944147  0.45315153  1
  Co  Co150  1  0.25855802  0.25069922  0.64393370  1
  Co  Co151  1  0.81998717  0.62313524  0.40185023  1
  Co  Co152  1  0.83343809  0.06433204  0.95522007  1
  Co  Co153  1  0.33050137  0.92162873  0.26222040  1
  Co  Co154  1  0.73194497  0.28183919  0.85296871  1
  Co  Co155  1  0.62563917  0.68252667  0.52389858  1
  Co  Co156  1  0.96957451  0.13973074  0.02763463  1
  Co  Co157  1  0.62765634  0.73159865  0.85769877  1
  Co  Co158  1  0.19497803  0.78450293  0.77284884  1
  Co  Co159  1  0.09831262  0.89077560  0.68916079  1
  Co  Co160  1  0.36492401  0.21403842  0.34892421  1
  Co  Co161  1  0.23422838  0.09002231  0.57398625  1
  Ni  Ni162  1  0.82797128  0.56726281  0.20523325  1
  Ni  Ni163  1  0.73015934  0.95498520  0.87802644  1
  Ni  Ni164  1  0.05164342  0.77752279  0.29770787  1
  Ni  Ni165  1  0.00984052  0.46005144  0.70349931  1
  Ni  Ni166  1  0.90387215  0.31775943  0.82592211  1
  Ni  Ni167  1  0.22814665  0.93549994  0.51272062  1
  Ni  Ni168  1  0.56039468  0.19017792  0.81458604  1
  Ni  Ni169  1  0.86173605  0.39448289  0.65227413  1
  Ni  Ni170  1  0.14070287  0.23583738  0.86750654  1
  Ni  Ni171  1  0.50024032  0.33684690  0.36767712  1
  Ni  Ni172  1  0.26920053  0.65100949  0.55248723  1
  Ni  Ni173  1  0.38849156  0.27165244  0.99896345  1
  Ni  Ni174  1  0.98657616  0.22657421  0.40170075  1
  Ni  Ni175  1  0.82386503  0.14363980  0.12072856  1
  Ni  Ni176  1  0.60540312  0.94009003  0.01872156  1
  Ni  Ni177  1  0.85582390  0.82850617  0.88306668  1
  Ni  Ni178  1  0.69935478  0.54614641  0.97382755  1
  Ni  Ni179  1  0.95259470  0.91763190  0.37768139  1
  Ni  Ni180  1  0.16167834  0.05447705  0.42399096  1
  Ni  Ni181  1  0.59986221  0.05332393  0.89192559  1
  Ni  Ni182  1  0.45652594  0.15016639  0.20558549  1
  Ni  Ni183  1  0.29238803  0.38922123  0.21417802  1
  Ni  Ni184  1  0.07502060  0.73267670  0.10463479  1
  Ni  Ni185  1  0.12490154  0.23673642  0.15938479  1
  Ni  Ni186  1  0.41268755  0.80257027  0.61762530  1
  Ni  Ni187  1  0.52456454  0.92250876  0.66133957  1
  Ni  Ni188  1  0.33692203  0.09987463  0.08067902  1
  Ni  Ni189  1  0.06340682  0.03424221  0.80514217  1
  Ni  Ni190  1  0.24693945  0.53964032  0.72453302  1
  Ni  Ni191  1  0.42417519  0.85201483  0.78213126  1
  Ni  Ni192  1  0.24716747  0.53639973  0.14414707  1
  Ni  Ni193  1  0.39915593  0.60149620  0.95291594  1
  Ni  Ni194  1  0.89954875  0.37981838  0.97531893  1
  Ni  Ni195  1  0.61918000  0.58827002  0.37088208  1
  Ni  Ni196  1  0.06386998  -0.00681537  0.09321914  1
  Ni  Ni197  1  0.07615119  0.95642147  0.26626744  1
  Ni  Ni198  1  0.71813889  0.28386770  0.14966551  1
  Ni  Ni199  1  0.56658354  0.20525420  0.10533640  1
  Ni  Ni200  1  0.66848335  0.05808836  0.50677559  1
  Ni  Ni201  1  0.56505079  0.46868688  0.25785763  1
  Ni  Ni202  1  0.51224649  0.36867536  0.07009402  1
  Ni  Ni203  1  0.22180455  0.98662823  0.71101118  1
  Ni  Ni204  1  0.79070331  0.82953201  0.17813889  1
  Ni  Ni205  1  0.22097180  0.08600280  0.84642453  1
  Ni  Ni206  1  0.44517442  0.67109638  0.08157391  1
  Ni  Ni207  1  0.46686781  0.01694103  0.30444126  1
  Ni  Ni208  1  0.82550126  0.31313744  0.31180454  1
  Ni  Ni209  1  0.72765935  0.82156240  0.76373175  1
  Ni  Ni210  1  0.53741391  0.53259701  0.10992080  1
  Ni  Ni211  1  0.73455727  0.38441344  0.00841647  1
  Ni  Ni212  1  0.26227719  0.35513224  0.90704914  1
  Ni  Ni213  1  0.96341669  0.65101084  0.81317316  1
  Ni  Ni214  1  0.46560051  0.96480274  0.92087535  1
  Ni  Ni215  1  0.18174943  0.51148012  0.45800682  1
