# generated using pymatgen
data_Ti2CoNi
_symmetry_space_group_name_H-M   'P 1'
_cell_length_a   14.69311943
_cell_length_b   14.66989756
_cell_length_c   14.64939561
_cell_angle_alpha   89.87551330
_cell_angle_beta   90.15070818
_cell_angle_gamma   89.84296756
_symmetry_Int_Tables_number   1
_chemical_formula_structural   Ti2CoNi
_chemical_formula_sum   'Ti108 Co54 Ni54'
_cell_volume   3157.59649944
_cell_formula_units_Z   54
loop_
 _symmetry_equiv_pos_site_id
 _symmetry_equiv_pos_as_xyz
  1  'x, y, z'
loop_
 _atom_site_type_symbol
 _atom_site_label
 _atom_site_symmetry_multiplicity
 _atom_site_fract_x
 _atom_site_fract_y
 _atom_site_fract_z
 _atom_site_occupancy
  Ti  Ti0  1  0.09070270  -0.00231218  -0.02328779  1
  Ti  Ti1  1  -0.10201050  -0.03251882  0.32851494  1
  Ti  Ti2  1  -0.02739010  0.00369710  0.68234215  1
  Ti  Ti3  1  -0.10288627  0.34036837  -0.00655885  1
  Ti  Ti4  1  -0.05285005  0.36651000  0.32556538  1
  Ti  Ti5  1  -0.01797901  0.40621304  0.65788165  1
  Ti  Ti6  1  0.00805035  0.63236977  -0.06816119  1
  Ti  Ti7  1  0.02225613  0.64459518  0.33203500  1
  Ti  Ti8  1  0.01568929  0.63599306  0.61607644  1
  Ti  Ti9  1  0.32354377  -0.09558305  -0.02625407  1
  Ti  Ti10  1  0.47593315  0.02324514  0.36737532  1
  Ti  Ti11  1  0.39128814  0.04311913  0.56489201  1
  Ti  Ti12  1  0.38382278  0.30170644  0.03251740  1
  Ti  Ti13  1  0.37662206  0.36577985  0.37577154  1
  Ti  Ti14  1  0.28797705  0.30784020  0.68736030  1
  Ti  Ti15  1  0.28543788  0.63304710  0.03728650  1
  Ti  Ti16  1  0.33060520  0.67662456  0.33279174  1
  Ti  Ti17  1  0.42786301  0.66596826  0.67234206  1
  Ti  Ti18  1  0.61860871  0.05108572  -0.06760194  1
  Ti  Ti19  1  0.66093233  0.01352283  0.25119823  1
  Ti  Ti20  1  0.65162172  0.05831983  0.72613996  1
  Ti  Ti21  1  0.68397543  0.29073052  -0.02961334  1
  Ti  Ti22  1  0.70809178  0.35352757  0.28981056  1
  Ti  Ti23  1  0.69521469  0.26128841  0.62481252  1
  Ti  Ti24  1  0.62560478  0.73942835  0.06693807  1
  Ti  Ti25  1  0.65322196  0.61953899  0.36442968  1
  Ti  Ti26  1  0.68938814  0.72333955  0.65666085  1
  Ti  Ti27  1  -0.01588827  0.10589292  0.21589074  1
  Ti  Ti28  1  0.06257764  0.18822610  0.48591926  1
  Ti  Ti29  1  -0.00279857  0.18250667  0.92341410  1
  Ti  Ti30  1  -0.03886718  0.53496081  0.18795901  1
  Ti  Ti31  1  0.03842180  0.46536229  0.45941964  1
  Ti  Ti32  1  0.06269460  0.42975304  0.86911250  1
  Ti  Ti33  1  -0.00543653  0.83305313  0.16674228  1
  Ti  Ti34  1  0.02474623  0.93196736  0.49041994  1
  Ti  Ti35  1  0.00192755  0.85307665  0.85909923  1
  Ti  Ti36  1  0.34630481  0.14722277  0.20534680  1
  Ti  Ti37  1  0.34165029  0.15057889  0.41104073  1
  Ti  Ti38  1  0.35250582  0.18029397  0.86386039  1
  Ti  Ti39  1  0.32518402  0.43747726  0.19402936  1
  Ti  Ti40  1  0.28711087  0.64252274  0.52900080  1
  Ti  Ti41  1  0.30893540  0.51436865  0.85410002  1
  Ti  Ti42  1  0.40419388  0.76444278  0.15652677  1
  Ti  Ti43  1  0.27000637  0.86084402  0.58235029  1
  Ti  Ti44  1  0.28191144  0.78352194  0.75807545  1
  Ti  Ti45  1  0.66978647  0.19212927  0.16223348  1
  Ti  Ti46  1  0.67065218  0.11443778  0.50707668  1
  Ti  Ti47  1  0.64430632  0.22269311  0.80703396  1
  Ti  Ti48  1  0.67512784  0.49874627  0.08111281  1
  Ti  Ti49  1  0.62134758  0.56975251  0.56148135  1
  Ti  Ti50  1  0.69918051  0.50099016  0.88568409  1
  Ti  Ti51  1  0.70915219  0.80152176  0.23678906  1
  Ti  Ti52  1  0.68570082  0.89919735  0.50188573  1
  Ti  Ti53  1  0.69121753  0.72880995  0.86704276  1
  Ti  Ti54  1  0.17344948  0.00433742  0.15665669  1
  Ti  Ti55  1  0.19380111  0.02930985  0.49106316  1
  Ti  Ti56  1  0.18570902  -0.04993804  0.80997237  1
  Ti  Ti57  1  0.06359986  0.37196929  0.15101432  1
  Ti  Ti58  1  0.23094005  0.28550667  0.49000772  1
  Ti  Ti59  1  0.16392144  0.24725052  0.85601694  1
  Ti  Ti60  1  0.10082802  0.65217095  0.12804665  1
  Ti  Ti61  1  0.12750939  0.76966497  0.48533979  1
  Ti  Ti62  1  0.13431310  0.65294289  0.79269519  1
  Ti  Ti63  1  0.45265479  -0.03880985  0.18707388  1
  Ti  Ti64  1  0.47500994  -0.12617278  0.49525827  1
  Ti  Ti65  1  0.40407719  -0.00683669  0.80599985  1
  Ti  Ti66  1  0.53619536  0.39505536  0.16650513  1
  Ti  Ti67  1  0.49965227  0.33468281  0.51911221  1
  Ti  Ti68  1  0.44450709  0.33779534  0.81700854  1
  Ti  Ti69  1  0.47843568  0.58302502  0.10619832  1
  Ti  Ti70  1  0.47515229  0.66376277  0.46999174  1
  Ti  Ti71  1  0.53548721  0.61585052  0.82803315  1
  Ti  Ti72  1  0.83396124  -0.03962165  0.13821512  1
  Ti  Ti73  1  0.87225341  0.07289393  0.52604655  1
  Ti  Ti74  1  0.89974983  0.02136110  0.89005392  1
  Ti  Ti75  1  0.85838710  0.26696513  0.19952745  1
  Ti  Ti76  1  0.78643742  0.35089069  0.47396037  1
  Ti  Ti77  1  0.80626125  0.34812735  0.79561205  1
  Ti  Ti78  1  0.77207623  0.62450044  0.17617931  1
  Ti  Ti79  1  0.79608251  0.65248333  0.50796583  1
  Ti  Ti80  1  0.84470554  0.61468761  0.83425692  1
  Ti  Ti81  1  0.23280287  0.17926529  0.02469130  1
  Ti  Ti82  1  0.16279841  0.11821390  0.31769557  1
  Ti  Ti83  1  0.10793790  0.20046473  0.67678949  1
  Ti  Ti84  1  0.20956314  0.39974001  0.00613481  1
  Ti  Ti85  1  0.21785929  0.47995464  0.40411747  1
  Ti  Ti86  1  0.19621291  0.48906314  0.61801930  1
  Ti  Ti87  1  0.18637218  0.81895287  0.05458249  1
  Ti  Ti88  1  0.21300083  0.87431147  0.31858967  1
  Ti  Ti89  1  0.07481628  0.82750856  0.67218823  1
  Ti  Ti90  1  0.45148311  0.10941392  0.01620085  1
  Ti  Ti91  1  0.53075910  0.21447774  0.32829775  1
  Ti  Ti92  1  0.51042656  0.16677077  0.65543027  1
  Ti  Ti93  1  0.51996267  0.43807245  -0.02911390  1
  Ti  Ti94  1  0.48202147  0.54370303  0.29876957  1
  Ti  Ti95  1  0.52788559  0.48101146  0.70119590  1
  Ti  Ti96  1  0.51285974  0.90181351  0.01053371  1
  Ti  Ti97  1  0.52181928  0.77165198  0.31860011  1
  Ti  Ti98  1  0.60486368  0.88879934  0.68540765  1
  Ti  Ti99  1  0.82704352  0.15489672  0.03556282  1
  Ti  Ti100  1  0.86787841  0.18437652  0.37719876  1
  Ti  Ti101  1  0.82878121  0.13705777  0.72755641  1
  Ti  Ti102  1  0.86034127  0.52131234  0.02077251  1
  Ti  Ti103  1  0.83049550  0.52958896  0.34837937  1
  Ti  Ti104  1  0.79906075  0.48673486  0.63934898  1
  Ti  Ti105  1  0.75769297  0.89428752  -0.04330498  1
  Ti  Ti106  1  0.85995852  0.76844974  0.37515051  1
  Ti  Ti107  1  0.87343386  0.81825649  0.62629834  1
  Co  Co108  1  0.29256312  0.34757835  0.87529179  1
  Co  Co109  1  0.36495805  0.14886156  0.70523663  1
  Co  Co110  1  0.95613041  0.05755236  1.05448048  1
  Co  Co111  1  0.96476022  0.77629008  0.50231175  1
  Co  Co112  1  0.55828414  0.77881405  0.91864323  1
  Co  Co113  1  0.59469665  0.60773895  -0.02074880  1
  Co  Co114  1  0.36412355  0.46357427  0.02876699  1
  Co  Co115  1  0.80833145  0.10197051  0.22861356  1
  Co  Co116  1  0.26499261  0.05364668  0.92039151  1
  Co  Co117  1  0.32767192  0.95633451  0.43644404  1
  Co  Co118  1  0.75482352  0.08364959  0.87527994  1
  Co  Co119  1  0.08159585  0.24303612  0.24300961  1
  Co  Co120  1  0.17367568  0.70101310  0.63169312  1
  Co  Co121  1  0.52451837  0.49475977  0.45290210  1
  Co  Co122  1  0.76355238  0.04682444  0.39506210  1
  Co  Co123  1  0.68132621  0.76453695  0.41463668  1
  Co  Co124  1  0.72365546  0.93174906  0.80377341  1
  Co  Co125  1  0.59134651  0.90695269  0.35550621  1
  Co  Co126  1  0.09636743  0.31879972  0.38666142  1
  Co  Co127  1  0.36931156  0.53207866  0.42071522  1
  Co  Co128  1  0.43643376  0.74252148  0.00760769  1
  Co  Co129  1  0.35823468  0.46405157  0.70396362  1
  Co  Co130  1  0.92873995  0.66537946  0.07281540  1
  Co  Co131  1  0.63812574  0.27705145  0.44980193  1
  Co  Co132  1  0.64763787  0.50126296  0.24258928  1
  Co  Co133  1  0.88422491  0.47433970  0.50221443  1
  Co  Co134  1  0.64053905  0.40768287  0.55895558  1
  Co  Co135  1  0.83713749  0.21706485  0.88029246  1
  Co  Co136  1  0.92781773  0.90117499  0.01523639  1
  Co  Co137  1  0.50885382  0.15216180  0.47961671  1
  Co  Co138  1  0.10849559  0.35229587  0.56422089  1
  Co  Co139  1  0.76219187  0.64977009  1.00171539  1
  Co  Co140  1  0.32949658  0.40797176  0.53984176  1
  Co  Co141  1  0.13026979  0.60335349  0.48680842  1
  Co  Co142  1  0.07719631  0.30524475  0.99444464  1
  Co  Co143  1  0.97315444  0.23647050  0.10411199  1
  Co  Co144  1  0.43164871  0.53278235  0.57496767  1
  Co  Co145  1  0.30709197  0.01366679  0.28474723  1
  Co  Co146  1  0.50665019  0.11776243  0.82723400  1
  Co  Co147  1  0.23919931  0.14459098  0.59242208  1
  Co  Co148  1  0.53977265  0.76155016  0.75667374  1
  Co  Co149  1  0.60409246  0.37593609  0.84728787  1
  Co  Co150  1  0.17969915  0.39815529  0.26259403  1
  Co  Co151  1  0.87337121  0.76078819  0.92914243  1
  Co  Co152  1  0.68205382  0.41226615  0.71553564  1
  Co  Co153  1  0.67703295  0.46163721  0.40916513  1
  Co  Co154  1  0.52367806  0.24539264  0.93263002  1
  Co  Co155  1  0.37753846  0.22986886  0.55362959  1
  Co  Co156  1  0.87781727  0.91352296  0.77146104  1
  Co  Co157  1  0.29849278  0.89337465  0.16573382  1
  Co  Co158  1  0.75413499  0.89773916  0.34872876  1
  Co  Co159  1  0.18946687  0.51101366  0.11823807  1
  Co  Co160  1  0.38957218  0.86168206  0.30662655  1
  Co  Co161  1  0.56166534  0.92517012  0.84153742  1
  Ni  Ni162  1  0.42095195  0.82962458  0.84905744  1
  Ni  Ni163  1  0.69272404  0.58066829  0.73840967  1
  Ni  Ni164  1  0.15433418  0.80074285  0.88339934  1
  Ni  Ni165  1  0.03374918  0.77745915  0.01048181  1
  Ni  Ni166  1  0.95705258  0.17653520  0.62525013  1
  Ni  Ni167  1  0.78021808  0.97374747  0.63761896  1
  Ni  Ni168  1  0.41213803  0.29472899  0.22238661  1
  Ni  Ni169  1  0.80756779  0.77460153  0.77245272  1
  Ni  Ni170  1  0.42797307  0.59107306  0.94666493  1
  Ni  Ni171  1  0.33709774  0.78892407  0.44999865  1
  Ni  Ni172  1  0.13086905  0.36461928  0.73081724  1
  Ni  Ni173  1  0.16130422  0.56322044  0.94941664  1
  Ni  Ni174  1  0.25120333  0.26204567  0.31329345  1
  Ni  Ni175  1  0.73691494  0.34115567  0.11038983  1
  Ni  Ni176  1  0.99041613  0.55337995  0.76119009  1
  Ni  Ni177  1  0.85188898  0.91233130  0.48786400  1
  Ni  Ni178  1  0.01529694  0.06772540  0.39214612  1
  Ni  Ni179  1  0.21932712  0.11146409  0.76704354  1
  Ni  Ni180  1  0.29802010  0.74248485  0.92013152  1
  Ni  Ni181  1  0.70775260  0.05102880  0.07712822  1
  Ni  Ni182  1  0.55594587  0.01231740  0.57505252  1
  Ni  Ni183  1  0.32583507  0.59935016  0.19238629  1
  Ni  Ni184  1  0.27812358  0.60858871  0.71531162  1
  Ni  Ni185  1  0.02906129  0.81826434  0.34676367  1
  Ni  Ni186  1  0.23456972  0.74099313  0.19652191  1
  Ni  Ni187  1  0.32031117  0.03333572  0.07812364  1
  Ni  Ni188  1  0.24691848  0.28841431  0.15261221  1
  Ni  Ni189  1  0.06197230  0.06826644  0.81035931  1
  Ni  Ni190  1  0.13134521  0.99198398  0.64350072  1
  Ni  Ni191  1  0.97043976  0.27635190  0.77479150  1
  Ni  Ni192  1  0.06364482  0.96031244  0.27441655  1
  Ni  Ni193  1  0.41648707  0.86260019  0.67648955  1
  Ni  Ni194  1  0.59205995  0.65947503  0.20882841  1
  Ni  Ni195  1  0.85468238  0.29778673  0.63667719  1
  Ni  Ni196  1  0.90455903  0.70558461  0.22906164  1
  Ni  Ni197  1  0.90138887  0.46046711  0.86455506  1
  Ni  Ni198  1  0.94958197  0.61679863  0.46667630  1
  Ni  Ni199  1  0.53114883  0.25019769  0.09470044  1
  Ni  Ni200  1  0.95388027  0.31485700  0.49660139  1
  Ni  Ni201  1  0.55143125  0.32177529  0.68533310  1
  Ni  Ni202  1  -0.03521909  0.72062993  0.76641290  1
  Ni  Ni203  1  0.54254044  0.75563503  0.58847369  1
  Ni  Ni204  1  0.51620863  0.11675749  0.19203758  1
  Ni  Ni205  1  0.17200117  0.70442423  0.34485617  1
  Ni  Ni206  1  0.81901548  0.45110178  0.19495406  1
  Ni  Ni207  1  0.81435479  0.79003460  0.09247360  1
  Ni  Ni208  1  0.65678567  0.90124927  0.10889635  1
  Ni  Ni209  1  0.84714685  0.64538316  0.67158069  1
  Ni  Ni210  1  0.54558392  0.38310157  0.33444893  1
  Ni  Ni211  1  0.70023972  0.18212542  0.33056628  1
  Ni  Ni212  1  0.03591898  0.49161540  0.03233554  1
  Ni  Ni213  1  0.15411370  0.55940295  0.26609917  1
  Ni  Ni214  1  0.29101302  0.98992737  0.68047801  1
  Ni  Ni215  1  0.09362112  0.13907174  0.08440372  1
