# generated using pymatgen
data_Ti2CoNi
_symmetry_space_group_name_H-M   'P 1'
_cell_length_a   14.51989342
_cell_length_b   14.63585756
_cell_length_c   14.58270983
_cell_angle_alpha   89.90878727
_cell_angle_beta   89.69002038
_cell_angle_gamma   90.18603229
_symmetry_Int_Tables_number   1
_chemical_formula_structural   Ti2CoNi
_chemical_formula_sum   'Ti108 Co54 Ni54'
_cell_volume   3098.92188831
_cell_formula_units_Z   54
loop_
 _symmetry_equiv_pos_site_id
 _symmetry_equiv_pos_as_xyz
  1  'x, y, z'
loop_
 _atom_site_type_symbol
 _atom_site_label
 _atom_site_symmetry_multiplicity
 _atom_site_fract_x
 _atom_site_fract_y
 _atom_site_fract_z
 _atom_site_occupancy
  Ti  Ti0  1  0.02683895  0.08225626  0.01435865  1
  Ti  Ti1  1  0.02446070  0.05963792  0.32261740  1
  Ti  Ti2  1  0.01721920  -0.02755676  0.64906648  1
  Ti  Ti3  1  0.00934782  0.30336479  0.02003905  1
  Ti  Ti4  1  0.04437811  0.36047912  0.22488066  1
  Ti  Ti5  1  -0.03986666  0.29363827  0.73750773  1
  Ti  Ti6  1  -0.01114531  0.66973314  0.00418721  1
  Ti  Ti7  1  -0.03213207  0.63701007  0.26312660  1
  Ti  Ti8  1  -0.04557606  0.59853327  0.66597010  1
  Ti  Ti9  1  0.36374585  -0.04349208  0.00789537  1
  Ti  Ti10  1  0.31343023  -0.02537332  0.37403676  1
  Ti  Ti11  1  0.35289112  -0.02868574  0.63844135  1
  Ti  Ti12  1  0.37129530  0.30691391  -0.01681229  1
  Ti  Ti13  1  0.40160559  0.34742943  0.30361641  1
  Ti  Ti14  1  0.29870415  0.39410410  0.67521087  1
  Ti  Ti15  1  0.30824135  0.64965659  -0.02309310  1
  Ti  Ti16  1  0.30614425  0.60469805  0.29628928  1
  Ti  Ti17  1  0.40028749  0.66402222  0.67310076  1
  Ti  Ti18  1  0.59831385  -0.00101226  -0.00593833  1
  Ti  Ti19  1  0.62458338  -0.00192322  0.37414595  1
  Ti  Ti20  1  0.79352806  -0.00722363  0.65821278  1
  Ti  Ti21  1  0.67262774  0.35384562  0.10030908  1
  Ti  Ti22  1  0.63632429  0.35469985  0.30771469  1
  Ti  Ti23  1  0.65850138  0.40778499  0.63167504  1
  Ti  Ti24  1  0.66878417  0.67920818  -0.05485293  1
  Ti  Ti25  1  0.72205722  0.69537016  0.31435370  1
  Ti  Ti26  1  0.65276327  0.60387190  0.66919513  1
  Ti  Ti27  1  0.10065705  0.17223724  0.16861000  1
  Ti  Ti28  1  -0.02069251  0.20008701  0.46545017  1
  Ti  Ti29  1  -0.08260789  0.11219315  0.76281814  1
  Ti  Ti30  1  0.08704702  0.53406491  0.13316587  1
  Ti  Ti31  1  0.03472214  0.48864666  0.48263210  1
  Ti  Ti32  1  -0.00120655  0.47784196  0.95133684  1
  Ti  Ti33  1  -0.10467920  0.91099568  0.15634138  1
  Ti  Ti34  1  -0.04204193  0.85207280  0.49372543  1
  Ti  Ti35  1  0.10329958  0.86131693  0.78142133  1
  Ti  Ti36  1  0.36010839  0.16099882  0.26141578  1
  Ti  Ti37  1  0.33187403  0.17662743  0.53417025  1
  Ti  Ti38  1  0.29849059  0.21582917  0.80229571  1
  Ti  Ti39  1  0.40636873  0.50036316  0.14153506  1
  Ti  Ti40  1  0.30200648  0.42609584  0.43672506  1
  Ti  Ti41  1  0.23981357  0.53426172  0.83229822  1
  Ti  Ti42  1  0.29409911  0.89903814  0.17944758  1
  Ti  Ti43  1  0.39377375  0.81204472  0.51000306  1
  Ti  Ti44  1  0.31220372  0.89486899  0.83125869  1
  Ti  Ti45  1  0.64203253  0.17467972  0.09209451  1
  Ti  Ti46  1  0.68757303  0.11249116  0.51792208  1
  Ti  Ti47  1  0.64759583  0.18860898  0.77998449  1
  Ti  Ti48  1  0.63537261  0.53873923  0.19763735  1
  Ti  Ti49  1  0.68176182  0.52505463  0.47337325  1
  Ti  Ti50  1  0.65986628  0.47922953  0.95812668  1
  Ti  Ti51  1  0.70172769  0.84105540  0.14092786  1
  Ti  Ti52  1  0.61358971  0.80977822  0.43050095  1
  Ti  Ti53  1  0.70070267  0.87906325  0.82836299  1
  Ti  Ti54  1  0.08674951  -0.05670113  0.15227282  1
  Ti  Ti55  1  0.11061109  -0.03118578  0.47371290  1
  Ti  Ti56  1  0.19738801  0.03741699  0.89013674  1
  Ti  Ti57  1  0.23474258  0.29113037  0.23783498  1
  Ti  Ti58  1  0.13928843  0.29445382  0.50719136  1
  Ti  Ti59  1  0.12567812  0.33019575  0.83325335  1
  Ti  Ti60  1  0.18250056  0.72479574  0.12944490  1
  Ti  Ti61  1  0.13629700  0.70991039  0.46204455  1
  Ti  Ti62  1  0.06803837  0.63039846  0.81558458  1
  Ti  Ti63  1  0.46967249  0.00452022  0.22946468  1
  Ti  Ti64  1  0.53898866  -0.06005796  0.56051037  1
  Ti  Ti65  1  0.45068385  0.06326741  0.87782008  1
  Ti  Ti66  1  0.47398717  0.31796772  0.13932043  1
  Ti  Ti67  1  0.54994394  0.23528471  0.56170661  1
  Ti  Ti68  1  0.51076509  0.38911695  0.86107046  1
  Ti  Ti69  1  0.40411927  0.69829197  0.13786184  1
  Ti  Ti70  1  0.53583335  0.66557360  0.52656182  1
  Ti  Ti71  1  0.55028078  0.72934585  0.79295471  1
  Ti  Ti72  1  0.77548693  0.06807431  0.18036307  1
  Ti  Ti73  1  0.81757123  -0.02253374  0.45029465  1
  Ti  Ti74  1  0.89726412  -0.09711577  0.79022396  1
  Ti  Ti75  1  0.85420477  0.37048519  0.18355133  1
  Ti  Ti76  1  0.83385219  0.32635028  0.51542393  1
  Ti  Ti77  1  0.82870156  0.39474348  0.86913080  1
  Ti  Ti78  1  0.85078961  0.70825123  0.13526379  1
  Ti  Ti79  1  0.86869950  0.64174910  0.44475972  1
  Ti  Ti80  1  0.85001189  0.71487622  0.84238211  1
  Ti  Ti81  1  0.18682031  0.22061351  -0.01559848  1
  Ti  Ti82  1  0.19455560  0.14187702  0.37789875  1
  Ti  Ti83  1  0.18841756  0.12720297  0.66891446  1
  Ti  Ti84  1  0.19562754  0.43128164  -0.02246040  1
  Ti  Ti85  1  0.12506525  0.53161778  0.32627904  1
  Ti  Ti86  1  0.10695497  0.46453462  0.69459827  1
  Ti  Ti87  1  0.16612779  0.76929203  -0.06205394  1
  Ti  Ti88  1  0.14968649  0.84953349  0.32102992  1
  Ti  Ti89  1  0.25011316  0.80362881  0.66456844  1
  Ti  Ti90  1  0.46186774  0.13898994  0.07107733  1
  Ti  Ti91  1  0.48723670  0.13208381  0.39072360  1
  Ti  Ti92  1  0.47269477  0.11887539  0.69411426  1
  Ti  Ti93  1  0.48772849  0.59519201  -0.06024592  1
  Ti  Ti94  1  0.46486699  0.52796281  0.41676467  1
  Ti  Ti95  1  0.48106272  0.49129113  0.64101981  1
  Ti  Ti96  1  0.50394945  0.84845494  0.10123397  1
  Ti  Ti97  1  0.45594181  0.75115464  0.32961229  1
  Ti  Ti98  1  0.51564265  0.92458172  0.75611789  1
  Ti  Ti99  1  0.85776803  0.19560161  -0.06272977  1
  Ti  Ti100  1  0.89691538  0.20624836  0.28654946  1
  Ti  Ti101  1  0.85215201  0.16441623  0.60495861  1
  Ti  Ti102  1  0.82281618  0.56691532  -0.01262204  1
  Ti  Ti103  1  0.81814946  0.44008836  0.36287301  1
  Ti  Ti104  1  0.83183650  0.45343393  0.68853472  1
  Ti  Ti105  1  0.92222670  0.88102114  -0.02091565  1
  Ti  Ti106  1  0.87013046  0.81347183  0.31089584  1
  Ti  Ti107  1  0.82431497  0.78785583  0.62263262  1
  Co  Co108  1  0.32671979  0.05902129  0.77397666  1
  Co  Co109  1  0.30278911  0.22021162  0.10327334  1
  Co  Co110  1  0.78257317  0.04034289  0.82143970  1
  Co  Co111  1  0.57150414  0.15979861  0.92900693  1
  Co  Co112  1  0.30056895  0.26311754  0.40304661  1
  Co  Co113  1  0.58866111  0.63000053  0.36746028  1
  Co  Co114  1  0.92352597  0.54601149  0.11984779  1
  Co  Co115  1  0.63803458  0.19980177  0.38888855  1
  Co  Co116  1  0.07745792  0.92778839  0.93330356  1
  Co  Co117  1  0.42949251  0.82348008  0.67140299  1
  Co  Co118  1  0.62491754  0.10768179  0.25683722  1
  Co  Co119  1  0.23992147  0.71812873  0.80284073  1
  Co  Co120  1  0.25536112  0.02523635  0.52211159  1
  Co  Co121  1  0.37723922  0.62553078  0.82807495  1
  Co  Co122  1  0.84459553  0.36501567  1.02009312  1
  Co  Co123  1  0.13806087  0.68680242  0.27706000  1
  Co  Co124  1  0.98714430  0.69585533  0.54471689  1
  Co  Co125  1  0.04538556  0.81352491  0.05833381  1
  Co  Co126  1  0.45441814  0.23559796  0.83979549  1
  Co  Co127  1  0.19048127  0.44015455  0.55726091  1
  Co  Co128  1  -0.01912197  0.44621952  0.78540380  1
  Co  Co129  1  0.23811490  0.59151443  0.69241596  1
  Co  Co130  1  0.51858199  0.45081390  1.03685692  1
  Co  Co131  1  0.76637292  0.48941535  0.11345937  1
  Co  Co132  1  0.53191207  0.22823332  0.25274171  1
  Co  Co133  1  0.40190204  0.77500919  0.83800520  1
  Co  Co134  1  0.80240117  0.24617720  0.77649436  1
  Co  Co135  1  0.61917632  1.03189150  0.82857123  1
  Co  Co136  1  0.12653706  0.12364058  0.52029528  1
  Co  Co137  1  0.95548802  0.06953969  0.17220531  1
  Co  Co138  1  0.93779070  0.02642559  0.89470876  1
  Co  Co139  1  0.33749530  0.53575462  0.57103935  1
  Co  Co140  1  0.99815186  0.77823496  0.87090328  1
  Co  Co141  1  0.72068097  0.11292653  -0.04962259  1
  Co  Co142  1  -0.00050192  0.90541501  0.33099634  1
  Co  Co143  1  0.95391447  0.47976398  0.27648715  1
  Co  Co144  1  0.97212434  0.79149128  0.68773440  1
  Co  Co145  1  0.90045071  0.56520237  0.84047428  1
  Co  Co146  1  0.47787536  0.60967627  0.24780280  1
  Co  Co147  1  0.10007993  0.83459388  0.58472275  1
  Co  Co148  1  0.22486668  0.56748063  0.45182009  1
  Co  Co149  1  0.32281700  0.12550508  0.96446678  1
  Co  Co150  1  0.26099533  0.68763405  0.56361445  1
  Co  Co151  1  0.00723562  0.74473183  0.37595342  1
  Co  Co152  1  0.86070128  1.05398625  0.03799033  1
  Co  Co153  1  0.12098033  0.58591695  0.57791404  1
  Co  Co154  1  0.37036683  0.65675581  0.45665430  1
  Co  Co155  1  1.01234110  0.78709655  0.21016103  1
  Co  Co156  1  0.55168520  0.29713648  -0.00363345  1
  Co  Co157  1  0.19848012  0.89593192  0.03293473  1
  Co  Co158  1  0.87102168  1.00209994  0.29736889  1
  Co  Co159  1  0.11374071  0.70283568  0.67807463  1
  Co  Co160  1  0.32695425  0.80106531  0.03724108  1
  Co  Co161  1  0.07091738  0.23191213  0.32596358  1
  Ni  Ni162  1  0.29356956  0.76965966  0.27885598  1
  Ni  Ni163  1  0.56178586  0.54883967  0.79906505  1
  Ni  Ni164  1  0.50623217  0.29618085  0.41312942  1
  Ni  Ni165  1  0.80750510  0.56777972  0.25206033  1
  Ni  Ni166  1  0.73293618  0.23848425  0.23193583  1
  Ni  Ni167  1  0.14136395  0.59462069  0.97984878  1
  Ni  Ni168  1  0.15191450  0.36981636  0.36556134  1
  Ni  Ni169  1  0.29965152  0.37258546  0.85011028  1
  Ni  Ni170  1  0.19157687  0.05967112  0.06426212  1
  Ni  Ni171  1  0.79166146  0.78033698  -0.00190211  1
  Ni  Ni172  1  0.03271302  0.19284709  0.88098753  1
  Ni  Ni173  1  0.02620898  0.17368536  0.63468403  1
  Ni  Ni174  1  0.16020260  0.29467844  0.67248799  1
  Ni  Ni175  1  0.59218614  0.78338041  0.63529864  1
  Ni  Ni176  1  0.70366405  0.28449785  0.92433097  1
  Ni  Ni177  1  0.61864371  0.98768256  0.15518675  1
  Ni  Ni178  1  0.40218598  0.48331990  0.78350451  1
  Ni  Ni179  1  0.33294539  0.05890290  0.13622033  1
  Ni  Ni180  1  0.77928772  0.79640992  0.45440093  1
  Ni  Ni181  1  0.25241521  0.53955835  0.09596188  1
  Ni  Ni182  1  0.73100708  0.89646013  0.30087907  1
  Ni  Ni183  1  0.54668074  0.30885953  0.71637174  1
  Ni  Ni184  1  0.20167001  0.03904189  0.24250989  1
  Ni  Ni185  1  0.98382216  0.36079165  0.58537587  1
  Ni  Ni186  1  0.36511277  0.47862169  -0.03870975  1
  Ni  Ni187  1  0.47172148  0.91630853  0.39020330  1
  Ni  Ni188  1  0.07277087  0.05357666  0.78684810  1
  Ni  Ni189  1  0.95203892  0.04567851  0.52083568  1
  Ni  Ni190  1  0.56295461  0.62056094  0.08021493  1
  Ni  Ni191  1  0.57172986  0.87001152  0.26487762  1
  Ni  Ni192  1  0.19726938  0.96840887  0.70408454  1
  Ni  Ni193  1  0.77023990  0.11677001  0.35611522  1
  Ni  Ni194  1  0.63395216  0.83439869  0.98106297  1
  Ni  Ni195  1  0.62763478  0.04141469  0.66281206  1
  Ni  Ni196  1  0.97083189  0.35497389  0.39075304  1
  Ni  Ni197  1  0.15868445  0.35083624  0.10587727  1
  Ni  Ni198  1  0.72179945  0.73323905  0.74225806  1
  Ni  Ni199  1  0.69672630  0.90658574  0.55645925  1
  Ni  Ni200  1  0.90789570  0.21039048  0.11116472  1
  Ni  Ni201  1  0.24896028  0.45477754  0.24258969  1
  Ni  Ni202  1  0.54069572  0.41718682  0.51002517  1
  Ni  Ni203  1  0.58974932  0.72000383  0.20897718  1
  Ni  Ni204  1  0.42023734  0.03340060  0.49899578  1
  Ni  Ni205  1  0.40121305  0.26645875  0.65707058  1
  Ni  Ni206  1  0.67383151  0.41159568  0.79503271  1
  Ni  Ni207  1  0.67738508  0.33873268  0.47089659  1
  Ni  Ni208  1  0.76272880  0.94711334  0.96702582  1
  Ni  Ni209  1  0.71277145  0.25449371  0.62500266  1
  Ni  Ni210  1  0.49331874  0.88627289  0.91496245  1
  Ni  Ni211  1  0.87069610  0.48912509  0.52485939  1
  Ni  Ni212  1  0.73020953  0.57168239  0.82176947  1
  Ni  Ni213  1  0.23762732  0.85463460  0.48344713  1
  Ni  Ni214  1  0.79938450  0.61608686  0.60150416  1
  Ni  Ni215  1  0.51298538  0.45833696  0.27211986  1
