# generated using pymatgen
data_Ti2CoNi
_symmetry_space_group_name_H-M   'P 1'
_cell_length_a   14.62496559
_cell_length_b   14.66788687
_cell_length_c   14.62819289
_cell_angle_alpha   90.09896193
_cell_angle_beta   90.15955976
_cell_angle_gamma   90.28543001
_symmetry_Int_Tables_number   1
_chemical_formula_structural   Ti2CoNi
_chemical_formula_sum   'Ti108 Co54 Ni54'
_cell_volume   3137.94517535
_cell_formula_units_Z   54
loop_
 _symmetry_equiv_pos_site_id
 _symmetry_equiv_pos_as_xyz
  1  'x, y, z'
loop_
 _atom_site_type_symbol
 _atom_site_label
 _atom_site_symmetry_multiplicity
 _atom_site_fract_x
 _atom_site_fract_y
 _atom_site_fract_z
 _atom_site_occupancy
  Ti  Ti0  1  0.02475188  -0.02571261  0.02288667  1
  Ti  Ti1  1  -0.04251322  0.01954949  0.33430202  1
  Ti  Ti2  1  -0.02594835  0.00117466  0.65504159  1
  Ti  Ti3  1  0.05857079  0.32106049  0.00547789  1
  Ti  Ti4  1  -0.01193229  0.33583912  0.36282215  1
  Ti  Ti5  1  -0.04989069  0.42176522  0.61288348  1
  Ti  Ti6  1  0.00371190  0.71921956  -0.01444071  1
  Ti  Ti7  1  -0.06119023  0.60477856  0.36534618  1
  Ti  Ti8  1  0.04281138  0.63758398  0.68368928  1
  Ti  Ti9  1  0.30135198  -0.02258101  -0.05556713  1
  Ti  Ti10  1  0.26807777  -0.01603634  0.41841178  1
  Ti  Ti11  1  0.40618378  0.00706211  0.62128065  1
  Ti  Ti12  1  0.26424299  0.37637307  0.04592190  1
  Ti  Ti13  1  0.29679695  0.37132653  0.33406673  1
  Ti  Ti14  1  0.33155134  0.32036695  0.70693440  1
  Ti  Ti15  1  0.39421300  0.65574678  -0.00349271  1
  Ti  Ti16  1  0.31643134  0.56337654  0.33136066  1
  Ti  Ti17  1  0.29260711  0.67310254  0.69430496  1
  Ti  Ti18  1  0.74140041  0.00823314  -0.03286608  1
  Ti  Ti19  1  0.72405318  -0.01215364  0.28528084  1
  Ti  Ti20  1  0.72985955  0.04899636  0.74104070  1
  Ti  Ti21  1  0.64801127  0.35734116  0.00306470  1
  Ti  Ti22  1  0.65293467  0.29588876  0.31350729  1
  Ti  Ti23  1  0.64674040  0.39508272  0.61838113  1
  Ti  Ti24  1  0.63888895  0.71923717  0.06292765  1
  Ti  Ti25  1  0.62363563  0.61687090  0.29828059  1
  Ti  Ti26  1  0.64189263  0.59366078  0.67496479  1
  Ti  Ti27  1  0.02488022  0.14968730  0.11457303  1
  Ti  Ti28  1  0.05489962  0.15811000  0.45805102  1
  Ti  Ti29  1  -0.05936351  0.22435963  0.88277515  1
  Ti  Ti30  1  -0.03487170  0.54973852  0.10728965  1
  Ti  Ti31  1  0.04285071  0.58243746  0.50764008  1
  Ti  Ti32  1  0.07162517  0.42756060  0.77224701  1
  Ti  Ti33  1  -0.02126154  0.83802622  0.16407909  1
  Ti  Ti34  1  -0.02214668  0.86079425  0.49476972  1
  Ti  Ti35  1  -0.07043531  0.71212075  0.81251640  1
  Ti  Ti36  1  0.36819098  0.13338231  0.15563003  1
  Ti  Ti37  1  0.27837550  0.15409644  0.56528774  1
  Ti  Ti38  1  0.33548025  0.21230784  0.90721457  1
  Ti  Ti39  1  0.35701792  0.54434250  0.15145549  1
  Ti  Ti40  1  0.36368538  0.54089550  0.54070385  1
  Ti  Ti41  1  0.30414712  0.49364349  0.79611830  1
  Ti  Ti42  1  0.34105959  0.84849216  0.29187553  1
  Ti  Ti43  1  0.35499516  0.83094027  0.49723538  1
  Ti  Ti44  1  0.41125269  0.88272818  0.80748896  1
  Ti  Ti45  1  0.59520913  0.11853153  0.21752821  1
  Ti  Ti46  1  0.71188946  0.16256440  0.57098896  1
  Ti  Ti47  1  0.64130994  0.16863635  0.86693466  1
  Ti  Ti48  1  0.66769053  0.53817834  0.11659827  1
  Ti  Ti49  1  0.62778261  0.46483547  0.42571908  1
  Ti  Ti50  1  0.67628407  0.42162519  0.81314528  1
  Ti  Ti51  1  0.68739506  0.80943015  0.24737033  1
  Ti  Ti52  1  0.67179173  0.87380814  0.46943325  1
  Ti  Ti53  1  0.65548717  0.88568405  0.83405997  1
  Ti  Ti54  1  0.23043906  -0.03489924  0.17459792  1
  Ti  Ti55  1  0.10822113  -0.00219237  0.51167171  1
  Ti  Ti56  1  0.11429277  -0.01684873  0.81236847  1
  Ti  Ti57  1  0.11251735  0.29976826  0.21816229  1
  Ti  Ti58  1  0.17928639  0.31091409  0.47738894  1
  Ti  Ti59  1  0.14623026  0.25141951  0.83201008  1
  Ti  Ti60  1  0.19645780  0.61432909  0.12266538  1
  Ti  Ti61  1  0.19448687  0.68660540  0.42670015  1
  Ti  Ti62  1  0.23158307  0.67106719  0.89094062  1
  Ti  Ti63  1  0.52251177  -0.05842559  0.13146167  1
  Ti  Ti64  1  0.53637823  0.06283580  0.47501059  1
  Ti  Ti65  1  0.45122240  0.07244656  0.84951692  1
  Ti  Ti66  1  0.51602039  0.29257761  0.18415680  1
  Ti  Ti67  1  0.47020397  0.35824275  0.53651295  1
  Ti  Ti68  1  0.50088490  0.29580545  0.85703328  1
  Ti  Ti69  1  0.36212354  0.73568528  0.15590428  1
  Ti  Ti70  1  0.54734964  0.67459079  0.48388407  1
  Ti  Ti71  1  0.46327880  0.66446088  0.75162752  1
  Ti  Ti72  1  0.85129596  0.06433406  0.15195904  1
  Ti  Ti73  1  0.80475257  -0.04662840  0.58607373  1
  Ti  Ti74  1  0.91978497  0.01530420  0.85436699  1
  Ti  Ti75  1  0.82771463  0.31892347  0.24445844  1
  Ti  Ti76  1  0.85219318  0.29032640  0.49396364  1
  Ti  Ti77  1  0.86615570  0.36578783  0.78306272  1
  Ti  Ti78  1  0.82745731  0.70144677  0.11489245  1
  Ti  Ti79  1  0.82286239  0.73588629  0.50163033  1
  Ti  Ti80  1  0.76813028  0.60322752  0.81915963  1
  Ti  Ti81  1  0.19949071  0.18946601  0.03339966  1
  Ti  Ti82  1  0.23870428  0.16693640  0.33307979  1
  Ti  Ti83  1  0.10869436  0.14575875  0.65138349  1
  Ti  Ti84  1  0.11782694  0.52034085  -0.02606604  1
  Ti  Ti85  1  0.12692237  0.48513613  0.33347407  1
  Ti  Ti86  1  0.17687473  0.45952432  0.62015263  1
  Ti  Ti87  1  0.17850434  0.82734192  0.00184781  1
  Ti  Ti88  1  0.13196997  0.84550850  0.29520197  1
  Ti  Ti89  1  0.21110622  0.83908320  0.75490932  1
  Ti  Ti90  1  0.54877815  0.17082179  0.03065788  1
  Ti  Ti91  1  0.51222338  0.22039915  0.39858686  1
  Ti  Ti92  1  0.55759813  0.13896831  0.68286500  1
  Ti  Ti93  1  0.46831437  0.45819532  0.03273769  1
  Ti  Ti94  1  0.50791277  0.48153260  0.24669753  1
  Ti  Ti95  1  0.48866672  0.46748572  0.73422135  1
  Ti  Ti96  1  0.52161882  0.75603958  -0.10233342  1
  Ti  Ti97  1  0.51808075  0.81665416  0.35697434  1
  Ti  Ti98  1  0.53238542  0.82831451  0.64657096  1
  Ti  Ti99  1  0.84457571  0.26202522  0.05297176  1
  Ti  Ti100  1  0.76119833  0.15156147  0.37183019  1
  Ti  Ti101  1  0.88666314  0.17337356  0.68232652  1
  Ti  Ti102  1  0.82063417  0.45822892  -0.04101877  1
  Ti  Ti103  1  0.82065394  0.50858181  0.25279644  1
  Ti  Ti104  1  0.85578167  0.58754333  0.59402977  1
  Ti  Ti105  1  0.82445230  0.82967309  -0.07548202  1
  Ti  Ti106  1  0.86723757  0.80107286  0.32901373  1
  Ti  Ti107  1  0.79383026  0.77031192  0.70155613  1
  Co  Co108  1  0.58882202  0.59510499  0.83564851  1
  Co  Co109  1  0.20442853  0.10170338  0.87543897  1
  Co  Co110  1  0.92094649  0.19255981  0.22777352  1
  Co  Co111  1  0.37565805  0.38869282  0.89712998  1
  Co  Co112  1  1.00849700  0.28070982  0.72695358  1
  Co  Co113  1  0.06319120  0.17031562  0.29887106  1
  Co  Co114  1  0.57992204  0.01941953  0.92892322  1
  Co  Co115  1  0.96645668  0.33352957  0.14812479  1
  Co  Co116  1  0.33336842  0.80388860  0.94274030  1
  Co  Co117  1  0.17848103  0.11914061  0.18314144  1
  Co  Co118  1  0.30724356  0.37966695  0.55322351  1
  Co  Co119  1  0.62997434  0.73539654  0.75024190  1
  Co  Co120  1  0.48053026  0.78781743  0.05223201  1
  Co  Co121  1  0.47581006  0.53901153  0.40983747  1
  Co  Co122  1  0.54595625  0.45326602  0.89887843  1
  Co  Co123  1  0.85375829  0.91666166  0.22131146  1
  Co  Co124  1  0.08830282  0.87982211  0.63253190  1
  Co  Co125  1  0.68140193  0.72816881  0.90364776  1
  Co  Co126  1  0.94318136  0.67802249  0.22250412  1
  Co  Co127  1  0.75058972  0.17055945  0.21029127  1
  Co  Co128  1  0.66885167  0.43567829  0.24350385  1
  Co  Co129  1  0.46135631  0.91224339  0.96152498  1
  Co  Co130  1  0.61770371  0.00785354  0.60246810  1
  Co  Co131  1  0.89471664  0.09738068  0.99793539  1
  Co  Co132  1  0.81539377  0.67067257  0.96240110  1
  Co  Co133  1  0.57842957  0.97541020  0.33916546  1
  Co  Co134  1  0.82166461  0.92097433  0.76750059  1
  Co  Co135  1  0.91663497  0.18622778  0.38208298  1
  Co  Co136  1  0.68639852  0.58611524  0.52382120  1
  Co  Co137  1  0.67302855  0.28746573  0.13967179  1
  Co  Co138  1  0.51499573  0.90186102  0.50448763  1
  Co  Co139  1  0.68212145  0.54836759  0.96066098  1
  Co  Co140  1  0.39104045  0.23746080  0.28671127  1
  Co  Co141  1  0.67832000  0.74180633  0.58055637  1
  Co  Co142  1  0.68253323  0.88310004  0.66994733  1
  Co  Co143  1  0.37790079  0.10752860  0.43492056  1
  Co  Co144  1  0.42292167  0.95743921  0.38710558  1
  Co  Co145  1  0.06265799  0.42254563  0.48683918  1
  Co  Co146  1  0.10233170  0.75231658  0.83387896  1
  Co  Co147  1  0.42931225  0.56086521  0.87762056  1
  Co  Co148  1  0.44226165  0.18773740  0.57117188  1
  Co  Co149  1  0.78711651  0.56940523  0.41163998  1
  Co  Co150  1  0.02945234  0.12155119  0.78419193  1
  Co  Co151  1  0.78724145  0.42146902  0.11299071  1
  Co  Co152  1  0.21946160  0.49875038  0.46384626  1
  Co  Co153  1  0.80227670  0.13591750  0.86390208  1
  Co  Co154  1  0.93152486  0.57555856  -0.05290510  1
  Co  Co155  1  0.05716750  0.12885130  0.94862859  1
  Co  Co156  1  0.45827713  0.08813134  0.29256212  1
  Co  Co157  1  0.17560621  0.29594994  0.65847871  1
  Co  Co158  1  0.91107612  0.46499899  0.45238403  1
  Co  Co159  1  0.70871134  0.03369386  0.46596889  1
  Co  Co160  1  0.25102316  0.16918857  0.73792151  1
  Co  Co161  1  0.35047424  0.89011340  0.09254889  1
  Ni  Ni162  1  0.78251548  0.66675526  0.27540670  1
  Ni  Ni163  1  0.75983150  0.28983984  0.89567867  1
  Ni  Ni164  1  0.13405919  0.02559722  0.33157452  1
  Ni  Ni165  1  0.51979563  0.30247005  0.69131565  1
  Ni  Ni166  1  0.09449005  0.44175740  0.12240789  1
  Ni  Ni167  1  0.69319746  0.72144770  0.40349501  1
  Ni  Ni168  1  0.14939909  0.84722286  0.46128393  1
  Ni  Ni169  1  0.09191032  0.63226526  0.27627624  1
  Ni  Ni170  1  0.74984018  0.85274429  0.10419048  1
  Ni  Ni171  1  0.42622930  0.69386987  0.59038219  1
  Ni  Ni172  1  0.55033924  0.97991494  0.74993003  1
  Ni  Ni173  1  0.29019419  0.52344236  -0.02634473  1
  Ni  Ni174  1  0.40735462  0.18004915  0.73658976  1
  Ni  Ni175  1  0.87508289  0.92959925  0.04634510  1
  Ni  Ni176  1  0.24656650  -0.05757737  0.59762801  1
  Ni  Ni177  1  0.87518774  0.09701238  0.51912503  1
  Ni  Ni178  1  0.07279564  0.70954284  0.12986715  1
  Ni  Ni179  1  0.97579325  0.86147840  0.74564336  1
  Ni  Ni180  1  0.17384001  0.57770237  0.75487327  1
  Ni  Ni181  1  0.51172513  0.62050163  0.13444084  1
  Ni  Ni182  1  0.05180743  0.99095472  0.19390729  1
  Ni  Ni183  1  0.26637362  0.26591987  0.18099369  1
  Ni  Ni184  1  0.02665288  0.75019616  0.37998464  1
  Ni  Ni185  1  0.43102135  0.05396491  0.02748171  1
  Ni  Ni186  1  0.05087600  0.59878709  0.85055949  1
  Ni  Ni187  1  0.78788649  0.31250949  0.64436305  1
  Ni  Ni188  1  0.53109199  0.77278585  0.20212159  1
  Ni  Ni189  1  0.29143705  1.00353782  0.76082507  1
  Ni  Ni190  1  0.02891454  0.27985923  0.56514265  1
  Ni  Ni191  1  0.17353013  0.02848957  0.03159239  1
  Ni  Ni192  1  0.98328999  0.42681470  0.90731529  1
  Ni  Ni193  1  0.94521849  0.75305554  0.62074627  1
  Ni  Ni194  1  0.38191644  0.37928572  0.17397353  1
  Ni  Ni195  1  0.98473426  0.46428270  0.25185091  1
  Ni  Ni196  1  0.78100765  0.47733153  0.68581068  1
  Ni  Ni197  1  0.20019302  0.39629882  0.89280290  1
  Ni  Ni198  1  0.45675494  0.65206119  0.28791293  1
  Ni  Ni199  1  0.18992467  0.61829932  0.57929678  1
  Ni  Ni200  1  0.23724012  0.71291499  0.26502949  1
  Ni  Ni201  1  0.37773866  0.68871026  0.42270199  1
  Ni  Ni202  1  0.77740436  0.39844869  0.38569825  1
  Ni  Ni203  1  0.42670291  0.29012706  1.03253187  1
  Ni  Ni204  1  0.35811014  0.82989040  0.66383558  1
  Ni  Ni205  1  0.53291160  0.51916677  0.56679418  1
  Ni  Ni206  1  0.67260992  0.29834983  0.48219468  1
  Ni  Ni207  1  0.35009723  0.26403987  0.44881983  1
  Ni  Ni208  1  0.46359310  0.37400096  0.35945215  1
  Ni  Ni209  1  0.21722391  0.77845320  0.58929486  1
  Ni  Ni210  1  0.72018781  0.15539645  0.03763418  1
  Ni  Ni211  1  0.91915078  0.53241498  0.76834451  1
  Ni  Ni212  1  0.83674806  0.94345500  0.41765966  1
  Ni  Ni213  1  0.01049060  0.86502496  0.90400744  1
  Ni  Ni214  1  0.23239515  0.44575078  0.20336387  1
  Ni  Ni215  1  0.62111262  0.87471827  0.00216237  1
