# generated using pymatgen
data_Ti2CoNi
_symmetry_space_group_name_H-M   'P 1'
_cell_length_a   14.72018375
_cell_length_b   14.63104646
_cell_length_c   14.70427257
_cell_angle_alpha   90.20670326
_cell_angle_beta   89.95783842
_cell_angle_gamma   89.92797572
_symmetry_Int_Tables_number   1
_chemical_formula_structural   Ti2CoNi
_chemical_formula_sum   'Ti108 Co54 Ni54'
_cell_volume   3166.86008793
_cell_formula_units_Z   54
loop_
 _symmetry_equiv_pos_site_id
 _symmetry_equiv_pos_as_xyz
  1  'x, y, z'
loop_
 _atom_site_type_symbol
 _atom_site_label
 _atom_site_symmetry_multiplicity
 _atom_site_fract_x
 _atom_site_fract_y
 _atom_site_fract_z
 _atom_site_occupancy
  Ti  Ti0  1  0.00864021  0.07120555  -0.08728296  1
  Ti  Ti1  1  -0.06165817  0.01560022  0.33085778  1
  Ti  Ti2  1  0.00798583  -0.02932587  0.70259103  1
  Ti  Ti3  1  0.04237420  0.27053584  0.03743156  1
  Ti  Ti4  1  -0.01701725  0.37938583  0.29773651  1
  Ti  Ti5  1  0.06354241  0.31623773  0.65641233  1
  Ti  Ti6  1  0.10497696  0.67734163  0.03750593  1
  Ti  Ti7  1  -0.03354761  0.61705514  0.32563436  1
  Ti  Ti8  1  -0.08359107  0.70488923  0.63187323  1
  Ti  Ti9  1  0.32795510  0.03608749  -0.04832942  1
  Ti  Ti10  1  0.33715629  -0.06618506  0.39485908  1
  Ti  Ti11  1  0.32530217  -0.03967912  0.72598517  1
  Ti  Ti12  1  0.28320546  0.28486092  -0.02040217  1
  Ti  Ti13  1  0.35625604  0.39516197  0.39489792  1
  Ti  Ti14  1  0.33949446  0.31134282  0.58782608  1
  Ti  Ti15  1  0.31305927  0.69669244  -0.01792977  1
  Ti  Ti16  1  0.34892148  0.60929809  0.33717280  1
  Ti  Ti17  1  0.35819962  0.64814051  0.68494637  1
  Ti  Ti18  1  0.61737258  -0.01266942  0.11416492  1
  Ti  Ti19  1  0.63464284  0.04145385  0.31879449  1
  Ti  Ti20  1  0.72141693  0.01629955  0.64287833  1
  Ti  Ti21  1  0.65596062  0.29707146  -0.05791978  1
  Ti  Ti22  1  0.64162844  0.25775949  0.36220428  1
  Ti  Ti23  1  0.68512513  0.22247606  0.71355692  1
  Ti  Ti24  1  0.70627480  0.60011927  -0.00085185  1
  Ti  Ti25  1  0.66908863  0.72957239  0.29587675  1
  Ti  Ti26  1  0.68854584  0.68125903  0.65191886  1
  Ti  Ti27  1  -0.03925249  0.11628339  0.13961464  1
  Ti  Ti28  1  0.00438909  0.23507871  0.48172969  1
  Ti  Ti29  1  -0.04418565  0.24800343  0.87323846  1
  Ti  Ti30  1  0.07441023  0.54273045  0.19376083  1
  Ti  Ti31  1  -0.00816880  0.45572191  0.48224421  1
  Ti  Ti32  1  0.04288120  0.55950151  0.88351155  1
  Ti  Ti33  1  0.00028544  0.84765610  0.09002540  1
  Ti  Ti34  1  -0.00337648  0.79542718  0.44942670  1
  Ti  Ti35  1  -0.00073774  0.76924323  0.89226635  1
  Ti  Ti36  1  0.24834180  0.12058557  0.24447272  1
  Ti  Ti37  1  0.30891356  0.11538400  0.57164751  1
  Ti  Ti38  1  0.36925260  0.21733400  0.75268245  1
  Ti  Ti39  1  0.43230651  0.52063220  0.15443570  1
  Ti  Ti40  1  0.32868992  0.49536997  0.56702955  1
  Ti  Ti41  1  0.33420953  0.45390832  0.75626137  1
  Ti  Ti42  1  0.25681935  0.90600880  0.22607819  1
  Ti  Ti43  1  0.39555410  0.77643812  0.52292335  1
  Ti  Ti44  1  0.31617935  0.77449284  0.82049935  1
  Ti  Ti45  1  0.70493350  0.23048327  0.17397848  1
  Ti  Ti46  1  0.70941559  0.17050265  0.52180106  1
  Ti  Ti47  1  0.66070046  0.10850863  0.87164211  1
  Ti  Ti48  1  0.69917020  0.47547285  0.19538711  1
  Ti  Ti49  1  0.61013306  0.55409146  0.52095656  1
  Ti  Ti50  1  0.64050601  0.40500034  0.78454656  1
  Ti  Ti51  1  0.64008478  0.77429110  0.10204538  1
  Ti  Ti52  1  0.63338618  0.77308225  0.49897985  1
  Ti  Ti53  1  0.64128829  0.88511886  0.89631917  1
  Ti  Ti54  1  0.09056631  0.00643380  0.21249241  1
  Ti  Ti55  1  0.06255055  -0.03398603  0.48766434  1
  Ti  Ti56  1  0.16942036  0.04874819  0.79989985  1
  Ti  Ti57  1  0.17285123  0.31819283  0.16374811  1
  Ti  Ti58  1  0.17066039  0.39555020  0.49725045  1
  Ti  Ti59  1  0.16144845  0.32000053  0.83033212  1
  Ti  Ti60  1  0.25325742  0.63122499  0.15325729  1
  Ti  Ti61  1  0.10815574  0.63274349  0.47101415  1
  Ti  Ti62  1  0.07327215  0.69054346  0.73354355  1
  Ti  Ti63  1  0.45673299  0.02774616  0.24665346  1
  Ti  Ti64  1  0.46718026  0.03530854  0.48008289  1
  Ti  Ti65  1  0.47797028  0.07282517  0.82910143  1
  Ti  Ti66  1  0.43621437  0.32588270  0.18050717  1
  Ti  Ti67  1  0.63376487  0.36437707  0.57469737  1
  Ti  Ti68  1  0.46462050  0.36879523  0.87954309  1
  Ti  Ti69  1  0.47174468  0.73004696  0.19023601  1
  Ti  Ti70  1  0.51597085  0.66839768  0.40470453  1
  Ti  Ti71  1  0.52193353  0.71902923  0.79179845  1
  Ti  Ti72  1  0.78399402  0.04994895  0.16550009  1
  Ti  Ti73  1  0.88442907  0.04730034  0.53148385  1
  Ti  Ti74  1  0.88186069  -0.07631950  0.88087189  1
  Ti  Ti75  1  0.87950483  0.29724023  0.16996424  1
  Ti  Ti76  1  0.83331443  0.31827653  0.46021736  1
  Ti  Ti77  1  0.87067127  0.42001371  0.82840020  1
  Ti  Ti78  1  0.83358727  0.65821633  0.14605136  1
  Ti  Ti79  1  0.81630370  0.76177817  0.47153368  1
  Ti  Ti80  1  0.77142507  0.58372987  0.80060082  1
  Ti  Ti81  1  0.17390660  0.13901912  0.05831281  1
  Ti  Ti82  1  0.15458969  0.26702960  0.35775486  1
  Ti  Ti83  1  0.12115395  0.10983160  0.60903180  1
  Ti  Ti84  1  0.15850170  0.46261130  0.02650118  1
  Ti  Ti85  1  0.24683654  0.45703807  0.26140333  1
  Ti  Ti86  1  0.16923022  0.54752053  0.64267046  1
  Ti  Ti87  1  0.19148709  0.85613349  0.00924896  1
  Ti  Ti88  1  0.19069269  0.81573286  0.42392360  1
  Ti  Ti89  1  0.22256659  0.78841004  0.63248535  1
  Ti  Ti90  1  0.47614751  0.14607644  0.05048576  1
  Ti  Ti91  1  0.44315873  0.20528830  0.34138775  1
  Ti  Ti92  1  0.50973852  0.21380278  0.61096059  1
  Ti  Ti93  1  0.49782937  0.56715825  -0.04517715  1
  Ti  Ti94  1  0.53021279  0.44361090  0.35823566  1
  Ti  Ti95  1  0.51115188  0.53385508  0.69816401  1
  Ti  Ti96  1  0.46995232  0.80265881  -0.01777282  1
  Ti  Ti97  1  0.52414962  0.86815053  0.37640793  1
  Ti  Ti98  1  0.54020161  0.89597178  0.62259102  1
  Ti  Ti99  1  0.80839756  0.18008682  0.01666746  1
  Ti  Ti100  1  0.80682302  0.15548003  0.33732096  1
  Ti  Ti101  1  0.85468879  0.12374508  0.73550619  1
  Ti  Ti102  1  0.85330396  0.48191207  0.02792855  1
  Ti  Ti103  1  0.82114343  0.48684360  0.37879502  1
  Ti  Ti104  1  0.82415565  0.51962891  0.59869753  1
  Ti  Ti105  1  0.80215562  0.87044383  0.05222419  1
  Ti  Ti106  1  0.87855838  0.80715944  0.28272240  1
  Ti  Ti107  1  0.78880718  0.84439008  0.70960586  1
  Co  Co108  1  0.41556708  0.87477971  0.24109875  1
  Co  Co109  1  0.73466305  0.36142520  0.07364307  1
  Co  Co110  1  0.17281394  -0.01950516  0.35578566  1
  Co  Co111  1  0.25483190  0.74575173  0.27404012  1
  Co  Co112  1  0.48188303  0.29450996  0.46941695  1
  Co  Co113  1  0.53036676  0.71229868  0.61859008  1
  Co  Co114  1  0.74861258  0.89150247  0.54792093  1
  Co  Co115  1  0.29882176  0.28719146  0.27621966  1
  Co  Co116  1  0.95573557  0.82646766  0.74417260  1
  Co  Co117  1  0.77573453  0.38408180  0.69626752  1
  Co  Co118  1  0.30585631  0.25044162  0.44100625  1
  Co  Co119  1  0.43489269  0.40411512  0.02792495  1
  Co  Co120  1  0.21288747  0.38328467  0.66595449  1
  Co  Co121  1  0.56549434  0.15476988  0.45771661  1
  Co  Co122  1  0.99517092  0.70615084  0.17747006  1
  Co  Co123  1  0.03350654  0.86928246  0.27266511  1
  Co  Co124  1  0.91140426  0.88373962  0.58600024  1
  Co  Co125  1  0.88994712  1.01343152  0.02786958  1
  Co  Co126  1  0.67513487  0.51545133  0.67237440  1
  Co  Co127  1  0.24080434  0.90831436  0.86624885  1
  Co  Co128  1  0.21335298  0.21539922  0.70214501  1
  Co  Co129  1  0.86983344  0.91422103  0.43061194  1
  Co  Co130  1  0.41733518  0.20907945  0.91563692  1
  Co  Co131  1  0.78149820  0.26190582  0.83988405  1
  Co  Co132  1  0.73071766  1.00274244  0.98189819  1
  Co  Co133  1  0.91406881  -0.05078504  0.17940921  1
  Co  Co134  1  0.94409386  0.22226936  0.33349128  1
  Co  Co135  1  0.15933712  0.74485003  0.88621976  1
  Co  Co136  1  0.37288868  0.59142580  0.85247229  1
  Co  Co137  1  0.53864147  -0.00829294  0.96495767  1
  Co  Co138  1  0.71977232  0.45634545  0.92070556  1
  Co  Co139  1  0.07140902  0.91822245  0.89228726  1
  Co  Co140  1  0.36541872  0.93012230  0.57054794  1
  Co  Co141  1  0.71090836  0.87093263  0.37522845  1
  Co  Co142  1  0.58901907  0.87692468  0.23433875  1
  Co  Co143  1  0.48874476  0.89275768  0.10412167  1
  Co  Co144  1  0.61091859  0.95508799  0.48445874  1
  Co  Co145  1  0.17135695  -0.04833316  0.64408289  1
  Co  Co146  1  0.22293963  0.63827352  0.77199169  1
  Co  Co147  1  0.14735547  0.78507652  0.16098575  1
  Co  Co148  1  0.79132274  0.33650142  0.29942393  1
  Co  Co149  1  0.08465157  0.73032660  0.31697298  1
  Co  Co150  1  0.58864757  0.07356879  0.60170971  1
  Co  Co151  1  0.22813295  0.99037904  0.50590841  1
  Co  Co152  1  0.29841298  0.40643117  0.11427537  1
  Co  Co153  1  0.12231138  0.19059326  0.91514013  1
  Co  Co154  1  0.12557555  0.85027428  0.75949888  1
  Co  Co155  1  0.17706616  0.60810862  0.30584924  1
  Co  Co156  1  0.27061673  0.16017569  0.86559359  1
  Co  Co157  1  0.91901869  0.28695883  0.72902955  1
  Co  Co158  1  0.91947102  0.38551572  0.60230338  1
  Co  Co159  1  0.17925243  0.24311416  0.53992659  1
  Co  Co160  1  0.06347058  0.81911688  0.60194121  1
  Co  Co161  1  0.61303236  0.58076980  0.83025595  1
  Ni  Ni162  1  1.01446426  0.40709878  0.94135674  1
  Ni  Ni163  1  0.58563938  0.60401220  0.11542840  1
  Ni  Ni164  1  0.60509274  0.71430088  0.94272463  1
  Ni  Ni165  1  0.48058566  0.44387321  0.52646386  1
  Ni  Ni166  1  0.75215114  0.61734538  0.47050542  1
  Ni  Ni167  1  0.10189283  0.47248585  0.35645277  1
  Ni  Ni168  1  0.16650415  0.48119502  0.79970746  1
  Ni  Ni169  1  0.74984542  0.88290285  0.20735335  1
  Ni  Ni170  1  0.69429828  0.73707302  0.80873169  1
  Ni  Ni171  1  0.57082532  0.28934767  0.08213209  1
  Ni  Ni172  1  0.05764881  -0.00642432  0.04577169  1
  Ni  Ni173  1  0.89120758  0.61533883  0.90834898  1
  Ni  Ni174  1  0.33290342  0.54082683  0.02419912  1
  Ni  Ni175  1  0.93375121  0.55903799  0.75088230  1
  Ni  Ni176  1  0.89747774  0.73263680  0.01924327  1
  Ni  Ni177  1  0.55512523  0.16954047  0.20704902  1
  Ni  Ni178  1  0.64376690  0.13605797  0.04215386  1
  Ni  Ni179  1  0.80094334  0.62964562  0.30179742  1
  Ni  Ni180  1  0.35369213  0.05575513  0.12486381  1
  Ni  Ni181  1  -0.00154623  0.41378984  0.11563471  1
  Ni  Ni182  1  0.65814007  0.56030567  0.35322502  1
  Ni  Ni183  1  0.44135432  0.05944518  0.66133933  1
  Ni  Ni184  1  0.96431539  0.15915932  0.62317875  1
  Ni  Ni185  1  0.88192429  0.32658250  -0.00007104  1
  Ni  Ni186  1  0.54350091  0.23819837  0.80382268  1
  Ni  Ni187  1  0.97640556  0.57939213  0.06262330  1
  Ni  Ni188  1  0.23976618  0.52832063  0.43137687  1
  Ni  Ni189  1  0.00972308  0.55693433  0.61090517  1
  Ni  Ni190  1  0.38270337  0.77095843  0.35864930  1
  Ni  Ni191  1  0.43893153  0.60618696  0.53554231  1
  Ni  Ni192  1  0.29436088  0.43487186  0.91224786  1
  Ni  Ni193  1  0.59288081  0.34630835  0.23587163  1
  Ni  Ni194  1  0.59245739  0.97469762  0.75766152  1
  Ni  Ni195  1  0.05229157  0.16583441  0.76036678  1
  Ni  Ni196  1  0.42233585  0.91105283  0.86634504  1
  Ni  Ni197  1  0.84070807  0.09478744  0.89011003  1
  Ni  Ni198  1  0.05139149  0.22808018  0.21526488  1
  Ni  Ni199  1  0.20859627  0.58398386  0.92414189  1
  Ni  Ni200  1  0.92373464  0.61890825  0.48408906  1
  Ni  Ni201  1  0.26763803  0.65992515  0.52772561  1
  Ni  Ni202  1  0.59463993  0.44949497  1.03362941  1
  Ni  Ni203  1  0.32038397  0.21982702  0.12561552  1
  Ni  Ni204  1  0.33000661  0.79022161  0.12109556  1
  Ni  Ni205  1  0.07401515  0.11620706  0.34937958  1
  Ni  Ni206  1  0.21457447  0.99019715  0.09202485  1
  Ni  Ni207  1  0.74704845  0.02714588  0.44262765  1
  Ni  Ni208  1  0.40785691  0.81461405  0.68879024  1
  Ni  Ni209  1  0.31518741  0.09608719  0.38935312  1
  Ni  Ni210  1  0.52702759  0.58696485  0.26714351  1
  Ni  Ni211  1  0.87416965  0.48895459  0.20919973  1
  Ni  Ni212  1  0.82330836  0.24764464  0.60800050  1
  Ni  Ni213  1  0.68455210  0.40805164  0.41985496  1
  Ni  Ni214  1  0.48192695  0.36309197  0.70046610  1
  Ni  Ni215  1  0.75076435  -0.01579283  0.80476643  1
