# generated using pymatgen
data_Ti2CoNi
_symmetry_space_group_name_H-M   'P 1'
_cell_length_a   14.51362601
_cell_length_b   14.54605214
_cell_length_c   14.54095678
_cell_angle_alpha   89.91694080
_cell_angle_beta   90.21351229
_cell_angle_gamma   90.35713794
_symmetry_Int_Tables_number   1
_chemical_formula_structural   Ti2CoNi
_chemical_formula_sum   'Ti108 Co54 Ni54'
_cell_volume   3069.74398674
_cell_formula_units_Z   54
loop_
 _symmetry_equiv_pos_site_id
 _symmetry_equiv_pos_as_xyz
  1  'x, y, z'
loop_
 _atom_site_type_symbol
 _atom_site_label
 _atom_site_symmetry_multiplicity
 _atom_site_fract_x
 _atom_site_fract_y
 _atom_site_fract_z
 _atom_site_occupancy
  Ti  Ti0  1  0.04530373  -0.04828040  -0.11495076  1
  Ti  Ti1  1  0.06320948  0.03642620  0.36164097  1
  Ti  Ti2  1  0.03720148  0.07982920  0.70125954  1
  Ti  Ti3  1  0.03066160  0.42988249  0.02995028  1
  Ti  Ti4  1  -0.09478616  0.28584879  0.28067830  1
  Ti  Ti5  1  0.01899882  0.27752617  0.65070893  1
  Ti  Ti6  1  0.04547589  0.64465092  0.00469758  1
  Ti  Ti7  1  0.03473180  0.69292283  0.22591472  1
  Ti  Ti8  1  -0.05798298  0.61467565  0.63440883  1
  Ti  Ti9  1  0.31991837  -0.03295008  -0.04849876  1
  Ti  Ti10  1  0.35900660  0.00324991  0.27538436  1
  Ti  Ti11  1  0.33939050  0.11304729  0.68584654  1
  Ti  Ti12  1  0.35304721  0.37544403  -0.01564452  1
  Ti  Ti13  1  0.38106132  0.32130850  0.36875019  1
  Ti  Ti14  1  0.35477430  0.30729171  0.68691493  1
  Ti  Ti15  1  0.39706754  0.74453823  0.00295052  1
  Ti  Ti16  1  0.35495157  0.71739595  0.35736486  1
  Ti  Ti17  1  0.40331809  0.73854223  0.58892447  1
  Ti  Ti18  1  0.71149944  0.00240916  0.11389842  1
  Ti  Ti19  1  0.69321567  0.01701973  0.31017504  1
  Ti  Ti20  1  0.65073627  -0.05669133  0.66164722  1
  Ti  Ti21  1  0.65117828  0.29256828  -0.05271590  1
  Ti  Ti22  1  0.69670213  0.34817491  0.30437308  1
  Ti  Ti23  1  0.67437079  0.31761328  0.70280729  1
  Ti  Ti24  1  0.73881025  0.71481778  -0.02902736  1
  Ti  Ti25  1  0.61999396  0.59213874  0.27997352  1
  Ti  Ti26  1  0.60280441  0.64057789  0.65785408  1
  Ti  Ti27  1  -0.03703794  0.16153269  0.10972616  1
  Ti  Ti28  1  0.09668400  0.15211251  0.52085842  1
  Ti  Ti29  1  -0.07658778  0.15762145  0.81697080  1
  Ti  Ti30  1  -0.08069175  0.53707889  0.16725392  1
  Ti  Ti31  1  0.04863352  0.53278420  0.47639535  1
  Ti  Ti32  1  0.01098001  0.47129147  0.72373880  1
  Ti  Ti33  1  0.00767401  0.96122286  0.08997986  1
  Ti  Ti34  1  -0.00701954  0.80206958  0.55677716  1
  Ti  Ti35  1  -0.03432525  0.75345221  0.77611132  1
  Ti  Ti36  1  0.28490241  0.19659126  0.20002262  1
  Ti  Ti37  1  0.31025939  0.20854813  0.51194717  1
  Ti  Ti38  1  0.43715358  0.18338925  0.84386915  1
  Ti  Ti39  1  0.41734134  0.42299643  0.18489324  1
  Ti  Ti40  1  0.36255230  0.55159476  0.55333894  1
  Ti  Ti41  1  0.25608799  0.44679866  0.82486596  1
  Ti  Ti42  1  0.23751412  0.85988464  0.23933247  1
  Ti  Ti43  1  0.30683349  0.86833180  0.48665430  1
  Ti  Ti44  1  0.27592732  0.80661709  0.80801948  1
  Ti  Ti45  1  0.62000839  0.16349630  0.07593519  1
  Ti  Ti46  1  0.72377499  0.19110524  0.41002967  1
  Ti  Ti47  1  0.62582916  0.14831961  0.81469952  1
  Ti  Ti48  1  0.65155072  0.45720377  0.15104976  1
  Ti  Ti49  1  0.68920770  0.53664911  0.44575851  1
  Ti  Ti50  1  0.62810195  0.49347349  0.96548804  1
  Ti  Ti51  1  0.81134613  0.82137549  0.11352895  1
  Ti  Ti52  1  0.64923841  0.85832657  0.41547300  1
  Ti  Ti53  1  0.71233276  0.85554841  0.82761934  1
  Ti  Ti54  1  0.21463059  0.02832107  0.11234098  1
  Ti  Ti55  1  0.14239923  -0.04651425  0.54808533  1
  Ti  Ti56  1  0.20043939  0.00752831  0.78686839  1
  Ti  Ti57  1  0.17168742  0.40900587  0.19553050  1
  Ti  Ti58  1  0.15092705  0.34897366  0.48097207  1
  Ti  Ti59  1  0.03941627  0.32321023  0.83901902  1
  Ti  Ti60  1  0.21769778  0.68734660  0.14418614  1
  Ti  Ti61  1  0.21373668  0.67461465  0.47385207  1
  Ti  Ti62  1  0.18778645  0.62392532  0.83473237  1
  Ti  Ti63  1  0.54099872  0.03003640  0.18657189  1
  Ti  Ti64  1  0.53793488  -0.03477899  0.52242177  1
  Ti  Ti65  1  0.54086083  -0.03461846  0.83468488  1
  Ti  Ti66  1  0.47345068  0.19372806  0.23156412  1
  Ti  Ti67  1  0.58105434  0.34921497  0.49269973  1
  Ti  Ti68  1  0.48668153  0.37198389  0.84378674  1
  Ti  Ti69  1  0.48843861  0.61464352  0.14790367  1
  Ti  Ti70  1  0.54748169  0.68298115  0.45766966  1
  Ti  Ti71  1  0.53854221  0.67972007  0.85103470  1
  Ti  Ti72  1  0.86881780  -0.01301046  0.22033209  1
  Ti  Ti73  1  0.81260036  -0.00084060  0.57021729  1
  Ti  Ti74  1  0.76908905  0.06610188  0.92163736  1
  Ti  Ti75  1  0.75643862  0.26116790  0.14340759  1
  Ti  Ti76  1  0.89416454  0.27562982  0.49036754  1
  Ti  Ti77  1  0.75441476  0.41595514  0.84239686  1
  Ti  Ti78  1  0.83343601  0.69785558  0.25213611  1
  Ti  Ti79  1  0.84340644  0.66519692  0.46320907  1
  Ti  Ti80  1  0.78376823  0.67418312  0.75739749  1
  Ti  Ti81  1  0.20024652  0.20674936  -0.02166392  1
  Ti  Ti82  1  0.10592378  0.22158146  0.25366218  1
  Ti  Ti83  1  0.17822831  0.21036728  0.76981354  1
  Ti  Ti84  1  0.21912026  0.53609375  0.00123881  1
  Ti  Ti85  1  0.14348602  0.55132367  0.31451086  1
  Ti  Ti86  1  0.17617257  0.52546573  0.63671260  1
  Ti  Ti87  1  0.15103374  0.84903840  0.02489464  1
  Ti  Ti88  1  0.06109219  0.84616302  0.37307819  1
  Ti  Ti89  1  0.11142620  0.86074842  0.71920538  1
  Ti  Ti90  1  0.43732779  0.13583214  0.02250031  1
  Ti  Ti91  1  0.53052535  0.10466319  0.40502640  1
  Ti  Ti92  1  0.51686742  0.09331753  0.66604840  1
  Ti  Ti93  1  0.43441157  0.55249507  -0.02971706  1
  Ti  Ti94  1  0.46240338  0.50885620  0.37780256  1
  Ti  Ti95  1  0.52041589  0.42850299  0.66220110  1
  Ti  Ti96  1  0.50820672  0.92607193  0.02795720  1
  Ti  Ti97  1  0.53178537  0.77252924  0.27173588  1
  Ti  Ti98  1  0.43442642  0.90324783  0.67479067  1
  Ti  Ti99  1  0.85041939  0.25921613  -0.03636372  1
  Ti  Ti100  1  0.87211809  0.07485140  0.40435106  1
  Ti  Ti101  1  0.82196252  0.17951434  0.66391560  1
  Ti  Ti102  1  0.83407849  0.53578656  -0.01656160  1
  Ti  Ti103  1  0.88472362  0.45273836  0.38983384  1
  Ti  Ti104  1  0.83436884  0.44338380  0.60689835  1
  Ti  Ti105  1  0.92332831  0.81369188  -0.04585044  1
  Ti  Ti106  1  0.85840877  0.86309497  0.40550053  1
  Ti  Ti107  1  0.85041570  0.88326292  0.70999867  1
  Co  Co108  1  0.76645324  0.39469585  0.02882824  1
  Co  Co109  1  0.16291390  0.37683246  0.71793997  1
  Co  Co110  1  0.53353427  0.52400360  0.80647673  1
  Co  Co111  1  0.85089651  0.74677104  0.61246022  1
  Co  Co112  1  0.20089007  0.06194319  0.26676441  1
  Co  Co113  1  0.27399128  0.92542252  0.66326767  1
  Co  Co114  1  0.27716530  0.65101259  0.68125626  1
  Co  Co115  1  0.43025841  0.84865741  0.87283993  1
  Co  Co116  1  0.21937523  0.25550893  0.36231682  1
  Co  Co117  1  0.91895416  0.33185652  0.09580823  1
  Co  Co118  1  0.02323448  0.23752988  0.96803844  1
  Co  Co119  1  0.57553998  0.30378928  0.14505135  1
  Co  Co120  1  0.50977280  0.42760321  1.05327033  1
  Co  Co121  1  0.85177962  0.52521575  0.76436161  1
  Co  Co122  1  0.19574747  0.25576160  0.61693630  1
  Co  Co123  1  0.80023394  0.14240335  0.24800736  1
  Co  Co124  1  0.69272486  0.59256911  0.86214410  1
  Co  Co125  1  0.50172960  0.28070227  0.98576246  1
  Co  Co126  1  0.69875754  0.78205464  0.66666700  1
  Co  Co127  1  0.74819489  0.60324090  0.11138520  1
  Co  Co128  1  0.26944339  0.40078176  0.57890109  1
  Co  Co129  1  0.75318510  0.37874327  0.44598537  1
  Co  Co130  1  0.08087322  0.28807266  0.10842322  1
  Co  Co131  1  0.29850350  0.28917233  0.84900670  1
  Co  Co132  1  0.73788023  0.27858424  0.56202070  1
  Co  Co133  1  0.40913427  0.73748809  0.75741086  1
  Co  Co134  1  0.00700777  0.41501483  0.21908013  1
  Co  Co135  1  0.40424140  0.27784905  0.11190366  1
  Co  Co136  1  0.21166839  0.09609294  0.42810516  1
  Co  Co137  1  0.52547916  0.25110681  0.71480524  1
  Co  Co138  1  0.67520229  0.45001222  0.58087188  1
  Co  Co139  1  0.55765058  0.81138562  0.74625673  1
  Co  Co140  1  0.86133438  0.96239750  0.03083776  1
  Co  Co141  1  0.31115829  1.03075858  0.54264248  1
  Co  Co142  1  0.76832819  0.59941303  0.60390025  1
  Co  Co143  1  0.29170101  0.43711822  0.29492157  1
  Co  Co144  1  0.35266401  0.14682211  0.35853847  1
  Co  Co145  1  0.94174966  0.08540374  0.95982267  1
  Co  Co146  1  0.81400365  0.12053034  0.07440558  1
  Co  Co147  1  0.10173070  0.55249642  0.14008436  1
  Co  Co148  1  0.07963311  0.12460926  0.86080542  1
  Co  Co149  1  0.89459664  0.67887176  0.07161520  1
  Co  Co150  1  0.01569400  0.79502280  0.10141232  1
  Co  Co151  1  0.75124625  0.85109994  0.53391954  1
  Co  Co152  1  0.66895115  0.72197964  0.18512178  1
  Co  Co153  1  0.68753397  0.03169988  0.47276422  1
  Co  Co154  1  0.45134372  0.60421471  0.68307687  1
  Co  Co155  1  0.17915048  0.73168165  0.32024122  1
  Co  Co156  1  0.37747105  0.73554874  0.18629034  1
  Co  Co157  1  0.56998324  0.80595718  0.57067170  1
  Co  Co158  1  0.19408968  0.08943719  0.63203192  1
  Co  Co159  1  0.68300598  0.50617686  0.72594717  1
  Co  Co160  1  0.41707203  0.39517113  0.52001939  1
  Co  Co161  1  0.64085914  0.17602722  0.25435047  1
  Ni  Ni162  1  0.71778405  0.90002106  0.98197946  1
  Ni  Ni163  1  0.37269732  -0.00694819  0.79764500  1
  Ni  Ni164  1  0.31109866  0.86345063  0.08712239  1
  Ni  Ni165  1  0.09896653  0.07714190  0.00934422  1
  Ni  Ni166  1  0.78003452  0.54110197  0.28493814  1
  Ni  Ni167  1  0.94033235  0.84552076  0.24683010  1
  Ni  Ni168  1  0.20853388  0.94070989  0.38256221  1
  Ni  Ni169  1  0.53170499  0.53158961  0.53126974  1
  Ni  Ni170  1  0.40245772  -0.00451309  0.42678758  1
  Ni  Ni171  1  0.35814452  0.47510157  0.70492036  1
  Ni  Ni172  1  0.98685952  0.40518700  0.54679896  1
  Ni  Ni173  1  0.91979648  0.42457615  0.88871558  1
  Ni  Ni174  1  0.88710070  0.65853957  0.89137449  1
  Ni  Ni175  1  0.31029028  0.53385305  0.12598426  1
  Ni  Ni176  1  1.01504015  0.21235606  0.39632829  1
  Ni  Ni177  1  -0.01312101  0.94102294  0.64848571  1
  Ni  Ni178  1  0.93714590  0.11851538  0.55732620  1
  Ni  Ni179  1  0.74791243  0.85257786  0.26814804  1
  Ni  Ni180  1  0.04320233  0.68915219  0.41491795  1
  Ni  Ni181  1  0.52520400  0.94354608  0.32772327  1
  Ni  Ni182  1  0.23275511  0.71171116  0.97197935  1
  Ni  Ni183  1  0.46887333  0.23450904  0.55961797  1
  Ni  Ni184  1  0.67067822  0.12957507  0.61070007  1
  Ni  Ni185  1  0.76131664  0.03296905  0.75509298  1
  Ni  Ni186  1  0.38087542  0.01998528  0.11238613  1
  Ni  Ni187  1  0.24763767  0.31903955  0.09144329  1
  Ni  Ni188  1  0.60507637  0.04828805  0.96407833  1
  Ni  Ni189  1  0.81741555  0.40916678  0.19765485  1
  Ni  Ni190  1  0.76997687  0.23301037  0.81933043  1
  Ni  Ni191  1  0.54874486  0.25601427  0.37116973  1
  Ni  Ni192  1  0.36982863  0.58654109  0.26306316  1
  Ni  Ni193  1  0.20810501  0.78463924  0.60277221  1
  Ni  Ni194  1  0.29370440  0.54591179  0.40685847  1
  Ni  Ni195  1  0.61700491  0.87036187  0.15677218  1
  Ni  Ni196  1  0.70627953  0.70949833  0.36887061  1
  Ni  Ni197  1  0.58329423  0.81036807  0.93670037  1
  Ni  Ni198  1  0.08670556  0.66893386  0.57103710  1
  Ni  Ni199  1  0.09126824  0.93485790  0.22586336  1
  Ni  Ni200  1  0.87978988  0.34250603  0.74055009  1
  Ni  Ni201  1  0.16816855  0.37188482  0.94876309  1
  Ni  Ni202  1  0.44527903  0.88402598  0.18435541  1
  Ni  Ni203  1  0.36429255  0.59359803  0.83020993  1
  Ni  Ni204  1  0.59893738  0.64637860  0.02638762  1
  Ni  Ni205  1  0.29144470  0.11878789  0.87261113  1
  Ni  Ni206  1  0.10578335  0.77552101  0.87888968  1
  Ni  Ni207  1  0.54110962  0.39859757  0.29281190  1
  Ni  Ni208  1  0.03570722  0.37966177  0.37073423  1
  Ni  Ni209  1  0.97463177  0.96483166  0.48831069  1
  Ni  Ni210  1  0.96328031  0.12278114  0.26694630  1
  Ni  Ni211  1  0.07755631  0.50016703  0.87934205  1
  Ni  Ni212  1  0.46897642  0.82807066  0.43457544  1
  Ni  Ni213  1  0.94382269  0.59216484  0.33287788  1
  Ni  Ni214  1  0.88241280  0.95815527  0.85896559  1
  Ni  Ni215  1  0.10620923  0.69112577  0.72113354  1
