# generated using pymatgen
data_Ti2CoNi
_symmetry_space_group_name_H-M   'P 1'
_cell_length_a   14.67349801
_cell_length_b   14.65295737
_cell_length_c   14.67365113
_cell_angle_alpha   90.31348056
_cell_angle_beta   89.65622432
_cell_angle_gamma   90.12772153
_symmetry_Int_Tables_number   1
_chemical_formula_structural   Ti2CoNi
_chemical_formula_sum   'Ti108 Co54 Ni54'
_cell_volume   3154.87217533
_cell_formula_units_Z   54
loop_
 _symmetry_equiv_pos_site_id
 _symmetry_equiv_pos_as_xyz
  1  'x, y, z'
loop_
 _atom_site_type_symbol
 _atom_site_label
 _atom_site_symmetry_multiplicity
 _atom_site_fract_x
 _atom_site_fract_y
 _atom_site_fract_z
 _atom_site_occupancy
  Ti  Ti0  1  -0.03513933  -0.02365086  0.01814762  1
  Ti  Ti1  1  0.02821838  -0.00951232  0.27417167  1
  Ti  Ti2  1  -0.00670630  0.04230262  0.67135590  1
  Ti  Ti3  1  0.04851316  0.25432999  -0.05476918  1
  Ti  Ti4  1  -0.05643479  0.29071143  0.31624682  1
  Ti  Ti5  1  -0.05270155  0.36250927  0.63933579  1
  Ti  Ti6  1  0.02147931  0.64958460  -0.01603587  1
  Ti  Ti7  1  -0.06973776  0.67512341  0.38897227  1
  Ti  Ti8  1  -0.03396790  0.70549186  0.68922539  1
  Ti  Ti9  1  0.28406664  -0.07461732  -0.07030503  1
  Ti  Ti10  1  0.31581027  0.02034742  0.35204719  1
  Ti  Ti11  1  0.30899074  0.03721063  0.66909331  1
  Ti  Ti12  1  0.23672892  0.32215120  0.03165310  1
  Ti  Ti13  1  0.41047879  0.32171115  0.33901547  1
  Ti  Ti14  1  0.33044325  0.32413444  0.65439447  1
  Ti  Ti15  1  0.34511260  0.66691641  0.05336078  1
  Ti  Ti16  1  0.40151105  0.62221930  0.35487436  1
  Ti  Ti17  1  0.28211371  0.67762526  0.58479327  1
  Ti  Ti18  1  0.76281210  0.01362213  0.00368960  1
  Ti  Ti19  1  0.66463036  -0.04399841  0.29613799  1
  Ti  Ti20  1  0.64205443  0.05885869  0.74824445  1
  Ti  Ti21  1  0.58045612  0.36435759  0.00800834  1
  Ti  Ti22  1  0.70270577  0.30930668  0.28507520  1
  Ti  Ti23  1  0.66880498  0.36525227  0.64633964  1
  Ti  Ti24  1  0.61522103  0.67632530  -0.04435909  1
  Ti  Ti25  1  0.73478469  0.67221901  0.32037698  1
  Ti  Ti26  1  0.71276713  0.70015301  0.62995083  1
  Ti  Ti27  1  -0.00350226  0.22461674  0.12878099  1
  Ti  Ti28  1  0.05400359  0.22915133  0.47062557  1
  Ti  Ti29  1  -0.03193067  0.20503952  0.76930608  1
  Ti  Ti30  1  0.01137828  0.52849180  0.13886195  1
  Ti  Ti31  1  0.00125194  0.54245245  0.56149924  1
  Ti  Ti32  1  -0.01508597  0.45813461  0.91535590  1
  Ti  Ti33  1  -0.06493172  0.85040198  0.18486352  1
  Ti  Ti34  1  0.04511430  0.88018787  0.53095300  1
  Ti  Ti35  1  -0.00981324  0.81251142  0.86349634  1
  Ti  Ti36  1  0.33256724  0.13708401  0.17482406  1
  Ti  Ti37  1  0.31930038  0.19952888  0.49752316  1
  Ti  Ti38  1  0.40098710  0.17671839  0.78385170  1
  Ti  Ti39  1  0.29058421  0.46126983  0.29570436  1
  Ti  Ti40  1  0.36576073  0.46744534  0.51220463  1
  Ti  Ti41  1  0.28950317  0.45840005  0.82766501  1
  Ti  Ti42  1  0.38484303  0.76372236  0.21252164  1
  Ti  Ti43  1  0.32303206  0.82012802  0.43926400  1
  Ti  Ti44  1  0.41134884  0.89817990  0.78369760  1
  Ti  Ti45  1  0.68925071  0.15836787  0.14059883  1
  Ti  Ti46  1  0.67814349  0.17014549  0.58067018  1
  Ti  Ti47  1  0.60892153  0.20331400  0.91600699  1
  Ti  Ti48  1  0.67649963  0.47068801  0.15556345  1
  Ti  Ti49  1  0.65513110  0.53584605  0.47408080  1
  Ti  Ti50  1  0.65424997  0.54164836  0.79313924  1
  Ti  Ti51  1  0.54465717  0.86003892  0.14900848  1
  Ti  Ti52  1  0.65401716  0.88319272  0.48510222  1
  Ti  Ti53  1  0.66982169  0.79156041  0.78953979  1
  Ti  Ti54  1  0.21620493  -0.00651530  0.09454557  1
  Ti  Ti55  1  0.13687078  0.05234581  0.41377500  1
  Ti  Ti56  1  0.10854501  -0.02110581  0.82001530  1
  Ti  Ti57  1  0.12714984  0.33559062  0.21012753  1
  Ti  Ti58  1  0.15140598  0.38491951  0.55223730  1
  Ti  Ti59  1  0.13721928  0.35560536  0.75262347  1
  Ti  Ti60  1  0.18940260  0.63951245  0.19179933  1
  Ti  Ti61  1  0.13085148  0.71967564  0.41482281  1
  Ti  Ti62  1  0.24322866  0.68132400  0.87328207  1
  Ti  Ti63  1  0.49703843  0.03903119  0.22467275  1
  Ti  Ti64  1  0.45788875  -0.07758297  0.55949734  1
  Ti  Ti65  1  0.46233507  0.04469490  0.90570626  1
  Ti  Ti66  1  0.42116997  0.32648340  0.11116967  1
  Ti  Ti67  1  0.53543178  0.33483456  0.48912407  1
  Ti  Ti68  1  0.48445301  0.34659498  0.82512242  1
  Ti  Ti69  1  0.56630775  0.66384850  0.18130552  1
  Ti  Ti70  1  0.49442309  0.62845603  0.51882334  1
  Ti  Ti71  1  0.45398701  0.64194033  0.83115163  1
  Ti  Ti72  1  0.81755940  0.00326019  0.19223304  1
  Ti  Ti73  1  0.84729566  0.04874825  0.51004995  1
  Ti  Ti74  1  0.88977165  -0.01965331  0.82699562  1
  Ti  Ti75  1  0.86065411  0.39691635  0.17479333  1
  Ti  Ti76  1  0.83629028  0.27614162  0.48229944  1
  Ti  Ti77  1  0.74663139  0.25463874  0.79641268  1
  Ti  Ti78  1  0.85198782  0.69932819  0.09035826  1
  Ti  Ti79  1  0.82563877  0.60160870  0.52251231  1
  Ti  Ti80  1  0.80479406  0.61030596  0.91377613  1
  Ti  Ti81  1  0.29831261  0.14543169  -0.02212336  1
  Ti  Ti82  1  0.23007319  0.21361699  0.32742305  1
  Ti  Ti83  1  0.16973924  0.12845412  0.59167703  1
  Ti  Ti84  1  0.19189060  0.52892252  0.00447928  1
  Ti  Ti85  1  0.11439711  0.50464981  0.38820315  1
  Ti  Ti86  1  0.13853948  0.58096620  0.69947903  1
  Ti  Ti87  1  0.17537542  0.77457773  0.03761258  1
  Ti  Ti88  1  0.20644053  0.85363248  0.24169764  1
  Ti  Ti89  1  0.16073826  0.79460079  0.70145112  1
  Ti  Ti90  1  0.50582325  0.15055491  0.07095180  1
  Ti  Ti91  1  0.51290303  0.15578252  0.40353627  1
  Ti  Ti92  1  0.48003418  0.16602929  0.60343183  1
  Ti  Ti93  1  0.49503500  0.53900735  0.04720251  1
  Ti  Ti94  1  0.48451129  0.47464056  0.23543407  1
  Ti  Ti95  1  0.45068656  0.48832315  0.70586172  1
  Ti  Ti96  1  0.61866830  0.87880732  -0.03448358  1
  Ti  Ti97  1  0.46773866  0.88771309  0.33865467  1
  Ti  Ti98  1  0.50907068  0.77100315  0.67265450  1
  Ti  Ti99  1  0.81969445  0.21994324  -0.00969228  1
  Ti  Ti100  1  0.79191358  0.13961082  0.33271324  1
  Ti  Ti101  1  0.81973068  0.10310831  0.69404201  1
  Ti  Ti102  1  0.77489178  0.40806420  -0.05287781  1
  Ti  Ti103  1  0.80874137  0.47023988  0.34942532  1
  Ti  Ti104  1  0.85020954  0.54229418  0.71047587  1
  Ti  Ti105  1  0.81025577  0.81212276  -0.07334369  1
  Ti  Ti106  1  0.83842348  0.85780563  0.35997060  1
  Ti  Ti107  1  0.84735262  0.86181461  0.62071339  1
  Co  Co108  1  0.63230673  0.12313232  0.29217615  1
  Co  Co109  1  0.36039722  0.77781833  0.92671517  1
  Co  Co110  1  0.19523689  0.82792776  0.54109447  1
  Co  Co111  1  0.51345967  0.78545366  0.86420348  1
  Co  Co112  1  0.99931269  0.44000423  0.28005646  1
  Co  Co113  1  0.33040449  0.85011982  0.62440369  1
  Co  Co114  1  0.07512052  0.17958102  0.28229757  1
  Co  Co115  1  0.73256979  0.94365260  0.84208642  1
  Co  Co116  1  0.88548458  0.10681860  0.08386289  1
  Co  Co117  1  0.38749070  0.01693956  0.06121519  1
  Co  Co118  1  0.29602639  0.59672349  0.74890508  1
  Co  Co119  1  0.12241698  0.12255747  0.75506958  1
  Co  Co120  1  0.82902372  0.23381611  0.18564089  1
  Co  Co121  1  0.62435648  0.04748159  0.92226630  1
  Co  Co122  1  0.88977949  0.71333019  0.24692519  1
  Co  Co123  1  0.11430754  0.34139854  0.36984140  1
  Co  Co124  1  0.56863897  0.92664149  0.81043192  1
  Co  Co125  1  0.78768779  0.41249053  0.76480942  1
  Co  Co126  1  0.18564038  0.18624366  0.12281514  1
  Co  Co127  1  0.25154668  0.20649460  0.71618335  1
  Co  Co128  1  0.48917966  0.48103408  0.40596366  1
  Co  Co129  1  0.45584893  0.89766491  0.97442931  1
  Co  Co130  1  0.83448086  0.43832018  0.53923092  1
  Co  Co131  1  0.27209234  0.06549675  0.82944155  1
  Co  Co132  1  0.32667124  0.84196613  0.07895867  1
  Co  Co133  1  0.72457215  0.31874171  0.09056264  1
  Co  Co134  1  0.24955138  0.90974357  0.76438665  1
  Co  Co135  1  0.07959024  0.24745177  0.64826408  1
  Co  Co136  1  0.18373345  0.21132276  0.87256561  1
  Co  Co137  1  0.29583812  0.30558023  0.20586156  1
  Co  Co138  1  0.70854420  0.51981778  0.63097831  1
  Co  Co139  1  0.81247046  0.27522598  0.65165116  1
  Co  Co140  1  0.69553284  0.05583417  0.44645296  1
  Co  Co141  1  1.02342385  0.05875367  0.52356704  1
  Co  Co142  1  0.51369020  0.49744964  0.88240819  1
  Co  Co143  1  0.49134652  0.32752663  0.64951568  1
  Co  Co144  1  0.15438552  0.38317250  0.90758871  1
  Co  Co145  1  0.54637531  1.00204788  0.40397761  1
  Co  Co146  1  0.41650967  0.63682807  0.65979892  1
  Co  Co147  1  0.81851756  0.87272551  0.07262931  1
  Co  Co148  1  0.94292915  0.51696387  0.41086962  1
  Co  Co149  1  0.64111285  0.38161904  0.84441445  1
  Co  Co150  1  0.54504750  0.47021603  0.57668433  1
  Co  Co151  1  0.33691963  0.75444396  0.75337479  1
  Co  Co152  1  0.93169285  0.18414247  0.58984663  1
  Co  Co153  1  0.49170163  0.74501154  0.04339446  1
  Co  Co154  1  0.57904961  0.61841504  0.66772995  1
  Co  Co155  1  0.57774548  0.03601024  0.56297712  1
  Co  Co156  1  0.14001967  0.96634538  0.64377906  1
  Co  Co157  1  -0.01210134  0.38168535  0.47425882  1
  Co  Co158  1  0.16735767  0.89524809  0.38807340  1
  Co  Co159  1  0.97872801  0.80537602  1.02368847  1
  Co  Co160  1  0.92928922  0.11591601  0.23568907  1
  Co  Co161  1  0.37551603  0.59129669  0.19703536  1
  Ni  Ni162  1  0.66729288  0.22176573  0.42589468  1
  Ni  Ni163  1  0.74902122  0.81845936  0.22079687  1
  Ni  Ni164  1  0.89940272  0.32169298  0.86543881  1
  Ni  Ni165  1  0.08576890  0.88811458  0.13160419  1
  Ni  Ni166  1  0.18812020  0.05585135  0.24587744  1
  Ni  Ni167  1  0.60482009  0.78743085  0.30997470  1
  Ni  Ni168  1  0.11173813  0.90895107  0.96935445  1
  Ni  Ni169  1  0.25747444  0.57802979  0.44103676  1
  Ni  Ni170  1  0.63325782  0.46744605  0.31851824  1
  Ni  Ni171  1  0.91942841  0.35415961  0.03081309  1
  Ni  Ni172  1  0.40568502  0.05371661  0.48490931  1
  Ni  Ni173  1  0.94961169  0.12562709  0.39457823  1
  Ni  Ni174  1  0.93487879  0.11697037  0.92013342  1
  Ni  Ni175  1  0.35545381  0.94050237  0.20784297  1
  Ni  Ni176  1  0.71289935  0.60984017  0.08333095  1
  Ni  Ni177  1  0.82609628  0.56541721  0.20954089  1
  Ni  Ni178  1  0.04001963  0.71107279  0.14713773  1
  Ni  Ni179  1  0.36116891  0.54770407  0.93927653  1
  Ni  Ni180  1  0.59631310  1.00800591  0.08371188  1
  Ni  Ni181  1  0.26096932  -0.02894962  0.51440410  1
  Ni  Ni182  1  0.95034478  0.74556697  0.53205975  1
  Ni  Ni183  1  0.58308143  0.22526981  0.73955651  1
  Ni  Ni184  1  0.05763736  0.06772325  0.12952849  1
  Ni  Ni185  1  0.77292167  0.10599923  0.86360738  1
  Ni  Ni186  1  0.26039479  0.47503005  0.65010080  1
  Ni  Ni187  1  0.81885431  0.70902119  0.77519681  1
  Ni  Ni188  1  0.19222965  0.47404528  0.15883484  1
  Ni  Ni189  1  0.70153533  0.37769787  0.45278614  1
  Ni  Ni190  1  0.64613555  0.70803876  0.46866769  1
  Ni  Ni191  1  0.65140136  0.51322405  0.96691597  1
  Ni  Ni192  1  0.86482629  0.52477677  0.04748895  1
  Ni  Ni193  1  0.99837660  0.87974720  0.70991018  1
  Ni  Ni194  1  0.48253629  0.03713374  0.71186888  1
  Ni  Ni195  1  0.00709615  0.48621966  0.73603208  1
  Ni  Ni196  1  0.57826014  0.31952466  0.17363864  1
  Ni  Ni197  1  0.79431996  0.76504554  0.48595459  1
  Ni  Ni198  1  0.56807936  0.62403771  0.34832227  1
  Ni  Ni199  1  0.07878430  0.39289704  0.05437853  1
  Ni  Ni200  1  0.03967275  0.61096767  0.28143170  1
  Ni  Ni201  1  0.43908462  0.24720722  0.95512770  1
  Ni  Ni202  1  0.09192834  0.69696100  0.82589707  1
  Ni  Ni203  1  0.10151640  0.68755285  0.57313919  1
  Ni  Ni204  1  0.26431700  0.70388523  0.32127958  1
  Ni  Ni205  1  0.31209006  0.30127842  0.85866528  1
  Ni  Ni206  1  0.95552275  0.95743671  0.41764828  1
  Ni  Ni207  1  0.50233234  0.78457928  0.45922957  1
  Ni  Ni208  1  0.72718014  0.98324350  0.61153656  1
  Ni  Ni209  1  0.68215703  0.77047451  0.07698634  1
  Ni  Ni210  1  0.34003475  0.47114918  0.08924476  1
  Ni  Ni211  1  0.26649172  0.35403359  0.43433619  1
  Ni  Ni212  1  0.48254914  0.20541618  0.23948740  1
  Ni  Ni213  1  0.01861423  0.82119956  0.33977766  1
  Ni  Ni214  1  0.95134408  0.61541437  0.83345312  1
  Ni  Ni215  1  0.11651195  0.53675806  0.85513596  1
