# generated using pymatgen
data_Ti2CoNi
_symmetry_space_group_name_H-M   'P 1'
_cell_length_a   14.64268501
_cell_length_b   14.62182062
_cell_length_c   14.65442645
_cell_angle_alpha   90.14750811
_cell_angle_beta   89.78558526
_cell_angle_gamma   89.95784982
_symmetry_Int_Tables_number   1
_chemical_formula_structural   Ti2CoNi
_chemical_formula_sum   'Ti108 Co54 Ni54'
_cell_volume   3137.51922985
_cell_formula_units_Z   54
loop_
 _symmetry_equiv_pos_site_id
 _symmetry_equiv_pos_as_xyz
  1  'x, y, z'
loop_
 _atom_site_type_symbol
 _atom_site_label
 _atom_site_symmetry_multiplicity
 _atom_site_fract_x
 _atom_site_fract_y
 _atom_site_fract_z
 _atom_site_occupancy
  Ti  Ti0  1  0.02511515  0.00514496  -0.04384592  1
  Ti  Ti1  1  0.03322508  0.08370340  0.30278892  1
  Ti  Ti2  1  -0.03572086  -0.07252516  0.64907717  1
  Ti  Ti3  1  0.04231526  0.31428404  -0.01954779  1
  Ti  Ti4  1  -0.03791143  0.39581885  0.35153098  1
  Ti  Ti5  1  0.05167877  0.30633185  0.75857984  1
  Ti  Ti6  1  0.03762936  0.70432621  0.08985901  1
  Ti  Ti7  1  0.06638543  0.66843908  0.32027132  1
  Ti  Ti8  1  0.02124024  0.70192457  0.65539225  1
  Ti  Ti9  1  0.33541277  0.04711411  -0.03136366  1
  Ti  Ti10  1  0.39003641  -0.01106479  0.31513716  1
  Ti  Ti11  1  0.28828069  -0.01533554  0.65539156  1
  Ti  Ti12  1  0.41849431  0.29608046  -0.02961235  1
  Ti  Ti13  1  0.29003709  0.36707010  0.37332128  1
  Ti  Ti14  1  0.27017956  0.32676107  0.72197541  1
  Ti  Ti15  1  0.34993778  0.67308822  -0.08894354  1
  Ti  Ti16  1  0.32930279  0.63887283  0.37589791  1
  Ti  Ti17  1  0.32314019  0.66264564  0.60825075  1
  Ti  Ti18  1  0.62063440  -0.00876967  0.00369101  1
  Ti  Ti19  1  0.72828593  0.03236365  0.29249802  1
  Ti  Ti20  1  0.71376580  0.07650108  0.67666969  1
  Ti  Ti21  1  0.63812817  0.34288205  0.07173008  1
  Ti  Ti22  1  0.67430884  0.36342127  0.33191060  1
  Ti  Ti23  1  0.70250013  0.38500682  0.67808320  1
  Ti  Ti24  1  0.54812659  0.66278153  -0.02787077  1
  Ti  Ti25  1  0.63802865  0.70250640  0.36840639  1
  Ti  Ti26  1  0.72651988  0.61149261  0.62043163  1
  Ti  Ti27  1  -0.02138245  0.17965530  0.13447391  1
  Ti  Ti28  1  -0.05393479  0.11178487  0.51118039  1
  Ti  Ti29  1  -0.00291238  0.10519242  0.77889497  1
  Ti  Ti30  1  -0.01732073  0.54478856  0.18831969  1
  Ti  Ti31  1  0.01999906  0.53893523  0.49118232  1
  Ti  Ti32  1  0.01880743  0.48569602  0.85001422  1
  Ti  Ti33  1  0.05202350  0.86148085  0.23491811  1
  Ti  Ti34  1  -0.04145584  0.78072355  0.46146105  1
  Ti  Ti35  1  -0.00727280  0.80581925  0.92112702  1
  Ti  Ti36  1  0.33185610  0.17702701  0.20443720  1
  Ti  Ti37  1  0.39528991  0.21859978  0.46411329  1
  Ti  Ti38  1  0.36692853  0.12723229  0.75457595  1
  Ti  Ti39  1  0.29856025  0.51354526  0.21883525  1
  Ti  Ti40  1  0.26578330  0.50106153  0.51879812  1
  Ti  Ti41  1  0.27632887  0.55815147  0.75532917  1
  Ti  Ti42  1  0.32729099  0.86948936  0.10347642  1
  Ti  Ti43  1  0.29319163  0.81388960  0.48725907  1
  Ti  Ti44  1  0.35312277  0.87422511  0.81584140  1
  Ti  Ti45  1  0.64680690  0.13114557  0.14621002  1
  Ti  Ti46  1  0.62748280  0.17597770  0.45485464  1
  Ti  Ti47  1  0.67737612  0.23614298  0.79977994  1
  Ti  Ti48  1  0.72241912  0.51143913  0.13959977  1
  Ti  Ti49  1  0.62185835  0.53523380  0.47214006  1
  Ti  Ti50  1  0.66025737  0.50430492  0.92418614  1
  Ti  Ti51  1  0.69626132  0.79221999  0.05373392  1
  Ti  Ti52  1  0.63728513  0.88956952  0.57923298  1
  Ti  Ti53  1  0.64615597  0.84792320  0.86548093  1
  Ti  Ti54  1  0.20912948  -0.00708203  0.20267469  1
  Ti  Ti55  1  0.27012599  0.04315081  0.47479044  1
  Ti  Ti56  1  0.18789574  0.03049691  0.83664056  1
  Ti  Ti57  1  0.14489018  0.30231963  0.13274272  1
  Ti  Ti58  1  0.08951627  0.28433217  0.53015105  1
  Ti  Ti59  1  0.22248737  0.33734218  0.92913607  1
  Ti  Ti60  1  0.24430329  0.67938349  0.07847933  1
  Ti  Ti61  1  0.15687183  0.68929293  0.48012654  1
  Ti  Ti62  1  0.14112859  0.63859236  0.91145321  1
  Ti  Ti63  1  0.46715244  0.02577362  0.13761841  1
  Ti  Ti64  1  0.44123707  -0.07004861  0.52127402  1
  Ti  Ti65  1  0.50672245  -0.00287102  0.84293685  1
  Ti  Ti66  1  0.44184251  0.40038708  0.13907210  1
  Ti  Ti67  1  0.54730497  0.35493043  0.55323842  1
  Ti  Ti68  1  0.48206099  0.31488460  0.77991226  1
  Ti  Ti69  1  0.53078393  0.68169897  0.18267734  1
  Ti  Ti70  1  0.47686103  0.73206533  0.50181920  1
  Ti  Ti71  1  0.58513942  0.62759190  0.76611272  1
  Ti  Ti72  1  0.90339678  -0.00850911  0.18706483  1
  Ti  Ti73  1  0.82197039  -0.03859255  0.50590136  1
  Ti  Ti74  1  0.85352194  -0.03484720  0.82166813  1
  Ti  Ti75  1  0.84000544  0.33659705  0.18215029  1
  Ti  Ti76  1  0.83970389  0.28517692  0.50629625  1
  Ti  Ti77  1  0.82286844  0.39205785  0.84002857  1
  Ti  Ti78  1  0.77480133  0.68248011  0.21912131  1
  Ti  Ti79  1  0.80357196  0.66025315  0.43645944  1
  Ti  Ti80  1  0.82266949  0.67143235  0.77618228  1
  Ti  Ti81  1  0.16592194  0.14190633  0.02554140  1
  Ti  Ti82  1  0.15185375  0.23966376  0.32360808  1
  Ti  Ti83  1  0.13681540  0.12260349  0.60962250  1
  Ti  Ti84  1  0.15545831  0.49448791  0.06777043  1
  Ti  Ti85  1  0.12444295  0.43537861  0.26649889  1
  Ti  Ti86  1  0.11561721  0.44742697  0.64796627  1
  Ti  Ti87  1  0.19016970  0.83983277  -0.07740428  1
  Ti  Ti88  1  0.23235467  0.77776243  0.26639889  1
  Ti  Ti89  1  0.13753542  0.89749414  0.55067612  1
  Ti  Ti90  1  0.58858412  0.17780399  -0.03684326  1
  Ti  Ti91  1  0.52124082  0.17584089  0.29119070  1
  Ti  Ti92  1  0.51116266  0.17727686  0.62324255  1
  Ti  Ti93  1  0.46219572  0.47994067  -0.05069162  1
  Ti  Ti94  1  0.47173331  0.46512859  0.36069966  1
  Ti  Ti95  1  0.43725481  0.47937756  0.66376051  1
  Ti  Ti96  1  0.52487402  0.84187133  0.07372934  1
  Ti  Ti97  1  0.55863616  0.87378509  0.36134480  1
  Ti  Ti98  1  0.51620371  0.81058019  0.69997819  1
  Ti  Ti99  1  0.81505722  0.11984760  -0.01989965  1
  Ti  Ti100  1  0.86940023  0.19104932  0.32329272  1
  Ti  Ti101  1  0.84925084  0.24721812  0.70117599  1
  Ti  Ti102  1  0.84688902  0.56328775  -0.04922253  1
  Ti  Ti103  1  0.81192265  0.47276310  0.42673990  1
  Ti  Ti104  1  0.91596509  0.50240455  0.68898683  1
  Ti  Ti105  1  0.87439973  0.81743408  0.08533808  1
  Ti  Ti106  1  0.79397885  0.84621457  0.33322374  1
  Ti  Ti107  1  0.82262937  0.78320627  0.60770134  1
  Co  Co108  1  0.45716334  0.86145216  0.22172489  1
  Co  Co109  1  0.42352295  0.15166375  0.05148934  1
  Co  Co110  1  0.01065746  0.28168510  0.24772186  1
  Co  Co111  1  0.11579310  0.97173946  0.36864978  1
  Co  Co112  1  0.40433923  0.30161161  0.63208115  1
  Co  Co113  1  0.11143835  -0.00613017  0.68797083  1
  Co  Co114  1  0.10271381  0.81974949  0.39717357  1
  Co  Co115  1  0.10716059  0.10721285  0.44893134  1
  Co  Co116  1  0.00356688  0.96020976  0.48838373  1
  Co  Co117  1  0.60398537  0.50269422  0.63106077  1
  Co  Co118  1  0.18547288  0.75690478  0.63829786  1
  Co  Co119  1  0.98546166  0.15189872  0.97633414  1
  Co  Co120  1  0.84944297  0.72679703  0.94718919  1
  Co  Co121  1  0.40946837  0.73656991  0.05068708  1
  Co  Co122  1  0.74840355  0.27251442  0.93723328  1
  Co  Co123  1  0.45311048  -0.03330455  0.68735260  1
  Co  Co124  1  0.15963673  0.59550245  0.60832323  1
  Co  Co125  1  0.76975799  0.87730827  0.18845457  1
  Co  Co126  1  0.29119422  0.24526137  0.06396846  1
  Co  Co127  1  0.30222828  0.41604407  0.05443673  1
  Co  Co128  1  0.27248095  0.34734794  0.20821359  1
  Co  Co129  1  0.57427546  0.45600478  0.78629547  1
  Co  Co130  1  0.45384837  0.54813452  0.22404528  1
  Co  Co131  1  0.09013711  0.76541121  0.78916597  1
  Co  Co132  1  0.55628947  0.02462861  0.29545934  1
  Co  Co133  1  0.79798347  0.47135901  0.58310978  1
  Co  Co134  1  0.63535356  0.79621447  0.22963748  1
  Co  Co135  1  0.20059131  0.87740680  0.74842400  1
  Co  Co136  1  0.87635895  0.06727016  0.66446451  1
  Co  Co137  1  0.36090361  0.69681086  0.20914943  1
  Co  Co138  1  0.23269868  0.20579036  0.45877870  1
  Co  Co139  1  0.62474416  0.94707897  0.73381606  1
  Co  Co140  1  0.03984344  0.92688462  0.81486966  1
  Co  Co141  1  0.23031984  0.09166098  0.32540416  1
  Co  Co142  1  0.69574289  0.36630923  0.49879025  1
  Co  Co143  1  0.87967304  0.64302107  0.09871590  1
  Co  Co144  1  0.10958755  0.60038923  0.75743239  1
  Co  Co145  1  0.71964727  0.63739240  0.04218103  1
  Co  Co146  1  -0.01695616  0.21497837  0.63494219  1
  Co  Co147  1  0.77598721  0.41066819  0.02197343  1
  Co  Co148  1  0.44491125  0.15921468  0.88873657  1
  Co  Co149  1  0.39782440  0.39831136  0.49703457  1
  Co  Co150  1  0.92182006  0.40681991  0.96584290  1
  Co  Co151  1  0.26952996  0.53254847  0.94707035  1
  Co  Co152  1  0.28005967  0.18640483  0.89448510  1
  Co  Co153  1  0.44310005  0.55615555  0.81501652  1
  Co  Co154  1  -0.00470223  0.39265144  0.12688782  1
  Co  Co155  1  0.24733641  0.72682907  0.79100192  1
  Co  Co156  1  0.82027804  0.13389060  0.81634845  1
  Co  Co157  1  0.39841092  0.80081865  0.36363401  1
  Co  Co158  1  0.87518490  0.26803826  0.03901689  1
  Co  Co159  1  0.78522975  0.92036626  0.68146363  1
  Co  Co160  1  1.00095651  0.24079456  0.40372407  1
  Co  Co161  1  0.73960058  0.52402556  0.77344999  1
  Ni  Ni162  1  0.20080966  0.18120583  0.74613841  1
  Ni  Ni163  1  0.78014646  0.11635583  0.44722592  1
  Ni  Ni164  1  0.62211357  0.94995362  0.17126249  1
  Ni  Ni165  1  0.72857828  0.81274211  0.47142147  1
  Ni  Ni166  1  0.52252902  0.31060697  0.39756533  1
  Ni  Ni167  1  0.35088092  0.82527518  0.65028781  1
  Ni  Ni168  1  0.68164458  0.04984358  0.85839284  1
  Ni  Ni169  1  0.92682515  0.59022685  0.35327615  1
  Ni  Ni170  1  0.76253487  0.00973548  0.10053475  1
  Ni  Ni171  1  1.01968714  0.89022509  0.07248003  1
  Ni  Ni172  1  0.18836808  0.54888044  0.37111303  1
  Ni  Ni173  1  0.16506858  0.82524927  0.10701746  1
  Ni  Ni174  1  0.30502914  0.16848467  0.60590764  1
  Ni  Ni175  1  0.97344703  0.65348059  0.84010495  1
  Ni  Ni176  1  0.92132553  0.80867592  0.76529099  1
  Ni  Ni177  1  0.43279953  0.91617304  0.96840956  1
  Ni  Ni178  1  0.48203470  0.07172418  0.44099906  1
  Ni  Ni179  1  0.94354580  0.91803736  0.34700999  1
  Ni  Ni180  1  0.55460586  0.13412891  0.77098289  1
  Ni  Ni181  1  0.58632236  0.44135338  0.21715021  1
  Ni  Ni182  1  0.41636015  0.30659399  0.27466600  1
  Ni  Ni183  1  0.56416187  0.03493033  0.58014364  1
  Ni  Ni184  1  0.92267515  0.74950973  0.27088347  1
  Ni  Ni185  1  0.89290087  0.62637469  0.57303799  1
  Ni  Ni186  1  0.69163591  0.22920019  0.60166964  1
  Ni  Ni187  1  0.83966698  0.49234565  0.25500400  1
  Ni  Ni188  1  0.48756251  0.78885384  0.88090905  1
  Ni  Ni189  1  0.25287645  0.33733193  0.55571093  1
  Ni  Ni190  1  0.18885834  0.97311351  0.02674695  1
  Ni  Ni191  1  0.10651227  0.19225075  0.87531756  1
  Ni  Ni192  1  0.77401232  0.92057383  0.95943582  1
  Ni  Ni193  1  0.34375784  0.42006682  0.84192692  1
  Ni  Ni194  1  0.65319299  0.99735708  0.44083693  1
  Ni  Ni195  1  0.59144278  0.34454710  0.91081810  1
  Ni  Ni196  1  0.70716882  0.20638415  0.29014257  1
  Ni  Ni197  1  0.62556873  0.72093854  0.56130470  1
  Ni  Ni198  1  0.69511880  0.54811066  0.31524136  1
  Ni  Ni199  1  0.49195260  0.63631976  0.35807112  1
  Ni  Ni200  1  0.12438247  0.41126678  0.43898941  1
  Ni  Ni201  1  0.43750229  0.56295809  0.50397548  1
  Ni  Ni202  1  0.00621639  0.54316676  1.01348884  1
  Ni  Ni203  1  0.69777244  0.68576678  0.88572936  1
  Ni  Ni204  1  0.25770074  0.91023057  0.36269457  1
  Ni  Ni205  1  0.06630704  0.03521576  0.13052133  1
  Ni  Ni206  1  0.17365020  0.44710081  0.81611252  1
  Ni  Ni207  1  0.40776174  0.69984617  0.75213323  1
  Ni  Ni208  1  0.92232200  0.25588899  0.86788775  1
  Ni  Ni209  1  0.68657538  0.77589304  0.71570824  1
  Ni  Ni210  1  0.38305927  0.57332646  0.07528653  1
  Ni  Ni211  1  0.95582876  0.39095465  0.56379195  1
  Ni  Ni212  1  0.55993093  0.53524957  0.08196449  1
  Ni  Ni213  1  0.51741209  0.24427272  0.13770657  1
  Ni  Ni214  1  0.16348638  0.60882144  0.20494093  1
  Ni  Ni215  1  0.81340725  0.15186865  0.16926509  1
