# generated using pymatgen
data_Ti2CoNi
_symmetry_space_group_name_H-M   'P 1'
_cell_length_a   14.64959602
_cell_length_b   14.67115165
_cell_length_c   14.66238708
_cell_angle_alpha   90.29235998
_cell_angle_beta   89.86842787
_cell_angle_gamma   90.05913530
_symmetry_Int_Tables_number   1
_chemical_formula_structural   Ti2CoNi
_chemical_formula_sum   'Ti108 Co54 Ni54'
_cell_volume   3151.28375324
_cell_formula_units_Z   54
loop_
 _symmetry_equiv_pos_site_id
 _symmetry_equiv_pos_as_xyz
  1  'x, y, z'
loop_
 _atom_site_type_symbol
 _atom_site_label
 _atom_site_symmetry_multiplicity
 _atom_site_fract_x
 _atom_site_fract_y
 _atom_site_fract_z
 _atom_site_occupancy
  Ti  Ti0  1  -0.00758890  -0.03998095  -0.00378335  1
  Ti  Ti1  1  -0.04328578  -0.02138117  0.32978762  1
  Ti  Ti2  1  -0.05627455  0.08623768  0.67722575  1
  Ti  Ti3  1  0.00865343  0.27705509  -0.04262447  1
  Ti  Ti4  1  -0.02385753  0.30479220  0.30813280  1
  Ti  Ti5  1  -0.01130289  0.29222999  0.58595184  1
  Ti  Ti6  1  -0.04909167  0.66482306  -0.00594065  1
  Ti  Ti7  1  0.01588540  0.63033086  0.35269633  1
  Ti  Ti8  1  0.01802867  0.62239172  0.69632976  1
  Ti  Ti9  1  0.34464214  -0.04181345  -0.02371262  1
  Ti  Ti10  1  0.36433371  -0.07729638  0.40739138  1
  Ti  Ti11  1  0.34283597  -0.06380632  0.60974659  1
  Ti  Ti12  1  0.36853519  0.30729746  0.04022771  1
  Ti  Ti13  1  0.28145324  0.36080888  0.32345270  1
  Ti  Ti14  1  0.27892286  0.34883560  0.73209943  1
  Ti  Ti15  1  0.32609981  0.75520435  0.02371502  1
  Ti  Ti16  1  0.38198253  0.62921369  0.32787946  1
  Ti  Ti17  1  0.35113778  0.60417120  0.67794347  1
  Ti  Ti18  1  0.70341742  0.00193897  -0.05496146  1
  Ti  Ti19  1  0.61552668  -0.01121618  0.33934771  1
  Ti  Ti20  1  0.67730629  -0.03263688  0.71281243  1
  Ti  Ti21  1  0.69826315  0.32733655  0.02496162  1
  Ti  Ti22  1  0.74082264  0.28362675  0.30704845  1
  Ti  Ti23  1  0.70067240  0.38938446  0.71335432  1
  Ti  Ti24  1  0.65262529  0.64175910  0.06488590  1
  Ti  Ti25  1  0.59272896  0.68492852  0.33549496  1
  Ti  Ti26  1  0.67251656  0.68470973  0.68030360  1
  Ti  Ti27  1  0.00484830  0.24314434  0.13874052  1
  Ti  Ti28  1  0.01984230  0.15285773  0.46061314  1
  Ti  Ti29  1  -0.02938855  0.26622819  0.77201230  1
  Ti  Ti30  1  0.02744256  0.49687923  0.12243300  1
  Ti  Ti31  1  -0.04470582  0.44518397  0.44737584  1
  Ti  Ti32  1  0.02410832  0.46011060  0.78955919  1
  Ti  Ti33  1  0.01439397  0.72988901  0.17273850  1
  Ti  Ti34  1  -0.01949571  0.82290743  0.53266670  1
  Ti  Ti35  1  0.06823656  0.84518754  0.83823813  1
  Ti  Ti36  1  0.35008045  0.12801964  0.22274182  1
  Ti  Ti37  1  0.33370025  0.12923840  0.55670793  1
  Ti  Ti38  1  0.40279274  0.12584108  0.88021614  1
  Ti  Ti39  1  0.30719194  0.60729916  0.12908458  1
  Ti  Ti40  1  0.27867081  0.52296182  0.46470285  1
  Ti  Ti41  1  0.36278822  0.50236800  0.85009005  1
  Ti  Ti42  1  0.31610404  0.89306768  0.20426442  1
  Ti  Ti43  1  0.33104215  0.72770576  0.52023356  1
  Ti  Ti44  1  0.25970266  0.84501403  0.85069517  1
  Ti  Ti45  1  0.64352565  0.22482732  0.17052689  1
  Ti  Ti46  1  0.66996342  0.10202822  0.50200945  1
  Ti  Ti47  1  0.65191674  0.18848259  0.78636640  1
  Ti  Ti48  1  0.73603488  0.55502340  0.22875912  1
  Ti  Ti49  1  0.61663704  0.39188143  0.50240532  1
  Ti  Ti50  1  0.74721802  0.50856723  0.86319651  1
  Ti  Ti51  1  0.65823494  0.93954819  0.14367747  1
  Ti  Ti52  1  0.71712641  0.82977627  0.41627197  1
  Ti  Ti53  1  0.65201729  0.68834141  0.87920769  1
  Ti  Ti54  1  0.11228365  0.04380091  0.16105152  1
  Ti  Ti55  1  0.12235515  -0.03696540  0.48362646  1
  Ti  Ti56  1  0.24481418  0.02375161  0.77410589  1
  Ti  Ti57  1  0.25353557  0.43494601  0.14050494  1
  Ti  Ti58  1  0.18000510  0.36211950  0.51850179  1
  Ti  Ti59  1  0.15241845  0.32879917  0.86180840  1
  Ti  Ti60  1  0.19926154  0.71941829  0.22789081  1
  Ti  Ti61  1  0.11304636  0.67881089  0.52194757  1
  Ti  Ti62  1  0.18415449  0.66442688  0.79468099  1
  Ti  Ti63  1  0.45020597  0.00564933  0.12594792  1
  Ti  Ti64  1  0.52494535  -0.01450896  0.55095036  1
  Ti  Ti65  1  0.53507837  0.00141116  0.81947997  1
  Ti  Ti66  1  0.47793722  0.36421155  0.18695857  1
  Ti  Ti67  1  0.42852182  0.31132001  0.45335480  1
  Ti  Ti68  1  0.47116598  0.31429429  0.87769871  1
  Ti  Ti69  1  0.48583864  0.66367769  0.14750604  1
  Ti  Ti70  1  0.55414184  0.70600393  0.52969856  1
  Ti  Ti71  1  0.48646542  0.65828762  0.80528354  1
  Ti  Ti72  1  0.84533589  -0.01576351  0.14913085  1
  Ti  Ti73  1  0.79714052  -0.04741265  0.57444548  1
  Ti  Ti74  1  0.82017957  0.09662840  0.81741253  1
  Ti  Ti75  1  0.83704531  0.38606056  0.17237556  1
  Ti  Ti76  1  0.81284036  0.37686641  0.57106340  1
  Ti  Ti77  1  0.80887993  0.30478262  0.86277101  1
  Ti  Ti78  1  0.78691061  0.73115906  0.14769756  1
  Ti  Ti79  1  0.76177742  0.62678369  0.49080028  1
  Ti  Ti80  1  0.83838039  0.71808505  0.80950081  1
  Ti  Ti81  1  0.19439585  0.20071110  0.05493590  1
  Ti  Ti82  1  0.17212483  0.19826394  0.30609201  1
  Ti  Ti83  1  0.12122086  0.16231011  0.71010629  1
  Ti  Ti84  1  0.19977219  0.55935332  -0.02416779  1
  Ti  Ti85  1  0.11180705  0.45475059  0.31853664  1
  Ti  Ti86  1  0.17819885  0.51079565  0.64903368  1
  Ti  Ti87  1  0.16427790  0.85490573  0.08565950  1
  Ti  Ti88  1  0.14288696  0.89514891  0.29231295  1
  Ti  Ti89  1  0.18989296  0.85682560  0.65650181  1
  Ti  Ti90  1  0.51375222  0.17656816  0.05626690  1
  Ti  Ti91  1  0.54959267  0.17507370  0.34274423  1
  Ti  Ti92  1  0.45146056  0.21555091  0.69355602  1
  Ti  Ti93  1  0.54248684  0.51472245  -0.04095964  1
  Ti  Ti94  1  0.56676670  0.49117416  0.31314342  1
  Ti  Ti95  1  0.51677768  0.50783742  0.63759248  1
  Ti  Ti96  1  0.48763395  0.83375760  -0.08938697  1
  Ti  Ti97  1  0.49774681  0.84392005  0.25476833  1
  Ti  Ti98  1  0.50658699  0.82981986  0.70250828  1
  Ti  Ti99  1  0.88060466  0.12526091  0.01519464  1
  Ti  Ti100  1  0.85792862  0.14119593  0.31843433  1
  Ti  Ti101  1  0.83595938  0.17258248  0.54102652  1
  Ti  Ti102  1  0.89811895  0.45348840  -0.02928221  1
  Ti  Ti103  1  0.76645961  0.44387376  0.38119990  1
  Ti  Ti104  1  0.84003237  0.54931436  0.67170340  1
  Ti  Ti105  1  0.76642999  0.81879472  -0.02444421  1
  Ti  Ti106  1  0.87809323  0.80981382  0.28739214  1
  Ti  Ti107  1  0.91048192  0.88192926  0.71582287  1
  Co  Co108  1  0.96031693  0.09537154  0.18708694  1
  Co  Co109  1  0.70142121  0.08910891  0.08666130  1
  Co  Co110  1  0.93048883  0.97981484  0.84379775  1
  Co  Co111  1  0.91640037  0.82687462  0.90292791  1
  Co  Co112  1  0.87059359  0.41192226  0.75115251  1
  Co  Co113  1  0.28614893  0.17989851  0.76207580  1
  Co  Co114  1  0.54248267  0.36130162  0.03400504  1
  Co  Co115  1  0.29184590  0.24471191  0.90978237  1
  Co  Co116  1  0.82761190  0.25189992  0.69541517  1
  Co  Co117  1  0.38883614  0.60497856  0.97549581  1
  Co  Co118  1  0.44775467  1.00784378  0.29253584  1
  Co  Co119  1  0.56680939  0.51259444  0.13454854  1
  Co  Co120  1  0.04726289  0.79467955  -0.00575054  1
  Co  Co121  1  0.27235488  0.52127645  0.28571663  1
  Co  Co122  1  0.06205940  0.60918779  0.88779013  1
  Co  Co123  1  0.56518385  0.32220257  0.74323945  1
  Co  Co124  1  0.75250104  0.10575922  0.66251337  1
  Co  Co125  1  0.21794681  0.84019157  0.48676522  1
  Co  Co126  1  0.86426879  0.56996872  0.37787436  1
  Co  Co127  1  0.14117570  0.57185345  0.20741118  1
  Co  Co128  1  0.77831119  0.95296036  0.29360517  1
  Co  Co129  1  0.57401618  0.07726981  0.19926134  1
  Co  Co130  1  0.34762568  0.77827210  0.70447010  1
  Co  Co131  1  0.19106374  0.49257798  0.81567705  1
  Co  Co132  1  0.13313688  0.17129888  0.87367073  1
  Co  Co133  1  0.05727689  0.11323773  0.01675632  1
  Co  Co134  1  0.12296404  0.66149764  0.07511402  1
  Co  Co135  1  0.42875689  0.40370356  0.73150310  1
  Co  Co136  1  0.15812300  0.95460312  0.96247871  1
  Co  Co137  1  0.75065236  0.82142009  0.70080012  1
  Co  Co138  1  0.25974823  1.01771121  0.10958327  1
  Co  Co139  1  0.66766190  0.25199388  0.62124554  1
  Co  Co140  1  0.87155098  0.88492452  0.43533677  1
  Co  Co141  1  0.18291694  0.73243573  0.94326999  1
  Co  Co142  1  1.06348321  0.45895227  0.94763678  1
  Co  Co143  1  0.93663587  0.46947504  0.26991154  1
  Co  Co144  1  0.89760890  0.63587677  0.23639582  1
  Co  Co145  1  0.40586293  0.46958863  0.04865352  1
  Co  Co146  1  0.41967916  0.51418682  0.20990367  1
  Co  Co147  1  0.76062496  0.68909391  0.32238056  1
  Co  Co148  1  0.97568457  0.13138421  0.86575475  1
  Co  Co149  1  0.63141045  0.85133816  0.57999304  1
  Co  Co150  1  0.49839373  0.34389408  0.59944234  1
  Co  Co151  1  0.56165264  0.86254397  0.42324427  1
  Co  Co152  1  0.35235352  0.13865882  0.04700287  1
  Co  Co153  1  0.08564390  0.01527562  0.82610637  1
  Co  Co154  1  0.51180479  0.69706428  0.98469944  1
  Co  Co155  1  0.45559007  0.83509286  0.54742911  1
  Co  Co156  1  0.33818381  0.45838915  0.60033832  1
  Co  Co157  1  0.78841544  0.90779675  0.83378681  1
  Co  Co158  1  0.29243568  0.27422779  0.18232274  1
  Co  Co159  1  0.78134541  0.78265728  0.55190531  1
  Co  Co160  1  0.24448663  0.08564662  0.93800998  1
  Co  Co161  1  0.89046399  0.72438286  0.43408368  1
  Ni  Ni162  1  0.87419173  0.29277181  0.43373557  1
  Ni  Ni163  1  0.54571296  0.97006138  -0.00271341  1
  Ni  Ni164  1  0.32999103  0.29357764  0.58746164  1
  Ni  Ni165  1  0.90499598  0.56887437  0.83887919  1
  Ni  Ni166  1  0.67062993  0.81452018  0.25222381  1
  Ni  Ni167  1  0.19740721  0.04334376  0.60560152  1
  Ni  Ni168  1  0.70751957  0.26283938  0.46211221  1
  Ni  Ni169  1  0.66433464  0.39760511  0.19813319  1
  Ni  Ni170  1  0.27039441  0.23696893  0.44017874  1
  Ni  Ni171  1  0.13597284  0.32689251  0.20841316  1
  Ni  Ni172  1  0.81224719  0.03380291  0.43193843  1
  Ni  Ni173  1  0.09304155  0.06256562  0.34061884  1
  Ni  Ni174  1  0.00678977  0.90536625  0.17922936  1
  Ni  Ni175  1  0.43489872  0.57729848  0.50015642  1
  Ni  Ni176  1  0.05497664  0.95888354  0.65904175  1
  Ni  Ni177  1  0.61038612  0.54225162  0.77730714  1
  Ni  Ni178  1  0.41394961  0.45713880  0.36610943  1
  Ni  Ni179  1  0.42748633  0.05118393  0.69780014  1
  Ni  Ni180  1  0.68564285  0.52230048  0.60846199  1
  Ni  Ni181  1  0.11230184  0.34884524  0.68503701  1
  Ni  Ni182  1  0.63192320  0.38333283  0.88131056  1
  Ni  Ni183  1  0.18945802  0.63457518  0.37473443  1
  Ni  Ni184  1  0.41728003  0.26157833  0.29385606  1
  Ni  Ni185  1  0.04856355  0.77859995  0.68219061  1
  Ni  Ni186  1  0.63627327  0.84400968  0.82770642  1
  Ni  Ni187  1  0.85924385  0.55386148  0.10435064  1
  Ni  Ni188  1  0.53737295  0.20176859  0.51979773  1
  Ni  Ni189  1  0.61416626  0.80785746  0.05003161  1
  Ni  Ni190  1  0.81929220  0.19993083  0.16445496  1
  Ni  Ni191  1  0.44742015  0.75858791  0.39884484  1
  Ni  Ni192  1  0.79170822  0.62775616  0.96800468  1
  Ni  Ni193  1  0.73366125  0.17695598  0.94928160  1
  Ni  Ni194  1  0.60527260  0.55780824  0.46543429  1
  Ni  Ni195  1  0.58086286  0.12275043  0.92274853  1
  Ni  Ni196  1  0.90465935  0.82789155  0.07717238  1
  Ni  Ni197  1  0.45130004  0.08179321  0.43821303  1
  Ni  Ni198  1  0.15249269  0.20450042  0.55374994  1
  Ni  Ni199  1  0.28782009  0.77822526  0.35270774  1
  Ni  Ni200  1  0.38773211  0.92473254  0.79194414  1
  Ni  Ni201  1  0.99904758  0.45959666  0.61699348  1
  Ni  Ni202  1  0.27214436  0.40716175  0.94776700  1
  Ni  Ni203  1  -0.04780287  0.59803783  0.53072415  1
  Ni  Ni204  1  0.86488873  0.29368622  0.03290789  1
  Ni  Ni205  1  0.24969168  0.02471710  0.30477620  1
  Ni  Ni206  1  0.88370529  0.71107152  0.64158070  1
  Ni  Ni207  1  0.10186788  0.51747772  0.48195454  1
  Ni  Ni208  1  0.71770673  0.48746991  0.04635848  1
  Ni  Ni209  1  0.95816133  0.00422537  0.52421814  1
  Ni  Ni210  1  0.58265161  0.10598290  0.65574059  1
  Ni  Ni211  1  0.33473088  0.69451440  0.85613817  1
  Ni  Ni212  1  0.08858918  0.77997477  0.39016334  1
  Ni  Ni213  1  0.13658628  0.36061468  0.04752681  1
  Ni  Ni214  1  0.21268915  0.69271359  0.64112520  1
  Ni  Ni215  1  0.45576600  0.84256365  0.08516033  1
