# generated using pymatgen
data_Ti2CoNi
_symmetry_space_group_name_H-M   'P 1'
_cell_length_a   14.56763753
_cell_length_b   14.56285597
_cell_length_c   14.49045406
_cell_angle_alpha   90.20739348
_cell_angle_beta   90.14928521
_cell_angle_gamma   89.78199287
_symmetry_Int_Tables_number   1
_chemical_formula_structural   Ti2CoNi
_chemical_formula_sum   'Ti108 Co54 Ni54'
_cell_volume   3074.04504970
_cell_formula_units_Z   54
loop_
 _symmetry_equiv_pos_site_id
 _symmetry_equiv_pos_as_xyz
  1  'x, y, z'
loop_
 _atom_site_type_symbol
 _atom_site_label
 _atom_site_symmetry_multiplicity
 _atom_site_fract_x
 _atom_site_fract_y
 _atom_site_fract_z
 _atom_site_occupancy
  Ti  Ti0  1  0.03560920  -0.00913443  0.01516551  1
  Ti  Ti1  1  0.02804870  0.04852108  0.32639157  1
  Ti  Ti2  1  -0.01886840  0.02349553  0.65642050  1
  Ti  Ti3  1  0.00080801  0.24247326  -0.02458840  1
  Ti  Ti4  1  -0.04085999  0.39207259  0.30848953  1
  Ti  Ti5  1  0.00504029  0.30225612  0.63292727  1
  Ti  Ti6  1  0.05469296  0.63932131  0.03733134  1
  Ti  Ti7  1  0.03039645  0.62942952  0.34389101  1
  Ti  Ti8  1  0.07400538  0.71336821  0.68578847  1
  Ti  Ti9  1  0.31258362  -0.10644451  0.01920819  1
  Ti  Ti10  1  0.34926571  -0.03380416  0.33602867  1
  Ti  Ti11  1  0.39257254  0.00638267  0.66416809  1
  Ti  Ti12  1  0.30721672  0.37313051  -0.00885195  1
  Ti  Ti13  1  0.34057698  0.29758987  0.28849771  1
  Ti  Ti14  1  0.37983128  0.26195255  0.67989367  1
  Ti  Ti15  1  0.36084530  0.57872483  -0.05032969  1
  Ti  Ti16  1  0.37610102  0.64523668  0.30298245  1
  Ti  Ti17  1  0.31250261  0.69098355  0.67666303  1
  Ti  Ti18  1  0.72543726  -0.01846415  0.05973015  1
  Ti  Ti19  1  0.65451938  0.03846688  0.27991516  1
  Ti  Ti20  1  0.70028845  0.01257386  0.66934765  1
  Ti  Ti21  1  0.66197710  0.34041066  -0.04030860  1
  Ti  Ti22  1  0.73752806  0.39318483  0.34572221  1
  Ti  Ti23  1  0.59923994  0.31752714  0.69727057  1
  Ti  Ti24  1  0.72318073  0.72599580  0.04087026  1
  Ti  Ti25  1  0.68019190  0.66173381  0.30398303  1
  Ti  Ti26  1  0.51223571  0.65073552  0.71229623  1
  Ti  Ti27  1  0.08147602  0.17567229  0.16436993  1
  Ti  Ti28  1  -0.04073063  0.14658155  0.52099772  1
  Ti  Ti29  1  -0.02008906  0.17391280  0.76808662  1
  Ti  Ti30  1  -0.00085043  0.46029150  0.09171432  1
  Ti  Ti31  1  -0.03244970  0.46376031  0.49354537  1
  Ti  Ti32  1  -0.05525307  0.51045687  0.85409627  1
  Ti  Ti33  1  -0.06608508  0.78231297  0.03204467  1
  Ti  Ti34  1  -0.01191073  0.86464272  0.53810293  1
  Ti  Ti35  1  -0.02339809  0.82178747  0.86077522  1
  Ti  Ti36  1  0.29881940  0.11839924  0.19179800  1
  Ti  Ti37  1  0.36236700  0.19298610  0.47564057  1
  Ti  Ti38  1  0.27383999  0.18772408  0.85231503  1
  Ti  Ti39  1  0.39059264  0.46709923  0.15447286  1
  Ti  Ti40  1  0.27877982  0.47795818  0.50737243  1
  Ti  Ti41  1  0.37407395  0.52077442  0.75608436  1
  Ti  Ti42  1  0.38817764  0.78501422  0.18009084  1
  Ti  Ti43  1  0.27655463  0.78289053  0.44869376  1
  Ti  Ti44  1  0.28489973  0.79156684  0.86821502  1
  Ti  Ti45  1  0.60749653  0.13164564  0.12613889  1
  Ti  Ti46  1  0.70222960  0.16458879  0.54364632  1
  Ti  Ti47  1  0.64320117  0.16335868  0.82812513  1
  Ti  Ti48  1  0.68018304  0.42778221  0.15991724  1
  Ti  Ti49  1  0.63630662  0.52740267  0.45435242  1
  Ti  Ti50  1  0.74793072  0.55425501  0.80577042  1
  Ti  Ti51  1  0.69946141  0.82527779  0.20815494  1
  Ti  Ti52  1  0.66056271  0.88999945  0.50223511  1
  Ti  Ti53  1  0.60448756  0.82427360  0.77462848  1
  Ti  Ti54  1  0.14817668  -0.05059235  0.20842422  1
  Ti  Ti55  1  0.21786788  0.02116157  0.50765256  1
  Ti  Ti56  1  0.20474517  -0.01054420  0.91646362  1
  Ti  Ti57  1  0.21993102  0.36678455  0.16689260  1
  Ti  Ti58  1  0.19562534  0.26929648  0.55091769  1
  Ti  Ti59  1  0.13031100  0.40178489  0.77717581  1
  Ti  Ti60  1  0.19458448  0.67992734  0.21526381  1
  Ti  Ti61  1  0.16343361  0.64414001  0.53262630  1
  Ti  Ti62  1  0.17640274  0.60899662  0.83703566  1
  Ti  Ti63  1  0.44547641  0.02462346  -0.02241192  1
  Ti  Ti64  1  0.46076078  -0.12797683  0.52098521  1
  Ti  Ti65  1  0.54091851  0.00023598  0.80888088  1
  Ti  Ti66  1  0.52824197  0.33906943  0.21374727  1
  Ti  Ti67  1  0.56204799  0.32446749  0.40209874  1
  Ti  Ti68  1  0.47689371  0.38563637  0.86857203  1
  Ti  Ti69  1  0.51148561  0.66657240  0.05203896  1
  Ti  Ti70  1  0.47827502  0.69575861  0.49581263  1
  Ti  Ti71  1  0.62287935  0.67320383  0.89885381  1
  Ti  Ti72  1  0.90293646  0.01407735  0.13967269  1
  Ti  Ti73  1  0.84382763  -0.00675999  0.47843227  1
  Ti  Ti74  1  0.87334681  -0.01996226  0.79665859  1
  Ti  Ti75  1  0.80089488  0.27167095  0.21723608  1
  Ti  Ti76  1  0.85955297  0.29559107  0.47407899  1
  Ti  Ti77  1  0.82565083  0.25778867  0.88230617  1
  Ti  Ti78  1  0.84880528  0.70601707  0.18244291  1
  Ti  Ti79  1  0.76714026  0.64836485  0.51674235  1
  Ti  Ti80  1  0.88676373  0.68386071  0.74802571  1
  Ti  Ti81  1  0.19985830  0.21606106  0.01808781  1
  Ti  Ti82  1  0.15399987  0.24877567  0.33959378  1
  Ti  Ti83  1  0.19894840  0.06283099  0.74606865  1
  Ti  Ti84  1  0.20683983  0.52651574  0.05335536  1
  Ti  Ti85  1  0.16338934  0.46443195  0.34137777  1
  Ti  Ti86  1  0.12443127  0.44717897  0.59312682  1
  Ti  Ti87  1  0.11658663  0.82350155  0.01037353  1
  Ti  Ti88  1  0.08182430  0.81431840  0.34820178  1
  Ti  Ti89  1  0.22359257  0.87128578  0.70510976  1
  Ti  Ti90  1  0.51936394  0.21328816  -0.01335121  1
  Ti  Ti91  1  0.53408147  0.12692070  0.41219824  1
  Ti  Ti92  1  0.53226671  0.12933576  0.66094763  1
  Ti  Ti93  1  0.54330777  0.48953070  0.03329540  1
  Ti  Ti94  1  0.41628254  0.47051563  0.36285749  1
  Ti  Ti95  1  0.46095728  0.52595680  0.55355523  1
  Ti  Ti96  1  0.53795977  0.84680272  0.05405518  1
  Ti  Ti97  1  0.53280082  0.88289388  0.26314104  1
  Ti  Ti98  1  0.41279376  0.83451915  0.72931680  1
  Ti  Ti99  1  0.83247406  0.15984517  0.03891411  1
  Ti  Ti100  1  0.83908890  0.11919553  0.34499354  1
  Ti  Ti101  1  0.79378988  0.25769149  0.68879429  1
  Ti  Ti102  1  0.76156282  0.52672742  0.00914583  1
  Ti  Ti103  1  0.85514275  0.56564353  0.33070769  1
  Ti  Ti104  1  0.71857249  0.47321801  0.63009607  1
  Ti  Ti105  1  0.77747757  0.82393708  -0.12024745  1
  Ti  Ti106  1  0.84110598  0.78699260  0.40245112  1
  Ti  Ti107  1  0.76678651  0.80533354  0.64463737  1
  Co  Co108  1  -0.00918140  0.46121983  0.69099250  1
  Co  Co109  1  0.94485107  0.76541718  0.27635783  1
  Co  Co110  1  0.52477059  0.62050544  0.36370607  1
  Co  Co111  1  0.30251631  0.88978190  0.56464537  1
  Co  Co112  1  0.64269463  0.21555015  0.26722393  1
  Co  Co113  1  0.10674106  0.34622329  0.04870027  1
  Co  Co114  1  0.86438125  0.55869284  0.64560369  1
  Co  Co115  1  0.07016325  0.76184884  0.16986961  1
  Co  Co116  1  0.21273867  0.56232889  0.67482246  1
  Co  Co117  1  0.72584085  0.37877592  0.78066668  1
  Co  Co118  1  0.50566576  0.56141155  0.88065748  1
  Co  Co119  1  0.41898177  0.80802489  0.35763442  1
  Co  Co120  1  0.79578205  0.12048211  0.79426633  1
  Co  Co121  1  0.55717127  0.72930021  0.20743971  1
  Co  Co122  1  0.57071054  0.41079296  0.56359202  1
  Co  Co123  1  0.44229305  0.12724312  0.11739973  1
  Co  Co124  1  0.69061696  0.16697027  0.97862985  1
  Co  Co125  1  0.81951233  0.85826453  0.09864234  1
  Co  Co126  1  0.48035975  0.35288268  0.04671452  1
  Co  Co127  1  0.93059519  0.15803916  0.21139739  1
  Co  Co128  1  0.08009300  0.49046217  0.94465227  1
  Co  Co129  1  0.01778603  0.58825444  0.60166081  1
  Co  Co130  1  0.90053526  0.72410597  0.58550289  1
  Co  Co131  1  0.83718479  0.93971406  0.62126842  1
  Co  Co132  1  0.84235047  0.10957094  0.63783495  1
  Co  Co133  1  0.86197659  0.39108668  0.61554022  1
  Co  Co134  1  0.55706001  0.02935247  0.54507519  1
  Co  Co135  1  0.65912330  0.27844285  0.10936758  1
  Co  Co136  1  0.03084058  0.71448818  0.49048520  1
  Co  Co137  1  0.17404323  0.93999231  0.37947415  1
  Co  Co138  1  0.31522749  0.08696335  1.02133066  1
  Co  Co139  1  0.07543263  0.34123655  0.22253330  1
  Co  Co140  1  0.56247464  0.98033796  0.12804363  1
  Co  Co141  1  0.38292141  0.27327856  0.14117453  1
  Co  Co142  1  0.52034046  0.96479951  0.39648770  1
  Co  Co143  1  0.76848202  0.11590930  0.18262663  1
  Co  Co144  1  0.80837505  0.33441149  0.04415947  1
  Co  Co145  1  0.62721970  0.86979638  0.92822779  1
  Co  Co146  1  0.45024405  0.40566678  0.67367959  1
  Co  Co147  1  0.57342860  0.49722881  0.72714645  1
  Co  Co148  1  0.47793467  0.04638282  0.25251184  1
  Co  Co149  1  0.81664520  0.42036467  0.90433524  1
  Co  Co150  1  0.91493303  0.61042305  0.47396978  1
  Co  Co151  1  0.33450687  0.96618065  0.82617592  1
  Co  Co152  1  0.37324565  0.22774830  0.96635670  1
  Co  Co153  1  0.72736490  0.22203076  0.39480697  1
  Co  Co154  1  0.63502716  0.47421270  0.88246406  1
  Co  Co155  1  0.14433499  0.83045369  0.53297172  1
  Co  Co156  1  0.91307868  0.35531274  0.78133824  1
  Co  Co157  1  0.49423353  0.57493788  0.20232650  1
  Co  Co158  1  0.62530605  0.61293128  0.59587978  1
  Co  Co159  1  0.54867382  0.92421849  0.66001070  1
  Co  Co160  1  -0.00989949  0.89785996  0.18219919  1
  Co  Co161  1  0.70464074  0.33620825  0.52438304  1
  Ni  Ni162  1  0.08699973  0.36153575  0.44323309  1
  Ni  Ni163  1  0.13156355  0.78413166  0.82713588  1
  Ni  Ni164  1  0.21393039  0.62373171  0.37594393  1
  Ni  Ni165  1  0.98884032  0.22246738  0.36640374  1
  Ni  Ni166  1  0.09408055  0.10792560  0.89641866  1
  Ni  Ni167  1  0.80519523  0.47156966  0.47361144  1
  Ni  Ni168  1  1.02361171  0.66123225  0.87049466  1
  Ni  Ni169  1  0.45548646  0.86536983  0.90195472  1
  Ni  Ni170  1  0.59307426  0.48171630  0.30165470  1
  Ni  Ni171  1  0.94885014  0.29563708  0.12813242  1
  Ni  Ni172  1  0.93948049  0.84536719  0.70232401  1
  Ni  Ni173  1  0.28823145  0.13348626  0.62339334  1
  Ni  Ni174  1  0.60257621  0.03325261  0.96814731  1
  Ni  Ni175  1  0.71564601  0.98960767  0.86063037  1
  Ni  Ni176  1  0.19088794  0.09215913  0.31787257  1
  Ni  Ni177  1  0.63997323  0.60199725  0.12868445  1
  Ni  Ni178  1  0.37654198  0.74514738  0.00415705  1
  Ni  Ni179  1  0.58654184  0.77115815  0.60708352  1
  Ni  Ni180  1  0.24912091  0.46944537  0.87343436  1
  Ni  Ni181  1  0.52739625  0.24109650  0.54378618  1
  Ni  Ni182  1  0.06221825  0.95993311  0.80843501  1
  Ni  Ni183  1  0.32829488  0.63256837  0.50857048  1
  Ni  Ni184  1  0.77259492  0.55711802  0.19507515  1
  Ni  Ni185  1  0.26635719  0.52912187  0.23533290  1
  Ni  Ni186  1  0.12216533  0.96465509  0.62931856  1
  Ni  Ni187  1  0.22706457  0.82726309  0.13975973  1
  Ni  Ni188  1  0.39250292  0.02498033  0.48965392  1
  Ni  Ni189  1  0.34445695  0.62853951  0.11856219  1
  Ni  Ni190  1  0.26308019  0.81686438  0.29494452  1
  Ni  Ni191  1  0.20555926  0.25814638  0.71459018  1
  Ni  Ni192  1  0.17337731  0.05838322  0.07774052  1
  Ni  Ni193  1  0.92864518  0.92070654  0.34084097  1
  Ni  Ni194  1  0.68620374  0.03818889  0.43946444  1
  Ni  Ni195  1  0.49030271  0.23487583  0.80664094  1
  Ni  Ni196  1  0.39799407  0.96069414  0.13689456  1
  Ni  Ni197  1  0.87649225  0.94845220  -0.03577886  1
  Ni  Ni198  1  0.27191377  0.34228551  0.42361086  1
  Ni  Ni199  1  0.84674418  0.66219427  0.92107402  1
  Ni  Ni200  1  0.63779463  0.73480128  0.44715032  1
  Ni  Ni201  1  0.69725393  0.69039613  0.73494843  1
  Ni  Ni202  1  0.92748445  0.10055146  0.90942369  1
  Ni  Ni203  1  0.08726007  0.54335835  0.20820587  1
  Ni  Ni204  1  0.11515934  0.25850072  0.85400013  1
  Ni  Ni205  1  0.28131251  0.40021996  0.66215307  1
  Ni  Ni206  1  0.11450335  0.14698906  0.47246263  1
  Ni  Ni207  1  0.41116880  0.10600195  0.83476893  1
  Ni  Ni208  1  0.21789036  0.69650095  1.03813109  1
  Ni  Ni209  1  0.89575123  0.60015408  0.06765171  1
  Ni  Ni210  1  0.10168461  0.15102610  0.64172912  1
  Ni  Ni211  1  0.85692904  0.42682368  0.17743638  1
  Ni  Ni212  1  0.44681296  0.70972147  0.85743103  1
  Ni  Ni213  1  0.42047247  0.36087352  0.50403022  1
  Ni  Ni214  1  0.79456645  0.95551104  0.24825119  1
  Ni  Ni215  1  0.46968750  0.20086830  0.28031858  1
