# generated using pymatgen
data_Ti2CoNi
_symmetry_space_group_name_H-M   'P 1'
_cell_length_a   14.47076973
_cell_length_b   14.46604782
_cell_length_c   14.53332405
_cell_angle_alpha   90.05265601
_cell_angle_beta   90.11832584
_cell_angle_gamma   90.07940569
_symmetry_Int_Tables_number   1
_chemical_formula_structural   Ti2CoNi
_chemical_formula_sum   'Ti108 Co54 Ni54'
_cell_volume   3042.32046153
_cell_formula_units_Z   54
loop_
 _symmetry_equiv_pos_site_id
 _symmetry_equiv_pos_as_xyz
  1  'x, y, z'
loop_
 _atom_site_type_symbol
 _atom_site_label
 _atom_site_symmetry_multiplicity
 _atom_site_fract_x
 _atom_site_fract_y
 _atom_site_fract_z
 _atom_site_occupancy
  Ti  Ti0  1  0.02069490  -0.02015151  -0.00554359  1
  Ti  Ti1  1  -0.05615119  0.06285648  0.34022616  1
  Ti  Ti2  1  -0.06171393  0.02001767  0.65611264  1
  Ti  Ti3  1  0.02404108  0.41012892  -0.01682977  1
  Ti  Ti4  1  -0.13079013  0.37616131  0.30190274  1
  Ti  Ti5  1  -0.02567854  0.21474858  0.57187450  1
  Ti  Ti6  1  0.02916186  0.59942146  -0.06982691  1
  Ti  Ti7  1  -0.04922638  0.73939547  0.41336136  1
  Ti  Ti8  1  0.04866284  0.69311328  0.73571051  1
  Ti  Ti9  1  0.32139410  -0.01465754  0.07851137  1
  Ti  Ti10  1  0.38296997  -0.02651640  0.32067980  1
  Ti  Ti11  1  0.26137089  0.04498143  0.67712491  1
  Ti  Ti12  1  0.32176288  0.25426998  -0.01272250  1
  Ti  Ti13  1  0.39103204  0.29045448  0.38681533  1
  Ti  Ti14  1  0.35555217  0.36569622  0.65948492  1
  Ti  Ti15  1  0.31969428  0.68312134  0.00037015  1
  Ti  Ti16  1  0.31390443  0.60286105  0.29048688  1
  Ti  Ti17  1  0.33840431  0.73454300  0.70090913  1
  Ti  Ti18  1  0.72177286  0.08580616  -0.03007455  1
  Ti  Ti19  1  0.68722392  -0.06508111  0.31605667  1
  Ti  Ti20  1  0.61344110  0.03562980  0.68110504  1
  Ti  Ti21  1  0.69269296  0.27354838  0.00967266  1
  Ti  Ti22  1  0.68218944  0.38163842  0.38795998  1
  Ti  Ti23  1  0.68453929  0.35102396  0.77057081  1
  Ti  Ti24  1  0.58337949  0.61720058  -0.06633652  1
  Ti  Ti25  1  0.64541989  0.71823142  0.38932529  1
  Ti  Ti26  1  0.57736513  0.68833573  0.61385794  1
  Ti  Ti27  1  -0.02007937  0.14884147  0.11899771  1
  Ti  Ti28  1  -0.03513774  0.23283728  0.38237979  1
  Ti  Ti29  1  0.01194705  0.13051320  0.80090099  1
  Ti  Ti30  1  -0.05606598  0.57216219  0.22346608  1
  Ti  Ti31  1  -0.02044799  0.54285308  0.44928590  1
  Ti  Ti32  1  0.08084932  0.49530380  0.76124404  1
  Ti  Ti33  1  0.00732801  0.95629177  0.18159241  1
  Ti  Ti34  1  -0.01694477  0.78696220  0.58730665  1
  Ti  Ti35  1  -0.00439495  0.81390363  0.88213629  1
  Ti  Ti36  1  0.28474223  0.12801113  0.18124953  1
  Ti  Ti37  1  0.33665228  0.09173572  0.50273864  1
  Ti  Ti38  1  0.29007934  0.11069123  0.87188489  1
  Ti  Ti39  1  0.36959958  0.38542113  0.20021314  1
  Ti  Ti40  1  0.31756675  0.51442994  0.46080974  1
  Ti  Ti41  1  0.26375281  0.49211513  0.78885195  1
  Ti  Ti42  1  0.38342135  0.74369588  0.16750692  1
  Ti  Ti43  1  0.33996350  0.83216051  0.52360692  1
  Ti  Ti44  1  0.29171117  0.91574955  0.83830921  1
  Ti  Ti45  1  0.67568712  0.27755427  0.21616199  1
  Ti  Ti46  1  0.66725969  0.18156986  0.48819348  1
  Ti  Ti47  1  0.59946142  0.14563229  0.82114474  1
  Ti  Ti48  1  0.69289159  0.44437947  0.13039965  1
  Ti  Ti49  1  0.67044057  0.54409028  0.49384216  1
  Ti  Ti50  1  0.63269977  0.56320778  0.76859656  1
  Ti  Ti51  1  0.65954988  0.77328171  0.06484072  1
  Ti  Ti52  1  0.63240529  0.87412899  0.53912923  1
  Ti  Ti53  1  0.70227548  0.79206785  0.86600823  1
  Ti  Ti54  1  0.21473238  -0.04533604  0.21499783  1
  Ti  Ti55  1  0.18176613  -0.01673497  0.48938741  1
  Ti  Ti56  1  0.10293977  -0.01941231  0.80229957  1
  Ti  Ti57  1  0.20978815  0.31960787  0.22619624  1
  Ti  Ti58  1  0.13624137  0.33116189  0.38780209  1
  Ti  Ti59  1  0.14310867  0.35098241  0.86257103  1
  Ti  Ti60  1  0.17728727  0.65333254  0.14843471  1
  Ti  Ti61  1  0.17857289  0.66042872  0.40647666  1
  Ti  Ti62  1  0.20953344  0.71234431  0.83583633  1
  Ti  Ti63  1  0.61600247  -0.00515547  0.12337188  1
  Ti  Ti64  1  0.46410042  -0.05196453  0.48992010  1
  Ti  Ti65  1  0.47713672  -0.02670004  0.81497909  1
  Ti  Ti66  1  0.47021972  0.21290983  0.21135886  1
  Ti  Ti67  1  0.56944005  0.34532604  0.55043064  1
  Ti  Ti68  1  0.44484709  0.39171421  0.90497033  1
  Ti  Ti69  1  0.57570751  0.65211828  0.19869904  1
  Ti  Ti70  1  0.48010841  0.60756937  0.46077312  1
  Ti  Ti71  1  0.41493153  0.63009313  0.83462345  1
  Ti  Ti72  1  0.76820598  -0.09234569  0.15998279  1
  Ti  Ti73  1  0.85087130  -0.07820682  0.52268223  1
  Ti  Ti74  1  0.85495702  -0.03635908  0.85155949  1
  Ti  Ti75  1  0.87960705  0.36624049  0.12763855  1
  Ti  Ti76  1  0.78731605  0.30285747  0.59081119  1
  Ti  Ti77  1  0.90566797  0.35918904  0.78622801  1
  Ti  Ti78  1  0.83125224  0.72177355  0.14266252  1
  Ti  Ti79  1  0.78240126  0.74619138  0.57233380  1
  Ti  Ti80  1  0.83671490  0.64263484  0.83496748  1
  Ti  Ti81  1  0.12534614  0.15587104  -0.05166504  1
  Ti  Ti82  1  0.10785364  0.14416921  0.26543234  1
  Ti  Ti83  1  0.18613766  0.22713352  0.69451695  1
  Ti  Ti84  1  0.22251192  0.48380921  0.08200502  1
  Ti  Ti85  1  0.15409285  0.49996470  0.25806625  1
  Ti  Ti86  1  0.16485993  0.46716725  0.58760902  1
  Ti  Ti87  1  0.10118182  0.84366971  0.07986105  1
  Ti  Ti88  1  0.08092710  0.81895168  0.27878125  1
  Ti  Ti89  1  0.18187785  0.76061281  0.60282765  1
  Ti  Ti90  1  0.48862911  0.16150247  -0.02566229  1
  Ti  Ti91  1  0.56620009  0.07489029  0.33326139  1
  Ti  Ti92  1  0.51276866  0.23830402  0.68421446  1
  Ti  Ti93  1  0.50225397  0.48389986  0.06601393  1
  Ti  Ti94  1  0.50164351  0.44427517  0.37252519  1
  Ti  Ti95  1  0.53019335  0.51144071  0.63895382  1
  Ti  Ti96  1  0.48575511  0.87349851  0.05968067  1
  Ti  Ti97  1  0.46151832  0.77692904  0.32954690  1
  Ti  Ti98  1  0.47802209  0.84067201  0.65894693  1
  Ti  Ti99  1  0.89297653  0.24804838  -0.01113121  1
  Ti  Ti100  1  0.78435202  0.14891931  0.34191183  1
  Ti  Ti101  1  0.84071060  0.18491914  0.73149123  1
  Ti  Ti102  1  0.86840626  0.54169216  0.04414026  1
  Ti  Ti103  1  0.80465484  0.61967975  0.37159343  1
  Ti  Ti104  1  0.87097723  0.47995642  0.62173634  1
  Ti  Ti105  1  0.85300449  0.84834621  0.00004821  1
  Ti  Ti106  1  0.87851882  0.89779066  0.31239979  1
  Ti  Ti107  1  0.76819002  0.90439010  0.69267901  1
  Co  Co108  1  0.06350236  0.64532588  0.31386326  1
  Co  Co109  1  0.09793853  0.08567014  0.64118710  1
  Co  Co110  1  0.08295321  0.91778944  0.61658205  1
  Co  Co111  1  0.69585417  0.09614282  0.22142571  1
  Co  Co112  1  0.26911545  0.83257418  0.06387323  1
  Co  Co113  1  0.77796000  0.82543608  0.42435402  1
  Co  Co114  1  0.66051374  0.58760690  0.06340954  1
  Co  Co115  1  0.73533979  0.53596839  0.91295891  1
  Co  Co116  1  0.55525800  0.71001905  0.78018413  1
  Co  Co117  1  0.93808923  0.56935557  0.73404898  1
  Co  Co118  1  0.54303140  0.02628846  0.97006133  1
  Co  Co119  1  0.76312742  0.68554708  -0.02128662  1
  Co  Co120  1  0.91806049  0.49665742  0.86761814  1
  Co  Co121  1  0.01393658  0.69345289  0.13418723  1
  Co  Co122  1  0.96436017  0.88714171  0.72565049  1
  Co  Co123  1  0.22994011  0.21413988  0.38948502  1
  Co  Co124  1  0.95479552  0.37238316  0.45880113  1
  Co  Co125  1  0.41000209  0.94365196  0.94807842  1
  Co  Co126  1  0.11269908  0.27543687  0.53381383  1
  Co  Co127  1  0.28404937  0.34610967  0.50794908  1
  Co  Co128  1  0.17239788  0.84936031  0.92465773  1
  Co  Co129  1  0.78432132  0.48641819  0.77477688  1
  Co  Co130  1  0.68179972  0.91701478  0.00129932  1
  Co  Co131  1  0.48521826  0.93607971  0.20561148  1
  Co  Co132  1  0.86952895  0.22795455  0.23761114  1
  Co  Co133  1  0.28944246  0.65003817  0.55057085  1
  Co  Co134  1  0.20532448  0.15552463  0.54187176  1
  Co  Co135  1  0.91858084  0.70550026  1.00482572  1
  Co  Co136  1  0.08251898  0.11581951  0.43879088  1
  Co  Co137  1  0.38966221  0.14081920  0.33300998  1
  Co  Co138  1  0.73724808  0.60006933  0.64421053  1
  Co  Co139  1  0.93153879  0.74603244  0.25170384  1
  Co  Co140  1  0.57600107  0.29268114  0.87134714  1
  Co  Co141  1  0.69321727  0.44938054  0.63712386  1
  Co  Co142  1  0.80826076  0.44828322  0.46345232  1
  Co  Co143  1  0.59318222  0.83248648  0.22058061  1
  Co  Co144  1  0.76607491  0.47305477  0.27082062  1
  Co  Co145  1  0.62284961  0.42243286  0.94464623  1
  Co  Co146  1  0.42466484  0.81014170  0.83363008  1
  Co  Co147  1  0.50654755  0.77092342  0.49070725  1
  Co  Co148  1  0.73474486  0.76174601  0.26505927  1
  Co  Co149  1  0.76746443  0.07570646  0.79061760  1
  Co  Co150  1  0.85935454  0.61679682  0.54185910  1
  Co  Co151  1  0.71533115  0.73765110  0.70621956  1
  Co  Co152  1  1.01122838  0.91711473  0.45990675  1
  Co  Co153  1  0.15080773  0.50375950  0.42026611  1
  Co  Co154  1  0.87903566  0.74974046  0.73162002  1
  Co  Co155  1  0.53843818  0.91311846  0.36669484  1
  Co  Co156  1  0.28987723  0.41447144  0.35200126  1
  Co  Co157  1  1.05923039  0.55839883  0.08328360  1
  Co  Co158  1  0.80287590  0.28076726  0.44361280  1
  Co  Co159  1  0.34394123  0.70949675  0.42274306  1
  Co  Co160  1  0.12135902  0.83589417  0.76225075  1
  Co  Co161  1  0.26210371  0.89433287  0.66258385  1
  Ni  Ni162  1  0.49921446  0.16521109  0.44833095  1
  Ni  Ni163  1  0.57274647  0.26280153  0.32813607  1
  Ni  Ni164  1  0.41583517  0.26194048  0.55328657  1
  Ni  Ni165  1  0.86245435  1.01610713  0.04177405  1
  Ni  Ni166  1  0.40329883  0.10609167  0.76598555  1
  Ni  Ni167  1  0.61313360  0.87529697  0.72780198  1
  Ni  Ni168  1  0.87708952  0.11386637  0.91862952  1
  Ni  Ni169  1  0.42689654  0.99803234  0.64612834  1
  Ni  Ni170  1  0.36011662  0.53728598  0.63616395  1
  Ni  Ni171  1  0.06098271  0.41839219  0.14813992  1
  Ni  Ni172  1  0.24447164  0.78169733  0.23416933  1
  Ni  Ni173  1  0.88188121  0.09864467  0.49207158  1
  Ni  Ni174  1  0.82114978  0.39817438  -0.04649879  1
  Ni  Ni175  1  0.20311893  0.56860977  0.92590387  1
  Ni  Ni176  1  0.79141833  0.17139271  0.10513262  1
  Ni  Ni177  1  0.58215374  0.04868603  0.53144471  1
  Ni  Ni178  1  0.49088484  0.67645660  0.04088219  1
  Ni  Ni179  1  0.01565483  0.25924260  0.89341729  1
  Ni  Ni180  1  0.12800767  0.80794149  0.45717747  1
  Ni  Ni181  1  0.62986665  0.55116703  0.32891844  1
  Ni  Ni182  1  0.01542091  0.39244017  0.60835908  1
  Ni  Ni183  1  0.21116022  0.22743189  0.08255062  1
  Ni  Ni184  1  0.37678483  0.53059851  0.95933597  1
  Ni  Ni185  1  0.23564525  0.06352523  0.35841119  1
  Ni  Ni186  1  0.60091510  0.16904053  0.09842006  1
  Ni  Ni187  1  0.07035984  0.63914187  0.54493941  1
  Ni  Ni188  1  0.74246890  0.61382887  0.20901484  1
  Ni  Ni189  1  0.28638156  0.31983169  0.81514994  1
  Ni  Ni190  1  0.76644693  1.05244753  0.60566529  1
  Ni  Ni191  1  0.65483780  0.96865460  0.84495450  1
  Ni  Ni192  1  0.46236395  0.06114939  0.13546115  1
  Ni  Ni193  1  0.66937214  0.20723878  0.65426107  1
  Ni  Ni194  1  0.18989221  -0.00491539  0.97374738  1
  Ni  Ni195  1  0.18831297  0.60943314  0.67746723  1
  Ni  Ni196  1  0.13622656  0.71698329  0.99388286  1
  Ni  Ni197  1  0.84308742  0.04155702  0.21313016  1
  Ni  Ni198  1  1.02688785  0.27189016  0.71985448  1
  Ni  Ni199  1  0.01838643  0.28490996  0.23356949  1
  Ni  Ni200  1  0.72040593  0.01087539  0.44751763  1
  Ni  Ni201  1  0.44207931  0.49410763  0.77516505  1
  Ni  Ni202  1  0.46075117  0.55689650  0.26188346  1
  Ni  Ni203  1  0.25940948  0.87650858  0.36065403  1
  Ni  Ni204  1  0.42697639  0.23973726  0.84079266  1
  Ni  Ni205  1  0.50565431  0.30778747  0.07225003  1
  Ni  Ni206  1  1.05800991  0.28197332  0.05903835  1
  Ni  Ni207  1  0.35971120  0.55377708  0.12298152  1
  Ni  Ni208  1  0.26932112  0.39861239  0.94253560  1
  Ni  Ni209  1  0.01703721  0.43162744  0.31715531  1
  Ni  Ni210  1  0.55125130  0.39343386  0.20791252  1
  Ni  Ni211  1  0.75549679  0.22852499  0.87362758  1
  Ni  Ni212  1  0.08979730  0.97554241  0.33536593  1
  Ni  Ni213  1  0.14431271  0.06904549  0.11049055  1
  Ni  Ni214  1  0.55960050  0.80460987  0.92502264  1
  Ni  Ni215  1  0.43281449  0.42787349  0.52286366  1
