# generated using pymatgen
data_Ti2CoNi
_symmetry_space_group_name_H-M   'P 1'
_cell_length_a   14.67383636
_cell_length_b   14.63035221
_cell_length_c   14.69785504
_cell_angle_alpha   90.37989400
_cell_angle_beta   90.10097590
_cell_angle_gamma   90.20428748
_symmetry_Int_Tables_number   1
_chemical_formula_structural   Ti2CoNi
_chemical_formula_sum   'Ti108 Co54 Ni54'
_cell_volume   3155.29095940
_cell_formula_units_Z   54
loop_
 _symmetry_equiv_pos_site_id
 _symmetry_equiv_pos_as_xyz
  1  'x, y, z'
loop_
 _atom_site_type_symbol
 _atom_site_label
 _atom_site_symmetry_multiplicity
 _atom_site_fract_x
 _atom_site_fract_y
 _atom_site_fract_z
 _atom_site_occupancy
  Ti  Ti0  1  0.10507727  0.04318894  0.02119558  1
  Ti  Ti1  1  -0.06502314  0.00701816  0.38448588  1
  Ti  Ti2  1  -0.02883199  -0.09282742  0.62760414  1
  Ti  Ti3  1  -0.04446531  0.40016177  -0.00801463  1
  Ti  Ti4  1  0.03628111  0.37679568  0.34077956  1
  Ti  Ti5  1  -0.00473677  0.30306487  0.74210376  1
  Ti  Ti6  1  -0.02341898  0.67916799  0.05327908  1
  Ti  Ti7  1  -0.02635323  0.71771983  0.31095999  1
  Ti  Ti8  1  0.07576220  0.68995484  0.68279959  1
  Ti  Ti9  1  0.28325627  0.04566332  0.02308805  1
  Ti  Ti10  1  0.26470350  -0.00149487  0.39891799  1
  Ti  Ti11  1  0.32001455  0.04931677  0.70289803  1
  Ti  Ti12  1  0.35583230  0.34949214  0.02378728  1
  Ti  Ti13  1  0.27755115  0.27664022  0.26957242  1
  Ti  Ti14  1  0.28076884  0.32175393  0.61159943  1
  Ti  Ti15  1  0.31002954  0.62452786  0.04019942  1
  Ti  Ti16  1  0.34894521  0.65984235  0.28831074  1
  Ti  Ti17  1  0.37167964  0.64042878  0.68245372  1
  Ti  Ti18  1  0.68539190  -0.07225737  -0.07025214  1
  Ti  Ti19  1  0.74166597  0.03380720  0.33680460  1
  Ti  Ti20  1  0.65525538  0.10599192  0.65952492  1
  Ti  Ti21  1  0.66107503  0.26658640  -0.01588834  1
  Ti  Ti22  1  0.70373876  0.40940701  0.37504671  1
  Ti  Ti23  1  0.63163020  0.32801453  0.65167931  1
  Ti  Ti24  1  0.64136749  0.70192887  -0.01883100  1
  Ti  Ti25  1  0.66276142  0.70592466  0.30392086  1
  Ti  Ti26  1  0.61111221  0.66062726  0.67052826  1
  Ti  Ti27  1  0.01345045  0.09877165  0.20646050  1
  Ti  Ti28  1  -0.00099464  0.18937185  0.40985805  1
  Ti  Ti29  1  0.03557792  0.12825004  0.84794841  1
  Ti  Ti30  1  0.00288961  0.54927108  0.22223069  1
  Ti  Ti31  1  0.00000140  0.53478093  0.55014938  1
  Ti  Ti32  1  -0.05049939  0.57148338  0.87953467  1
  Ti  Ti33  1  0.07691445  0.81252860  0.16367469  1
  Ti  Ti34  1  -0.05067071  0.83174599  0.45776146  1
  Ti  Ti35  1  0.00410497  0.83929668  0.79368560  1
  Ti  Ti36  1  0.40174180  0.11500589  0.16965149  1
  Ti  Ti37  1  0.38866819  0.17312830  0.49815033  1
  Ti  Ti38  1  0.36367690  0.16560080  0.88915001  1
  Ti  Ti39  1  0.34514831  0.47172817  0.18714485  1
  Ti  Ti40  1  0.35043005  0.41920369  0.44726687  1
  Ti  Ti41  1  0.28907388  0.47717812  0.75754025  1
  Ti  Ti42  1  0.28248884  0.82910534  0.19186794  1
  Ti  Ti43  1  0.38317505  0.84847009  0.55098681  1
  Ti  Ti44  1  0.33511250  0.81269438  0.81148682  1
  Ti  Ti45  1  0.75405348  0.16446944  0.14446107  1
  Ti  Ti46  1  0.65815002  0.11057007  0.47169675  1
  Ti  Ti47  1  0.70533321  0.11297539  0.85720593  1
  Ti  Ti48  1  0.66721005  0.49309304  0.20114206  1
  Ti  Ti49  1  0.68970954  0.56786666  0.51277067  1
  Ti  Ti50  1  0.65740178  0.53867334  0.83788541  1
  Ti  Ti51  1  0.71480219  0.83432712  0.12704333  1
  Ti  Ti52  1  0.64446319  0.88834424  0.44918659  1
  Ti  Ti53  1  0.58947199  0.81030779  0.81832250  1
  Ti  Ti54  1  0.17882608  -0.01402110  0.21176657  1
  Ti  Ti55  1  0.10082235  -0.01772734  0.50019103  1
  Ti  Ti56  1  0.15679031  -0.04320039  0.84495543  1
  Ti  Ti57  1  0.06678316  0.27574268  0.12496090  1
  Ti  Ti58  1  0.09347913  0.34978315  0.53567508  1
  Ti  Ti59  1  0.16975721  0.30638642  0.80046272  1
  Ti  Ti60  1  0.18090146  0.65899718  0.20735007  1
  Ti  Ti61  1  0.22280296  0.69959662  0.45786602  1
  Ti  Ti62  1  0.15315317  0.62028843  0.88535749  1
  Ti  Ti63  1  0.45060566  -0.07867581  0.14757327  1
  Ti  Ti64  1  0.49321511  0.02618149  0.56819189  1
  Ti  Ti65  1  0.49250678  -0.03005559  0.86572405  1
  Ti  Ti66  1  0.54042205  0.36807427  0.10819223  1
  Ti  Ti67  1  0.55682644  0.38998652  0.47726237  1
  Ti  Ti68  1  0.50259240  0.31288782  0.87393267  1
  Ti  Ti69  1  0.51213822  0.61534095  0.16235060  1
  Ti  Ti70  1  0.49833015  0.60043935  0.47427105  1
  Ti  Ti71  1  0.48402023  0.66458040  0.84461958  1
  Ti  Ti72  1  0.85622955  -0.01431741  0.17666854  1
  Ti  Ti73  1  0.83841311  0.03904702  0.55972553  1
  Ti  Ti74  1  0.81944766  -0.09350524  0.78080110  1
  Ti  Ti75  1  0.85012196  0.38948338  0.17052122  1
  Ti  Ti76  1  0.88175658  0.33664215  0.48319691  1
  Ti  Ti77  1  0.83546076  0.30398757  0.86282301  1
  Ti  Ti78  1  0.83537741  0.66136888  0.18879067  1
  Ti  Ti79  1  0.87728551  0.65381935  0.47986938  1
  Ti  Ti80  1  0.84593591  0.70214256  0.74785549  1
  Ti  Ti81  1  0.18153173  0.22277783  -0.02740679  1
  Ti  Ti82  1  0.19623528  0.19104035  0.43860422  1
  Ti  Ti83  1  0.13160364  0.17164523  0.62921216  1
  Ti  Ti84  1  0.17135587  0.41893453  -0.02530857  1
  Ti  Ti85  1  0.17938437  0.46980131  0.27235715  1
  Ti  Ti86  1  0.11042836  0.47556634  0.69308344  1
  Ti  Ti87  1  0.08485762  0.81977023  -0.03542106  1
  Ti  Ti88  1  0.12748223  0.83318014  0.35646682  1
  Ti  Ti89  1  0.19750283  0.88976365  0.66464599  1
  Ti  Ti90  1  0.60325530  0.08570498  0.04078811  1
  Ti  Ti91  1  0.52172847  0.16342805  0.31257052  1
  Ti  Ti92  1  0.44915863  0.21480877  0.70074109  1
  Ti  Ti93  1  0.41965619  0.49444662  -0.09609164  1
  Ti  Ti94  1  0.48261442  0.47604165  0.30977868  1
  Ti  Ti95  1  0.46082379  0.48000680  0.61425029  1
  Ti  Ti96  1  0.48487227  0.81271846  -0.00795123  1
  Ti  Ti97  1  0.46812721  0.84894558  0.33644026  1
  Ti  Ti98  1  0.57737731  0.86378428  0.62732912  1
  Ti  Ti99  1  0.92222525  0.09157471  0.02353242  1
  Ti  Ti100  1  0.77722212  0.25212934  0.32949806  1
  Ti  Ti101  1  0.82993585  0.22975502  0.65174396  1
  Ti  Ti102  1  0.77195442  0.54101910  0.02661320  1
  Ti  Ti103  1  0.80654889  0.56031099  0.33180804  1
  Ti  Ti104  1  0.81100127  0.45382343  0.70142833  1
  Ti  Ti105  1  0.87575223  0.88206256  -0.00885510  1
  Ti  Ti106  1  0.81600685  0.85062084  0.30147475  1
  Ti  Ti107  1  0.77212693  0.78251689  0.57501941  1
  Co  Co108  1  0.06150976  0.43309896  0.12904049  1
  Co  Co109  1  0.06467621  0.54020283  1.00542352  1
  Co  Co110  1  0.87595987  0.40974612  0.32944222  1
  Co  Co111  1  0.34886097  0.97196784  0.26330103  1
  Co  Co112  1  0.75956769  0.79210914  0.88823085  1
  Co  Co113  1  0.16662463  0.60541105  0.57960443  1
  Co  Co114  1  0.70898826  0.39826486  0.06671967  1
  Co  Co115  1  0.20011555  0.36520303  0.40867229  1
  Co  Co116  1  0.59182373  0.91967572  0.06492338  1
  Co  Co117  1  0.03831609  0.28484366  0.91691410  1
  Co  Co118  1  0.30478512  0.83375554  0.35769224  1
  Co  Co119  1  0.95857838  1.00609008  0.76721320  1
  Co  Co120  1  0.23234083  0.87073620  0.50416569  1
  Co  Co121  1  0.14313081  0.68452926  0.04995493  1
  Co  Co122  1  0.92034863  0.52921593  0.08574596  1
  Co  Co123  1  -0.02400263  0.23537389  0.57735758  1
  Co  Co124  1  0.80369853  0.59889786  0.62719288  1
  Co  Co125  1  0.09170548  0.80556154  0.55610897  1
  Co  Co126  1  0.44639411  0.49353879  0.06314489  1
  Co  Co127  1  0.70859080  0.80400931  0.72273801  1
  Co  Co128  1  0.42860100  0.29523069  0.37663246  1
  Co  Co129  1  0.64774728  0.96718547  0.76464412  1
  Co  Co130  1  0.55595366  0.33940677  0.27895240  1
  Co  Co131  1  0.55743642  0.04814773  0.19256547  1
  Co  Co132  1  0.23178670  0.46202428  0.56174758  1
  Co  Co133  1  0.77161021  0.74525275  0.41128551  1
  Co  Co134  1  0.69298655  0.31531513  0.20252632  1
  Co  Co135  1  0.42391826  0.28325763  0.19670835  1
  Co  Co136  1  0.46802821  0.64536824  1.00145855  1
  Co  Co137  1  0.69542183  0.97913742  0.19263563  1
  Co  Co138  1  0.57480621  0.20667975  0.15494392  1
  Co  Co139  1  0.76029984  0.02392192  0.03848057  1
  Co  Co140  1  0.61781402  0.55258751  0.36039338  1
  Co  Co141  1  0.94210626  0.39736189  0.62666348  1
  Co  Co142  1  0.04544782  0.67852126  0.47348709  1
  Co  Co143  1  0.44174374  0.32394197  0.57426861  1
  Co  Co144  1  0.97175103  0.54067556  0.38273687  1
  Co  Co145  1  0.80240275  0.91373080  0.46201125  1
  Co  Co146  1  0.60033930  0.54864857  0.03906567  1
  Co  Co147  1  -0.00143065  0.96633326  0.92084967  1
  Co  Co148  1  0.88510598  0.16671430  0.80809876  1
  Co  Co149  1  0.84525513  0.03090492  0.89088859  1
  Co  Co150  1  0.21960814  0.62574880  0.73445356  1
  Co  Co151  1  0.25247661  0.74241299  0.62235294  1
  Co  Co152  1  0.12304350  0.50434053  0.44357710  1
  Co  Co153  1  0.11763127  0.62756618  0.34142139  1
  Co  Co154  1  0.00126913  0.90423503  0.27807236  1
  Co  Co155  1  0.61135647  0.25896604  0.40432598  1
  Co  Co156  1  0.99286954  0.08196144  0.54738552  1
  Co  Co157  1  0.27840911  0.54953045  0.37452651  1
  Co  Co158  1  0.80062259  0.18249556  0.97170768  1
  Co  Co159  1  0.32356875  0.62727794  0.86450017  1
  Co  Co160  1  0.19547592  0.52700141  0.10882537  1
  Co  Co161  1  0.93977632  0.73212051  0.61164589  1
  Ni  Ni162  1  0.32580497  0.98831365  0.85776267  1
  Ni  Ni163  1  0.42720760  -0.00074675  0.41932254  1
  Ni  Ni164  1  0.17225779  0.13911639  0.14671970  1
  Ni  Ni165  1  0.51315193  0.07094314  0.74001153  1
  Ni  Ni166  1  0.42280424  0.37508115  0.73864315  1
  Ni  Ni167  1  0.83761309  0.48971626  0.49285843  1
  Ni  Ni168  1  0.42967657  0.92522699  0.70671013  1
  Ni  Ni169  1  0.11364931  0.21830402  0.28769308  1
  Ni  Ni170  1  0.94751128  0.26503611  0.24909732  1
  Ni  Ni171  1  0.50744410  0.67710754  0.32570591  1
  Ni  Ni172  1  0.10201634  0.05184143  0.34701013  1
  Ni  Ni173  1  0.10054732  0.02384875  0.68682214  1
  Ni  Ni174  1  0.50585001  0.52107861  0.76306713  1
  Ni  Ni175  1  0.46835921  0.76756642  0.70349379  1
  Ni  Ni176  1  0.90359173  0.81454045  0.15501782  1
  Ni  Ni177  1  0.61558051  0.72564454  0.49846364  1
  Ni  Ni178  1  0.81341762  0.47031387  0.87659780  1
  Ni  Ni179  1  0.25003576  0.76030574  0.94982577  1
  Ni  Ni180  1  0.45922545  0.21210075  1.03132320  1
  Ni  Ni181  1  0.64698760  0.49647487  0.66900053  1
  Ni  Ni182  1  0.06253357  0.44678382  0.84995320  1
  Ni  Ni183  1  0.29935127  0.21761630  0.09369180  1
  Ni  Ni184  1  0.40504968  0.74349718  0.12758651  1
  Ni  Ni185  1  0.20749283  0.11292898  0.84757410  1
  Ni  Ni186  1  0.60959507  0.22400579  0.78125678  1
  Ni  Ni187  1  0.19675937  0.89781079  0.06029735  1
  Ni  Ni188  1  0.84243717  0.16411160  0.46231832  1
  Ni  Ni189  1  0.39893004  0.72579754  0.44102611  1
  Ni  Ni190  1  0.59764524  0.42587897  0.94407917  1
  Ni  Ni191  1  0.32148821  0.33713647  0.86195122  1
  Ni  Ni192  1  0.28168073  0.20730119  0.73073335  1
  Ni  Ni193  1  0.54976552  0.20266269  0.55628599  1
  Ni  Ni194  1  0.86917007  0.12557355  0.28473325  1
  Ni  Ni195  1  0.68570936  0.36771461  0.81274650  1
  Ni  Ni196  1  0.68043012  0.65932051  0.13742284  1
  Ni  Ni197  1  0.79962249  0.05786137  0.72434013  1
  Ni  Ni198  1  0.21957704  0.36312661  0.13075924  1
  Ni  Ni199  1  0.33664859  0.58929292  0.52931658  1
  Ni  Ni200  1  0.90678913  0.24963590  0.08459794  1
  Ni  Ni201  1  0.55876734  0.78172901  0.17900461  1
  Ni  Ni202  1  0.72432830  0.27469744  0.51727406  1
  Ni  Ni203  1  0.72330141  0.94011167  0.61848153  1
  Ni  Ni204  1  0.78981848  0.63499158  0.89245113  1
  Ni  Ni205  1  0.34698496  0.89127868  0.98708381  1
  Ni  Ni206  1  1.00351413  0.94543802  0.10297854  1
  Ni  Ni207  1  0.24773086  0.04964362  0.55838352  1
  Ni  Ni208  1  0.44709013  0.03030463  0.00998710  1
  Ni  Ni209  1  0.16668356  0.78049271  0.80324666  1
  Ni  Ni210  1  0.35007717  0.13976704  0.33714709  1
  Ni  Ni211  1  0.95235622  0.56086612  0.71032328  1
  Ni  Ni212  1  0.80808888  0.72587734  0.03315046  1
  Ni  Ni213  1  0.52897830  0.13986605  0.89752178  1
  Ni  Ni214  1  0.57423646  0.99782173  0.34671875  1
  Ni  Ni215  1  0.92065806  0.74286869  0.90288290  1
