# generated using pymatgen
data_Ti2CoNi
_symmetry_space_group_name_H-M   'P 1'
_cell_length_a   14.56318015
_cell_length_b   14.61513393
_cell_length_c   14.53064496
_cell_angle_alpha   89.64724387
_cell_angle_beta   90.04658170
_cell_angle_gamma   89.91053302
_symmetry_Int_Tables_number   1
_chemical_formula_structural   Ti2CoNi
_chemical_formula_sum   'Ti108 Co54 Ni54'
_cell_volume   3092.68013617
_cell_formula_units_Z   54
loop_
 _symmetry_equiv_pos_site_id
 _symmetry_equiv_pos_as_xyz
  1  'x, y, z'
loop_
 _atom_site_type_symbol
 _atom_site_label
 _atom_site_symmetry_multiplicity
 _atom_site_fract_x
 _atom_site_fract_y
 _atom_site_fract_z
 _atom_site_occupancy
  Ti  Ti0  1  -0.04171667  0.02039813  -0.02169336  1
  Ti  Ti1  1  0.00526084  -0.08829864  0.31838870  1
  Ti  Ti2  1  -0.00247882  0.04231732  0.66663025  1
  Ti  Ti3  1  0.00009300  0.34275256  0.00345944  1
  Ti  Ti4  1  -0.01373555  0.36527900  0.32826274  1
  Ti  Ti5  1  -0.02497118  0.31429435  0.63535943  1
  Ti  Ti6  1  0.00107829  0.69245673  -0.03686691  1
  Ti  Ti7  1  0.08051165  0.65014118  0.41451651  1
  Ti  Ti8  1  0.01702526  0.65436292  0.72640206  1
  Ti  Ti9  1  0.30565516  -0.01304132  0.02318232  1
  Ti  Ti10  1  0.35385437  0.13582766  0.32458998  1
  Ti  Ti11  1  0.31339945  -0.03935101  0.68070573  1
  Ti  Ti12  1  0.41738796  0.34755591  0.04637970  1
  Ti  Ti13  1  0.32571479  0.32127174  0.27959155  1
  Ti  Ti14  1  0.33385979  0.35174424  0.54867116  1
  Ti  Ti15  1  0.31881612  0.64041910  0.00491164  1
  Ti  Ti16  1  0.24649074  0.70910706  0.34248630  1
  Ti  Ti17  1  0.40078243  0.68063272  0.66195214  1
  Ti  Ti18  1  0.63607423  0.02289975  0.02022421  1
  Ti  Ti19  1  0.61925419  0.03240704  0.33538719  1
  Ti  Ti20  1  0.61112115  0.06150507  0.69572875  1
  Ti  Ti21  1  0.75210198  0.35375764  -0.02245351  1
  Ti  Ti22  1  0.58983615  0.35124690  0.34293852  1
  Ti  Ti23  1  0.70740149  0.30120222  0.66415681  1
  Ti  Ti24  1  0.63678235  0.67268486  -0.08980664  1
  Ti  Ti25  1  0.56691847  0.67506019  0.34332890  1
  Ti  Ti26  1  0.72294761  0.59110621  0.72928741  1
  Ti  Ti27  1  -0.08027734  0.14295103  0.19396999  1
  Ti  Ti28  1  0.02753306  0.11201189  0.45646248  1
  Ti  Ti29  1  0.06101044  0.19253145  0.79297159  1
  Ti  Ti30  1  -0.00986115  0.48169753  0.17031731  1
  Ti  Ti31  1  -0.06184452  0.46092537  0.49033933  1
  Ti  Ti32  1  -0.00353693  0.51097966  0.84747366  1
  Ti  Ti33  1  -0.04372718  0.79321834  0.14729863  1
  Ti  Ti34  1  -0.05189162  0.81755298  0.47449486  1
  Ti  Ti35  1  0.00004277  0.82948338  0.82416108  1
  Ti  Ti36  1  0.22227773  0.12033825  0.14986124  1
  Ti  Ti37  1  0.38988686  0.16608252  0.54920329  1
  Ti  Ti38  1  0.33050592  0.17628967  0.88392887  1
  Ti  Ti39  1  0.31361786  0.57338289  0.22071918  1
  Ti  Ti40  1  0.35288994  0.53308754  0.53009430  1
  Ti  Ti41  1  0.32232116  0.51958333  0.84218505  1
  Ti  Ti42  1  0.36749395  0.84641203  0.21838178  1
  Ti  Ti43  1  0.26740422  0.86030886  0.50973362  1
  Ti  Ti44  1  0.34668660  0.86762664  0.88113636  1
  Ti  Ti45  1  0.74058741  0.19775211  0.10238825  1
  Ti  Ti46  1  0.66322703  0.13501573  0.49961825  1
  Ti  Ti47  1  0.63696575  0.20359684  0.86367785  1
  Ti  Ti48  1  0.65474777  0.57105802  0.21533140  1
  Ti  Ti49  1  0.71011474  0.55381593  0.50714397  1
  Ti  Ti50  1  0.57749292  0.49353270  0.84867785  1
  Ti  Ti51  1  0.68512470  0.75878352  0.20060248  1
  Ti  Ti52  1  0.68722879  0.73935558  0.47018344  1
  Ti  Ti53  1  0.68485886  0.87371791  0.89798958  1
  Ti  Ti54  1  0.10956180  -0.04639628  0.12806337  1
  Ti  Ti55  1  0.22524649  0.05952762  0.46662248  1
  Ti  Ti56  1  0.12318355  -0.04703052  0.92247519  1
  Ti  Ti57  1  0.13227500  0.27583122  0.17116002  1
  Ti  Ti58  1  0.12235216  0.31252131  0.49100571  1
  Ti  Ti59  1  0.22131978  0.33319724  0.76558112  1
  Ti  Ti60  1  0.16263735  0.58263557  0.08542345  1
  Ti  Ti61  1  0.18572980  0.66926323  0.57196219  1
  Ti  Ti62  1  0.16076656  0.62252825  0.86567420  1
  Ti  Ti63  1  0.47725547  0.02313411  0.20257917  1
  Ti  Ti64  1  0.53947131  -0.03429017  0.54494904  1
  Ti  Ti65  1  0.52553224  -0.06007261  0.79682651  1
  Ti  Ti66  1  0.56937022  0.28937332  0.14253144  1
  Ti  Ti67  1  0.54953158  0.42191305  0.50395879  1
  Ti  Ti68  1  0.42995868  0.36488774  0.83862758  1
  Ti  Ti69  1  0.48571783  0.66014614  0.12570932  1
  Ti  Ti70  1  0.42633176  0.69852070  0.47040866  1
  Ti  Ti71  1  0.44418035  0.67274080  0.84984203  1
  Ti  Ti72  1  0.78381314  -0.00304189  0.23313897  1
  Ti  Ti73  1  0.86699116  0.00171736  0.53097063  1
  Ti  Ti74  1  0.84421592  -0.06533525  0.77774279  1
  Ti  Ti75  1  0.82386105  0.35062682  0.18098185  1
  Ti  Ti76  1  0.76644443  0.36140997  0.41237442  1
  Ti  Ti77  1  0.91320012  0.32622219  0.84347939  1
  Ti  Ti78  1  0.80613231  0.67012128  0.07210426  1
  Ti  Ti79  1  0.88884564  0.63798089  0.43062010  1
  Ti  Ti80  1  0.84349207  0.64136299  0.87690653  1
  Ti  Ti81  1  0.16393775  0.13082908  -0.03344491  1
  Ti  Ti82  1  0.15730705  0.20487350  0.33746768  1
  Ti  Ti83  1  0.24559315  0.14804725  0.69980998  1
  Ti  Ti84  1  0.16221468  0.44297429  -0.08200793  1
  Ti  Ti85  1  0.15717502  0.48109989  0.29563560  1
  Ti  Ti86  1  0.13008948  0.49989437  0.70063114  1
  Ti  Ti87  1  0.18698936  0.78641003  -0.04468579  1
  Ti  Ti88  1  0.20870443  0.89720948  0.31909872  1
  Ti  Ti89  1  0.11257628  0.86628213  0.63959666  1
  Ti  Ti90  1  0.43763882  0.12759733  0.04648626  1
  Ti  Ti91  1  0.52782928  0.19271711  0.31115287  1
  Ti  Ti92  1  0.47971077  0.19162406  0.74825285  1
  Ti  Ti93  1  0.58723152  0.47568259  0.05556324  1
  Ti  Ti94  1  0.48648473  0.47898590  0.25701071  1
  Ti  Ti95  1  0.46251607  0.46863160  0.68462223  1
  Ti  Ti96  1  0.51505795  0.85426913  0.04972764  1
  Ti  Ti97  1  0.51833911  0.87498925  0.35737004  1
  Ti  Ti98  1  0.59983707  0.76795529  0.73513106  1
  Ti  Ti99  1  0.81757381  0.14637949  -0.09719671  1
  Ti  Ti100  1  0.83468787  0.18626325  0.37956326  1
  Ti  Ti101  1  0.78808339  0.10869239  0.70175971  1
  Ti  Ti102  1  0.88362597  0.49923674  0.01132730  1
  Ti  Ti103  1  0.82350273  0.50331490  0.30071451  1
  Ti  Ti104  1  0.89530511  0.48841950  0.69197354  1
  Ti  Ti105  1  0.80634888  0.89189532  0.07351483  1
  Ti  Ti106  1  0.83092377  0.77740461  0.30777126  1
  Ti  Ti107  1  0.79562795  0.80383402  0.61182254  1
  Co  Co108  1  0.48721371  0.07956208  0.42838490  1
  Co  Co109  1  0.19485254  0.45670059  0.56125222  1
  Co  Co110  1  0.83931769  0.47496216  0.85413867  1
  Co  Co111  1  0.29264041  0.72081872  0.82485313  1
  Co  Co112  1  0.47801770  0.23813440  0.92654245  1
  Co  Co113  1  -0.00053292  0.20757233  0.32026131  1
  Co  Co114  1  0.10754338  0.75041440  0.08825060  1
  Co  Co115  1  0.14433292  0.73973522  0.75078778  1
  Co  Co116  1  0.98725829  0.72681947  0.30471500  1
  Co  Co117  1  0.68463464  0.02971735  0.83426080  1
  Co  Co118  1  0.99225971  0.54626181  0.31900757  1
  Co  Co119  1  0.71593405  0.52819408  0.94310801  1
  Co  Co120  1  0.89610407  0.20886533  0.73578545  1
  Co  Co121  1  0.42492871  0.82214198  0.74295931  1
  Co  Co122  1  0.23568798  0.86847048  0.10916148  1
  Co  Co123  1  0.53258279  0.08676428  0.88632088  1
  Co  Co124  1  0.94129414  0.28615413  0.46821618  1
  Co  Co125  1  0.91400996  0.04872673  0.33998721  1
  Co  Co126  1  0.04059626  0.52791414  0.99744148  1
  Co  Co127  1  0.72028745  0.43385507  0.77646178  1
  Co  Co128  1  0.76554570  0.28381844  0.81534478  1
  Co  Co129  1  0.58890254  0.34436217  0.95968007  1
  Co  Co130  1  0.30393106  0.45770447  0.68899811  1
  Co  Co131  1  0.52937134  0.79976566  0.20973744  1
  Co  Co132  1  0.98507654  0.63237575  0.11790222  1
  Co  Co133  1  0.53859501  0.15766948  0.59423305  1
  Co  Co134  1  0.32089616  0.00110387  0.18732570  1
  Co  Co135  1  0.80239122  0.98408026  0.93128345  1
  Co  Co136  1  0.27845894  0.79798589  0.66706483  1
  Co  Co137  1  0.59760830  0.18227314  0.02348221  1
  Co  Co138  1  0.35901773  0.97601031  0.35607369  1
  Co  Co139  1  0.86297408  0.63782182  0.22657359  1
  Co  Co140  1  0.58537473  0.34341546  0.77795556  1
  Co  Co141  1  0.51909761  0.80878162  0.89295771  1
  Co  Co142  1  0.52048547  0.25887022  0.47029654  1
  Co  Co143  1  0.85644847  0.79611828  0.95473006  1
  Co  Co144  1  0.63840836  0.63558690  0.06483469  1
  Co  Co145  1  0.25806641  0.61686703  0.70786078  1
  Co  Co146  1  0.47754873  0.54713545  0.39990464  1
  Co  Co147  1  0.75966071  0.04133150  0.40354432  1
  Co  Co148  1  0.22996870  0.56861186  0.43193702  1
  Co  Co149  1  0.00734900  0.86124874  1.00240053  1
  Co  Co150  1  0.11594317  0.63475713  0.23090713  1
  Co  Co151  1  0.09195028  0.47394036  0.44202024  1
  Co  Co152  1  0.03820376  0.56129496  0.57595304  1
  Co  Co153  1  0.45827080  0.97161160  0.95830355  1
  Co  Co154  1  0.36790633  0.82125965  0.39064960  1
  Co  Co155  1  0.69303637  0.87579475  0.30874476  1
  Co  Co156  1  0.19149186  0.88059389  0.79189817  1
  Co  Co157  1  0.51034098  0.31773494  0.63037894  1
  Co  Co158  1  0.94769073  0.07111207  0.82255296  1
  Co  Co159  1  0.25506279  0.71645759  0.16152725  1
  Co  Co160  1  0.73824817  0.64324668  0.34241063  1
  Co  Co161  1  0.11903130  0.79972457  0.23893582  1
  Ni  Ni162  1  0.70821984  0.24083843  0.27156457  1
  Ni  Ni163  1  0.28878266  0.46613688  0.02178557  1
  Ni  Ni164  1  0.42463322  0.84151822  0.57407954  1
  Ni  Ni165  1  0.41126490  0.21823900  0.17906051  1
  Ni  Ni166  1  0.62766155  0.11050594  0.18262227  1
  Ni  Ni167  1  0.94743935  0.87387464  0.64453406  1
  Ni  Ni168  1  0.62243371  0.93667983  0.17259254  1
  Ni  Ni169  1  0.52714963  0.57979777  0.55971386  1
  Ni  Ni170  1  0.29434835  0.32979853  0.92467215  1
  Ni  Ni171  1  0.05726742  0.36837123  0.78434291  1
  Ni  Ni172  1  0.28172332  0.23935886  0.43882974  1
  Ni  Ni173  1  0.25685125  0.41988450  0.17452602  1
  Ni  Ni174  1  0.66733553  0.89934471  0.46070273  1
  Ni  Ni175  1  0.71462093  0.98453441  0.58128244  1
  Ni  Ni176  1  0.86626070  0.69431514  0.71339842  1
  Ni  Ni177  1  0.67008360  0.79665271  0.04126338  1
  Ni  Ni178  1  0.26155399  0.02363653  0.85543105  1
  Ni  Ni179  1  0.76397117  0.76910635  0.80453525  1
  Ni  Ni180  1  0.04688593  0.95087029  0.50684322  1
  Ni  Ni181  1  0.92104818  0.15990478  0.57584004  1
  Ni  Ni182  1  0.69277335  0.90157570  0.71670825  1
  Ni  Ni183  1  1.01174653  0.72054744  0.57970376  1
  Ni  Ni184  1  0.82446021  0.06148353  0.07168041  1
  Ni  Ni185  1  0.63086131  0.46864084  0.64542920  1
  Ni  Ni186  1  0.94600075  0.97183582  0.15598350  1
  Ni  Ni187  1  0.89428687  0.22007575  0.03194828  1
  Ni  Ni188  1  0.27822776  0.25253946  0.06905392  1
  Ni  Ni189  1  0.36841398  0.78569944  0.05642324  1
  Ni  Ni190  1  0.09162403  0.18702307  0.61105362  1
  Ni  Ni191  1  0.41155306  0.69484447  0.28428606  1
  Ni  Ni192  1  0.55564695  0.60926923  0.72303687  1
  Ni  Ni193  1  0.04384296  0.13385107  0.08177658  1
  Ni  Ni194  1  0.37366513  0.99717548  0.52305619  1
  Ni  Ni195  1  0.67091583  0.40433909  0.21068676  1
  Ni  Ni196  1  0.15810541  0.03073714  0.60942243  1
  Ni  Ni197  1  0.45214033  0.53964751  0.96134459  1
  Ni  Ni198  1  0.79005512  0.42100447  0.57386105  1
  Ni  Ni199  1  0.11918972  0.81210750  0.44774218  1
  Ni  Ni200  1  0.12619409  0.41458587  0.08506036  1
  Ni  Ni201  1  0.21275109  0.05003092  0.29795709  1
  Ni  Ni202  1  0.41568279  0.50162131  0.11263596  1
  Ni  Ni203  1  0.13364525  0.28263922  0.91979530  1
  Ni  Ni204  1  0.97814689  0.29620933  0.16306056  1
  Ni  Ni205  1  0.05918094  0.06052340  0.26002954  1
  Ni  Ni206  1  0.64712910  0.50166284  0.36499671  1
  Ni  Ni207  1  0.12470241  0.03903057  0.77345120  1
  Ni  Ni208  1  0.40378816  0.04827611  0.79139378  1
  Ni  Ni209  1  0.85157328  0.60590232  0.58468475  1
  Ni  Ni210  1  0.75732218  0.49993859  0.10927926  1
  Ni  Ni211  1  0.79007932  0.24109287  0.53674836  1
  Ni  Ni212  1  0.56069143  0.73741737  0.58076205  1
  Ni  Ni213  1  0.83679073  0.90800066  0.39700555  1
  Ni  Ni214  1  0.41579306  0.39153777  0.40014820  1
  Ni  Ni215  1  0.35949319  0.28767491  0.69742068  1
