# generated using pymatgen
data_Ti2CoNi
_symmetry_space_group_name_H-M   'P 1'
_cell_length_a   14.52107453
_cell_length_b   14.49658682
_cell_length_c   14.54141128
_cell_angle_alpha   89.43872732
_cell_angle_beta   89.96863319
_cell_angle_gamma   90.24366421
_symmetry_Int_Tables_number   1
_chemical_formula_structural   Ti2CoNi
_chemical_formula_sum   'Ti108 Co54 Ni54'
_cell_volume   3060.87949642
_cell_formula_units_Z   54
loop_
 _symmetry_equiv_pos_site_id
 _symmetry_equiv_pos_as_xyz
  1  'x, y, z'
loop_
 _atom_site_type_symbol
 _atom_site_label
 _atom_site_symmetry_multiplicity
 _atom_site_fract_x
 _atom_site_fract_y
 _atom_site_fract_z
 _atom_site_occupancy
  Ti  Ti0  1  0.08592179  -0.05163441  0.00201762  1
  Ti  Ti1  1  0.03280148  -0.04557101  0.39022611  1
  Ti  Ti2  1  0.00336304  -0.03206127  0.58744894  1
  Ti  Ti3  1  -0.02028998  0.40290329  0.02884329  1
  Ti  Ti4  1  0.03575680  0.29553648  0.29236322  1
  Ti  Ti5  1  -0.03698101  0.39014494  0.67948138  1
  Ti  Ti6  1  -0.04666145  0.66101883  -0.07413416  1
  Ti  Ti7  1  -0.03553341  0.61213160  0.35160954  1
  Ti  Ti8  1  -0.00160855  0.63471936  0.64924483  1
  Ti  Ti9  1  0.37049538  -0.01238616  -0.03988758  1
  Ti  Ti10  1  0.34114282  0.02633981  0.24085421  1
  Ti  Ti11  1  0.30126510  -0.05579391  0.63691717  1
  Ti  Ti12  1  0.39323768  0.34603569  -0.09390727  1
  Ti  Ti13  1  0.36342628  0.30053436  0.41257403  1
  Ti  Ti14  1  0.32183388  0.26875170  0.59548716  1
  Ti  Ti15  1  0.27224443  0.63428084  -0.04790500  1
  Ti  Ti16  1  0.31705593  0.65215302  0.30268361  1
  Ti  Ti17  1  0.35670870  0.65524040  0.71718687  1
  Ti  Ti18  1  0.68022036  -0.00353050  0.00634963  1
  Ti  Ti19  1  0.66162911  -0.06034731  0.40403429  1
  Ti  Ti20  1  0.68685930  0.01180892  0.57635434  1
  Ti  Ti21  1  0.63651958  0.38069360  0.01007631  1
  Ti  Ti22  1  0.73384359  0.31792159  0.37908938  1
  Ti  Ti23  1  0.76010948  0.32385003  0.71708157  1
  Ti  Ti24  1  0.65527743  0.58720646  -0.01697776  1
  Ti  Ti25  1  0.73351930  0.69035744  0.31975516  1
  Ti  Ti26  1  0.69338499  0.62994825  0.69222790  1
  Ti  Ti27  1  -0.07297358  0.15324599  0.16943589  1
  Ti  Ti28  1  0.03771139  0.15416165  0.45449663  1
  Ti  Ti29  1  0.00682533  0.16859568  0.88976858  1
  Ti  Ti30  1  -0.03214151  0.50416506  0.21141785  1
  Ti  Ti31  1  0.09432630  0.55645878  0.48483362  1
  Ti  Ti32  1  -0.06294093  0.48111022  0.84689152  1
  Ti  Ti33  1  -0.01981939  0.86451388  0.17805305  1
  Ti  Ti34  1  0.02588636  0.77809398  0.46958970  1
  Ti  Ti35  1  -0.01947171  0.92034999  0.79308478  1
  Ti  Ti36  1  0.38223636  0.23104447  0.14522582  1
  Ti  Ti37  1  0.33740366  0.10096796  0.45973286  1
  Ti  Ti38  1  0.31226334  0.19460219  0.76716594  1
  Ti  Ti39  1  0.30996733  0.51381110  0.18249882  1
  Ti  Ti40  1  0.28141976  0.46281489  0.52147994  1
  Ti  Ti41  1  0.27877378  0.43216080  0.72840840  1
  Ti  Ti42  1  0.41464761  0.77658153  0.18902349  1
  Ti  Ti43  1  0.42084278  0.79754594  0.57499114  1
  Ti  Ti44  1  0.26210690  0.85158329  0.89359418  1
  Ti  Ti45  1  0.69520812  0.13662026  0.16306413  1
  Ti  Ti46  1  0.63104138  0.16307189  0.48130964  1
  Ti  Ti47  1  0.65567902  0.16915545  0.91131443  1
  Ti  Ti48  1  0.67991627  0.46563744  0.17558127  1
  Ti  Ti49  1  0.64043827  0.45787828  0.51265927  1
  Ti  Ti50  1  0.66609606  0.50786516  0.81649935  1
  Ti  Ti51  1  0.64572007  0.86099720  0.15426467  1
  Ti  Ti52  1  0.61057182  0.79079511  0.54346762  1
  Ti  Ti53  1  0.62668183  0.89000868  0.85720438  1
  Ti  Ti54  1  0.11000001  0.01104078  0.19780064  1
  Ti  Ti55  1  0.17597355  0.01340016  0.50599633  1
  Ti  Ti56  1  0.18553772  0.05296282  0.83896604  1
  Ti  Ti57  1  0.18598177  0.31795850  0.13021690  1
  Ti  Ti58  1  0.10940810  0.34095242  0.49610653  1
  Ti  Ti59  1  0.16352832  0.29594174  0.86091666  1
  Ti  Ti60  1  0.14365131  0.63040949  0.10941870  1
  Ti  Ti61  1  0.28879601  0.69585801  0.48631524  1
  Ti  Ti62  1  0.17184519  0.73091756  0.78854570  1
  Ti  Ti63  1  0.52085604  0.05108974  0.12191163  1
  Ti  Ti64  1  0.49426580  -0.00774644  0.55110945  1
  Ti  Ti65  1  0.48836598  0.05606673  0.77467637  1
  Ti  Ti66  1  0.48773417  0.41073310  0.15362289  1
  Ti  Ti67  1  0.46227743  0.40385538  0.53361009  1
  Ti  Ti68  1  0.57490746  0.34603484  0.83560015  1
  Ti  Ti69  1  0.57714955  0.67615570  0.22361805  1
  Ti  Ti70  1  0.53027522  0.62777909  0.43097009  1
  Ti  Ti71  1  0.43416243  0.69669646  0.89482849  1
  Ti  Ti72  1  0.87123214  -0.00477870  0.28690290  1
  Ti  Ti73  1  0.84753948  0.01539026  0.48167384  1
  Ti  Ti74  1  0.82366337  0.09240868  0.83684733  1
  Ti  Ti75  1  0.87194059  0.34752589  0.20268187  1
  Ti  Ti76  1  0.83461367  0.21203499  0.51906768  1
  Ti  Ti77  1  0.83629656  0.29772174  0.89644731  1
  Ti  Ti78  1  0.86241787  0.70636747  0.15840562  1
  Ti  Ti79  1  0.82077874  0.72023077  0.56928933  1
  Ti  Ti80  1  0.81465687  0.75836805  0.82659219  1
  Ti  Ti81  1  0.20157409  0.13122653  0.02468226  1
  Ti  Ti82  1  0.20866165  0.21561423  0.33433142  1
  Ti  Ti83  1  0.10287039  0.16499847  0.66861187  1
  Ti  Ti84  1  0.10707703  0.51715174  -0.05931752  1
  Ti  Ti85  1  0.18918810  0.42144093  0.30714864  1
  Ti  Ti86  1  0.19179035  0.59354173  0.65878409  1
  Ti  Ti87  1  0.22936837  0.81742463  0.07748202  1
  Ti  Ti88  1  0.25122033  0.87022597  0.32620060  1
  Ti  Ti89  1  0.09436467  0.82706224  0.65277802  1
  Ti  Ti90  1  0.49717451  0.20400776  -0.00204364  1
  Ti  Ti91  1  0.52487216  0.16052450  0.31514201  1
  Ti  Ti92  1  0.53441793  0.26754429  0.64505184  1
  Ti  Ti93  1  0.40930725  0.51551009  0.00315547  1
  Ti  Ti94  1  0.50439524  0.44823882  0.35736266  1
  Ti  Ti95  1  0.47818810  0.49732732  0.69211305  1
  Ti  Ti96  1  0.55004059  0.74637681  0.02463909  1
  Ti  Ti97  1  0.49683478  0.91569931  0.26221484  1
  Ti  Ti98  1  0.52505912  0.77440950  0.74163000  1
  Ti  Ti99  1  0.83931914  0.09616620  0.01611805  1
  Ti  Ti100  1  0.87034600  0.18876002  0.33766971  1
  Ti  Ti101  1  0.75788716  0.14724997  0.66760257  1
  Ti  Ti102  1  0.82408209  0.53927779  0.05731643  1
  Ti  Ti103  1  0.78720642  0.54715161  0.42503371  1
  Ti  Ti104  1  0.82141683  0.51552977  0.60461472  1
  Ti  Ti105  1  0.82082556  0.86233799  0.04463779  1
  Ti  Ti106  1  0.89813223  0.79107101  0.34041284  1
  Ti  Ti107  1  0.79365809  0.92170358  0.71936584  1
  Co  Co108  1  0.50449091  0.87357586  0.43926038  1
  Co  Co109  1  0.36558054  0.08551998  0.08283559  1
  Co  Co110  1  0.08436070  0.26362520  1.00676425  1
  Co  Co111  1  0.44917282  0.92021909  0.70599494  1
  Co  Co112  1  1.01999638  0.10309583  0.30731555  1
  Co  Co113  1  0.95677914  0.12096987  0.58938365  1
  Co  Co114  1  0.92030746  0.25224388  0.03650521  1
  Co  Co115  1  0.79532542  0.93433556  0.89498903  1
  Co  Co116  1  0.56006095  0.30462202  0.43597300  1
  Co  Co117  1  0.34891137  0.37937225  0.07853146  1
  Co  Co118  1  0.93911684  0.31458224  0.42840205  1
  Co  Co119  1  0.02243924  0.06761717  0.76452626  1
  Co  Co120  1  0.24573661  0.14665545  0.18997101  1
  Co  Co121  1  0.80948455  0.46875167  0.75822229  1
  Co  Co122  1  0.23597597  0.98087001  0.09537045  1
  Co  Co123  1  0.66131577  0.03981698  0.78331901  1
  Co  Co124  1  0.22831029  0.55405547  0.39702276  1
  Co  Co125  1  0.92914192  0.62716473  0.49928567  1
  Co  Co126  1  0.79568554  0.60516722  0.88721381  1
  Co  Co127  1  0.38078113  0.91267661  0.11377018  1
  Co  Co128  1  0.60388298  0.91770547  0.67466160  1
  Co  Co129  1  0.25495307  0.77587835  0.63943168  1
  Co  Co130  1  0.09513608  0.84224335  0.88588183  1
  Co  Co131  1  0.26289353  0.28145087  -0.01321876  1
  Co  Co132  1  0.88970354  0.86262010  0.48808482  1
  Co  Co133  1  0.40615534  0.10883477  0.63535206  1
  Co  Co134  1  0.64200520  0.20737394  0.76101513  1
  Co  Co135  1  -0.01657952  0.74764612  0.78022009  1
  Co  Co136  1  0.87739168  1.04184309  0.68836665  1
  Co  Co137  1  0.09269666  0.18829958  0.18283402  1
  Co  Co138  1  0.80586294  0.37957524  0.06148873  1
  Co  Co139  1  0.68127027  0.30112346  0.56765504  1
  Co  Co140  1  0.05817510  0.60498805  0.80061392  1
  Co  Co141  1  0.24759951  0.09946749  0.64538790  1
  Co  Co142  1  0.80690528  0.38244621  0.50618180  1
  Co  Co143  1  -0.01683570  0.27707177  0.58009124  1
  Co  Co144  1  0.38274705  0.52464197  0.83106088  1
  Co  Co145  1  0.31003142  0.33929001  0.24564244  1
  Co  Co146  1  0.93235885  0.99120286  0.10350061  1
  Co  Co147  1  0.95605154  0.45961114  0.51416811  1
  Co  Co148  1  0.22114966  0.56939583  0.81413394  1
  Co  Co149  1  0.95017642  0.00611408  0.93405418  1
  Co  Co150  1  0.17529102  0.92938127  0.74847372  1
  Co  Co151  1  0.57444789  0.11110303  0.64594020  1
  Co  Co152  1  0.77655048  0.44574993  0.92039835  1
  Co  Co153  1  0.34959536  0.46852050  0.34982526  1
  Co  Co154  1  0.52798716  0.90452523  0.03338675  1
  Co  Co155  1  0.25450114  0.43471627  0.90089173  1
  Co  Co156  1  0.34580287  0.81241472  0.76398779  1
  Co  Co157  1  0.74882095  0.87054909  0.57348023  1
  Co  Co158  1  0.91816096  0.82441887  0.64872788  1
  Co  Co159  1  0.46849064  0.18687722  0.50409440  1
  Co  Co160  1  0.74506972  0.79875204  0.43356906  1
  Co  Co161  1  0.87353415  0.61927294  0.74544352  1
  Ni  Ni162  1  0.53036350  0.64864009  0.61849307  1
  Ni  Ni163  1  0.42720753  0.75096338  0.38628263  1
  Ni  Ni164  1  0.93566532  0.83229564  0.93147343  1
  Ni  Ni165  1  0.41463486  0.34210883  0.73306772  1
  Ni  Ni166  1  0.01919778  0.76334232  0.05795959  1
  Ni  Ni167  1  0.76079360  0.86071331  0.27080743  1
  Ni  Ni168  1  0.73992283  0.09967081  0.37769521  1
  Ni  Ni169  1  0.46840304  0.02382773  0.38526864  1
  Ni  Ni170  1  0.53296790  0.61281871  0.79002284  1
  Ni  Ni171  1  0.67694351  0.63363058  0.51939212  1
  Ni  Ni172  1  0.77166806  -0.01434259  0.15622348  1
  Ni  Ni173  1  0.70175572  0.68370446  0.11289503  1
  Ni  Ni174  1  0.10259247  0.46112429  0.14008608  1
  Ni  Ni175  1  0.08638583  0.83150712  0.30068269  1
  Ni  Ni176  1  0.19368579  0.04895124  0.33799412  1
  Ni  Ni177  1  0.53935878  0.03698572  0.93206006  1
  Ni  Ni178  1  0.17329288  0.30897273  0.68146339  1
  Ni  Ni179  1  0.20284980  0.74309694  0.22149212  1
  Ni  Ni180  1  0.72773169  0.29264697  0.18858838  1
  Ni  Ni181  1  0.03748977  0.45050167  0.36665612  1
  Ni  Ni182  1  0.19510354  0.84623547  0.48978160  1
  Ni  Ni183  1  0.15285446  0.70523717  0.37617503  1
  Ni  Ni184  1  0.63276232  0.43002907  0.67177188  1
  Ni  Ni185  1  0.45926299  0.29799970  0.27946974  1
  Ni  Ni186  1  0.56491725  0.25449902  0.14417849  1
  Ni  Ni187  1  0.13074909  0.57800797  0.27010331  1
  Ni  Ni188  1  0.45781703  0.87558245  0.87380843  1
  Ni  Ni189  1  0.69397303  0.78815476  0.71876759  1
  Ni  Ni190  1  0.39292731  0.65886305  0.08408190  1
  Ni  Ni191  1  0.34860788  0.15351585  0.92283486  1
  Ni  Ni192  1  0.98402331  0.59800037  0.07406466  1
  Ni  Ni193  1  0.03327287  0.10887766  0.04700525  1
  Ni  Ni194  1  0.10546537  0.44063297  0.78574072  1
  Ni  Ni195  1  0.74229188  0.23504651  1.03596001  1
  Ni  Ni196  1  0.52797840  0.49008704  0.90496144  1
  Ni  Ni197  1  0.64564134  0.71390592  0.87002011  1
  Ni  Ni198  1  0.40207312  0.58336965  0.54310010  1
  Ni  Ni199  1  0.34628023  0.92264609  0.45792816  1
  Ni  Ni200  1  0.47815449  0.20852355  0.82697423  1
  Ni  Ni201  1  0.12480513  0.70051958  0.95288843  1
  Ni  Ni202  1  0.59860281  0.79481556  0.33873924  1
  Ni  Ni203  1  0.23093101  0.48666784  0.04684660  1
  Ni  Ni204  1  0.54571902  0.56700601  0.10031415  1
  Ni  Ni205  1  1.02221863  0.69858546  0.21937316  1
  Ni  Ni206  1  0.92347092  0.21160955  0.73607454  1
  Ni  Ni207  1  0.11166192  0.45336458  0.62014176  1
  Ni  Ni208  1  0.19801932  0.19597163  0.51032733  1
  Ni  Ni209  1  0.62352092  0.02843578  0.27064505  1
  Ni  Ni210  1  0.61026733  0.34629437  0.27820530  1
  Ni  Ni211  1  0.64444107  0.53689984  0.32307994  1
  Ni  Ni212  1  0.87578713  0.43864508  0.34471232  1
  Ni  Ni213  1  0.13939736  0.70328997  0.54918789  1
  Ni  Ni214  1  0.79940366  0.56160913  0.23765013  1
  Ni  Ni215  1  0.45863836  0.56883260  0.24797102  1
