# generated using pymatgen
data_Ti2CoNi
_symmetry_space_group_name_H-M   'P 1'
_cell_length_a   14.65166956
_cell_length_b   14.67502912
_cell_length_c   14.68939507
_cell_angle_alpha   89.96927715
_cell_angle_beta   90.00753090
_cell_angle_gamma   89.76040098
_symmetry_Int_Tables_number   1
_chemical_formula_structural   Ti2CoNi
_chemical_formula_sum   'Ti108 Co54 Ni54'
_cell_volume   3158.39275481
_cell_formula_units_Z   54
loop_
 _symmetry_equiv_pos_site_id
 _symmetry_equiv_pos_as_xyz
  1  'x, y, z'
loop_
 _atom_site_type_symbol
 _atom_site_label
 _atom_site_symmetry_multiplicity
 _atom_site_fract_x
 _atom_site_fract_y
 _atom_site_fract_z
 _atom_site_occupancy
  Ti  Ti0  1  0.00284974  0.08443182  -0.03681013  1
  Ti  Ti1  1  -0.04143352  -0.04465795  0.36505838  1
  Ti  Ti2  1  -0.05228149  0.01323327  0.67915766  1
  Ti  Ti3  1  -0.01097330  0.29487795  -0.00950006  1
  Ti  Ti4  1  -0.00379471  0.32066110  0.20790810  1
  Ti  Ti5  1  0.07661370  0.33982452  0.62474702  1
  Ti  Ti6  1  0.03528370  0.60635596  -0.02472876  1
  Ti  Ti7  1  -0.03619997  0.74128838  0.37797481  1
  Ti  Ti8  1  -0.06054023  0.65891594  0.67862082  1
  Ti  Ti9  1  0.38929097  0.13353839  -0.02741664  1
  Ti  Ti10  1  0.35308177  -0.01399976  0.42348179  1
  Ti  Ti11  1  0.30247306  0.11089286  0.69167347  1
  Ti  Ti12  1  0.36121716  0.31827868  0.05006051  1
  Ti  Ti13  1  0.30178260  0.32151990  0.28049877  1
  Ti  Ti14  1  0.30661553  0.30431534  0.60637860  1
  Ti  Ti15  1  0.37579227  0.66248522  0.02858094  1
  Ti  Ti16  1  0.38181736  0.64301759  0.24155549  1
  Ti  Ti17  1  0.29521984  0.67531983  0.65318159  1
  Ti  Ti18  1  0.67005126  -0.01644371  -0.04276665  1
  Ti  Ti19  1  0.70189939  0.02383378  0.38839065  1
  Ti  Ti20  1  0.72749170  -0.00347650  0.65578754  1
  Ti  Ti21  1  0.69781191  0.30797061  0.07394813  1
  Ti  Ti22  1  0.61273477  0.40754866  0.36109844  1
  Ti  Ti23  1  0.64753355  0.26222483  0.71140427  1
  Ti  Ti24  1  0.57114846  0.66926231  -0.00322941  1
  Ti  Ti25  1  0.66857957  0.63189944  0.36376487  1
  Ti  Ti26  1  0.63619429  0.69298742  0.71036490  1
  Ti  Ti27  1  0.01517740  0.13180901  0.14502032  1
  Ti  Ti28  1  0.01736453  0.07445018  0.51127197  1
  Ti  Ti29  1  -0.01598913  0.18278209  0.78509553  1
  Ti  Ti30  1  0.05639234  0.52498007  0.14946208  1
  Ti  Ti31  1  0.01639934  0.43884787  0.46831651  1
  Ti  Ti32  1  0.03300556  0.52211874  0.78487637  1
  Ti  Ti33  1  -0.01430435  0.82832835  0.16840938  1
  Ti  Ti34  1  0.05901632  0.87787704  0.50888561  1
  Ti  Ti35  1  -0.01847729  0.83458797  0.80515125  1
  Ti  Ti36  1  0.29350280  0.16868094  0.15031548  1
  Ti  Ti37  1  0.41271611  0.19263656  0.44094645  1
  Ti  Ti38  1  0.27596432  0.25214663  0.83122646  1
  Ti  Ti39  1  0.36311871  0.48108719  0.14577284  1
  Ti  Ti40  1  0.32871954  0.51941493  0.53684429  1
  Ti  Ti41  1  0.34399843  0.43677105  0.87609234  1
  Ti  Ti42  1  0.27057898  0.78914624  0.15049407  1
  Ti  Ti43  1  0.35456771  0.83418242  0.56350146  1
  Ti  Ti44  1  0.31251676  0.81707618  0.89619320  1
  Ti  Ti45  1  0.69365199  0.13053480  0.21480433  1
  Ti  Ti46  1  0.61930905  0.21015010  0.42743288  1
  Ti  Ti47  1  0.70455629  0.18848119  0.90715430  1
  Ti  Ti48  1  0.62042646  0.46777928  0.17789076  1
  Ti  Ti49  1  0.68808280  0.49171192  0.55809216  1
  Ti  Ti50  1  0.71371457  0.49063992  0.76945641  1
  Ti  Ti51  1  0.62752947  0.85517855  0.11691048  1
  Ti  Ti52  1  0.59923509  0.80502300  0.45075529  1
  Ti  Ti53  1  0.65629700  0.79829224  0.88473608  1
  Ti  Ti54  1  0.19199315  0.00867419  0.18786103  1
  Ti  Ti55  1  0.21156379  -0.02256369  0.57852555  1
  Ti  Ti56  1  0.11624610  -0.00595380  0.82524054  1
  Ti  Ti57  1  0.16652780  0.32775116  0.10535672  1
  Ti  Ti58  1  0.11491745  0.29759113  0.36272399  1
  Ti  Ti59  1  0.09595545  0.34515480  0.82983061  1
  Ti  Ti60  1  0.14411735  0.66989032  0.26382676  1
  Ti  Ti61  1  0.15132732  0.61931202  0.52398194  1
  Ti  Ti62  1  0.17861997  0.66327060  0.82924109  1
  Ti  Ti63  1  0.39330907  -0.01183012  0.13541786  1
  Ti  Ti64  1  0.55695403  0.03517017  0.50915637  1
  Ti  Ti65  1  0.47622984  -0.06721936  0.82956661  1
  Ti  Ti66  1  0.55667928  0.26619866  0.20050857  1
  Ti  Ti67  1  0.48829879  0.37548220  0.53500197  1
  Ti  Ti68  1  0.52166110  0.39502340  0.81659717  1
  Ti  Ti69  1  0.64034841  0.66490277  0.17944188  1
  Ti  Ti70  1  0.45002000  0.65979288  0.44799823  1
  Ti  Ti71  1  0.44558963  0.67790503  0.77328118  1
  Ti  Ti72  1  0.84787643  0.01666752  0.23156995  1
  Ti  Ti73  1  0.83396324  0.04054823  0.50774720  1
  Ti  Ti74  1  0.83648283  0.03590516  0.84202963  1
  Ti  Ti75  1  0.78109166  0.34403039  0.26181842  1
  Ti  Ti76  1  0.78932660  0.33866999  0.46886626  1
  Ti  Ti77  1  0.81817069  0.32317425  0.80645416  1
  Ti  Ti78  1  0.86664412  0.61715458  0.11545607  1
  Ti  Ti79  1  0.82338849  0.61748965  0.49837785  1
  Ti  Ti80  1  0.85033414  0.70082935  0.92322414  1
  Ti  Ti81  1  0.20490734  0.03901155  0.00197154  1
  Ti  Ti82  1  0.22625130  0.12970649  0.35217063  1
  Ti  Ti83  1  0.15993156  0.17834994  0.54851286  1
  Ti  Ti84  1  0.22119116  0.51356837  0.01247706  1
  Ti  Ti85  1  0.20504745  0.47049260  0.37587467  1
  Ti  Ti86  1  0.22338821  0.46130309  0.69643388  1
  Ti  Ti87  1  0.11512623  0.83257150  -0.02596360  1
  Ti  Ti88  1  0.13673427  0.86955292  0.30598157  1
  Ti  Ti89  1  0.22146566  0.84330659  0.73598930  1
  Ti  Ti90  1  0.54030840  0.25493583  -0.01363464  1
  Ti  Ti91  1  0.52278542  0.08463064  0.29739342  1
  Ti  Ti92  1  0.53747568  0.08297225  0.70094400  1
  Ti  Ti93  1  0.59491216  0.47911360  -0.02786295  1
  Ti  Ti94  1  0.41537389  0.48377834  0.35639451  1
  Ti  Ti95  1  0.49921280  0.55930412  0.62960534  1
  Ti  Ti96  1  0.45207226  0.85394263  0.02876936  1
  Ti  Ti97  1  0.43997616  0.81885540  0.31830517  1
  Ti  Ti98  1  0.55380801  0.87679007  0.64505156  1
  Ti  Ti99  1  0.82415761  0.13035590  0.06022127  1
  Ti  Ti100  1  0.95768732  0.16185177  0.34004288  1
  Ti  Ti101  1  0.82562103  0.19172501  0.65433124  1
  Ti  Ti102  1  0.79355529  0.50726758  -0.04393924  1
  Ti  Ti103  1  0.91269115  0.54800916  0.33258644  1
  Ti  Ti104  1  0.89070944  0.47620278  0.63746327  1
  Ti  Ti105  1  0.82617924  0.85890221  0.04356337  1
  Ti  Ti106  1  0.78552362  0.83991750  0.31461461  1
  Ti  Ti107  1  0.79828909  0.79236752  0.60936980  1
  Co  Co108  1  0.07336463  0.58807237  0.37521060  1
  Co  Co109  1  0.92921680  0.46051811  0.04700780  1
  Co  Co110  1  0.48269390  0.31449040  0.37038015  1
  Co  Co111  1  0.41520633  0.21459430  0.25912706  1
  Co  Co112  1  0.49866710  0.57163216  0.11255422  1
  Co  Co113  1  0.56620935  0.55754520  0.79299702  1
  Co  Co114  1  0.77568065  0.44657739  0.10776096  1
  Co  Co115  1  0.53521391  0.56184665  0.28688181  1
  Co  Co116  1  0.30721994  0.11092588  0.52543410  1
  Co  Co117  1  0.92800938  0.34947789  0.36037800  1
  Co  Co118  1  0.73963581  -0.00746119  0.10397308  1
  Co  Co119  1  0.12915091  0.74292029  0.42005435  1
  Co  Co120  1  0.54759468  0.21856546  0.82102889  1
  Co  Co121  1  0.56542520  0.07346719  0.86998621  1
  Co  Co122  1  0.67744862  0.13822838  0.58780812  1
  Co  Co123  1  0.28960262  0.70604133  0.48783171  1
  Co  Co124  1  0.41332505  0.11531234  0.81479621  1
  Co  Co125  1  0.91622619  0.98853419  0.08677975  1
  Co  Co126  1  0.57118395  0.00687924  0.15443645  1
  Co  Co127  1  0.36144768  0.97969173  0.93417269  1
  Co  Co128  1  0.61658933  0.79453913  0.27879327  1
  Co  Co129  1  0.95355842  0.35186558  0.73042347  1
  Co  Co130  1  0.18998319  0.41026785  0.52834769  1
  Co  Co131  1  0.90504139  0.45542890  0.20537906  1
  Co  Co132  1  0.23241146  0.87018856  0.44353492  1
  Co  Co133  1  0.91165923  0.32674274  0.57184202  1
  Co  Co134  1  0.21035742  0.35852463  0.94721317  1
  Co  Co135  1  0.85433863  0.19071296  0.21604647  1
  Co  Co136  1  0.07762912  -0.03630160  0.06699024  1
  Co  Co137  1  0.27079594  0.89383182  0.03944052  1
  Co  Co138  1  0.87262403  0.19354805  0.48557512  1
  Co  Co139  1  0.47290388  0.14329549  0.12198725  1
  Co  Co140  1  0.97217345  0.76338638  1.00521031  1
  Co  Co141  1  0.66714025  0.35046153  0.89116173  1
  Co  Co142  1  0.68163223  0.94973743  0.25028437  1
  Co  Co143  1  0.41721413  0.28419612  0.88247561  1
  Co  Co144  1  0.05395550  0.44765935  0.29421968  1
  Co  Co145  1  0.18020669  0.49848154  0.85451628  1
  Co  Co146  1  0.25626533  0.08654967  0.85681170  1
  Co  Co147  1  0.69216908  0.10907825  0.76883377  1
  Co  Co148  1  0.77127461  0.36581983  0.65021480  1
  Co  Co149  1  0.24947448  0.26198738  0.44786902  1
  Co  Co150  1  0.00313975  0.68072806  0.83742773  1
  Co  Co151  1  0.28748144  0.60047063  0.37515969  1
  Co  Co152  1  0.01626515  0.25073560  0.47495741  1
  Co  Co153  1  0.32074199  0.96582831  0.76960480  1
  Co  Co154  1  0.47689414  -0.10340277  0.48429753  1
  Co  Co155  1  0.45673568  0.38645628  0.23201351  1
  Co  Co156  1  0.39768029  0.82492728  0.72201075  1
  Co  Co157  1  0.51296667  0.39018879  0.07997106  1
  Co  Co158  1  0.98792668  0.18824776  0.62521614  1
  Co  Co159  1  0.18169314  0.79265150  0.57962084  1
  Co  Co160  1  0.54561390  0.93667443  0.34068772  1
  Co  Co161  1  0.34572977  0.37709867  0.45198644  1
  Ni  Ni162  1  0.22627966  0.20549965  -0.00285052  1
  Ni  Ni163  1  0.39495650  0.43279014  0.68581755  1
  Ni  Ni164  1  0.77191073  0.61510090  0.65760683  1
  Ni  Ni165  1  0.10686866  0.07425877  0.67745754  1
  Ni  Ni166  1  0.20185893  0.45557513  0.20607330  1
  Ni  Ni167  1  0.96449767  0.75461614  0.54916031  1
  Ni  Ni168  1  0.13617173  0.00565862  0.41160742  1
  Ni  Ni169  1  0.35746709  0.06558968  0.27420971  1
  Ni  Ni170  1  0.23862289  0.61336480  0.13841195  1
  Ni  Ni171  1  0.51038794  1.01497110  0.00801081  1
  Ni  Ni172  1  0.44918267  0.56376032  0.91310590  1
  Ni  Ni173  1  0.32026620  0.57010068  0.78248347  1
  Ni  Ni174  1  0.84254800  0.69325788  0.26476775  1
  Ni  Ni175  1  0.40394681  0.98863921  0.61657399  1
  Ni  Ni176  1  0.93261643  0.43441445  0.88008863  1
  Ni  Ni177  1  0.63903739  0.65863554  0.54076945  1
  Ni  Ni178  1  0.75883246  0.75633063  0.45067651  1
  Ni  Ni179  1  0.87449894  0.19077410  0.91018939  1
  Ni  Ni180  1  0.13863414  0.20347385  0.22565851  1
  Ni  Ni181  1  0.48382873  0.74773628  0.15649284  1
  Ni  Ni182  1  0.07967061  0.90616777  0.67410441  1
  Ni  Ni183  1  0.87430271  0.87186101  0.47459464  1
  Ni  Ni184  1  0.27530068  0.75731475  0.32774492  1
  Ni  Ni185  1  0.64742028  0.94257341  0.78973633  1
  Ni  Ni186  1  0.85947580  0.57651968  0.80525799  1
  Ni  Ni187  1  0.55596178  0.53091958  0.46032060  1
  Ni  Ni188  1  0.07089162  0.51210526  0.62383634  1
  Ni  Ni189  1  0.21586964  0.69526618  0.99018521  1
  Ni  Ni190  1  -0.03280129  0.92464158  0.93973826  1
  Ni  Ni191  1  0.82085471  0.34128037  0.96657070  1
  Ni  Ni192  1  0.69639622  0.63114698  0.87477740  1
  Ni  Ni193  1  0.09559024  0.70682207  0.10434557  1
  Ni  Ni194  1  0.07275441  0.44140772  -0.02422723  1
  Ni  Ni195  1  0.76200186  0.55020504  0.23779434  1
  Ni  Ni196  1  0.98033344  0.59557256  0.51016218  1
  Ni  Ni197  1  0.08841384  0.73208605  0.69669653  1
  Ni  Ni198  1  0.72765274  0.71169988  0.04052670  1
  Ni  Ni199  1  0.58816606  0.42323888  0.67066771  1
  Ni  Ni200  1  0.48894578  0.72777484  0.60169361  1
  Ni  Ni201  1  0.16092772  0.22693840  0.71398450  1
  Ni  Ni202  1  0.02775575  0.98677309  0.22301017  1
  Ni  Ni203  1  0.84548976  0.89467640  0.72807738  1
  Ni  Ni204  1  0.52066094  0.20232363  0.57706214  1
  Ni  Ni205  1  0.77148890  0.19103205  0.35850472  1
  Ni  Ni206  1  0.29813789  0.90916579  0.27334010  1
  Ni  Ni207  1  0.79447864  0.73774902  0.77310503  1
  Ni  Ni208  1  0.48257414  0.76713715  0.89640370  1
  Ni  Ni209  1  0.11959444  0.17363627  0.87666426  1
  Ni  Ni210  1  0.63561582  0.12848133  0.05544276  1
  Ni  Ni211  1  0.80422542  0.87641849  0.87996869  1
  Ni  Ni212  1  0.76243576  0.48832469  0.39297411  1
  Ni  Ni213  1  0.71068896  0.90872858  0.51559268  1
  Ni  Ni214  1  0.64619740  0.31463058  0.55301968  1
  Ni  Ni215  1  0.86597599  0.30974040  0.11322691  1
