# generated using pymatgen
data_Ti2CoNi
_symmetry_space_group_name_H-M   'P 1'
_cell_length_a   14.67642324
_cell_length_b   14.70952510
_cell_length_c   14.54315248
_cell_angle_alpha   90.11520129
_cell_angle_beta   90.06631630
_cell_angle_gamma   89.97222458
_symmetry_Int_Tables_number   1
_chemical_formula_structural   Ti2CoNi
_chemical_formula_sum   'Ti108 Co54 Ni54'
_cell_volume   3139.61371391
_cell_formula_units_Z   54
loop_
 _symmetry_equiv_pos_site_id
 _symmetry_equiv_pos_as_xyz
  1  'x, y, z'
loop_
 _atom_site_type_symbol
 _atom_site_label
 _atom_site_symmetry_multiplicity
 _atom_site_fract_x
 _atom_site_fract_y
 _atom_site_fract_z
 _atom_site_occupancy
  Ti  Ti0  1  -0.00546821  0.02872168  -0.09843430  1
  Ti  Ti1  1  -0.01429711  0.05551105  0.35586077  1
  Ti  Ti2  1  -0.05328354  0.00730690  0.64958938  1
  Ti  Ti3  1  0.05791381  0.32341133  0.03177958  1
  Ti  Ti4  1  -0.03181861  0.37302762  0.38611113  1
  Ti  Ti5  1  0.02937568  0.39519062  0.70411192  1
  Ti  Ti6  1  -0.05244338  0.65850234  0.01648911  1
  Ti  Ti7  1  -0.00802540  0.63907979  0.24247471  1
  Ti  Ti8  1  0.02476599  0.60807181  0.70610295  1
  Ti  Ti9  1  0.37267189  -0.04533462  0.01052987  1
  Ti  Ti10  1  0.33674468  0.00168971  0.37765605  1
  Ti  Ti11  1  0.31103086  -0.00023068  0.73665538  1
  Ti  Ti12  1  0.32695746  0.28734033  0.01522813  1
  Ti  Ti13  1  0.32614912  0.27822017  0.34642685  1
  Ti  Ti14  1  0.27530317  0.37927393  0.53567615  1
  Ti  Ti15  1  0.29014883  0.77199866  -0.03641088  1
  Ti  Ti16  1  0.33040050  0.65339981  0.31245515  1
  Ti  Ti17  1  0.29801148  0.65472294  0.64617010  1
  Ti  Ti18  1  0.57271767  -0.05399275  -0.04023639  1
  Ti  Ti19  1  0.64745838  0.00088287  0.40693687  1
  Ti  Ti20  1  0.71288229  -0.01176664  0.64742133  1
  Ti  Ti21  1  0.71208686  0.49370018  0.05111960  1
  Ti  Ti22  1  0.65253700  0.29477999  0.27970968  1
  Ti  Ti23  1  0.72835606  0.22671260  0.70761376  1
  Ti  Ti24  1  0.65554083  0.67087123  -0.06551644  1
  Ti  Ti25  1  0.66379142  0.67778337  0.25942295  1
  Ti  Ti26  1  0.65717449  0.70988605  0.71700432  1
  Ti  Ti27  1  0.02532054  0.17001306  0.14829394  1
  Ti  Ti28  1  0.04698254  0.18604297  0.50037165  1
  Ti  Ti29  1  -0.10352807  0.19689062  0.89245594  1
  Ti  Ti30  1  0.07213211  0.50162958  0.13435820  1
  Ti  Ti31  1  -0.02749327  0.50711399  0.52067381  1
  Ti  Ti32  1  -0.05232934  0.53789001  0.85767192  1
  Ti  Ti33  1  0.00399325  0.80888123  0.12960349  1
  Ti  Ti34  1  -0.02285145  0.75693314  0.49056734  1
  Ti  Ti35  1  -0.00881846  0.80911519  0.71584954  1
  Ti  Ti36  1  0.37042113  0.13476022  0.22937448  1
  Ti  Ti37  1  0.35466846  0.14266160  0.51013841  1
  Ti  Ti38  1  0.32449258  0.22007740  0.79123464  1
  Ti  Ti39  1  0.28989344  0.52897494  0.14036640  1
  Ti  Ti40  1  0.36841290  0.54823703  0.49585988  1
  Ti  Ti41  1  0.38533195  0.56508273  0.85878656  1
  Ti  Ti42  1  0.27199992  0.85658945  0.26215860  1
  Ti  Ti43  1  0.38504805  0.79671607  0.46263967  1
  Ti  Ti44  1  0.29908411  0.79918166  0.77180346  1
  Ti  Ti45  1  0.69816024  0.11385592  0.18002016  1
  Ti  Ti46  1  0.61502691  0.17130541  0.51825700  1
  Ti  Ti47  1  0.68123138  0.08256389  0.83658037  1
  Ti  Ti48  1  0.64695323  0.49563203  0.23882362  1
  Ti  Ti49  1  0.64547263  0.42380637  0.45832475  1
  Ti  Ti50  1  0.71000848  0.48042936  0.84948228  1
  Ti  Ti51  1  0.65390379  0.81481882  0.10197217  1
  Ti  Ti52  1  0.60925587  0.79785962  0.40703142  1
  Ti  Ti53  1  0.72777749  0.88023816  0.81390128  1
  Ti  Ti54  1  0.08810340  -0.03470196  0.19598011  1
  Ti  Ti55  1  0.16825801  0.02004718  0.52174106  1
  Ti  Ti56  1  0.17563654  0.09816743  0.85594833  1
  Ti  Ti57  1  0.13179631  0.33487764  0.22580687  1
  Ti  Ti58  1  0.14483254  0.32683195  0.40384633  1
  Ti  Ti59  1  0.16967401  0.30306055  0.86844222  1
  Ti  Ti60  1  0.15855915  0.68998241  0.11333837  1
  Ti  Ti61  1  0.17174518  0.76207471  0.53191157  1
  Ti  Ti62  1  0.17288001  0.64258646  0.84544105  1
  Ti  Ti63  1  0.51843639  0.06039492  0.12332155  1
  Ti  Ti64  1  0.49692325  0.01063006  0.59651395  1
  Ti  Ti65  1  0.47696790  0.06482989  0.82119920  1
  Ti  Ti66  1  0.47250589  0.42585533  0.14791045  1
  Ti  Ti67  1  0.48079685  0.39578552  0.55783031  1
  Ti  Ti68  1  0.47326151  0.34963993  0.87720462  1
  Ti  Ti69  1  0.47124955  0.63035088  0.19084010  1
  Ti  Ti70  1  0.52594529  0.65993001  0.53126509  1
  Ti  Ti71  1  0.47446271  0.72374146  0.79328138  1
  Ti  Ti72  1  0.80301204  -0.05547338  0.13840273  1
  Ti  Ti73  1  0.83504891  -0.02830347  0.47601443  1
  Ti  Ti74  1  0.81857504  0.01565776  0.94595282  1
  Ti  Ti75  1  0.93094500  0.34898424  0.19282506  1
  Ti  Ti76  1  0.78525112  0.27891839  0.51173680  1
  Ti  Ti77  1  0.86309650  0.36985695  0.78927841  1
  Ti  Ti78  1  0.83112789  0.74342484  0.15575894  1
  Ti  Ti79  1  0.77973042  0.59888861  0.54106581  1
  Ti  Ti80  1  0.81269464  0.62268861  0.75266765  1
  Ti  Ti81  1  0.22431732  0.08098646  0.06448227  1
  Ti  Ti82  1  0.18302290  0.13685341  0.34536440  1
  Ti  Ti83  1  0.14044754  0.21829248  0.68324356  1
  Ti  Ti84  1  0.20350088  0.47165796  -0.04926536  1
  Ti  Ti85  1  0.23550012  0.48397958  0.33721513  1
  Ti  Ti86  1  0.17245640  0.51205818  0.62586807  1
  Ti  Ti87  1  0.12865632  0.90313754  -0.02083301  1
  Ti  Ti88  1  0.08621153  0.80151171  0.31641779  1
  Ti  Ti89  1  0.16012209  0.89155939  0.67480936  1
  Ti  Ti90  1  0.52268214  0.25268165  0.06687645  1
  Ti  Ti91  1  0.55136107  0.13811367  0.30105358  1
  Ti  Ti92  1  0.51005475  0.25100920  0.70472643  1
  Ti  Ti93  1  0.53820024  0.50675845  -0.04308338  1
  Ti  Ti94  1  0.52033148  0.54740165  0.37825681  1
  Ti  Ti95  1  0.54552285  0.46080920  0.72903672  1
  Ti  Ti96  1  0.47845768  0.76617695  0.02174335  1
  Ti  Ti97  1  0.48785117  0.93027388  0.28876068  1
  Ti  Ti98  1  0.56830112  0.84101762  0.60943306  1
  Ti  Ti99  1  0.71328231  0.20966582  0.00402060  1
  Ti  Ti100  1  0.85296399  0.17750126  0.26508559  1
  Ti  Ti101  1  0.92034357  0.21037710  0.66355453  1
  Ti  Ti102  1  0.88894020  0.43158373  0.00884174  1
  Ti  Ti103  1  0.79686335  0.49393620  0.36839376  1
  Ti  Ti104  1  0.73559456  0.43912698  0.64708679  1
  Ti  Ti105  1  0.92987629  0.83972593  -0.06662348  1
  Ti  Ti106  1  0.77726841  0.84872114  0.32171990  1
  Ti  Ti107  1  0.81541602  0.81341019  0.62705160  1
  Co  Co108  1  0.57496046  0.59577256  0.80022151  1
  Co  Co109  1  0.93086047  0.04510680  0.19707700  1
  Co  Co110  1  0.06825612  0.05160992  0.05049688  1
  Co  Co111  1  0.92398542  0.49220322  0.26432997  1
  Co  Co112  1  0.49944580  0.91642743  0.45761965  1
  Co  Co113  1  0.42698344  0.74473336  0.63019096  1
  Co  Co114  1  0.31489312  0.38590030  0.85462416  1
  Co  Co115  1  0.25383280  0.92646781  0.87602786  1
  Co  Co116  1  0.07186109  0.18045035  0.95608343  1
  Co  Co117  1  0.24769447  0.11262140  0.64454469  1
  Co  Co118  1  -0.07704513  0.89277247  0.24096026  1
  Co  Co119  1  0.41290115  0.12415522  0.67150013  1
  Co  Co120  1  0.07221344  0.49029508  0.31569086  1
  Co  Co121  1  0.32770000  0.07821195  0.90840321  1
  Co  Co122  1  0.75519605  0.27731404  0.86537918  1
  Co  Co123  1  0.16893186  0.62308897  0.25660346  1
  Co  Co124  1  0.62724379  0.55796093  0.60754000  1
  Co  Co125  1  0.66659465  0.60237871  0.41369004  1
  Co  Co126  1  0.07910166  0.64519481  0.39553762  1
  Co  Co127  1  0.07026650  0.55939643  0.97907216  1
  Co  Co128  1  0.09942737  0.96101152  0.80188490  1
  Co  Co129  1  0.15160660  0.71245200  0.69564524  1
  Co  Co130  1  0.30499868  0.85910504  0.60395907  1
  Co  Co131  1  0.88645257  0.55267122  0.11422189  1
  Co  Co132  1  0.46463693  0.27647457  0.23837685  1
  Co  Co133  1  0.90613527  0.10839283  0.52450761  1
  Co  Co134  1  0.91485949  0.75729329  0.32536052  1
  Co  Co135  1  0.07712530  0.62968178  0.55670054  1
  Co  Co136  1  0.36892144  0.97819992  0.17733772  1
  Co  Co137  1  0.25523231  0.61760735  -0.00290195  1
  Co  Co138  1  0.30841979  0.36626298  0.21422324  1
  Co  Co139  1  0.53497402  0.39836005  0.31625138  1
  Co  Co140  1  0.38046179  0.13243439  0.05650696  1
  Co  Co141  1  0.81256184  0.61081179  0.25272059  1
  Co  Co142  1  0.67789958  0.72139449  0.54932086  1
  Co  Co143  1  0.70312334  0.88186334  0.51063883  1
  Co  Co144  1  0.81076295  0.76557864  0.46090157  1
  Co  Co145  1  0.12550926  0.47782128  0.47106955  1
  Co  Co146  1  0.68931760  0.02936307  0.04036688  1
  Co  Co147  1  0.90935422  0.66666940  0.60381053  1
  Co  Co148  1  0.59356735  0.21921751  0.84717245  1
  Co  Co149  1  0.83966916  0.11036924  1.08029423  1
  Co  Co150  1  0.73107814  0.88127703  0.97423761  1
  Co  Co151  1  0.43973552  0.19823402  0.91556322  1
  Co  Co152  1  0.23071392  0.03135805  0.23268119  1
  Co  Co153  1  0.21997515  0.73812392  0.37715981  1
  Co  Co154  1  0.50793092  0.90128420  0.11496527  1
  Co  Co155  1  0.62886597  0.35994260  0.94988202  1
  Co  Co156  1  0.76819157  0.11788273  0.59338062  1
  Co  Co157  1  0.78837296  0.43395927  0.18793132  1
  Co  Co158  1  0.13771228  0.80711709  0.83135917  1
  Co  Co159  1  0.59291418  0.10755050  0.69284125  1
  Co  Co160  1  0.13892818  -0.02483331  0.35712178  1
  Co  Co161  1  0.64776038  0.35096606  0.77426069  1
  Ni  Ni162  1  0.10560437  0.34310808  0.56898996  1
  Ni  Ni163  1  0.40264104  0.40017307  0.41573886  1
  Ni  Ni164  1  0.22563312  0.60969182  0.47816881  1
  Ni  Ni165  1  0.62538332  0.32510362  0.59845743  1
  Ni  Ni166  1  0.79561273  0.33071200  0.34466503  1
  Ni  Ni167  1  0.03250996  0.22355172  0.31270436  1
  Ni  Ni168  1  0.96894958  0.89867137  0.40176937  1
  Ni  Ni169  1  0.77695786  0.27514227  0.15255079  1
  Ni  Ni170  1  0.51168349  0.26427065  0.41349761  1
  Ni  Ni171  1  0.79724280  0.74035215  -0.01094720  1
  Ni  Ni172  1  0.53701842  0.78346938  0.21794256  1
  Ni  Ni173  1  0.48721698  0.07999822  0.43553967  1
  Ni  Ni174  1  0.39367807  0.49382766  0.27992702  1
  Ni  Ni175  1  0.89249368  0.36307284  0.60036107  1
  Ni  Ni176  1  0.37329369  0.45450617  -0.00126685  1
  Ni  Ni177  1  0.89207124  0.50500760  0.67428381  1
  Ni  Ni178  1  0.33885636  0.26324091  0.63033737  1
  Ni  Ni179  1  0.12194790  0.48526915  0.80328682  1
  Ni  Ni180  1  0.80753501  0.58288145  0.94172009  1
  Ni  Ni181  1  0.22247985  0.36474771  0.71063525  1
  Ni  Ni182  1  0.64409525  -0.04601612  0.22650174  1
  Ni  Ni183  1  0.21169165  0.21643587  0.51460173  1
  Ni  Ni184  1  0.32445090  0.71153823  0.13328012  1
  Ni  Ni185  1  1.01889186  0.26130749  0.80742274  1
  Ni  Ni186  1  0.84300016  0.08619089  0.76913043  1
  Ni  Ni187  1  0.03546726  0.90106552  0.56038235  1
  Ni  Ni188  1  0.27394868  0.51810147  0.75864393  1
  Ni  Ni189  1  0.20785724  0.37674231  0.08557052  1
  Ni  Ni190  1  0.48736232  0.70560153  0.35291178  1
  Ni  Ni191  1  0.90824148  0.61661636  0.40876651  1
  Ni  Ni192  1  0.58038979  0.94207059  0.75952169  1
  Ni  Ni193  1  1.01724126  0.39794614  0.89455834  1
  Ni  Ni194  1  0.99764091  0.70154784  0.84511733  1
  Ni  Ni195  1  0.84141928  0.76684019  0.81054706  1
  Ni  Ni196  1  0.90422749  0.22063762  0.41412432  1
  Ni  Ni197  1  0.23922602  0.88791798  0.10269765  1
  Ni  Ni198  1  0.44834574  0.57144951  0.65596937  1
  Ni  Ni199  1  0.58912110  0.80767598  0.87886632  1
  Ni  Ni200  1  0.09227366  0.73919947  -0.02746227  1
  Ni  Ni201  1  0.79353213  1.01869044  0.30153934  1
  Ni  Ni202  1  0.43451418  0.88759720  0.70739637  1
  Ni  Ni203  1  0.56752302  0.11448825  0.97031436  1
  Ni  Ni204  1  0.42962546  0.87916896  0.87234585  1
  Ni  Ni205  1  0.88681706  0.92648672  0.78389150  1
  Ni  Ni206  1  0.23841324  0.21823995  0.16703230  1
  Ni  Ni207  1  0.24189074  0.88582377  0.44416637  1
  Ni  Ni208  1  0.59069829  0.60607775  0.08695676  1
  Ni  Ni209  1  0.94881895  0.95034621  0.05838320  1
  Ni  Ni210  1  0.90360798  0.25479058  0.04888726  1
  Ni  Ni211  1  0.64068178  0.35828991  0.11942071  1
  Ni  Ni212  1  0.38488840  0.41022035  0.69893525  1
  Ni  Ni213  1  0.41829681  0.61180577  1.02790665  1
  Ni  Ni214  1  0.02366713  0.10902861  0.75704613  1
  Ni  Ni215  1  0.75395521  0.13820422  0.41360708  1
