# generated using pymatgen
data_Ti2CoNi
_symmetry_space_group_name_H-M   'P 1'
_cell_length_a   14.51346925
_cell_length_b   14.52540918
_cell_length_c   14.53319492
_cell_angle_alpha   89.90807397
_cell_angle_beta   90.03374758
_cell_angle_gamma   89.98680464
_symmetry_Int_Tables_number   1
_chemical_formula_structural   Ti2CoNi
_chemical_formula_sum   'Ti108 Co54 Ni54'
_cell_volume   3063.79755127
_cell_formula_units_Z   54
loop_
 _symmetry_equiv_pos_site_id
 _symmetry_equiv_pos_as_xyz
  1  'x, y, z'
loop_
 _atom_site_type_symbol
 _atom_site_label
 _atom_site_symmetry_multiplicity
 _atom_site_fract_x
 _atom_site_fract_y
 _atom_site_fract_z
 _atom_site_occupancy
  Ti  Ti0  1  0.05030382  0.07375022  -0.05984209  1
  Ti  Ti1  1  0.01330417  -0.04612203  0.31541574  1
  Ti  Ti2  1  -0.02374951  0.01689577  0.63257282  1
  Ti  Ti3  1  0.04512736  0.35885418  0.04843535  1
  Ti  Ti4  1  -0.01155568  0.28460592  0.29471825  1
  Ti  Ti5  1  -0.07152662  0.26613750  0.61616185  1
  Ti  Ti6  1  0.00905739  0.77179747  -0.04572375  1
  Ti  Ti7  1  0.01600266  0.56929308  0.35316447  1
  Ti  Ti8  1  -0.04565504  0.68790640  0.70141473  1
  Ti  Ti9  1  0.27584145  -0.00373787  -0.00012126  1
  Ti  Ti10  1  0.36225643  -0.02106245  0.33834348  1
  Ti  Ti11  1  0.30310409  -0.06206090  0.68251424  1
  Ti  Ti12  1  0.40793810  0.34882309  0.04047284  1
  Ti  Ti13  1  0.39208041  0.28960640  0.30177666  1
  Ti  Ti14  1  0.40197604  0.38868456  0.72373656  1
  Ti  Ti15  1  0.28407349  0.64231546  -0.04083309  1
  Ti  Ti16  1  0.30106622  0.67522811  0.32070823  1
  Ti  Ti17  1  0.34912977  0.68713718  0.65242259  1
  Ti  Ti18  1  0.57967541  0.05936937  -0.02747925  1
  Ti  Ti19  1  0.66975803  -0.08310785  0.25959495  1
  Ti  Ti20  1  0.65754800  -0.00450884  0.74667313  1
  Ti  Ti21  1  0.72426850  0.32470511  0.01327457  1
  Ti  Ti22  1  0.73128959  0.28050082  0.38250444  1
  Ti  Ti23  1  0.72799918  0.29954843  0.72278812  1
  Ti  Ti24  1  0.58991373  0.64173825  0.01462548  1
  Ti  Ti25  1  0.69366134  0.60423333  0.31439576  1
  Ti  Ti26  1  0.68281270  0.59809427  0.63988895  1
  Ti  Ti27  1  -0.10190966  0.21760843  0.12898610  1
  Ti  Ti28  1  0.07675556  0.20218224  0.49210486  1
  Ti  Ti29  1  0.04103648  0.15768051  0.74201169  1
  Ti  Ti30  1  0.00952410  0.58738176  0.10363807  1
  Ti  Ti31  1  0.00525133  0.41685095  0.48111580  1
  Ti  Ti32  1  0.00809010  0.61289878  0.88543479  1
  Ti  Ti33  1  -0.02376187  0.89677730  0.12051439  1
  Ti  Ti34  1  -0.01923133  0.75255952  0.45944652  1
  Ti  Ti35  1  -0.04438226  0.87350056  0.80779554  1
  Ti  Ti36  1  0.31542110  0.10622226  0.19094256  1
  Ti  Ti37  1  0.41034608  0.15459205  0.47644225  1
  Ti  Ti38  1  0.31011061  0.14662271  0.78448312  1
  Ti  Ti39  1  0.31888567  0.48652272  0.23692922  1
  Ti  Ti40  1  0.30964745  0.50890974  0.53823929  1
  Ti  Ti41  1  0.33158311  0.44126339  0.88587512  1
  Ti  Ti42  1  0.39357338  0.83764096  0.19112894  1
  Ti  Ti43  1  0.36355387  0.79781451  0.44787262  1
  Ti  Ti44  1  0.35067297  0.82457173  0.83714098  1
  Ti  Ti45  1  0.70030358  0.20981309  0.18223324  1
  Ti  Ti46  1  0.62386232  0.17208197  0.60861832  1
  Ti  Ti47  1  0.61343236  0.19935285  0.85544684  1
  Ti  Ti48  1  0.70950590  0.52109605  0.12688735  1
  Ti  Ti49  1  0.65447928  0.37503181  0.56179499  1
  Ti  Ti50  1  0.65753530  0.56527056  0.87855320  1
  Ti  Ti51  1  0.65016551  0.81592627  0.08926323  1
  Ti  Ti52  1  0.64951870  0.85501489  0.46121655  1
  Ti  Ti53  1  0.62659874  0.88003011  0.90615251  1
  Ti  Ti54  1  0.12442168  0.04764645  0.14181804  1
  Ti  Ti55  1  0.22939991  0.08372152  0.49776645  1
  Ti  Ti56  1  0.16567691  -0.05834983  0.80752734  1
  Ti  Ti57  1  0.18303575  0.36240311  0.19866343  1
  Ti  Ti58  1  0.27411132  0.28602672  0.47672925  1
  Ti  Ti59  1  0.11380044  0.26839163  0.88928365  1
  Ti  Ti60  1  0.21184734  0.62003226  0.14430670  1
  Ti  Ti61  1  0.12828606  0.70603440  0.59509077  1
  Ti  Ti62  1  0.16565771  0.60828974  0.77487008  1
  Ti  Ti63  1  0.52220282  0.05855127  0.21124264  1
  Ti  Ti64  1  0.54944745  0.05077495  0.40741202  1
  Ti  Ti65  1  0.48259063  -0.05962519  0.78424696  1
  Ti  Ti66  1  0.55626684  0.35009861  0.15499604  1
  Ti  Ti67  1  0.46309248  0.33760691  0.54933342  1
  Ti  Ti68  1  0.46347859  0.28917680  0.86889562  1
  Ti  Ti69  1  0.39403521  0.65741354  0.11517287  1
  Ti  Ti70  1  0.59473619  0.62610104  0.47549609  1
  Ti  Ti71  1  0.41420212  0.61849505  0.81952569  1
  Ti  Ti72  1  0.80588087  0.01975240  0.17422089  1
  Ti  Ti73  1  0.76241374  0.02110847  0.51876696  1
  Ti  Ti74  1  0.89004110  0.05466814  0.82497989  1
  Ti  Ti75  1  0.86271773  0.41414284  0.12087380  1
  Ti  Ti76  1  0.82867129  0.40025097  0.48645934  1
  Ti  Ti77  1  0.85527574  0.40445021  0.82644339  1
  Ti  Ti78  1  0.87395590  0.69567924  0.29380660  1
  Ti  Ti79  1  0.79351946  0.72359025  0.50435537  1
  Ti  Ti80  1  0.82759666  0.59724518  0.80703273  1
  Ti  Ti81  1  0.19989261  0.19659440  0.03831890  1
  Ti  Ti82  1  0.11183417  0.15607152  0.31730210  1
  Ti  Ti83  1  0.20452052  0.22006524  0.64341855  1
  Ti  Ti84  1  0.15763422  0.47204301  -0.06669468  1
  Ti  Ti85  1  0.18272014  0.54128788  0.41859897  1
  Ti  Ti86  1  0.14861264  0.42935866  0.72215172  1
  Ti  Ti87  1  0.16202693  0.85649370  0.04189585  1
  Ti  Ti88  1  0.19599694  0.82467105  0.33470446  1
  Ti  Ti89  1  0.13473632  0.90250586  0.61528960  1
  Ti  Ti90  1  0.40151383  0.13823327  0.01024789  1
  Ti  Ti91  1  0.57360269  0.22667630  0.31386105  1
  Ti  Ti92  1  0.47037873  0.08666704  0.65976209  1
  Ti  Ti93  1  0.55576190  0.45587620  -0.00365836  1
  Ti  Ti94  1  0.53379732  0.47932402  0.31559739  1
  Ti  Ti95  1  0.48803614  0.53800375  0.62445584  1
  Ti  Ti96  1  0.47020259  0.78585804  -0.00283148  1
  Ti  Ti97  1  0.52683660  0.73090290  0.34825260  1
  Ti  Ti98  1  0.45705111  0.84740768  0.60798662  1
  Ti  Ti99  1  0.80572289  0.12778772  0.00214172  1
  Ti  Ti100  1  0.86585025  0.11372841  0.37240823  1
  Ti  Ti101  1  0.79770504  0.11422442  0.67703253  1
  Ti  Ti102  1  0.84331983  0.63348935  0.00120023  1
  Ti  Ti103  1  0.85143970  0.46212528  0.31182401  1
  Ti  Ti104  1  0.85744074  0.54565493  0.62350374  1
  Ti  Ti105  1  0.82542491  0.83118907  0.01084956  1
  Ti  Ti106  1  0.83760711  0.88811894  0.34534123  1
  Ti  Ti107  1  0.78073655  0.78364263  0.70299804  1
  Co  Co108  1  0.01060058  0.20499244  1.01392409  1
  Co  Co109  1  0.06891006  0.87518975  0.48154934  1
  Co  Co110  1  1.00674376  0.53816573  0.74702144  1
  Co  Co111  1  0.23570469  0.77702971  0.72993224  1
  Co  Co112  1  0.70262164  0.73316915  0.95191451  1
  Co  Co113  1  0.33342117  -0.00102263  0.83976019  1
  Co  Co114  1  0.43262770  0.13172990  0.30874622  1
  Co  Co115  1  0.11870151  0.69572030  0.43123352  1
  Co  Co116  1  0.65144362  0.75215786  0.58882440  1
  Co  Co117  1  0.55836710  0.93522840  0.08452553  1
  Co  Co118  1  0.44452702  0.62111890  0.26273522  1
  Co  Co119  1  0.67826211  0.13728221  0.45748384  1
  Co  Co120  1  0.28006606  0.94023594  0.17950625  1
  Co  Co121  1  0.52425086  0.72545411  0.86068243  1
  Co  Co122  1  0.49527315  0.47026481  0.83337712  1
  Co  Co123  1  0.14864727  0.66330802  0.28015138  1
  Co  Co124  1  0.22981358  0.35184906  1.01187202  1
  Co  Co125  1  0.89932984  0.96103603  -0.03478262  1
  Co  Co126  1  0.26659920  0.81193986  0.57308941  1
  Co  Co127  1  0.30540321  0.48998660  0.06511496  1
  Co  Co128  1  0.69512470  0.06143553  0.31901234  1
  Co  Co129  1  0.88437924  0.25177761  0.76210616  1
  Co  Co130  1  0.77272674  0.25515465  0.88044661  1
  Co  Co131  1  0.92499059  0.72849206  0.12456495  1
  Co  Co132  1  0.42622992  0.55961399  0.98158503  1
  Co  Co133  1  0.59226503  0.84218892  0.73189845  1
  Co  Co134  1  0.72873474  0.08988794  0.84995893  1
  Co  Co135  1  0.52699351  0.47875598  0.47566831  1
  Co  Co136  1  0.57508401  0.56643797  0.16584330  1
  Co  Co137  1  0.48000541  0.19678276  0.15004848  1
  Co  Co138  1  -0.04566996  0.06524435  0.08251452  1
  Co  Co139  1  0.95019010  0.20032187  0.87976900  1
  Co  Co140  1  0.89671836  0.32161693  -0.03337865  1
  Co  Co141  1  0.83820373  0.30024696  0.26478100  1
  Co  Co142  1  1.02199966  0.77404564  0.28852948  1
  Co  Co143  1  0.17704657  0.76329792  0.89993780  1
  Co  Co144  1  0.69556317  0.89618420  0.62297846  1
  Co  Co145  1  0.98516544  0.42580891  0.64708160  1
  Co  Co146  1  0.73362897  0.98242591  1.00882026  1
  Co  Co147  1  0.26955172  0.66720264  0.49041838  1
  Co  Co148  1  0.67428860  0.71540077  0.78947409  1
  Co  Co149  1  0.44141354  0.67714044  0.51294681  1
  Co  Co150  1  0.56253790  0.59424281  0.76248556  1
  Co  Co151  1  0.24910777  0.31927474  0.79262064  1
  Co  Co152  1  0.92455055  0.94636883  0.46466597  1
  Co  Co153  1  0.39134583  0.57256518  0.40640453  1
  Co  Co154  1  0.45009777  0.48768700  0.13977237  1
  Co  Co155  1  0.13034679  0.90575987  0.20075667  1
  Co  Co156  1  0.67029181  0.43983455  0.37563721  1
  Co  Co157  1  0.86217310  0.73910888  0.86274059  1
  Co  Co158  1  0.23843601  0.77516864  0.16863535  1
  Co  Co159  1  0.43973676  0.94219842  0.94465807  1
  Co  Co160  1  0.91385343  0.12049621  0.53140237  1
  Co  Co161  1  0.01196427  0.59436757  0.56145256  1
  Ni  Ni162  1  0.31751291  0.26554481  0.14777038  1
  Ni  Ni163  1  0.28094044  0.15702363  0.35083286  1
  Ni  Ni164  1  0.83087675  0.94403882  0.69887745  1
  Ni  Ni165  1  0.49825302  0.88567849  0.43429980  1
  Ni  Ni166  1  0.12373448  0.64245733  0.99521702  1
  Ni  Ni167  1  0.39287671  0.41156303  0.40106809  1
  Ni  Ni168  1  0.52771745  0.74494944  0.17414945  1
  Ni  Ni169  1  0.75495477  0.48715431  -0.03765981  1
  Ni  Ni170  1  0.55766439  0.23418727  0.47667109  1
  Ni  Ni171  1  0.40652851  -0.01288763  0.09920751  1
  Ni  Ni172  1  0.56886682  0.24878699  0.01008018  1
  Ni  Ni173  1  0.32083760  0.83202053  0.00807721  1
  Ni  Ni174  1  0.20965066  0.10583506  0.90444328  1
  Ni  Ni175  1  0.71559342  0.76348874  0.33427173  1
  Ni  Ni176  1  0.57574950  0.00199056  0.56073344  1
  Ni  Ni177  1  0.30289494  0.53206333  0.70972699  1
  Ni  Ni178  1  0.82500066  0.82597350  0.18530615  1
  Ni  Ni179  1  0.52990574  0.25568391  0.70810951  1
  Ni  Ni180  1  0.14756532  0.06496584  0.65734498  1
  Ni  Ni181  1  0.96786798  0.83475946  0.62269510  1
  Ni  Ni182  1  0.01331042  0.40450155  0.86425493  1
  Ni  Ni183  1  0.40815004  0.98398077  0.52856614  1
  Ni  Ni184  1  0.56831163  0.41376309  0.70162178  1
  Ni  Ni185  1  0.51054790  0.70923185  0.67878528  1
  Ni  Ni186  1  0.07262539  0.03452193  0.47664347  1
  Ni  Ni187  1  0.07390076  0.42602214  0.33306846  1
  Ni  Ni188  1  0.77723876  0.23244583  0.54160488  1
  Ni  Ni189  1  0.08486444  0.77877675  0.76901182  1
  Ni  Ni190  1  0.86382826  0.56949054  0.19167861  1
  Ni  Ni191  1  0.11146893  0.33791603  0.58544273  1
  Ni  Ni192  1  1.01054137  0.40992785  0.19358965  1
  Ni  Ni193  1  0.69216236  0.37227499  0.22802573  1
  Ni  Ni194  1  0.30630897  0.23886514  0.91675769  1
  Ni  Ni195  1  0.65869781  0.06280737  0.12070830  1
  Ni  Ni196  1  0.25110901  0.92528424  0.45932654  1
  Ni  Ni197  1  0.91801117  0.49316336  0.97326470  1
  Ni  Ni198  1  0.91281517  0.26267045  0.43943944  1
  Ni  Ni199  1  0.72437480  0.47289000  0.73491171  1
  Ni  Ni200  1  0.05665855  0.91915582  0.93186697  1
  Ni  Ni201  1  0.95901348  0.09969847  0.24538320  1
  Ni  Ni202  1  0.31409777  0.08765804  0.62287916  1
  Ni  Ni203  1  0.51507599  0.88875019  0.27675111  1
  Ni  Ni204  1  0.06494029  0.19901438  0.16899208  1
  Ni  Ni205  1  0.76130108  0.67994652  0.14554199  1
  Ni  Ni206  1  0.18711544  0.00766475  0.31688881  1
  Ni  Ni207  1  0.73313610  0.54127582  0.47790083  1
  Ni  Ni208  1  0.87041054  0.59634788  0.43349914  1
  Ni  Ni209  1  0.27195083  0.37291690  0.62526439  1
  Ni  Ni210  1  0.08166798  0.74090946  0.13046640  1
  Ni  Ni211  1  0.64471696  0.37578615  0.85127998  1
  Ni  Ni212  1  0.14357683  0.48489659  0.09403311  1
  Ni  Ni213  1  0.23058235  0.39362896  0.36090446  1
  Ni  Ni214  1  0.46837903  0.10833931  0.84746618  1
  Ni  Ni215  1  0.37069397  0.24330623  0.64291300  1
