# generated using pymatgen
data_Ti2CoNi
_symmetry_space_group_name_H-M   'P 1'
_cell_length_a   14.60960043
_cell_length_b   14.58909753
_cell_length_c   14.58931438
_cell_angle_alpha   89.99110284
_cell_angle_beta   89.83480916
_cell_angle_gamma   90.21299815
_symmetry_Int_Tables_number   1
_chemical_formula_structural   Ti2CoNi
_chemical_formula_sum   'Ti108 Co54 Ni54'
_cell_volume   3109.54493242
_cell_formula_units_Z   54
loop_
 _symmetry_equiv_pos_site_id
 _symmetry_equiv_pos_as_xyz
  1  'x, y, z'
loop_
 _atom_site_type_symbol
 _atom_site_label
 _atom_site_symmetry_multiplicity
 _atom_site_fract_x
 _atom_site_fract_y
 _atom_site_fract_z
 _atom_site_occupancy
  Ti  Ti0  1  -0.03469849  0.04327125  0.03662949  1
  Ti  Ti1  1  -0.03874610  -0.10008159  0.35231706  1
  Ti  Ti2  1  -0.01289806  0.04999337  0.66246735  1
  Ti  Ti3  1  -0.02731293  0.33885287  0.04035223  1
  Ti  Ti4  1  -0.02411795  0.31706922  0.26649336  1
  Ti  Ti5  1  0.10517457  0.28114417  0.68535220  1
  Ti  Ti6  1  0.03108158  0.67464068  0.00909027  1
  Ti  Ti7  1  -0.03740669  0.68734570  0.36853923  1
  Ti  Ti8  1  0.04685673  0.64331337  0.64016795  1
  Ti  Ti9  1  0.40976460  -0.02043041  0.07207735  1
  Ti  Ti10  1  0.29650637  0.01917666  0.32903675  1
  Ti  Ti11  1  0.37487445  0.07290233  0.59197377  1
  Ti  Ti12  1  0.31750367  0.38231158  -0.05603745  1
  Ti  Ti13  1  0.40288779  0.34985174  0.37744824  1
  Ti  Ti14  1  0.39073438  0.34325377  0.68752762  1
  Ti  Ti15  1  0.38068866  0.72886344  0.02347568  1
  Ti  Ti16  1  0.40294398  0.68931253  0.36690242  1
  Ti  Ti17  1  0.32681856  0.63493927  0.59504490  1
  Ti  Ti18  1  0.68145417  -0.02631682  -0.04910776  1
  Ti  Ti19  1  0.69780806  0.07463718  0.24274317  1
  Ti  Ti20  1  0.69137656  0.00353258  0.74072941  1
  Ti  Ti21  1  0.63151109  0.30591063  0.07887156  1
  Ti  Ti22  1  0.59922026  0.32923920  0.34375978  1
  Ti  Ti23  1  0.68771608  0.35792274  0.56282478  1
  Ti  Ti24  1  0.69804548  0.69203252  0.00119153  1
  Ti  Ti25  1  0.63883871  0.66177568  0.23276876  1
  Ti  Ti26  1  0.67414018  0.61410403  0.66174095  1
  Ti  Ti27  1  -0.00363410  0.12270510  0.21164434  1
  Ti  Ti28  1  -0.04037024  0.20026887  0.54585808  1
  Ti  Ti29  1  0.07586556  0.15543449  0.81035334  1
  Ti  Ti30  1  0.03469080  0.49499981  0.28982328  1
  Ti  Ti31  1  0.08141511  0.51762812  0.47316038  1
  Ti  Ti32  1  -0.02410883  0.59521140  0.82723177  1
  Ti  Ti33  1  0.02599459  0.87856744  0.15039148  1
  Ti  Ti34  1  -0.02517019  0.82032825  0.55412199  1
  Ti  Ti35  1  -0.06795850  0.79989942  0.84388991  1
  Ti  Ti36  1  0.27766897  0.22304167  0.13191338  1
  Ti  Ti37  1  0.26583392  0.21864108  0.34032364  1
  Ti  Ti38  1  0.27961471  0.07723558  0.81171523  1
  Ti  Ti39  1  0.33643827  0.48547626  0.12458140  1
  Ti  Ti40  1  0.34483412  0.46193706  0.51216506  1
  Ti  Ti41  1  0.35784738  0.58229680  0.81905199  1
  Ti  Ti42  1  0.29377857  0.80649127  0.20344370  1
  Ti  Ti43  1  0.31805950  0.79521251  0.49388418  1
  Ti  Ti44  1  0.40556836  0.82502092  0.83141535  1
  Ti  Ti45  1  0.60660879  0.11110135  0.06829326  1
  Ti  Ti46  1  0.66679823  0.13862762  0.57112374  1
  Ti  Ti47  1  0.68423618  0.19558235  0.74935207  1
  Ti  Ti48  1  0.66641649  0.51478959  0.09472701  1
  Ti  Ti49  1  0.63720423  0.54345213  0.48469817  1
  Ti  Ti50  1  0.60898164  0.49390969  0.81188634  1
  Ti  Ti51  1  0.69319338  0.89581215  0.17790323  1
  Ti  Ti52  1  0.67516189  0.83168039  0.45145034  1
  Ti  Ti53  1  0.61698454  0.80308461  0.78022397  1
  Ti  Ti54  1  0.18624800  -0.02356646  0.12867699  1
  Ti  Ti55  1  0.21496040  -0.03863550  0.50413145  1
  Ti  Ti56  1  0.12567422  0.03315435  0.94148026  1
  Ti  Ti57  1  0.14220116  0.40328360  0.16623921  1
  Ti  Ti58  1  0.19301013  0.34654137  0.48962749  1
  Ti  Ti59  1  0.09835811  0.36136175  0.87571712  1
  Ti  Ti60  1  0.12516625  0.62522621  0.17685598  1
  Ti  Ti61  1  0.14359001  0.72036627  0.48930667  1
  Ti  Ti62  1  0.13944730  0.71029418  0.81451787  1
  Ti  Ti63  1  0.48746109  0.01921388  0.23785687  1
  Ti  Ti64  1  0.54481142  -0.01010212  0.49581726  1
  Ti  Ti65  1  0.52664700  -0.01180386  0.82162198  1
  Ti  Ti66  1  0.45741316  0.32317830  0.17624915  1
  Ti  Ti67  1  0.49970326  0.25854343  0.52856766  1
  Ti  Ti68  1  0.55030372  0.29779154  0.86232816  1
  Ti  Ti69  1  0.43291545  0.65299637  0.18793269  1
  Ti  Ti70  1  0.52371252  0.71708167  0.56781607  1
  Ti  Ti71  1  0.51238137  0.65348983  0.91280858  1
  Ti  Ti72  1  0.86886884  -0.02958430  0.20097575  1
  Ti  Ti73  1  0.84178360  0.01218255  0.50056092  1
  Ti  Ti74  1  0.85699250  0.00181174  0.82591209  1
  Ti  Ti75  1  0.76953262  0.39766095  0.22199957  1
  Ti  Ti76  1  0.87810573  0.34500163  0.46106684  1
  Ti  Ti77  1  0.78216799  0.36509121  0.84053651  1
  Ti  Ti78  1  0.81090978  0.60611291  0.20561829  1
  Ti  Ti79  1  0.81058015  0.69386785  0.54939213  1
  Ti  Ti80  1  0.80439816  0.57237882  0.80748720  1
  Ti  Ti81  1  0.23417284  0.20521988  -0.06214121  1
  Ti  Ti82  1  0.10239894  0.11960163  0.38505052  1
  Ti  Ti83  1  0.18388301  0.09686062  0.64368150  1
  Ti  Ti84  1  0.18756690  0.51187365  0.00092742  1
  Ti  Ti85  1  0.23556963  0.49386378  0.33205197  1
  Ti  Ti86  1  0.09603390  0.47401532  0.70823348  1
  Ti  Ti87  1  0.13468735  0.84201708  -0.05206416  1
  Ti  Ti88  1  0.11944935  0.78519688  0.28835021  1
  Ti  Ti89  1  0.24683734  0.87784231  0.70077612  1
  Ti  Ti90  1  0.44314502  0.13380351  -0.05620092  1
  Ti  Ti91  1  0.56081782  0.14527725  0.37155101  1
  Ti  Ti92  1  0.45229722  0.16242204  0.73824736  1
  Ti  Ti93  1  0.49708751  0.45374684  -0.00915887  1
  Ti  Ti94  1  0.52636624  0.51699068  0.33452433  1
  Ti  Ti95  1  0.48248761  0.53010251  0.64008619  1
  Ti  Ti96  1  0.53654516  0.84534502  -0.02898896  1
  Ti  Ti97  1  0.54273553  0.81582507  0.27237447  1
  Ti  Ti98  1  0.42061025  0.87868562  0.62259397  1
  Ti  Ti99  1  0.82143201  0.18729897  0.02244790  1
  Ti  Ti100  1  0.81366116  0.19256803  0.32863091  1
  Ti  Ti101  1  0.89737771  0.21688410  0.73454735  1
  Ti  Ti102  1  0.87309512  0.53636377  0.02623199  1
  Ti  Ti103  1  0.86437032  0.50988412  0.36324500  1
  Ti  Ti104  1  0.89464912  0.42250387  0.64302939  1
  Ti  Ti105  1  0.82807181  0.86591532  0.01987301  1
  Ti  Ti106  1  0.80184831  0.78910183  0.29877306  1
  Ti  Ti107  1  0.80744186  0.87474887  0.65427029  1
  Co  Co108  1  0.69614443  0.25017306  0.21956382  1
  Co  Co109  1  0.55837629  0.18245392  0.21073590  1
  Co  Co110  1  0.32584532  0.07425518  0.17817198  1
  Co  Co111  1  0.92412549  0.73415567  0.69608082  1
  Co  Co112  1  0.66888969  0.78715488  0.61067495  1
  Co  Co113  1  0.56347687  0.25904577  0.67421881  1
  Co  Co114  1  0.11245618  0.23935828  0.21859511  1
  Co  Co115  1  0.25272067  0.92088355  0.86211252  1
  Co  Co116  1  0.27479564  0.05487283  1.00218083  1
  Co  Co117  1  0.05875646  0.21101565  0.96659098  1
  Co  Co118  1  0.81561266  0.08006580  0.65844368  1
  Co  Co119  1  0.54750408  0.06566095  0.65544096  1
  Co  Co120  1  0.44054580  0.83910608  0.14504800  1
  Co  Co121  1  0.91457339  0.44482719  0.90134654  1
  Co  Co122  1  0.20483601  0.73418802  0.64064548  1
  Co  Co123  1  0.95652953  0.90580608  0.70911143  1
  Co  Co124  1  0.84243776  0.83256530  0.45678587  1
  Co  Co125  1  0.87159667  0.58392256  0.66166386  1
  Co  Co126  1  0.24212671  0.85937409  0.36652554  1
  Co  Co127  1  0.91993778  0.27846760  0.89396332  1
  Co  Co128  1  0.64843819  0.40119140  0.94914963  1
  Co  Co129  1  0.77060423  0.73072557  0.73190532  1
  Co  Co130  1  0.39288194  0.96877429  0.91240988  1
  Co  Co131  1  0.51767355  0.41915361  0.48865870  1
  Co  Co132  1  0.57197170  0.94239966  0.10016223  1
  Co  Co133  1  0.38451125  0.51042882  0.27770680  1
  Co  Co134  1  0.78492378  0.95245514  0.34070221  1
  Co  Co135  1  0.43797107  0.16317291  0.10623846  1
  Co  Co136  1  0.15843009  0.34629920  0.32619614  1
  Co  Co137  1  0.57469666  0.41413300  0.66422946  1
  Co  Co138  1  0.43934915  0.29270221  0.00880452  1
  Co  Co139  1  0.07220752  0.80106679  0.71094965  1
  Co  Co140  1  0.36349676  0.56574734  0.98178413  1
  Co  Co141  1  0.94660397  0.11857781  0.89842229  1
  Co  Co142  1  0.73111215  0.52932442  0.94296948  1
  Co  Co143  1  0.96864991  0.21091997  0.38606090  1
  Co  Co144  1  0.69598884  0.25132750  0.93771971  1
  Co  Co145  1  0.38988426  -0.01298445  0.73850921  1
  Co  Co146  1  0.13459952  0.13577475  0.08268494  1
  Co  Co147  1  0.18015943  0.10158067  0.23709975  1
  Co  Co148  1  0.45949030  0.58235642  0.47891155  1
  Co  Co149  1  0.69127208  0.52363539  0.30275399  1
  Co  Co150  1  0.03864205  0.50392330  0.05782802  1
  Co  Co151  1  0.00395311  0.96665968  0.85754949  1
  Co  Co152  1  -0.02713488  0.36534988  0.76724986  1
  Co  Co153  1  0.79664419  0.37313071  0.02860810  1
  Co  Co154  1  0.69967561  0.06278467  0.42707433  1
  Co  Co155  1  0.41114677  0.19176555  0.27479006  1
  Co  Co156  1  0.69245013  0.96958398  0.57451142  1
  Co  Co157  1  0.03103625  0.36836701  0.41433348  1
  Co  Co158  1  0.27520370  0.64121238  0.26094712  1
  Co  Co159  1  0.27109430  0.61411228  0.43620801  1
  Co  Co160  1  0.19217638  0.54518158  0.57455480  1
  Co  Co161  1  0.12866639  0.62825767  0.34827249  1
  Ni  Ni162  1  0.80328132  0.24000705  0.59293934  1
  Ni  Ni163  1  0.11804015  0.96190390  0.30017250  1
  Ni  Ni164  1  0.12645308  0.55067169  0.86302469  1
  Ni  Ni165  1  0.73540804  0.46248759  0.68619293  1
  Ni  Ni166  1  0.91912092  0.05985940  0.35513826  1
  Ni  Ni167  1  0.73727198  0.40086639  0.40335150  1
  Ni  Ni168  1  0.40785904  0.12610697  0.43158019  1
  Ni  Ni169  1  0.25180385  0.12300687  0.48228620  1
  Ni  Ni170  1  0.76152131  0.85943815  0.85161411  1
  Ni  Ni171  1  0.21819118  0.59152514  0.72798147  1
  Ni  Ni172  1  1.03643031  0.36995078  0.57235943  1
  Ni  Ni173  1  0.61399583  0.11847844  0.88918562  1
  Ni  Ni174  1  0.28989435  0.87023107  0.01725546  1
  Ni  Ni175  1  0.93964365  0.59153216  0.50640939  1
  Ni  Ni176  1  0.96455898  0.59440864  0.17452034  1
  Ni  Ni177  1  0.60965199  0.95494032  0.34076569  1
  Ni  Ni178  1  0.16463064  0.32692321  0.02756517  1
  Ni  Ni179  1  0.52943990  0.64759602  0.74790339  1
  Ni  Ni180  1  0.39751601  0.87736575  0.31547445  1
  Ni  Ni181  1  0.70244363  0.23540346  0.44029427  1
  Ni  Ni182  1  0.91619180  0.43859512  0.16377779  1
  Ni  Ni183  1  0.94185112  0.75302587  0.20890556  1
  Ni  Ni184  1  0.16104273  0.78366569  0.10516197  1
  Ni  Ni185  1  0.66595969  0.65931112  0.84425523  1
  Ni  Ni186  1  0.12104284  0.20570925  0.53311638  1
  Ni  Ni187  1  0.79530547  0.51137921  0.52503889  1
  Ni  Ni188  1  0.59282815  0.42121743  0.20639371  1
  Ni  Ni189  1  0.30309505  0.35936390  0.23950353  1
  Ni  Ni190  1  0.76392333  0.65276619  0.38900543  1
  Ni  Ni191  1  0.27753878  0.74733914  0.89430885  1
  Ni  Ni192  1  0.24783044  0.44632956  0.80858769  1
  Ni  Ni193  1  0.58283959  0.68600342  0.39414363  1
  Ni  Ni194  1  0.52673526  0.60371604  0.06780159  1
  Ni  Ni195  1  0.58233146  0.75967057  0.10688876  1
  Ni  Ni196  1  0.39833680  0.72938017  0.70228506  1
  Ni  Ni197  1  0.02205304  0.02325349  0.49516161  1
  Ni  Ni198  1  0.77660177  0.03034905  0.07663873  1
  Ni  Ni199  1  0.44682626  0.43855744  0.80923844  1
  Ni  Ni200  1  0.86601804  0.69015443  0.96040751  1
  Ni  Ni201  1  0.33000432  0.25558481  0.54808419  1
  Ni  Ni202  1  0.26345012  0.63788816  0.09386006  1
  Ni  Ni203  1  0.56893625  0.90442128  0.66274963  1
  Ni  Ni204  1  0.49238653  0.82816513  0.44502555  1
  Ni  Ni205  1  0.09199350  0.87186200  0.44181328  1
  Ni  Ni206  1  0.85775183  0.26718824  0.16186545  1
  Ni  Ni207  1  0.24019346  0.40291037  0.64524745  1
  Ni  Ni208  1  0.38164371  0.26271261  0.85020725  1
  Ni  Ni209  1  0.98548686  0.87852789  -0.00803311  1
  Ni  Ni210  1  0.38234792  0.95489688  0.46337742  1
  Ni  Ni211  1  0.23676983  0.27751106  0.78071443  1
  Ni  Ni212  1  0.79490036  0.15455322  0.85749811  1
  Ni  Ni213  1  0.77538070  0.75368682  0.13351636  1
  Ni  Ni214  1  0.09789505  0.92530269  0.60911963  1
  Ni  Ni215  1  0.13089215  -0.01804510  0.76341170  1
