# generated using pymatgen
data_Ti2CoNi
_symmetry_space_group_name_H-M   'P 1'
_cell_length_a   14.64437015
_cell_length_b   14.65943023
_cell_length_c   14.70625850
_cell_angle_alpha   89.72904071
_cell_angle_beta   89.81184501
_cell_angle_gamma   89.91427995
_symmetry_Int_Tables_number   1
_chemical_formula_structural   Ti2CoNi
_chemical_formula_sum   'Ti108 Co54 Ni54'
_cell_volume   3157.05617484
_cell_formula_units_Z   54
loop_
 _symmetry_equiv_pos_site_id
 _symmetry_equiv_pos_as_xyz
  1  'x, y, z'
loop_
 _atom_site_type_symbol
 _atom_site_label
 _atom_site_symmetry_multiplicity
 _atom_site_fract_x
 _atom_site_fract_y
 _atom_site_fract_z
 _atom_site_occupancy
  Ti  Ti0  1  -0.09311466  -0.03733227  0.01181283  1
  Ti  Ti1  1  0.07052207  0.05204251  0.30281275  1
  Ti  Ti2  1  -0.00897008  -0.03044704  0.55583502  1
  Ti  Ti3  1  0.06098574  0.35260990  0.00544183  1
  Ti  Ti4  1  0.00532697  0.32734593  0.27353971  1
  Ti  Ti5  1  0.01474212  0.35131208  0.67006259  1
  Ti  Ti6  1  0.03465738  0.57576861  -0.00671293  1
  Ti  Ti7  1  0.01443290  0.68634320  0.31807215  1
  Ti  Ti8  1  0.01212080  0.71481857  0.66908471  1
  Ti  Ti9  1  0.32826773  0.02265325  0.05754117  1
  Ti  Ti10  1  0.38993184  0.01779998  0.33450705  1
  Ti  Ti11  1  0.35841122  -0.05260960  0.65495273  1
  Ti  Ti12  1  0.29940403  0.32617979  0.02049724  1
  Ti  Ti13  1  0.21019519  0.32689315  0.36617898  1
  Ti  Ti14  1  0.39921299  0.37844672  0.62412206  1
  Ti  Ti15  1  0.39144332  0.52771539  -0.01289634  1
  Ti  Ti16  1  0.30941523  0.60030731  0.29324177  1
  Ti  Ti17  1  0.32228435  0.66973782  0.59228694  1
  Ti  Ti18  1  0.59806249  0.04712071  0.03048747  1
  Ti  Ti19  1  0.68822325  0.03306777  0.32550621  1
  Ti  Ti20  1  0.67667885  0.04128837  0.64518944  1
  Ti  Ti21  1  0.56611326  0.28271402  -0.01143387  1
  Ti  Ti22  1  0.77222123  0.30888222  0.30600520  1
  Ti  Ti23  1  0.71680740  0.33327778  0.72493138  1
  Ti  Ti24  1  0.69988745  0.64874169  0.01862158  1
  Ti  Ti25  1  0.68899941  0.71299197  0.35351820  1
  Ti  Ti26  1  0.70585045  0.61081995  0.69039572  1
  Ti  Ti27  1  0.03537210  0.18493378  0.12322636  1
  Ti  Ti28  1  -0.02602045  0.17514076  0.56066868  1
  Ti  Ti29  1  -0.06833293  0.08273734  0.82623656  1
  Ti  Ti30  1  -0.08277635  0.55017419  0.12599075  1
  Ti  Ti31  1  0.02794200  0.53308058  0.59320677  1
  Ti  Ti32  1  -0.05318372  0.51492861  0.80694763  1
  Ti  Ti33  1  -0.00747325  0.86653477  0.20176849  1
  Ti  Ti34  1  0.06484490  0.88082523  0.41077723  1
  Ti  Ti35  1  -0.00032428  0.83334071  0.84693624  1
  Ti  Ti36  1  0.36303235  0.22609035  0.21703528  1
  Ti  Ti37  1  0.33444052  0.09390627  0.53340389  1
  Ti  Ti38  1  0.34704578  0.21334670  0.86334266  1
  Ti  Ti39  1  0.36113481  0.43541469  0.20268250  1
  Ti  Ti40  1  0.32026944  0.48161272  0.43542535  1
  Ti  Ti41  1  0.32574423  0.58263614  0.78994865  1
  Ti  Ti42  1  0.26091402  0.86497450  0.13284575  1
  Ti  Ti43  1  0.33649882  0.84062609  0.47458017  1
  Ti  Ti44  1  0.28648710  0.77581055  0.82548428  1
  Ti  Ti45  1  0.70050451  0.23610849  0.12441372  1
  Ti  Ti46  1  0.65446499  0.18853495  0.45159306  1
  Ti  Ti47  1  0.69903628  0.18763284  0.88019655  1
  Ti  Ti48  1  0.72348100  0.49795476  0.18214410  1
  Ti  Ti49  1  0.71809055  0.46243937  0.44118046  1
  Ti  Ti50  1  0.59669854  0.47459548  0.76623722  1
  Ti  Ti51  1  0.67144577  0.81879744  0.11531415  1
  Ti  Ti52  1  0.62296509  0.73197811  0.54874647  1
  Ti  Ti53  1  0.65459108  0.78426137  0.86800837  1
  Ti  Ti54  1  0.11970922  0.00684989  0.10720315  1
  Ti  Ti55  1  0.13578018  0.07747185  0.50091144  1
  Ti  Ti56  1  0.11010078  -0.00392288  0.85917261  1
  Ti  Ti57  1  0.18476968  0.33229940  0.16366030  1
  Ti  Ti58  1  0.19534611  0.39434756  0.55578424  1
  Ti  Ti59  1  0.16716075  0.29779704  0.84149187  1
  Ti  Ti60  1  0.13357731  0.60601215  0.17633840  1
  Ti  Ti61  1  0.15489916  0.76669189  0.54825781  1
  Ti  Ti62  1  0.13696173  0.62602563  0.84878369  1
  Ti  Ti63  1  0.56289032  -0.05744371  0.22798259  1
  Ti  Ti64  1  0.51494505  0.02991572  0.46948456  1
  Ti  Ti65  1  0.42049609  -0.00205634  0.86372011  1
  Ti  Ti66  1  0.54889904  0.35374784  0.22164116  1
  Ti  Ti67  1  0.57957211  0.30980965  0.60780259  1
  Ti  Ti68  1  0.51663742  0.30122750  0.80536148  1
  Ti  Ti69  1  0.45340992  0.64764125  0.17244612  1
  Ti  Ti70  1  0.47798332  0.66375024  0.38929477  1
  Ti  Ti71  1  0.46332998  0.75291260  0.89649846  1
  Ti  Ti72  1  0.88780615  0.04371133  0.19540739  1
  Ti  Ti73  1  0.82075930  -0.05906305  0.48682520  1
  Ti  Ti74  1  0.81003497  -0.08954410  0.85243018  1
  Ti  Ti75  1  0.86366954  0.36005653  0.09560693  1
  Ti  Ti76  1  0.79446098  0.30840233  0.51656853  1
  Ti  Ti77  1  0.86235777  0.32059699  0.84245716  1
  Ti  Ti78  1  0.85388825  0.71709659  0.17521691  1
  Ti  Ti79  1  0.88532704  0.65230829  0.51375536  1
  Ti  Ti80  1  0.82052732  0.69790917  0.82739389  1
  Ti  Ti81  1  0.17973935  0.16084671  -0.01999531  1
  Ti  Ti82  1  0.23596063  0.13164766  0.34656094  1
  Ti  Ti83  1  0.17167012  0.20472594  0.66531214  1
  Ti  Ti84  1  0.20071350  0.48639857  0.02852111  1
  Ti  Ti85  1  0.13153257  0.54037814  0.39634116  1
  Ti  Ti86  1  0.17265949  0.46810791  0.72871274  1
  Ti  Ti87  1  0.16820477  0.76361550  0.00075395  1
  Ti  Ti88  1  0.19727760  0.77160622  0.32279673  1
  Ti  Ti89  1  0.12236459  0.91351102  0.67731310  1
  Ti  Ti90  1  0.41543130  0.17512535  0.02576964  1
  Ti  Ti91  1  0.53013197  0.17175277  0.30717974  1
  Ti  Ti92  1  0.43953868  0.16402132  0.69331017  1
  Ti  Ti93  1  0.56613023  0.48952852  -0.04632233  1
  Ti  Ti94  1  0.51226502  0.42303984  0.45620993  1
  Ti  Ti95  1  0.48852005  0.57920858  0.65972161  1
  Ti  Ti96  1  0.45918635  0.86572482  0.07001470  1
  Ti  Ti97  1  0.50753859  0.84780554  0.38404376  1
  Ti  Ti98  1  0.53278177  0.84605577  0.70474227  1
  Ti  Ti99  1  0.88256300  0.18371986  -0.00105513  1
  Ti  Ti100  1  0.84297944  0.12547608  0.42090226  1
  Ti  Ti101  1  0.84801762  0.19709925  0.69216926  1
  Ti  Ti102  1  0.76877311  0.47943237  -0.04901636  1
  Ti  Ti103  1  0.83909646  0.57796207  0.32480503  1
  Ti  Ti104  1  0.83035574  0.46499287  0.62608392  1
  Ti  Ti105  1  0.94123667  0.75645258  0.00255715  1
  Ti  Ti106  1  0.80082368  0.87961271  0.29392082  1
  Ti  Ti107  1  0.84373213  0.84580986  0.65496728  1
  Co  Co108  1  0.12028417  0.46611928  0.88859703  1
  Co  Co109  1  0.97962751  0.67142325  0.84715264  1
  Co  Co110  1  0.54857851  0.13378262  0.58286771  1
  Co  Co111  1  0.19056920  0.64421415  0.69684112  1
  Co  Co112  1  0.76661735  0.30635048  0.97854042  1
  Co  Co113  1  0.58576969  0.87253738  -0.02060230  1
  Co  Co114  1  0.56970668  0.69170760  0.74434251  1
  Co  Co115  1  0.45724543  0.50481839  0.31802424  1
  Co  Co116  1  0.42707993  0.33641407  0.33452469  1
  Co  Co117  1  0.72113855  0.96925891  0.17270073  1
  Co  Co118  1  0.31280258  0.51081153  0.63645105  1
  Co  Co119  1  0.13446828  0.20681726  0.24645095  1
  Co  Co120  1  0.87898296  0.21963226  0.16705975  1
  Co  Co121  1  0.58327303  0.60457403  0.27816231  1
  Co  Co122  1  1.01014581  0.21806279  0.75027425  1
  Co  Co123  1  0.33985673  0.87431026  0.95273461  1
  Co  Co124  1  0.26921295  0.81455751  0.66221231  1
  Co  Co125  1  0.34603371  0.32834006  0.47789475  1
  Co  Co126  1  0.21171846  0.92628064  0.53585834  1
  Co  Co127  1  0.19906128  0.93539073  -0.02253974  1
  Co  Co128  1  0.93023974  0.26714186  0.41829945  1
  Co  Co129  1  0.08020810  0.20180855  0.39532570  1
  Co  Co130  1  0.76697440  0.15248822  0.25812718  1
  Co  Co131  1  0.62342059  0.09923118  0.18197008  1
  Co  Co132  1  0.05785239  0.44963773  0.13797507  1
  Co  Co133  1  0.77093115  0.09252472  0.08936662  1
  Co  Co134  1  0.72995168  0.93923446  1.00935342  1
  Co  Co135  1  0.23212008  0.21931725  0.49881134  1
  Co  Co136  1  0.92790092  0.43706346  0.96109640  1
  Co  Co137  1  0.20762743  0.04481798  0.64713713  1
  Co  Co138  1  0.78935286  0.06417402  0.93428344  1
  Co  Co139  1  0.31115000  0.09457275  0.74685008  1
  Co  Co140  1  0.94845880  0.16165540  0.29819468  1
  Co  Co141  1  0.65784205  0.60742768  0.86330072  1
  Co  Co142  1  0.42701247  0.36055318  0.93079238  1
  Co  Co143  1  0.96719938  0.53289230  0.43827056  1
  Co  Co144  1  0.46907113  0.72906501  0.55243184  1
  Co  Co145  1  0.05708343  0.67031624  0.47639485  1
  Co  Co146  1  0.86956857  0.41575358  0.39816140  1
  Co  Co147  1  0.77646004  0.49543025  0.78904601  1
  Co  Co148  1  0.61202695  0.31895175  0.38268153  1
  Co  Co149  1  0.05433555  0.39399641  0.41566847  1
  Co  Co150  1  0.08532721  0.28181103  0.52718216  1
  Co  Co151  1  0.25672254  0.93559935  0.79410446  1
  Co  Co152  1  0.29930054  0.56793673  0.11910640  1
  Co  Co153  1  0.83859883  0.87019907  0.12376637  1
  Co  Co154  1  0.66852250  0.37048019  0.87424719  1
  Co  Co155  1  0.41366149  0.72926522  0.72338908  1
  Co  Co156  1  0.01373999  0.51991336  0.28089404  1
  Co  Co157  1  0.78607751  0.78854886  -0.01750740  1
  Co  Co158  1  0.27322908  0.05837470  0.89977068  1
  Co  Co159  1  0.94456411  0.37934587  0.53582874  1
  Co  Co160  1  0.05211549  0.88456189  1.01287829  1
  Co  Co161  1  0.52302312  0.21413520  0.13783645  1
  Ni  Ni162  1  0.68043451  0.02829433  0.48620828  1
  Ni  Ni163  1  0.42615365  0.44838163  0.78594910  1
  Ni  Ni164  1  0.95778241  0.94292239  0.73521897  1
  Ni  Ni165  1  0.43612917  0.56302017  0.50877227  1
  Ni  Ni166  1  0.70491710  0.20215058  0.60874001  1
  Ni  Ni167  1  0.23994608  0.16285586  0.12788234  1
  Ni  Ni168  1  0.86962850  0.74605165  0.35437894  1
  Ni  Ni169  1  0.13398093  0.77938964  0.76862984  1
  Ni  Ni170  1  0.67573869  0.88566540  0.57919817  1
  Ni  Ni171  1  0.36945042  0.76540363  0.30671721  1
  Ni  Ni172  1  0.27096188  0.71278053  0.17689584  1
  Ni  Ni173  1  0.62893129  0.46103247  0.30904878  1
  Ni  Ni174  1  0.04374622  0.07406312  0.68571636  1
  Ni  Ni175  1  0.01564475  0.36320446  0.83352703  1
  Ni  Ni176  1  0.39724617  0.90457531  0.22052074  1
  Ni  Ni177  1  0.76750426  0.06822712  0.77853780  1
  Ni  Ni178  1  0.02559818  0.07299059  -0.01378763  1
  Ni  Ni179  1  0.14387311  0.91093402  0.25044728  1
  Ni  Ni180  1  0.92894386  0.98505675  0.35871530  1
  Ni  Ni181  1  0.54045529  0.70333493  1.03865548  1
  Ni  Ni182  1  0.66643634  0.88145150  0.40839973  1
  Ni  Ni183  1  0.36474123  0.72693204  0.04089728  1
  Ni  Ni184  1  0.22900200  0.96489713  0.38101819  1
  Ni  Ni185  1  0.57029672  0.53844446  0.11729142  1
  Ni  Ni186  1  0.86971095  0.61022069  -0.03233413  1
  Ni  Ni187  1  0.52039227  0.14158954  0.88609018  1
  Ni  Ni188  1  0.37924044  0.18635829  0.39089801  1
  Ni  Ni189  1  0.67618893  0.92328631  0.75901130  1
  Ni  Ni190  1  0.77956079  0.78292831  0.48920787  1
  Ni  Ni191  1  0.87690218  0.43361097  0.23896863  1
  Ni  Ni192  1  0.48627732  0.59492875  0.84342582  1
  Ni  Ni193  1  0.47217371  0.39840808  0.07989815  1
  Ni  Ni194  1  0.60905874  0.17228490  0.73908282  1
  Ni  Ni195  1  0.45300175  0.06229400  0.17119749  1
  Ni  Ni196  1  0.30043441  0.29708878  0.72799018  1
  Ni  Ni197  1  0.27118840  0.63755395  0.94638441  1
  Ni  Ni198  1  0.49509781  0.88761985  0.54950393  1
  Ni  Ni199  1  0.65359644  0.46282920  0.60101657  1
  Ni  Ni200  1  0.18379784  0.57141322  0.55270180  1
  Ni  Ni201  1  0.95910581  0.80515334  0.52150193  1
  Ni  Ni202  1  0.66011946  0.40061124  0.06711017  1
  Ni  Ni203  1  0.28258525  0.42168297  0.86854051  1
  Ni  Ni204  1  0.69957719  0.66250835  0.18985201  1
  Ni  Ni205  1  0.86191617  0.04003132  0.63667858  1
  Ni  Ni206  1  0.03992711  0.72704883  0.12882934  1
  Ni  Ni207  1  0.70314673  0.77687405  0.70125193  1
  Ni  Ni208  1  0.88065790  0.61485267  0.68736331  1
  Ni  Ni209  1  0.26118771  0.66939999  0.43595115  1
  Ni  Ni210  1  0.72894385  0.60314590  0.52156291  1
  Ni  Ni211  1  0.26612436  0.02060674  0.21827049  1
  Ni  Ni212  1  0.54968932  0.76770437  0.23716442  1
  Ni  Ni213  1  0.49217084  0.25108877  0.48083326  1
  Ni  Ni214  1  0.02680015  0.21409024  0.91131017  1
  Ni  Ni215  1  0.19651081  0.47198236  0.25081563  1
