# generated using pymatgen
data_Ti2CoNi
_symmetry_space_group_name_H-M   'P 1'
_cell_length_a   14.58837574
_cell_length_b   14.53363171
_cell_length_c   14.58596475
_cell_angle_alpha   90.17201156
_cell_angle_beta   89.90300299
_cell_angle_gamma   90.13361926
_symmetry_Int_Tables_number   1
_chemical_formula_structural   Ti2CoNi
_chemical_formula_sum   'Ti108 Co54 Ni54'
_cell_volume   3092.51984779
_cell_formula_units_Z   54
loop_
 _symmetry_equiv_pos_site_id
 _symmetry_equiv_pos_as_xyz
  1  'x, y, z'
loop_
 _atom_site_type_symbol
 _atom_site_label
 _atom_site_symmetry_multiplicity
 _atom_site_fract_x
 _atom_site_fract_y
 _atom_site_fract_z
 _atom_site_occupancy
  Ti  Ti0  1  -0.06400639  -0.01899532  0.02583616  1
  Ti  Ti1  1  -0.03947793  -0.03912323  0.28389731  1
  Ti  Ti2  1  0.05618298  -0.09251793  0.67557036  1
  Ti  Ti3  1  0.02859591  0.32360109  -0.05855007  1
  Ti  Ti4  1  0.05430203  0.28162155  0.35644812  1
  Ti  Ti5  1  0.03568017  0.35443930  0.57398534  1
  Ti  Ti6  1  -0.02545123  0.63768561  0.07152079  1
  Ti  Ti7  1  -0.02829752  0.73064216  0.29818595  1
  Ti  Ti8  1  -0.01060050  0.67479320  0.66693303  1
  Ti  Ti9  1  0.39914089  0.01082916  -0.07331784  1
  Ti  Ti10  1  0.30295913  -0.10597789  0.31049523  1
  Ti  Ti11  1  0.31883193  0.04888271  0.66922748  1
  Ti  Ti12  1  0.36709961  0.36027445  -0.01081763  1
  Ti  Ti13  1  0.25878731  0.31629584  0.30505090  1
  Ti  Ti14  1  0.33293772  0.37869427  0.62753030  1
  Ti  Ti15  1  0.42093027  0.66070284  0.01249174  1
  Ti  Ti16  1  0.28206426  0.71158303  0.36465131  1
  Ti  Ti17  1  0.33137884  0.63901593  0.65671435  1
  Ti  Ti18  1  0.74553523  0.02884510  0.02457121  1
  Ti  Ti19  1  0.67552614  0.02184989  0.43264332  1
  Ti  Ti20  1  0.68075339  -0.00200672  0.63208671  1
  Ti  Ti21  1  0.60202823  0.38939089  -0.07202960  1
  Ti  Ti22  1  0.69434891  0.38608427  0.36855260  1
  Ti  Ti23  1  0.66996336  0.34812321  0.66121642  1
  Ti  Ti24  1  0.61094436  0.69927479  0.03927726  1
  Ti  Ti25  1  0.67765653  0.69759044  0.22378379  1
  Ti  Ti26  1  0.70627181  0.66491623  0.66056148  1
  Ti  Ti27  1  0.02259357  0.21139565  0.14629240  1
  Ti  Ti28  1  -0.04586421  0.17532275  0.47011512  1
  Ti  Ti29  1  0.00035279  0.21202176  0.78918177  1
  Ti  Ti30  1  0.02800150  0.53424748  0.23065656  1
  Ti  Ti31  1  0.00542454  0.48939703  0.44712993  1
  Ti  Ti32  1  -0.04415266  0.49234032  0.80790754  1
  Ti  Ti33  1  0.04096060  0.83436996  0.14277447  1
  Ti  Ti34  1  -0.00841000  0.83027646  0.52735755  1
  Ti  Ti35  1  -0.03486672  0.88961762  0.84918422  1
  Ti  Ti36  1  0.35169144  0.14631444  0.23970213  1
  Ti  Ti37  1  0.38875944  0.17534383  0.52234094  1
  Ti  Ti38  1  0.29009604  0.13637648  0.83114992  1
  Ti  Ti39  1  0.44545351  0.47978084  0.16566300  1
  Ti  Ti40  1  0.32342683  0.52552099  0.44478529  1
  Ti  Ti41  1  0.27663017  0.53438726  0.88679902  1
  Ti  Ti42  1  0.30533063  0.86608419  0.11348772  1
  Ti  Ti43  1  0.31102876  0.91823998  0.51554255  1
  Ti  Ti44  1  0.34451475  0.79598453  0.90310192  1
  Ti  Ti45  1  0.62867412  0.18082776  0.15950102  1
  Ti  Ti46  1  0.65857074  0.22923428  0.46361143  1
  Ti  Ti47  1  0.68459857  0.17118770  0.90312473  1
  Ti  Ti48  1  0.65879647  0.51313717  0.17622854  1
  Ti  Ti49  1  0.64298729  0.52355515  0.50462091  1
  Ti  Ti50  1  0.73822555  0.50392732  0.80101179  1
  Ti  Ti51  1  0.71507015  0.85549557  0.09317247  1
  Ti  Ti52  1  0.70096568  0.76438641  0.48531728  1
  Ti  Ti53  1  0.66645795  0.86627016  0.83887743  1
  Ti  Ti54  1  0.13246307  0.02813195  0.12468358  1
  Ti  Ti55  1  0.16401557  0.06043072  0.53664183  1
  Ti  Ti56  1  0.15437526  -0.01339178  0.83588722  1
  Ti  Ti57  1  0.13941110  0.36251264  0.16773597  1
  Ti  Ti58  1  0.19603701  0.37866004  0.47312148  1
  Ti  Ti59  1  0.20698371  0.33420861  0.80793699  1
  Ti  Ti60  1  0.29096247  0.67335335  0.16738172  1
  Ti  Ti61  1  0.15655192  0.68513494  0.55105238  1
  Ti  Ti62  1  0.09179268  0.62710177  0.89383994  1
  Ti  Ti63  1  0.46003578  -0.02841799  0.19804033  1
  Ti  Ti64  1  0.47791679  -0.01128922  0.54423748  1
  Ti  Ti65  1  0.55302524  0.01926341  0.81053014  1
  Ti  Ti66  1  0.46799031  0.29733631  0.22473293  1
  Ti  Ti67  1  0.45733199  0.37278847  0.47027575  1
  Ti  Ti68  1  0.41740321  0.32915032  0.80636358  1
  Ti  Ti69  1  0.49518677  0.66784876  0.20526153  1
  Ti  Ti70  1  0.46691917  0.67312076  0.42020087  1
  Ti  Ti71  1  0.54612399  0.73894266  0.75573441  1
  Ti  Ti72  1  0.75702830  0.04775135  0.22443864  1
  Ti  Ti73  1  0.89862218  -0.00100889  0.50347683  1
  Ti  Ti74  1  0.83276541  0.03603762  0.81663712  1
  Ti  Ti75  1  0.78370687  0.32473416  0.18294507  1
  Ti  Ti76  1  0.81730867  0.30587651  0.53176159  1
  Ti  Ti77  1  0.82864328  0.25231994  0.80505861  1
  Ti  Ti78  1  0.83675572  0.59657082  0.20127780  1
  Ti  Ti79  1  0.82321096  0.61616180  0.49960245  1
  Ti  Ti80  1  0.88158432  0.66170092  0.88359540  1
  Ti  Ti81  1  0.19071575  0.24358218  0.01626200  1
  Ti  Ti82  1  0.12701977  0.10498110  0.32373245  1
  Ti  Ti83  1  0.14738646  0.16872105  0.69454884  1
  Ti  Ti84  1  0.15800760  0.53926468  0.07012696  1
  Ti  Ti85  1  0.21784189  0.52820699  0.28127065  1
  Ti  Ti86  1  0.15953121  0.52978455  0.73477658  1
  Ti  Ti87  1  0.16251981  0.78207624  0.00295769  1
  Ti  Ti88  1  0.12264218  0.82597291  0.38780869  1
  Ti  Ti89  1  0.23611646  0.82490877  0.68345750  1
  Ti  Ti90  1  0.46290006  0.16196680  0.06911736  1
  Ti  Ti91  1  0.51682623  0.13161280  0.35316453  1
  Ti  Ti92  1  0.49781604  0.14387363  0.69556826  1
  Ti  Ti93  1  0.46672968  0.50990403  -0.10792674  1
  Ti  Ti94  1  0.53846005  0.50135432  0.33563565  1
  Ti  Ti95  1  0.49616447  0.55248143  0.69402035  1
  Ti  Ti96  1  0.55049373  0.90907399  0.00228175  1
  Ti  Ti97  1  0.56789521  0.82134448  0.34256064  1
  Ti  Ti98  1  0.46220357  0.78363175  0.57829287  1
  Ti  Ti99  1  0.88702382  0.17677640  -0.02384345  1
  Ti  Ti100  1  0.89067533  0.16813186  0.29078314  1
  Ti  Ti101  1  0.81970603  0.13486578  0.62916376  1
  Ti  Ti102  1  0.79837865  0.49318274  0.01104258  1
  Ti  Ti103  1  0.88107275  0.42758422  0.31042231  1
  Ti  Ti104  1  0.86763184  0.38622166  0.68925776  1
  Ti  Ti105  1  0.88010037  0.80215280  0.02743864  1
  Ti  Ti106  1  0.75265338  0.86304907  0.28761531  1
  Ti  Ti107  1  0.83806927  0.82332674  0.71974267  1
  Co  Co108  1  0.88214505  0.96854728  0.67177052  1
  Co  Co109  1  0.58082139  0.84536431  0.18385942  1
  Co  Co110  1  0.38322916  0.41747296  0.32250190  1
  Co  Co111  1  0.79671728  0.13583536  0.44052709  1
  Co  Co112  1  0.61550069  1.00428934  0.12801758  1
  Co  Co113  1  0.90470810  0.30924286  0.07262262  1
  Co  Co114  1  0.13221146  0.17223806  0.87149433  1
  Co  Co115  1  0.70573589  0.20328747  0.29934467  1
  Co  Co116  1  0.26134406  0.02160982  0.22751328  1
  Co  Co117  1  0.79974687  0.17532601  0.11834161  1
  Co  Co118  1  0.30420164  0.75253827  0.52118186  1
  Co  Co119  1  0.59254063  0.24224088  0.00738128  1
  Co  Co120  1  0.97556637  0.34513076  0.22233295  1
  Co  Co121  1  0.12956374  0.66966980  0.32231603  1
  Co  Co122  1  0.41156850  0.91668373  0.67642250  1
  Co  Co123  1  0.56178377  0.41525143  0.76771145  1
  Co  Co124  1  0.37619170  0.77480198  0.74178645  1
  Co  Co125  1  0.87770301  0.38722894  0.91826140  1
  Co  Co126  1  0.10058841  0.21439028  0.51484324  1
  Co  Co127  1  0.83515416  0.28889126  0.37615335  1
  Co  Co128  1  0.11049949  0.66661952  0.15806174  1
  Co  Co129  1  0.42112492  0.80032956  0.25439751  1
  Co  Co130  1  0.33554488  0.48631592  0.74745323  1
  Co  Co131  1  0.58270975  0.24635756  0.79100980  1
  Co  Co132  1  0.05776562  0.13671584  0.01702327  1
  Co  Co133  1  0.25232402  0.65777508  1.00318640  1
  Co  Co134  1  0.76136868  0.29652075  0.98573346  1
  Co  Co135  1  0.86237228  0.92406335  0.16057604  1
  Co  Co136  1  0.18797894  0.79391665  0.21769650  1
  Co  Co137  1  -0.01640267  0.51585406  0.96512084  1
  Co  Co138  1  0.85484134  0.76316425  0.18919990  1
  Co  Co139  1  0.57484673  0.66376952  0.56699541  1
  Co  Co140  1  0.38617037  0.24853691  0.37957219  1
  Co  Co141  1  0.82261105  0.98994508  0.36381251  1
  Co  Co142  1  0.54954922  0.30652158  0.36086930  1
  Co  Co143  1  0.66823868  0.38751461  0.07511877  1
  Co  Co144  1  0.47573289  0.88179612  0.82681741  1
  Co  Co145  1  0.10318210  0.42456549  0.32941458  1
  Co  Co146  1  0.20800790  0.98523051  0.40148957  1
  Co  Co147  1  0.03097930  0.41686069  0.07617339  1
  Co  Co148  1  0.50655167  0.35938431  0.07348700  1
  Co  Co149  1  0.23006826  0.19783160  0.41364244  1
  Co  Co150  1  0.89237165  0.46250487  0.13524230  1
  Co  Co151  1  0.33619693  0.22429754  0.70603569  1
  Co  Co152  1  1.01433430  0.76796538  0.94818680  1
  Co  Co153  1  0.47390556  0.16090212  0.87677432  1
  Co  Co154  1  0.71444474  0.34787657  0.82152160  1
  Co  Co155  1  0.41725144  0.64865550  0.83108883  1
  Co  Co156  1  0.31037830  0.94116197  0.80254691  1
  Co  Co157  1  0.52102115  0.76334867  0.92225908  1
  Co  Co158  1  0.15640383  0.55965155  0.44026864  1
  Co  Co159  1  0.61853429  0.36082118  0.22360571  1
  Co  Co160  1  0.15598176  0.88137225  0.53928103  1
  Co  Co161  1  0.12341042  0.93638774  0.26616112  1
  Ni  Ni162  1  0.38261614  0.58296241  0.29468758  1
  Ni  Ni163  1  0.73804550  0.54511899  0.33675805  1
  Ni  Ni164  1  0.28517666  0.43773967  0.16059682  1
  Ni  Ni165  1  -0.00220261  0.66240219  0.48238427  1
  Ni  Ni166  1  0.80259076  0.90048313  0.91730635  1
  Ni  Ni167  1  0.70123810  0.60610381  0.93772102  1
  Ni  Ni168  1  0.21013767  0.07666958  0.97996642  1
  Ni  Ni169  1  0.54654544  0.43230917  0.59554684  1
  Ni  Ni170  1  0.93203361  0.07718775  0.15420322  1
  Ni  Ni171  1  0.84886441  0.60856681  0.72145616  1
  Ni  Ni172  1  0.34675680  0.07102519  0.39065028  1
  Ni  Ni173  1  0.00781036  0.04209831  0.75115780  1
  Ni  Ni174  1  0.45321731  0.55069296  0.53355901  1
  Ni  Ni175  1  0.34289602  0.51932001  0.03879395  1
  Ni  Ni176  1  0.94806655  0.24006258  0.63940591  1
  Ni  Ni177  1  0.77807179  0.67351414  0.06222950  1
  Ni  Ni178  1  0.75958468  0.49836539  0.62085152  1
  Ni  Ni179  1  0.42658050  0.84281837  0.42203285  1
  Ni  Ni180  1  0.62699786  0.65282911  0.38628447  1
  Ni  Ni181  1  0.04787414  -0.01593959  0.43098830  1
  Ni  Ni182  1  0.32616082  0.28079637  0.12968796  1
  Ni  Ni183  1  0.60005695  -0.00601788  0.28724260  1
  Ni  Ni184  1  0.82527604  0.45682271  0.46675911  1
  Ni  Ni185  1  0.92327773  0.51772030  0.59874552  1
  Ni  Ni186  1  0.59693744  0.88938785  0.49851848  1
  Ni  Ni187  1  0.33871631  0.18955496  0.97430157  1
  Ni  Ni188  1  0.90527250  0.58911618  0.35785820  1
  Ni  Ni189  1  0.24609015  0.23262728  0.57601097  1
  Ni  Ni190  1  0.09021142  0.93754048  0.98391598  1
  Ni  Ni191  1  1.01035227  0.08707517  0.60333959  1
  Ni  Ni192  1  0.23964929  0.51469131  0.58849239  1
  Ni  Ni193  1  0.69321543  0.10568613  0.75572427  1
  Ni  Ni194  1  0.65920633  0.19267416  0.63003153  1
  Ni  Ni195  1  0.19386280  0.19046788  0.18780666  1
  Ni  Ni196  1  0.57656439  0.07411205  0.98393311  1
  Ni  Ni197  1  0.55028359  0.53176564  0.03916457  1
  Ni  Ni198  1  0.07958357  0.53052509  0.59570724  1
  Ni  Ni199  1  0.55631375  0.12295126  0.52786916  1
  Ni  Ni200  1  0.57397490  0.88442527  0.67780975  1
  Ni  Ni201  1  0.05918430  0.38021492  0.73779590  1
  Ni  Ni202  1  0.45838233  0.80308707  0.08866796  1
  Ni  Ni203  1  0.73447397  0.71161796  0.81523140  1
  Ni  Ni204  1  0.78934890  0.70748742  0.34847426  1
  Ni  Ni205  1  0.98905198  0.06696758  0.89905734  1
  Ni  Ni206  1  0.33786851  0.03502928  0.08225766  1
  Ni  Ni207  1  0.88147826  0.83496142  0.40454662  1
  Ni  Ni208  1  0.77656540  0.90175803  0.54249295  1
  Ni  Ni209  1  0.23583637  0.68744256  0.80765040  1
  Ni  Ni210  1  0.85230474  0.75853000  0.57051337  1
  Ni  Ni211  1  0.25556771  0.92503192  -0.03465715  1
  Ni  Ni212  1  0.17600023  0.40986541  0.96698747  1
  Ni  Ni213  1  0.48449876  0.29651465  0.64532628  1
  Ni  Ni214  1  0.59853539  0.59133324  0.81889688  1
  Ni  Ni215  1  0.06553770  0.76471053  0.78616881  1
