# generated using pymatgen
data_Ti2CoNi
_symmetry_space_group_name_H-M   'P 1'
_cell_length_a   14.67071019
_cell_length_b   14.65049357
_cell_length_c   14.62810043
_cell_angle_alpha   90.14138108
_cell_angle_beta   89.78404062
_cell_angle_gamma   89.94867569
_symmetry_Int_Tables_number   1
_chemical_formula_structural   Ti2CoNi
_chemical_formula_sum   'Ti108 Co54 Ni54'
_cell_volume   3144.03044182
_cell_formula_units_Z   54
loop_
 _symmetry_equiv_pos_site_id
 _symmetry_equiv_pos_as_xyz
  1  'x, y, z'
loop_
 _atom_site_type_symbol
 _atom_site_label
 _atom_site_symmetry_multiplicity
 _atom_site_fract_x
 _atom_site_fract_y
 _atom_site_fract_z
 _atom_site_occupancy
  Ti  Ti0  1  -0.05851642  0.09269154  0.00605412  1
  Ti  Ti1  1  -0.02955743  0.03555844  0.34750586  1
  Ti  Ti2  1  0.06862482  0.04678041  0.66485513  1
  Ti  Ti3  1  -0.03790353  0.33191381  -0.00021121  1
  Ti  Ti4  1  -0.01944528  0.32629111  0.28211370  1
  Ti  Ti5  1  0.00809094  0.38226820  0.73969634  1
  Ti  Ti6  1  0.00248740  0.68568189  0.01830923  1
  Ti  Ti7  1  -0.03024431  0.69186263  0.36107323  1
  Ti  Ti8  1  -0.07846918  0.73943379  0.68038385  1
  Ti  Ti9  1  0.28094430  -0.05524315  0.01388078  1
  Ti  Ti10  1  0.42300460  -0.02235375  0.37064531  1
  Ti  Ti11  1  0.27510109  0.02983477  0.65770574  1
  Ti  Ti12  1  0.35037358  0.36044306  0.01446700  1
  Ti  Ti13  1  0.26224358  0.29718297  0.34389843  1
  Ti  Ti14  1  0.32438188  0.35664458  0.69566075  1
  Ti  Ti15  1  0.34050919  0.68423004  0.10814632  1
  Ti  Ti16  1  0.32400469  0.60787276  0.32936592  1
  Ti  Ti17  1  0.35513440  0.66785793  0.72984131  1
  Ti  Ti18  1  0.66484242  -0.05194800  -0.01255486  1
  Ti  Ti19  1  0.62803104  -0.01462345  0.38007815  1
  Ti  Ti20  1  0.64905001  -0.01663001  0.73965284  1
  Ti  Ti21  1  0.67596848  0.32004943  -0.07809472  1
  Ti  Ti22  1  0.64839297  0.29565952  0.32521789  1
  Ti  Ti23  1  0.64315514  0.34251132  0.73311834  1
  Ti  Ti24  1  0.67799165  0.63364404  -0.01024419  1
  Ti  Ti25  1  0.65368135  0.64670035  0.37220708  1
  Ti  Ti26  1  0.70639153  0.63164591  0.66494282  1
  Ti  Ti27  1  0.07208063  0.19421227  0.11432468  1
  Ti  Ti28  1  0.02441135  0.18699773  0.46127014  1
  Ti  Ti29  1  -0.05012548  0.17122719  0.79283085  1
  Ti  Ti30  1  -0.02538182  0.57255892  0.18849933  1
  Ti  Ti31  1  0.05808199  0.51475652  0.46271765  1
  Ti  Ti32  1  0.01718819  0.58897997  0.78102622  1
  Ti  Ti33  1  -0.05094686  0.88764402  0.10780924  1
  Ti  Ti34  1  0.04683817  0.74593281  0.52243125  1
  Ti  Ti35  1  0.02528522  0.91175192  0.80756248  1
  Ti  Ti36  1  0.28130120  0.16613535  0.11945597  1
  Ti  Ti37  1  0.33977265  0.16749335  0.49857772  1
  Ti  Ti38  1  0.31480827  0.17821187  0.80063716  1
  Ti  Ti39  1  0.29087883  0.50011874  0.14853132  1
  Ti  Ti40  1  0.37885088  0.48554189  0.49032248  1
  Ti  Ti41  1  0.43656769  0.48583135  0.79351548  1
  Ti  Ti42  1  0.31853380  0.88142154  0.22217133  1
  Ti  Ti43  1  0.37619284  0.83066163  0.50581126  1
  Ti  Ti44  1  0.32772594  0.86520464  0.78776101  1
  Ti  Ti45  1  0.66206673  0.14973892  0.15298566  1
  Ti  Ti46  1  0.69657955  0.13661243  0.49268152  1
  Ti  Ti47  1  0.69411219  0.12514870  0.89981900  1
  Ti  Ti48  1  0.59999548  0.47360720  0.10989464  1
  Ti  Ti49  1  0.68506858  0.46575308  0.39672539  1
  Ti  Ti50  1  0.58543696  0.48480297  0.90726925  1
  Ti  Ti51  1  0.66537272  0.84660350  0.19410479  1
  Ti  Ti52  1  0.72026663  0.83878393  0.47503978  1
  Ti  Ti53  1  0.62439533  0.81132135  0.85785220  1
  Ti  Ti54  1  0.14557242  -0.03882556  0.15601329  1
  Ti  Ti55  1  0.15967056  -0.09162632  0.53216519  1
  Ti  Ti56  1  0.19894696  -0.00485810  0.83736449  1
  Ti  Ti57  1  0.17211820  0.33587662  0.06256032  1
  Ti  Ti58  1  0.22506770  0.37818179  0.52385053  1
  Ti  Ti59  1  0.15891229  0.41771354  0.87733140  1
  Ti  Ti60  1  0.15786123  0.65637473  0.19368810  1
  Ti  Ti61  1  0.22905946  0.63714999  0.53387967  1
  Ti  Ti62  1  0.22190676  0.68616218  0.85949779  1
  Ti  Ti63  1  0.49990970  0.04831762  0.19969404  1
  Ti  Ti64  1  0.51227695  0.02611084  0.55554839  1
  Ti  Ti65  1  0.50849564  0.05077731  0.88626919  1
  Ti  Ti66  1  0.48904853  0.26306219  0.18376694  1
  Ti  Ti67  1  0.54178209  0.36691223  0.48510939  1
  Ti  Ti68  1  0.48424594  0.29876646  0.84518647  1
  Ti  Ti69  1  0.49688018  0.71627322  0.21898559  1
  Ti  Ti70  1  0.48044538  0.67022509  0.44286696  1
  Ti  Ti71  1  0.54357688  0.64604581  0.80595379  1
  Ti  Ti72  1  0.84784663  0.08277459  0.19426252  1
  Ti  Ti73  1  0.86989381  -0.01369851  0.51030672  1
  Ti  Ti74  1  0.83943673  -0.01316987  0.87842256  1
  Ti  Ti75  1  0.83622146  0.41742261  0.17658703  1
  Ti  Ti76  1  0.80649780  0.37115339  0.52400714  1
  Ti  Ti77  1  0.84666875  0.34862155  0.83476100  1
  Ti  Ti78  1  0.81667618  0.68601542  0.11692710  1
  Ti  Ti79  1  0.81641470  0.67048780  0.48201327  1
  Ti  Ti80  1  0.85847564  0.65310332  0.87637161  1
  Ti  Ti81  1  0.16259776  0.11379654  -0.02943355  1
  Ti  Ti82  1  0.18374068  0.11876120  0.29750754  1
  Ti  Ti83  1  0.17231112  0.20950839  0.63800655  1
  Ti  Ti84  1  0.10493989  0.51184096  0.05169773  1
  Ti  Ti85  1  0.14993434  0.44203855  0.25333728  1
  Ti  Ti86  1  0.18253106  0.54458368  0.70164399  1
  Ti  Ti87  1  0.13058336  0.82300725  -0.03308123  1
  Ti  Ti88  1  0.12510308  0.82314630  0.33333218  1
  Ti  Ti89  1  0.12388972  0.74511711  0.70125352  1
  Ti  Ti90  1  0.43120812  0.18178803  0.00143054  1
  Ti  Ti91  1  0.51516779  0.15275038  0.38037027  1
  Ti  Ti92  1  0.47742450  0.17804701  0.68269619  1
  Ti  Ti93  1  0.44003782  0.53788063  0.01808775  1
  Ti  Ti94  1  0.39849138  0.42370124  0.30609829  1
  Ti  Ti95  1  0.52841182  0.55541748  0.60066234  1
  Ti  Ti96  1  0.49350625  0.75277702  -0.00655546  1
  Ti  Ti97  1  0.57077764  0.81359270  0.36847662  1
  Ti  Ti98  1  0.51529992  0.78065348  0.65491104  1
  Ti  Ti99  1  0.78941260  0.26128525  0.05364276  1
  Ti  Ti100  1  0.84254154  0.21251508  0.37431457  1
  Ti  Ti101  1  0.84527686  0.15238610  0.62338731  1
  Ti  Ti102  1  0.79050446  0.47484692  -0.01222499  1
  Ti  Ti103  1  0.81720315  0.57815668  0.29766934  1
  Ti  Ti104  1  0.88615898  0.55254529  0.62970499  1
  Ti  Ti105  1  0.79512391  0.80455006  -0.03323377  1
  Ti  Ti106  1  0.84501988  0.88601282  0.31870963  1
  Ti  Ti107  1  0.80684659  0.88821320  0.65923633  1
  Co  Co108  1  0.56815547  0.06610644  1.04435120  1
  Co  Co109  1  0.76227902  0.22664545  0.76290377  1
  Co  Co110  1  0.77609666  0.44244518  0.67947764  1
  Co  Co111  1  0.10778937  0.36441933  0.39656588  1
  Co  Co112  1  0.84286747  0.19129585  0.91200654  1
  Co  Co113  1  0.49616665  0.39493739  0.66827901  1
  Co  Co114  1  0.64969588  0.78079579  0.04790811  1
  Co  Co115  1  0.39806688  0.84329652  0.08838917  1
  Co  Co116  1  0.70282941  0.62604361  0.83331776  1
  Co  Co117  1  1.00309429  0.88795875  0.43104722  1
  Co  Co118  1  0.17993866  0.22648985  0.46191381  1
  Co  Co119  1  0.54828950  0.87097798  0.52075830  1
  Co  Co120  1  0.11819831  0.57671653  0.90231098  1
  Co  Co121  1  0.25848009  0.74265604  0.27776997  1
  Co  Co122  1  1.02590215  0.02704461  0.51449741  1
  Co  Co123  1  0.81814242  0.38537213  0.34200694  1
  Co  Co124  1  0.33384836  0.07274623  0.92481159  1
  Co  Co125  1  0.78333953  0.74169460  0.31617241  1
  Co  Co126  1  0.72829182  0.46821696  0.83828602  1
  Co  Co127  1  0.59645066  0.18696167  0.79617358  1
  Co  Co128  1  0.87095977  0.51614717  0.79079196  1
  Co  Co129  1  0.41682966  0.92174534  0.63595944  1
  Co  Co130  1  0.41136864  0.02464382  0.06387703  1
  Co  Co131  1  0.55595895  0.63247714  0.09454175  1
  Co  Co132  1  0.28228012  0.52473345  0.81665610  1
  Co  Co133  1  0.78241754  0.07257083  0.75330843  1
  Co  Co134  1  0.09207016  0.57978062  0.31348112  1
  Co  Co135  1  0.22515044  0.49553680  0.40307166  1
  Co  Co136  1  0.14407799  0.27736426  0.23042733  1
  Co  Co137  1  0.71377937  0.26610405  0.60285222  1
  Co  Co138  1  0.43173731  0.91274026  0.93199846  1
  Co  Co139  1  0.64638757  0.12267194  0.65240759  1
  Co  Co140  1  0.95063611  0.34692871  0.44224098  1
  Co  Co141  1  0.06959311  0.30789693  0.55859171  1
  Co  Co142  1  0.76907778  0.09458652  0.03708662  1
  Co  Co143  1  0.26207547  0.23610605  -0.05422601  1
  Co  Co144  1  0.18303013  0.08258866  0.52517967  1
  Co  Co145  1  0.23292107  0.80692722  0.10289467  1
  Co  Co146  1  0.60854170  0.50927610  0.73388458  1
  Co  Co147  1  0.00118620  0.88301152  0.61942567  1
  Co  Co148  1  0.64401372  0.42755020  0.58770080  1
  Co  Co149  1  0.02114374  0.38798851  0.13758645  1
  Co  Co150  1  0.82455550  0.95111238  0.04707198  1
  Co  Co151  1  0.73159644  0.54393845  0.52976492  1
  Co  Co152  1  0.73933435  0.54604655  0.14618479  1
  Co  Co153  1  0.67318168  0.68573375  0.20880425  1
  Co  Co154  1  0.43909793  0.41018824  0.14389325  1
  Co  Co155  1  0.87781186  0.30700960  0.66960118  1
  Co  Co156  1  0.44755202  0.77186102  0.83566822  1
  Co  Co157  1  0.96557845  0.48111365  0.32111970  1
  Co  Co158  1  0.44387357  0.55995114  0.20071381  1
  Co  Co159  1  0.31581034  0.78263619  0.95443678  1
  Co  Co160  1  0.15828975  0.68067222  0.40389361  1
  Co  Co161  1  0.53885613  0.90783986  0.07654477  1
  Ni  Ni162  1  0.71133595  0.99737655  0.22633285  1
  Ni  Ni163  1  0.27966647  0.79296216  0.63681143  1
  Ni  Ni164  1  0.77940898  0.26266782  0.22974389  1
  Ni  Ni165  1  0.95571473  0.85662282  0.95049378  1
  Ni  Ni166  1  0.93240585  0.52639238  0.03862047  1
  Ni  Ni167  1  0.98760067  0.45947992  0.89638360  1
  Ni  Ni168  1  0.79609917  0.04161869  0.36955045  1
  Ni  Ni169  1  0.56023921  0.41878478  0.26297179  1
  Ni  Ni170  1  0.74081789  0.76645614  0.75593085  1
  Ni  Ni171  1  0.97303200  0.42854195  0.58485124  1
  Ni  Ni172  1  0.49300465  0.88857929  0.23681711  1
  Ni  Ni173  1  0.93582283  0.74569401  0.21315388  1
  Ni  Ni174  1  0.16305691  0.90183268  0.70203883  1
  Ni  Ni175  1  0.07356689  0.97565933  0.98851523  1
  Ni  Ni176  1  0.40054251  0.79151148  0.34360160  1
  Ni  Ni177  1  0.50595693  0.90909783  0.77721426  1
  Ni  Ni178  1  0.30187030  0.32266636  0.18365009  1
  Ni  Ni179  1  0.07844872  0.24979481  0.92154860  1
  Ni  Ni180  1  0.32188702  0.36307259  0.85594283  1
  Ni  Ni181  1  0.87713882  0.50840975  0.45354675  1
  Ni  Ni182  1  0.38667387  0.66429846  0.57178462  1
  Ni  Ni183  1  0.40355907  0.30599943  0.56299487  1
  Ni  Ni184  1  0.26483398  0.51974057  0.97946568  1
  Ni  Ni185  1  0.88594058  0.81514983  0.51222171  1
  Ni  Ni186  1  0.13194334  -0.00800341  0.38843449  1
  Ni  Ni187  1  0.37678878  0.17595419  0.27996219  1
  Ni  Ni188  1  0.08216505  0.79386166  0.14895972  1
  Ni  Ni189  1  0.31440206  0.03990372  0.21675722  1
  Ni  Ni190  1  0.91757873  1.00035853  0.71286435  1
  Ni  Ni191  1  0.91803493  0.23396061  0.14981221  1
  Ni  Ni192  1  0.00800757  0.04519686  0.16220080  1
  Ni  Ni193  1  0.51700949  0.51830844  0.38847946  1
  Ni  Ni194  1  0.68348451  0.97856440  0.56496020  1
  Ni  Ni195  1  0.67541991  0.13386876  0.31536586  1
  Ni  Ni196  1  0.05123600  0.60939786  0.61400997  1
  Ni  Ni197  1  0.18653680  0.66587927  0.02723418  1
  Ni  Ni198  1  0.65108064  0.32299154  0.14003716  1
  Ni  Ni199  1  0.32683241  -0.00318065  0.50486081  1
  Ni  Ni200  1  0.51858448  0.36007018  1.00476044  1
  Ni  Ni201  1  0.00550060  0.90077333  0.25969847  1
  Ni  Ni202  1  0.15452382  0.38898300  0.67527495  1
  Ni  Ni203  1  0.39175452  0.02721015  0.77111197  1
  Ni  Ni204  1  0.55110657  0.20942834  0.53982098  1
  Ni  Ni205  1  0.38454264  0.63386313  0.89948252  1
  Ni  Ni206  1  0.34120272  0.51801290  0.64538181  1
  Ni  Ni207  1  0.18478429  0.28122772  0.79493801  1
  Ni  Ni208  1  0.11966101  0.13545800  0.79856131  1
  Ni  Ni209  1  0.42036474  0.28520098  0.40055445  1
  Ni  Ni210  1  0.59346855  0.21877443  0.01740028  1
  Ni  Ni211  1  0.02149631  0.74092796  0.85009319  1
  Ni  Ni212  1  0.62481989  0.70771745  0.53084493  1
  Ni  Ni213  1  1.01521122  0.16919231  0.27504200  1
  Ni  Ni214  1  0.87518793  0.83012392  0.81205688  1
  Ni  Ni215  1  0.26836989  0.89598148  0.38608877  1
