# generated using pymatgen
data_Ti2CoNi
_symmetry_space_group_name_H-M   'P 1'
_cell_length_a   14.63113749
_cell_length_b   14.60679177
_cell_length_c   14.55636175
_cell_angle_alpha   90.18240402
_cell_angle_beta   89.89478916
_cell_angle_gamma   89.94751676
_symmetry_Int_Tables_number   1
_chemical_formula_structural   Ti2CoNi
_chemical_formula_sum   'Ti108 Co54 Ni54'
_cell_volume   3110.87565214
_cell_formula_units_Z   54
loop_
 _symmetry_equiv_pos_site_id
 _symmetry_equiv_pos_as_xyz
  1  'x, y, z'
loop_
 _atom_site_type_symbol
 _atom_site_label
 _atom_site_symmetry_multiplicity
 _atom_site_fract_x
 _atom_site_fract_y
 _atom_site_fract_z
 _atom_site_occupancy
  Ti  Ti0  1  -0.06887940  -0.01978000  -0.02348157  1
  Ti  Ti1  1  -0.02337985  -0.05982186  0.37027650  1
  Ti  Ti2  1  -0.13629500  0.00103093  0.67876318  1
  Ti  Ti3  1  0.01347856  0.31163960  0.05770324  1
  Ti  Ti4  1  -0.12252687  0.35452223  0.28895707  1
  Ti  Ti5  1  0.04294171  0.27064807  0.62713080  1
  Ti  Ti6  1  0.02908801  0.74005376  0.03757438  1
  Ti  Ti7  1  -0.03142202  0.67926583  0.29001721  1
  Ti  Ti8  1  0.05648856  0.67622870  0.62982053  1
  Ti  Ti9  1  0.35264825  -0.09254507  0.03308107  1
  Ti  Ti10  1  0.34813622  -0.02641218  0.25613068  1
  Ti  Ti11  1  0.39767493  -0.05636716  0.70229354  1
  Ti  Ti12  1  0.37612263  0.36899722  0.05843348  1
  Ti  Ti13  1  0.31706840  0.24913480  0.34208033  1
  Ti  Ti14  1  0.26150107  0.29355026  0.62451572  1
  Ti  Ti15  1  0.28600189  0.62335418  -0.03756757  1
  Ti  Ti16  1  0.41118391  0.66500765  0.36329903  1
  Ti  Ti17  1  0.29417034  0.65759301  0.63107712  1
  Ti  Ti18  1  0.68599310  0.03019543  -0.07085595  1
  Ti  Ti19  1  0.58183106  0.01457091  0.32088170  1
  Ti  Ti20  1  0.66209032  0.01138741  0.59257876  1
  Ti  Ti21  1  0.59665775  0.30745714  0.02751656  1
  Ti  Ti22  1  0.61388493  0.34304533  0.35509521  1
  Ti  Ti23  1  0.65616468  0.32179460  0.68513888  1
  Ti  Ti24  1  0.69048029  0.64894830  -0.07758945  1
  Ti  Ti25  1  0.65367936  0.64748956  0.30346121  1
  Ti  Ti26  1  0.63130972  0.82040408  0.59160249  1
  Ti  Ti27  1  0.02615202  0.12460303  0.14669172  1
  Ti  Ti28  1  -0.01516021  0.08498178  0.53212675  1
  Ti  Ti29  1  0.00621795  0.14893148  0.76885619  1
  Ti  Ti30  1  0.01309269  0.47749204  0.26247725  1
  Ti  Ti31  1  0.05197823  0.55815303  0.44064106  1
  Ti  Ti32  1  -0.01823464  0.45640109  0.85679110  1
  Ti  Ti33  1  0.02958198  0.87300694  0.19794667  1
  Ti  Ti34  1  -0.02404876  0.80826426  0.51665340  1
  Ti  Ti35  1  0.03013590  0.77532518  0.82040787  1
  Ti  Ti36  1  0.32470816  0.19375832  0.16356777  1
  Ti  Ti37  1  0.30454238  0.13951529  0.50555819  1
  Ti  Ti38  1  0.31865480  0.11864084  0.74103605  1
  Ti  Ti39  1  0.25859029  0.53080169  0.15918573  1
  Ti  Ti40  1  0.32043026  0.49496643  0.43768117  1
  Ti  Ti41  1  0.35002062  0.43039907  0.75083885  1
  Ti  Ti42  1  0.35741475  0.77082762  0.19353414  1
  Ti  Ti43  1  0.31933543  0.84833600  0.52977525  1
  Ti  Ti44  1  0.32014407  0.79608874  0.85458661  1
  Ti  Ti45  1  0.70285696  0.18438693  0.12365586  1
  Ti  Ti46  1  0.67607812  0.14417154  0.42469793  1
  Ti  Ti47  1  0.69778490  0.20643097  0.88128773  1
  Ti  Ti48  1  0.66179675  0.56162222  0.12621384  1
  Ti  Ti49  1  0.71494041  0.44373615  0.53274557  1
  Ti  Ti50  1  0.61200544  0.51734986  0.79604940  1
  Ti  Ti51  1  0.68667912  0.90357901  0.16580457  1
  Ti  Ti52  1  0.68982898  0.82518932  0.36906655  1
  Ti  Ti53  1  0.65491029  0.84039980  0.80475446  1
  Ti  Ti54  1  0.21129614  0.05638192  0.13457616  1
  Ti  Ti55  1  0.11672341  -0.06906385  0.54534625  1
  Ti  Ti56  1  0.15706570  0.04048139  0.84051595  1
  Ti  Ti57  1  0.14969805  0.29134959  0.19572736  1
  Ti  Ti58  1  0.13531700  0.41288613  0.53897240  1
  Ti  Ti59  1  0.17367568  0.36089756  0.79714664  1
  Ti  Ti60  1  0.16399651  0.72577686  0.21588837  1
  Ti  Ti61  1  0.20541257  0.70374135  0.43062648  1
  Ti  Ti62  1  0.09791959  0.61381508  0.89190838  1
  Ti  Ti63  1  0.55186098  0.07527904  0.13035759  1
  Ti  Ti64  1  0.47998355  0.04164741  0.51398791  1
  Ti  Ti65  1  0.49187972  0.03453825  0.85108864  1
  Ti  Ti66  1  0.50773981  0.40236670  0.17267645  1
  Ti  Ti67  1  0.45315991  0.43702111  0.57448121  1
  Ti  Ti68  1  0.47623660  0.33679855  0.88390251  1
  Ti  Ti69  1  0.48467097  0.62575802  0.18030576  1
  Ti  Ti70  1  0.59022889  0.63428379  0.58844715  1
  Ti  Ti71  1  0.49328919  0.70016200  0.87771043  1
  Ti  Ti72  1  0.87841528  0.01337467  0.20142155  1
  Ti  Ti73  1  0.81487681  -0.03611560  0.48040136  1
  Ti  Ti74  1  0.85252246  0.10145765  0.84559024  1
  Ti  Ti75  1  0.70605219  0.37711273  0.19006123  1
  Ti  Ti76  1  0.87537991  0.30386835  0.51683661  1
  Ti  Ti77  1  0.82536123  0.33210494  0.84495641  1
  Ti  Ti78  1  0.83167875  0.56766367  0.20284374  1
  Ti  Ti79  1  0.77082603  0.70340935  0.52228187  1
  Ti  Ti80  1  0.81694044  0.59993639  0.79925365  1
  Ti  Ti81  1  0.15245389  0.19968789  -0.04003993  1
  Ti  Ti82  1  0.12314215  0.20663997  0.35469206  1
  Ti  Ti83  1  0.15755805  0.10914145  0.63117268  1
  Ti  Ti84  1  0.16479635  0.44823984  -0.02010256  1
  Ti  Ti85  1  0.18345886  0.43157686  0.32569499  1
  Ti  Ti86  1  0.16201959  0.53498147  0.71072157  1
  Ti  Ti87  1  0.15443964  0.89798335  0.04386425  1
  Ti  Ti88  1  0.17833013  0.90339683  0.35801767  1
  Ti  Ti89  1  0.17232652  0.87363297  0.74858095  1
  Ti  Ti90  1  0.35715905  0.18495965  -0.04209262  1
  Ti  Ti91  1  0.49046502  0.20550095  0.40725141  1
  Ti  Ti92  1  0.45605449  0.23805171  0.63424628  1
  Ti  Ti93  1  0.56702857  0.48463116  -0.01532479  1
  Ti  Ti94  1  0.53612474  0.52728163  0.43018702  1
  Ti  Ti95  1  0.45667242  0.57372336  0.71036461  1
  Ti  Ti96  1  0.52151439  0.80701276  0.06873508  1
  Ti  Ti97  1  0.49501176  0.83811462  0.31987529  1
  Ti  Ti98  1  0.45660590  0.76095827  0.68039928  1
  Ti  Ti99  1  0.85721750  0.16969817  0.02452145  1
  Ti  Ti100  1  0.85350014  0.13725707  0.35972693  1
  Ti  Ti101  1  0.79419297  0.18960380  0.68191578  1
  Ti  Ti102  1  0.86574259  0.57128286  0.00752736  1
  Ti  Ti103  1  0.86491813  0.50453702  0.41771862  1
  Ti  Ti104  1  0.88849649  0.49548122  0.65548354  1
  Ti  Ti105  1  0.82166841  0.78932341  -0.03487991  1
  Ti  Ti106  1  0.83315313  0.79982360  0.23802341  1
  Ti  Ti107  1  0.85690508  0.80198860  0.76583375  1
  Co  Co108  1  0.85272475  0.28904773  0.13475923  1
  Co  Co109  1  0.17019490  0.77189456  0.92049438  1
  Co  Co110  1  0.24506802  0.51899128  0.84572015  1
  Co  Co111  1  0.50524043  0.37435574  0.73041609  1
  Co  Co112  1  0.75368291  0.30786103  1.00088368  1
  Co  Co113  1  0.12296669  0.05702549  0.43845784  1
  Co  Co114  1  0.91726938  0.44500551  0.13495371  1
  Co  Co115  1  0.02101363  0.37278223  0.39076266  1
  Co  Co116  1  0.38816195  0.05646429  0.09174983  1
  Co  Co117  1  0.11029627  1.00585501  0.24866312  1
  Co  Co118  1  0.76397582  0.45312258  0.06241783  1
  Co  Co119  1  0.89585471  0.38354180  0.98402671  1
  Co  Co120  1  0.58234631  0.90855648  0.45176119  1
  Co  Co121  1  0.14074786  0.21876323  0.51332097  1
  Co  Co122  1  0.95356264  0.95139323  0.80595446  1
  Co  Co123  1  0.31738793  0.81300038  0.34832111  1
  Co  Co124  1  0.48797701  0.89600084  0.58119637  1
  Co  Co125  1  0.92485907  0.67577089  0.89877661  1
  Co  Co126  1  0.34266082  0.64342463  0.79369609  1
  Co  Co127  1  0.14628327  0.61101698  0.06315991  1
  Co  Co128  1  1.00166835  0.09034805  0.32671477  1
  Co  Co129  1  0.89155082  0.71186863  0.11535742  1
  Co  Co130  1  0.98218134  0.21645081  0.44024895  1
  Co  Co131  1  0.59394023  0.18007061  0.26952663  1
  Co  Co132  1  0.79185865  0.95114760  0.32297651  1
  Co  Co133  1  0.64144326  0.36145663  0.85543082  1
  Co  Co134  1  0.28226034  0.98868826  0.45676789  1
  Co  Co135  1  0.11044990  0.44247912  0.13932342  1
  Co  Co136  1  0.58527382  0.70861426  0.44152717  1
  Co  Co137  1  0.18647091  0.70266735  0.76860039  1
  Co  Co138  1  0.49036408  0.08532152  0.68462261  1
  Co  Co139  1  0.27453790  0.60299374  0.30656307  1
  Co  Co140  1  0.23723568  0.33001485  0.45016291  1
  Co  Co141  1  0.40267787  0.07526583  0.37243722  1
  Co  Co142  1  0.43381888  0.20133521  0.80823123  1
  Co  Co143  1  0.59398427  0.68950859  0.75048285  1
  Co  Co144  1  0.71833032  0.07164526  0.24471716  1
  Co  Co145  1  0.22526405  0.87867167  0.19066315  1
  Co  Co146  1  0.28780347  0.46399348  0.59996584  1
  Co  Co147  1  0.11712909  0.59927724  0.29508147  1
  Co  Co148  1  0.73430460  0.49327578  0.31177244  1
  Co  Co149  1  0.75189009  0.44143846  0.73823284  1
  Co  Co150  1  0.73744645  0.57687251  0.64454307  1
  Co  Co151  1  0.59913518  0.47302003  0.63593064  1
  Co  Co152  1  0.01456348  0.50211919  1.01358898  1
  Co  Co153  1  0.45222235  0.78486423  0.47613945  1
  Co  Co154  1  0.73313512  0.72814240  0.69448995  1
  Co  Co155  1  0.99233873  0.15922431  0.94513756  1
  Co  Co156  1  0.38475550  0.31072376  0.49920066  1
  Co  Co157  1  0.69480968  0.58042154  0.45323096  1
  Co  Co158  1  0.76569802  0.35486371  0.39916923  1
  Co  Co159  1  1.00911223  0.60234863  0.14551503  1
  Co  Co160  1  0.74389677  0.48128560  0.90622095  1
  Co  Co161  1  0.05594603  0.00144085  0.69464914  1
  Ni  Ni162  1  0.58536135  0.19808217  0.76710320  1
  Ni  Ni163  1  0.07210363  0.91045091  0.90471860  1
  Ni  Ni164  1  0.90686716  0.31901584  0.70485407  1
  Ni  Ni165  1  0.54820975  0.15826873  0.94412440  1
  Ni  Ni166  1  0.75950411  0.02394493  0.07835725  1
  Ni  Ni167  1  0.39973256  0.70773883  0.03662806  1
  Ni  Ni168  1  0.47440666  0.87168823  0.90524928  1
  Ni  Ni169  1  -0.01378643  0.24353930  0.25706734  1
  Ni  Ni170  1  0.60887113  0.16652723  0.59446571  1
  Ni  Ni171  1  0.26614212  0.04742147  0.97241940  1
  Ni  Ni172  1  0.41945704  0.51999871  0.88974460  1
  Ni  Ni173  1  0.64488825  0.80667696  0.96418760  1
  Ni  Ni174  1  0.81021008  0.12482416  0.53197834  1
  Ni  Ni175  1  0.31449519  0.96377112  0.84180704  1
  Ni  Ni176  1  0.08904767  0.04658236  0.00797616  1
  Ni  Ni177  1  0.72140870  0.72642481  0.09485607  1
  Ni  Ni178  1  0.85649732  0.80704205  0.40474412  1
  Ni  Ni179  1  0.57104694  0.94619980  0.71701168  1
  Ni  Ni180  1  0.80953281  0.65718901  0.35407027  1
  Ni  Ni181  1  0.47118399  0.21279451  0.08182912  1
  Ni  Ni182  1  0.22327432  0.31246441  0.05425916  1
  Ni  Ni183  1  0.55903494  0.65163814  0.02494767  1
  Ni  Ni184  1  0.59944892  0.76748588  0.20873466  1
  Ni  Ni185  1  0.80243680  0.85658540  0.60691635  1
  Ni  Ni186  1  0.41197622  0.53452509  0.06258188  1
  Ni  Ni187  1  0.98748457  0.59680733  0.76005385  1
  Ni  Ni188  1  0.88643742  0.67626898  0.64561203  1
  Ni  Ni189  1  0.45866709  0.26297196  0.24319549  1
  Ni  Ni190  1  0.74602662  0.23611500  0.28173200  1
  Ni  Ni191  1  -0.01581761  0.85631060  0.66958254  1
  Ni  Ni192  1  0.56026533  0.32087151  0.51559623  1
  Ni  Ni193  1  0.25054921  -0.02494305  0.63807369  1
  Ni  Ni194  1  0.79548882  0.93822774  0.84714895  1
  Ni  Ni195  1  0.40023116  0.50745571  0.25965820  1
  Ni  Ni196  1  0.02924568  0.29841240  0.86175815  1
  Ni  Ni197  1  0.06695523  0.77415040  0.37258567  1
  Ni  Ni198  1  0.31691698  0.36556586  0.22187917  1
  Ni  Ni199  1  0.71498497  0.26934290  0.52871228  1
  Ni  Ni200  1  0.97374313  0.43005230  0.53882673  1
  Ni  Ni201  1  0.17675395  0.78539181  0.60713106  1
  Ni  Ni202  1  0.48406639  0.93091450  0.17258092  1
  Ni  Ni203  1  0.42541498  0.62731753  0.53101724  1
  Ni  Ni204  1  0.17144704  0.20210244  0.77539974  1
  Ni  Ni205  1  0.17925294  0.57912124  0.54266503  1
  Ni  Ni206  1  0.92709713  0.65685317  0.47942063  1
  Ni  Ni207  1  0.87078741  0.87650194  0.09643815  1
  Ni  Ni208  1  0.44550938  0.38664743  0.36132428  1
  Ni  Ni209  1  0.30632134  0.37513282  0.91023259  1
  Ni  Ni210  1  0.24288800  0.75721956  0.06783873  1
  Ni  Ni211  1  0.57396074  0.50042336  0.27490775  1
  Ni  Ni212  1  0.03975206  0.42236355  0.69926261  1
  Ni  Ni213  1  0.58820512  0.95256644  0.02597376  1
  Ni  Ni214  1  0.70044415  0.06045271  0.75728490  1
  Ni  Ni215  1  0.24610504  0.09257336  0.31676895  1
