# generated using pymatgen
data_Ti2CoNi
_symmetry_space_group_name_H-M   'P 1'
_cell_length_a   14.68672996
_cell_length_b   14.55646123
_cell_length_c   14.61746794
_cell_angle_alpha   89.84879870
_cell_angle_beta   90.05074712
_cell_angle_gamma   89.86205883
_symmetry_Int_Tables_number   1
_chemical_formula_structural   Ti2CoNi
_chemical_formula_sum   'Ti108 Co54 Ni54'
_cell_volume   3125.00073515
_cell_formula_units_Z   54
loop_
 _symmetry_equiv_pos_site_id
 _symmetry_equiv_pos_as_xyz
  1  'x, y, z'
loop_
 _atom_site_type_symbol
 _atom_site_label
 _atom_site_symmetry_multiplicity
 _atom_site_fract_x
 _atom_site_fract_y
 _atom_site_fract_z
 _atom_site_occupancy
  Ti  Ti0  1  0.04344307  0.00442096  -0.06669222  1
  Ti  Ti1  1  -0.00940910  0.04367460  0.37027900  1
  Ti  Ti2  1  -0.06668921  0.00450752  0.72276208  1
  Ti  Ti3  1  -0.03025731  0.23878468  -0.01221055  1
  Ti  Ti4  1  -0.00820053  0.30844749  0.35111628  1
  Ti  Ti5  1  -0.07956145  0.30763173  0.56766503  1
  Ti  Ti6  1  -0.01878142  0.58736273  -0.04745754  1
  Ti  Ti7  1  0.05429128  0.63587437  0.34503789  1
  Ti  Ti8  1  0.02082105  0.78126220  0.67408058  1
  Ti  Ti9  1  0.31267172  0.01641250  0.04446978  1
  Ti  Ti10  1  0.36851498  0.01276522  0.31995902  1
  Ti  Ti11  1  0.40476309  -0.05047452  0.66009853  1
  Ti  Ti12  1  0.29291882  0.30430894  -0.06420896  1
  Ti  Ti13  1  0.35849023  0.31606859  0.35100079  1
  Ti  Ti14  1  0.37049442  0.42743804  0.71134939  1
  Ti  Ti15  1  0.41009940  0.67459078  -0.04150460  1
  Ti  Ti16  1  0.24216379  0.69104680  0.37011742  1
  Ti  Ti17  1  0.34220119  0.64025701  0.65336616  1
  Ti  Ti18  1  0.65341086  0.02728077  0.03945687  1
  Ti  Ti19  1  0.67667829  -0.02948998  0.39374698  1
  Ti  Ti20  1  0.69432004  -0.00171140  0.66152451  1
  Ti  Ti21  1  0.64404678  0.37986131  -0.04491047  1
  Ti  Ti22  1  0.65353644  0.34459623  0.32841815  1
  Ti  Ti23  1  0.75923561  0.38682880  0.63737470  1
  Ti  Ti24  1  0.66230564  0.67268819  -0.06582725  1
  Ti  Ti25  1  0.79881733  0.70155717  0.25640819  1
  Ti  Ti26  1  0.54767142  0.61985798  0.65538455  1
  Ti  Ti27  1  0.02595211  0.13248932  0.19645349  1
  Ti  Ti28  1  0.04385698  0.17565061  0.51081495  1
  Ti  Ti29  1  0.03643191  0.15455006  0.79645840  1
  Ti  Ti30  1  0.05934955  0.44289878  0.22043249  1
  Ti  Ti31  1  -0.03282565  0.51420280  0.51444492  1
  Ti  Ti32  1  0.00883530  0.50347858  0.78427853  1
  Ti  Ti33  1  0.04403832  0.85994525  0.09383723  1
  Ti  Ti34  1  -0.09292578  0.82629666  0.49781559  1
  Ti  Ti35  1  0.03079242  0.77763605  0.88169321  1
  Ti  Ti36  1  0.31975992  0.23524583  0.17295285  1
  Ti  Ti37  1  0.37405616  0.12231053  0.51092203  1
  Ti  Ti38  1  0.24699819  0.13504047  0.85423884  1
  Ti  Ti39  1  0.33362729  0.50691827  0.15636917  1
  Ti  Ti40  1  0.30255090  0.39159709  0.52370344  1
  Ti  Ti41  1  0.39681539  0.47562935  0.90936541  1
  Ti  Ti42  1  0.33048051  0.74006594  0.21800368  1
  Ti  Ti43  1  0.30394248  0.91183913  0.47995249  1
  Ti  Ti44  1  0.30200145  0.87499394  0.87810137  1
  Ti  Ti45  1  0.73619719  0.10044372  0.20267478  1
  Ti  Ti46  1  0.60616167  0.16833408  0.48838352  1
  Ti  Ti47  1  0.67913614  0.23884593  0.83630642  1
  Ti  Ti48  1  0.63962110  0.60446168  0.19636335  1
  Ti  Ti49  1  0.60204724  0.49684844  0.47712493  1
  Ti  Ti50  1  0.66518025  0.52424827  0.80308406  1
  Ti  Ti51  1  0.66595742  0.80297659  0.11513508  1
  Ti  Ti52  1  0.69580930  0.84369793  0.54531251  1
  Ti  Ti53  1  0.68416541  0.84213312  0.81802144  1
  Ti  Ti54  1  0.20829888  0.07632059  0.22046639  1
  Ti  Ti55  1  0.13633191  0.00460526  0.51402917  1
  Ti  Ti56  1  0.13115238  -0.03998031  0.75513984  1
  Ti  Ti57  1  0.14323686  0.34650785  0.05193829  1
  Ti  Ti58  1  0.10798987  0.36489955  0.51416224  1
  Ti  Ti59  1  0.14288625  0.35643026  0.79412502  1
  Ti  Ti60  1  0.13746122  0.73314808  0.19192905  1
  Ti  Ti61  1  0.15385982  0.67764823  0.55389967  1
  Ti  Ti62  1  0.16478657  0.64064530  0.78297676  1
  Ti  Ti63  1  0.47663321  0.07650979  0.13322727  1
  Ti  Ti64  1  0.49743341  -0.11227793  0.48372070  1
  Ti  Ti65  1  0.43391944  0.03156252  0.85106713  1
  Ti  Ti66  1  0.51189576  0.28339590  0.11001822  1
  Ti  Ti67  1  0.48186680  0.31921274  0.55885274  1
  Ti  Ti68  1  0.49797871  0.28614473  0.76744614  1
  Ti  Ti69  1  0.50285905  0.71033446  0.29050922  1
  Ti  Ti70  1  0.43004299  0.62984559  0.46026625  1
  Ti  Ti71  1  0.47929040  0.83825878  0.84412313  1
  Ti  Ti72  1  0.85521108  -0.13678781  0.13495758  1
  Ti  Ti73  1  0.81709571  0.06098933  0.50861328  1
  Ti  Ti74  1  0.75559625  0.02888212  0.85187532  1
  Ti  Ti75  1  0.75199910  0.34424935  0.13723829  1
  Ti  Ti76  1  0.81325855  0.36005239  0.42615319  1
  Ti  Ti77  1  0.92926861  0.31406918  0.76151600  1
  Ti  Ti78  1  0.82877127  0.61386665  0.07839080  1
  Ti  Ti79  1  0.75067159  0.66944893  0.46088886  1
  Ti  Ti80  1  0.84081797  0.70388352  0.86314130  1
  Ti  Ti81  1  0.16467898  0.15035176  0.04197270  1
  Ti  Ti82  1  0.17652741  0.30602269  0.34358374  1
  Ti  Ti83  1  0.20819945  0.17210503  0.66115231  1
  Ti  Ti84  1  0.14138680  0.55870554  0.07426257  1
  Ti  Ti85  1  0.23980618  0.49106809  0.36516159  1
  Ti  Ti86  1  0.18366584  0.50534657  0.64233336  1
  Ti  Ti87  1  0.25660151  0.82193550  0.05701871  1
  Ti  Ti88  1  0.10726178  0.83969318  0.37031159  1
  Ti  Ti89  1  0.23908648  0.83862628  0.64788743  1
  Ti  Ti90  1  0.54061243  0.15406110  -0.05214388  1
  Ti  Ti91  1  0.49003259  0.17955717  0.30534551  1
  Ti  Ti92  1  0.51042306  0.13138463  0.66474161  1
  Ti  Ti93  1  0.51092956  0.48461862  0.07562262  1
  Ti  Ti94  1  0.50711164  0.50503743  0.29015944  1
  Ti  Ti95  1  0.58087468  0.43135641  0.66069510  1
  Ti  Ti96  1  0.46388564  0.79104987  0.09954659  1
  Ti  Ti97  1  0.51974250  0.89776009  0.28018080  1
  Ti  Ti98  1  0.55751753  0.80400111  0.67147139  1
  Ti  Ti99  1  0.77738432  0.18499824  -0.00224469  1
  Ti  Ti100  1  0.84987274  0.22338099  0.27213785  1
  Ti  Ti101  1  0.77829769  0.16565013  0.69288625  1
  Ti  Ti102  1  0.86046415  0.42571389  -0.00367235  1
  Ti  Ti103  1  0.88791435  0.53356063  0.32506832  1
  Ti  Ti104  1  0.84575447  0.55991121  0.70165334  1
  Ti  Ti105  1  0.87456620  0.89692122  -0.05360385  1
  Ti  Ti106  1  0.92342353  0.86657474  0.30312467  1
  Ti  Ti107  1  0.81234998  0.75231556  0.67185600  1
  Co  Co108  1  0.76926653  0.51103318  0.19200108  1
  Co  Co109  1  0.28508644  0.99380675  0.76905901  1
  Co  Co110  1  0.61480562  0.10548165  0.78500824  1
  Co  Co111  1  0.54389372  0.55221618  0.92851352  1
  Co  Co112  1  0.51817886  0.30720277  0.40546709  1
  Co  Co113  1  0.20180513  0.00865738  0.92400735  1
  Co  Co114  1  0.24121949  0.71634819  0.91370201  1
  Co  Co115  1  0.54747782  0.69437667  0.81723792  1
  Co  Co116  1  0.01640943  0.69974581  0.49197613  1
  Co  Co117  1  0.26024404  0.02070548  0.61375960  1
  Co  Co118  1  0.28141528  0.56342988  0.51073692  1
  Co  Co119  1  0.54728544  0.71833842  0.51961063  1
  Co  Co120  1  0.96735719  0.66513161  0.77514779  1
  Co  Co121  1  0.55628178  0.93092733  0.12321783  1
  Co  Co122  1  0.74299436  0.92659300  0.24035060  1
  Co  Co123  1  0.11697910  0.71214996  0.02049912  1
  Co  Co124  1  0.05388392  0.96374855  0.23395439  1
  Co  Co125  1  0.14840368  0.86233777  0.94390083  1
  Co  Co126  1  0.40847751  0.78825762  0.39693605  1
  Co  Co127  1  0.36093295  0.58890929  0.30157624  1
  Co  Co128  1  0.90457643  0.70339378  0.37745544  1
  Co  Co129  1  0.02813216  0.41577846  0.64865867  1
  Co  Co130  1  0.71190890  0.89336837  0.97100654  1
  Co  Co131  1  0.56727787  0.80807552  0.97098471  1
  Co  Co132  1  0.89270289  0.02634791  0.23069286  1
  Co  Co133  1  0.27848410  0.65856362  0.07366124  1
  Co  Co134  1  0.69595964  0.67879183  0.75278726  1
  Co  Co135  1  0.97263553  1.00873557  0.08959841  1
  Co  Co136  1  0.17218559  0.80036539  0.78831889  1
  Co  Co137  1  0.88066504  0.65132005  0.56085782  1
  Co  Co138  1  0.52599857  0.43592912  0.81845199  1
  Co  Co139  1  0.91922898  0.48928456  0.14425697  1
  Co  Co140  1  0.63135911  0.22598989  0.22709518  1
  Co  Co141  1  0.58942148  -0.01969645  0.89666036  1
  Co  Co142  1  0.66113421  0.78087009  0.26914204  1
  Co  Co143  1  0.64225234  0.20533388  0.06387428  1
  Co  Co144  1  0.77918052  0.82834199  0.38310000  1
  Co  Co145  1  0.05458560  0.24955812  0.66213623  1
  Co  Co146  1  0.48341500  0.35028707  0.24797850  1
  Co  Co147  1  0.80839350  0.00645932  0.08116458  1
  Co  Co148  1  0.35358452  0.25532538  0.61497470  1
  Co  Co149  1  0.41269647  0.79067799  0.59991821  1
  Co  Co150  1  0.62074229  0.42781713  0.18140347  1
  Co  Co151  1  1.00138371  0.37548467  0.89851644  1
  Co  Co152  1  0.44134983  0.62446594  0.15400450  1
  Co  Co153  1  0.85833915  0.38796610  0.26046734  1
  Co  Co154  1  0.34457026  0.76398661  0.76148751  1
  Co  Co155  1  0.61587476  0.80424899  0.41192987  1
  Co  Co156  1  0.02205020  0.44105205  0.03976697  1
  Co  Co157  1  0.07107617  0.07520075  0.64892908  1
  Co  Co158  1  0.92229477  0.14286104  0.62924060  1
  Co  Co159  1  0.20428929  0.34066989  0.64267863  1
  Co  Co160  1  0.13673509  -0.00339988  0.07927627  1
  Co  Co161  1  0.36037054  0.12667374  0.71423819  1
  Ni  Ni162  1  -0.02854648  0.30848218  0.14974199  1
  Ni  Ni163  1  0.43905965  0.50433510  0.57922664  1
  Ni  Ni164  1  0.88944713  0.19377084  0.43469741  1
  Ni  Ni165  1  0.56508131  0.65584616  0.05979225  1
  Ni  Ni166  1  0.76529431  0.22651703  0.53760978  1
  Ni  Ni167  1  0.72622324  0.16475682  0.37598189  1
  Ni  Ni168  1  0.88433156  0.16005897  0.11786253  1
  Ni  Ni169  1  0.55126907  0.96012544  0.73643029  1
  Ni  Ni170  1  0.20637166  0.90329637  0.19515877  1
  Ni  Ni171  1  0.51458778  0.04262635  0.40540946  1
  Ni  Ni172  1  0.94764768  0.73778440  1.02993852  1
  Ni  Ni173  1  0.42765608  0.45223667  0.42470256  1
  Ni  Ni174  1  0.30054018  0.28529489  0.76758478  1
  Ni  Ni175  1  0.27872605  0.85618584  0.32509247  1
  Ni  Ni176  1  0.23002911  0.23075888  0.49503718  1
  Ni  Ni177  1  0.48062768  0.32903753  0.94441746  1
  Ni  Ni178  1  0.37714595  0.17419717  0.02376857  1
  Ni  Ni179  1  0.96489310  0.72259785  0.20996942  1
  Ni  Ni180  1  0.20180047  0.58493884  0.23133961  1
  Ni  Ni181  1  0.63409550  0.25473868  0.65838753  1
  Ni  Ni182  1  0.64819417  0.33834571  0.51327449  1
  Ni  Ni183  1  0.25094449  0.48851739  0.80970996  1
  Ni  Ni184  1  0.59131813  0.04715733  0.25575492  1
  Ni  Ni185  1  0.82435750  0.30455164  0.89523956  1
  Ni  Ni186  1  0.80986252  0.42965165  0.79814581  1
  Ni  Ni187  1  0.79547534  0.55167756  0.90899678  1
  Ni  Ni188  1  0.40393709  0.19752543  0.86242486  1
  Ni  Ni189  1  0.12327764  0.14845524  0.36372532  1
  Ni  Ni190  1  0.14094555  0.24961631  0.19140217  1
  Ni  Ni191  1  0.68471158  0.51779403  0.04091690  1
  Ni  Ni192  1  0.96566328  0.98674601  0.54105448  1
  Ni  Ni193  1  0.87036726  0.16030838  0.82936029  1
  Ni  Ni194  1  0.29875423  0.73704127  0.51281304  1
  Ni  Ni195  1  0.89605081  0.06941802  0.95683223  1
  Ni  Ni196  1  0.22247681  0.39627161  0.20167989  1
  Ni  Ni197  1  0.83792090  0.91218779  0.62512473  1
  Ni  Ni198  1  0.18658200  0.99081735  0.35707994  1
  Ni  Ni199  1  0.61913973  0.63356551  0.37215175  1
  Ni  Ni200  1  0.29401646  0.15810264  0.35496909  1
  Ni  Ni201  1  0.88992773  0.85403729  0.78363471  1
  Ni  Ni202  1  0.56283135  0.01216022  0.56203910  1
  Ni  Ni203  1  0.37957337  0.92341605  0.17133942  1
  Ni  Ni204  1  0.11767160  0.24306387  0.91151032  1
  Ni  Ni205  1  0.25656480  0.46525157  0.99541117  1
  Ni  Ni206  1  0.79997084  0.50759159  0.50115047  1
  Ni  Ni207  1  0.08293939  0.85039220  0.53714851  1
  Ni  Ni208  1  0.70219498  0.56622907  0.61837916  1
  Ni  Ni209  1  0.12148616  0.50126912  0.91111214  1
  Ni  Ni210  1  0.78975911  0.76102599  0.01040782  1
  Ni  Ni211  1  0.44839435  0.93138066  0.99912310  1
  Ni  Ni212  1  0.03207986  0.60020785  0.64178979  1
  Ni  Ni213  1  0.36759233  0.36543756  0.06966047  1
  Ni  Ni214  1  0.06476539  0.46481515  0.38379442  1
  Ni  Ni215  1  0.72172471  0.50665908  0.34908888  1
