# generated using pymatgen
data_Ti2CoNi
_symmetry_space_group_name_H-M   'P 1'
_cell_length_a   14.73453294
_cell_length_b   14.62825576
_cell_length_c   14.55015105
_cell_angle_alpha   89.73841810
_cell_angle_beta   89.89201785
_cell_angle_gamma   89.89987089
_symmetry_Int_Tables_number   1
_chemical_formula_structural   Ti2CoNi
_chemical_formula_sum   'Ti108 Co54 Ni54'
_cell_volume   3136.10407547
_cell_formula_units_Z   54
loop_
 _symmetry_equiv_pos_site_id
 _symmetry_equiv_pos_as_xyz
  1  'x, y, z'
loop_
 _atom_site_type_symbol
 _atom_site_label
 _atom_site_symmetry_multiplicity
 _atom_site_fract_x
 _atom_site_fract_y
 _atom_site_fract_z
 _atom_site_occupancy
  Ti  Ti0  1  -0.00127577  0.01876517  0.01185219  1
  Ti  Ti1  1  -0.03539183  -0.02835768  0.40614903  1
  Ti  Ti2  1  -0.00402585  -0.01091469  0.69980119  1
  Ti  Ti3  1  0.06685766  0.32283490  -0.02443371  1
  Ti  Ti4  1  0.01732276  0.42674307  0.28173424  1
  Ti  Ti5  1  0.09657673  0.33945986  0.67156103  1
  Ti  Ti6  1  -0.02601635  0.70717319  0.06149515  1
  Ti  Ti7  1  0.02505068  0.65051820  0.35883446  1
  Ti  Ti8  1  0.03535897  0.64559214  0.63219329  1
  Ti  Ti9  1  0.35760471  -0.00793658  -0.02114132  1
  Ti  Ti10  1  0.37657648  0.01427077  0.32097186  1
  Ti  Ti11  1  0.32994365  0.05810752  0.74164232  1
  Ti  Ti12  1  0.27845632  0.28956465  0.03812162  1
  Ti  Ti13  1  0.29991353  0.30122396  0.26174422  1
  Ti  Ti14  1  0.32474201  0.37485085  0.62851281  1
  Ti  Ti15  1  0.32283279  0.60278403  0.01707321  1
  Ti  Ti16  1  0.34989091  0.59769593  0.30720051  1
  Ti  Ti17  1  0.36024077  0.66322287  0.74971759  1
  Ti  Ti18  1  0.63617329  0.01516147  0.02684485  1
  Ti  Ti19  1  0.72910506  -0.00039058  0.31338874  1
  Ti  Ti20  1  0.64761592  0.03786429  0.67874469  1
  Ti  Ti21  1  0.65874530  0.34896704  -0.05034113  1
  Ti  Ti22  1  0.62018330  0.31852024  0.39581919  1
  Ti  Ti23  1  0.68141114  0.39496783  0.60559510  1
  Ti  Ti24  1  0.69857301  0.78268462  -0.01761241  1
  Ti  Ti25  1  0.69106549  0.60597309  0.33980201  1
  Ti  Ti26  1  0.75373854  0.65613416  0.69702911  1
  Ti  Ti27  1  -0.02479828  0.23513625  0.18922103  1
  Ti  Ti28  1  0.03855827  0.16905046  0.42051330  1
  Ti  Ti29  1  -0.03422720  0.16386169  0.87711071  1
  Ti  Ti30  1  -0.11729401  0.49978832  0.13190361  1
  Ti  Ti31  1  0.00431780  0.37661501  0.48582431  1
  Ti  Ti32  1  -0.01234426  0.54168951  0.93170138  1
  Ti  Ti33  1  0.05717849  0.92944730  0.21070411  1
  Ti  Ti34  1  -0.00343162  0.79849016  0.50055567  1
  Ti  Ti35  1  -0.07760997  0.78060274  0.72897330  1
  Ti  Ti36  1  0.30564352  0.13089420  0.17058707  1
  Ti  Ti37  1  0.29093745  0.19019472  0.56937065  1
  Ti  Ti38  1  0.36841269  0.20349278  0.85568482  1
  Ti  Ti39  1  0.28484875  0.46870219  0.15167210  1
  Ti  Ti40  1  0.38796605  0.54447071  0.49347037  1
  Ti  Ti41  1  0.34740462  0.49468764  0.85675440  1
  Ti  Ti42  1  0.32128651  0.80138323  0.12400828  1
  Ti  Ti43  1  0.32362674  0.82167282  0.46066343  1
  Ti  Ti44  1  0.32242511  0.87202494  0.77303357  1
  Ti  Ti45  1  0.61587333  0.15480602  0.21644203  1
  Ti  Ti46  1  0.68193841  0.19156749  0.55696757  1
  Ti  Ti47  1  0.65869991  0.15273290  0.85306341  1
  Ti  Ti48  1  0.68272771  0.60434016  0.12131474  1
  Ti  Ti49  1  0.58945475  0.53188133  0.48305747  1
  Ti  Ti50  1  0.70251266  0.48982978  0.78601475  1
  Ti  Ti51  1  0.67723220  0.81615063  0.17996680  1
  Ti  Ti52  1  0.68157328  0.75060659  0.48718365  1
  Ti  Ti53  1  0.63070721  0.84578761  0.76084457  1
  Ti  Ti54  1  0.17688837  0.00622511  0.06834213  1
  Ti  Ti55  1  0.14318834  -0.06641546  0.54211172  1
  Ti  Ti56  1  0.06130805  -0.11590742  0.84771393  1
  Ti  Ti57  1  0.13704428  0.34636972  0.15318867  1
  Ti  Ti58  1  0.19304492  0.33247967  0.45250674  1
  Ti  Ti59  1  0.21885768  0.35475122  0.84396037  1
  Ti  Ti60  1  0.13239815  0.74448008  0.23603133  1
  Ti  Ti61  1  0.19679303  0.63017455  0.50076498  1
  Ti  Ti62  1  0.17588640  0.57805627  0.87949978  1
  Ti  Ti63  1  0.47211627  0.04134005  0.14738485  1
  Ti  Ti64  1  0.48879748  -0.06135777  0.48419373  1
  Ti  Ti65  1  0.52107643  -0.05849152  0.87283935  1
  Ti  Ti66  1  0.58181196  0.33227017  0.15886392  1
  Ti  Ti67  1  0.49292286  0.29111340  0.55831980  1
  Ti  Ti68  1  0.52707469  0.31841223  0.81117678  1
  Ti  Ti69  1  0.49717110  0.70630364  0.19390723  1
  Ti  Ti70  1  0.49592458  0.71664361  0.48032139  1
  Ti  Ti71  1  0.58280186  0.65782778  0.80498615  1
  Ti  Ti72  1  0.89168428  0.04844454  0.18380897  1
  Ti  Ti73  1  0.78624097  0.01117299  0.50828077  1
  Ti  Ti74  1  0.80625146  -0.03142832  0.74792950  1
  Ti  Ti75  1  0.77750777  0.28680445  0.09177557  1
  Ti  Ti76  1  0.81452501  0.30167057  0.47031284  1
  Ti  Ti77  1  0.89732650  0.34915684  0.83636431  1
  Ti  Ti78  1  0.84667189  0.65432754  0.23243658  1
  Ti  Ti79  1  0.85397882  0.68897127  0.42532636  1
  Ti  Ti80  1  0.83781286  0.65734050  0.87475052  1
  Ti  Ti81  1  0.18422146  0.15074283  -0.07662757  1
  Ti  Ti82  1  0.23221071  0.14528861  0.36668886  1
  Ti  Ti83  1  0.12017255  0.13223741  0.69805982  1
  Ti  Ti84  1  0.13359443  0.59657800  0.07655249  1
  Ti  Ti85  1  0.16519405  0.56061973  0.27701116  1
  Ti  Ti86  1  0.17743855  0.52381866  0.70523079  1
  Ti  Ti87  1  0.22107034  0.84950791  -0.05172811  1
  Ti  Ti88  1  0.21969065  0.90387469  0.32497187  1
  Ti  Ti89  1  0.17360131  0.74433816  0.75069287  1
  Ti  Ti90  1  0.50053835  0.24640813  0.00427471  1
  Ti  Ti91  1  0.45826284  0.20963667  0.31885912  1
  Ti  Ti92  1  0.48028359  0.09483499  0.60474487  1
  Ti  Ti93  1  0.49825554  0.47090256  0.02840630  1
  Ti  Ti94  1  0.45405383  0.43752064  0.26050951  1
  Ti  Ti95  1  0.49175735  0.49223375  0.73735984  1
  Ti  Ti96  1  0.50655632  0.86782862  0.07854473  1
  Ti  Ti97  1  0.53646848  0.89002806  0.29904438  1
  Ti  Ti98  1  0.46548373  0.80484618  0.64622128  1
  Ti  Ti99  1  0.80867231  0.09132750  -0.01563088  1
  Ti  Ti100  1  0.79169902  0.21014155  0.27721782  1
  Ti  Ti101  1  0.87354201  0.14989299  0.62027028  1
  Ti  Ti102  1  0.78306394  0.48167194  -0.03591585  1
  Ti  Ti103  1  0.86529392  0.48901396  0.37194136  1
  Ti  Ti104  1  0.86532687  0.49856118  0.58186630  1
  Ti  Ti105  1  0.86849181  0.87451881  -0.03848121  1
  Ti  Ti106  1  0.86752530  0.86844205  0.27320948  1
  Ti  Ti107  1  0.77254405  0.84196045  0.61608245  1
  Co  Co108  1  0.18221046  0.40538413  0.30081914  1
  Co  Co109  1  0.27132288  0.64614558  0.16817794  1
  Co  Co110  1  0.92845422  0.89872136  0.11564884  1
  Co  Co111  1  0.09951525  0.27036091  0.31155520  1
  Co  Co112  1  0.19403244  0.03091337  0.23829309  1
  Co  Co113  1  0.42961829  0.74306755  0.34467944  1
  Co  Co114  1  0.04526863  0.64796372  0.79675924  1
  Co  Co115  1  0.68905391  0.61873228  0.92660894  1
  Co  Co116  1  0.23803061  0.04724340  0.60951024  1
  Co  Co117  1  0.60684681  0.45997001  0.30867588  1
  Co  Co118  1  0.44649213  0.21060055  0.15780386  1
  Co  Co119  1  0.62607125  0.97927180  0.18668690  1
  Co  Co120  1  0.62779303  0.55302158  0.64910625  1
  Co  Co121  1  0.91543898  0.91583401  0.58192923  1
  Co  Co122  1  0.09133563  0.25339211  0.81813124  1
  Co  Co123  1  0.55411572  0.77126231  0.93492411  1
  Co  Co124  1  0.54706211  0.04984101  0.33770631  1
  Co  Co125  1  0.75551968  0.49517006  0.24451803  1
  Co  Co126  1  0.43511538  0.71485800  0.03307905  1
  Co  Co127  1  0.74754103  0.10009361  0.14024920  1
  Co  Co128  1  0.82237397  0.63273660  0.03673595  1
  Co  Co129  1  0.22788095  0.46934563  0.53515914  1
  Co  Co130  1  0.16914635  0.94534525  0.72217436  1
  Co  Co131  1  0.43078644  0.57052717  0.14639907  1
  Co  Co132  1  0.61218532  0.89405187  0.59128812  1
  Co  Co133  1  0.01284823  0.59436291  0.19997333  1
  Co  Co134  1  0.89693876  0.32771804  0.60667233  1
  Co  Co135  1  0.45010527  0.61942376  0.89136254  1
  Co  Co136  1  0.31919633  0.96453032  0.14901418  1
  Co  Co137  1  0.12091360  0.71625438  0.93128699  1
  Co  Co138  1  0.68885183  0.43993659  0.10299303  1
  Co  Co139  1  0.24718411  0.23205236  0.73278764  1
  Co  Co140  1  0.82250069  0.42386730  0.71794031  1
  Co  Co141  1  0.65579546  0.89832806  0.42415214  1
  Co  Co142  1  0.28652589  0.99199666  0.46240589  1
  Co  Co143  1  0.46045869  0.78443779  0.80780297  1
  Co  Co144  1  0.07805791  0.48981370  0.58383615  1
  Co  Co145  1  0.65638584  0.19042310  0.02275235  1
  Co  Co146  1  0.78876774  0.24941202  0.91950951  1
  Co  Co147  1  0.38550011  0.36385517  0.94330727  1
  Co  Co148  1  0.95263215  0.23854477  0.72975353  1
  Co  Co149  1  0.07978213  0.04936421  0.84499276  1
  Co  Co150  1  0.76665560  0.93449777  0.09693699  1
  Co  Co151  1  0.72675850  0.44454109  0.43729295  1
  Co  Co152  1  0.56122513  0.62603228  0.02274621  1
  Co  Co153  1  0.37407145  0.35186226  0.77683121  1
  Co  Co154  1  0.39799343  0.84290893  0.94668085  1
  Co  Co155  1  0.38610350  0.86453072  0.25577445  1
  Co  Co156  1  0.70449459  0.34346341  0.25850585  1
  Co  Co157  1  0.41150179  0.21729732  0.69068514  1
  Co  Co158  1  0.12571948  0.02054456  0.40028084  1
  Co  Co159  1  0.49498480  0.44989095  0.58721184  1
  Co  Co160  1  0.62552802  0.03411022  0.50434810  1
  Co  Co161  1  0.10833395  0.50036005  0.42253739  1
  Ni  Ni162  1  0.05642327  0.85853727  1.01995273  1
  Ni  Ni163  1  0.96935758  0.75123307  0.89899715  1
  Ni  Ni164  1  0.06715648  0.42803473  0.83200397  1
  Ni  Ni165  1  0.59331727  0.22008350  0.69308134  1
  Ni  Ni166  1  0.76518384  0.26509062  0.69651220  1
  Ni  Ni167  1  0.82156378  0.77608645  0.11390589  1
  Ni  Ni168  1  0.74382881  0.77955003  0.32706158  1
  Ni  Ni169  1  0.87730927  0.68031349  0.58990431  1
  Ni  Ni170  1  0.74355792  0.59268828  0.52275448  1
  Ni  Ni171  1  0.50150021  0.08919266  0.95296541  1
  Ni  Ni172  1  0.31518304  0.43954227  0.37945294  1
  Ni  Ni173  1  0.89261142  0.10980292  0.35245768  1
  Ni  Ni174  1  0.59121462  0.73868597  0.33759259  1
  Ni  Ni175  1  0.51011921  0.59137944  0.34135849  1
  Ni  Ni176  1  0.90320523  0.57826490  0.73651197  1
  Ni  Ni177  1  0.48380361  0.95787291  0.70696127  1
  Ni  Ni178  1  0.97365192  0.76184713  0.21817705  1
  Ni  Ni179  1  0.92033278  0.22591619  0.02431745  1
  Ni  Ni180  1  0.02444406  0.22041708  0.57916535  1
  Ni  Ni181  1  0.97540272  0.57351169  0.48984228  1
  Ni  Ni182  1  0.77827247  0.80728522  0.81712425  1
  Ni  Ni183  1  0.40782547  0.36084969  0.11548590  1
  Ni  Ni184  1  0.35979518  0.14793374  0.01733448  1
  Ni  Ni185  1  0.54515248  0.16838938  0.45619999  1
  Ni  Ni186  1  0.22796370  -0.00318305  0.86986924  1
  Ni  Ni187  1  0.20393123  0.44841023  0.99620707  1
  Ni  Ni188  1  0.57298399  0.49894757  0.88800917  1
  Ni  Ni189  1  0.06648102  0.16273245  0.05676987  1
  Ni  Ni190  1  0.14637997  0.77267360  0.41882160  1
  Ni  Ni191  1  0.39266549  0.11710801  0.45524605  1
  Ni  Ni192  1  0.61187262  0.72633595  0.63502304  1
  Ni  Ni193  1  0.47644718  0.62431976  0.62300428  1
  Ni  Ni194  1  0.93491362  0.28582669  0.35575230  1
  Ni  Ni195  1  0.83018011  0.86084606  0.44376570  1
  Ni  Ni196  1  0.15750954  0.18610865  0.18573666  1
  Ni  Ni197  1  0.86324759  0.36522305  0.23431344  1
  Ni  Ni198  1  0.69365818  0.14324516  0.39224989  1
  Ni  Ni199  1  1.00604848  0.05481271  0.54601739  1
  Ni  Ni200  1  0.35861438  0.28374072  0.43594722  1
  Ni  Ni201  1  0.91993602  0.00185029  0.85942769  1
  Ni  Ni202  1  0.16940263  0.75905433  0.07954635  1
  Ni  Ni203  1  0.30162135  0.71581782  0.89215840  1
  Ni  Ni204  1  0.31254539  0.72831520  0.60118274  1
  Ni  Ni205  1  0.33175886  0.54143719  0.64728891  1
  Ni  Ni206  1  0.34580860  0.92356500  0.60704032  1
  Ni  Ni207  1  0.04182651  1.09143594  0.26491926  1
  Ni  Ni208  1  0.72271804  0.94752899  0.89987542  1
  Ni  Ni209  1  0.82143488  0.13344711  0.79116658  1
  Ni  Ni210  1  0.50431975  0.11100702  0.78442719  1
  Ni  Ni211  1  0.47617267  0.41120470  0.42309188  1
  Ni  Ni212  1  0.06300500  0.83201036  0.66111378  1
  Ni  Ni213  1  0.91496000  0.38888201  1.00810918  1
  Ni  Ni214  1  0.27373405  0.74030718  0.31352148  1
  Ni  Ni215  1  0.04161126  0.46336677  0.08890177  1
