# generated using pymatgen
data_Ti2CoNi
_symmetry_space_group_name_H-M   'P 1'
_cell_length_a   14.53957145
_cell_length_b   14.57469187
_cell_length_c   14.56453616
_cell_angle_alpha   90.29517786
_cell_angle_beta   89.89463130
_cell_angle_gamma   90.00617595
_symmetry_Int_Tables_number   1
_chemical_formula_structural   Ti2CoNi
_chemical_formula_sum   'Ti108 Co54 Ni54'
_cell_volume   3086.32137201
_cell_formula_units_Z   54
loop_
 _symmetry_equiv_pos_site_id
 _symmetry_equiv_pos_as_xyz
  1  'x, y, z'
loop_
 _atom_site_type_symbol
 _atom_site_label
 _atom_site_symmetry_multiplicity
 _atom_site_fract_x
 _atom_site_fract_y
 _atom_site_fract_z
 _atom_site_occupancy
  Ti  Ti0  1  0.09124945  0.00853946  0.04179778  1
  Ti  Ti1  1  -0.05378476  -0.04509189  0.23988722  1
  Ti  Ti2  1  -0.04272382  -0.06119804  0.65195678  1
  Ti  Ti3  1  0.03757790  0.35329596  0.04842011  1
  Ti  Ti4  1  -0.05890044  0.30142297  0.32964380  1
  Ti  Ti5  1  0.00230880  0.36059812  0.74854707  1
  Ti  Ti6  1  -0.04909394  0.62245744  -0.01909009  1
  Ti  Ti7  1  -0.02235942  0.62510284  0.37263696  1
  Ti  Ti8  1  0.04980544  0.66593278  0.60516129  1
  Ti  Ti9  1  0.34921131  -0.01050309  -0.03022182  1
  Ti  Ti10  1  0.35406752  0.02378062  0.30356602  1
  Ti  Ti11  1  0.28508942  0.02084077  0.69941591  1
  Ti  Ti12  1  0.36447912  0.34068239  0.08802635  1
  Ti  Ti13  1  0.33331674  0.31577423  0.29791444  1
  Ti  Ti14  1  0.28423348  0.24124741  0.68427083  1
  Ti  Ti15  1  0.36684577  0.71926094  0.03064715  1
  Ti  Ti16  1  0.31473907  0.67603370  0.28897225  1
  Ti  Ti17  1  0.33668839  0.69570926  0.71175864  1
  Ti  Ti18  1  0.66278498  0.03799860  -0.11567365  1
  Ti  Ti19  1  0.61027693  -0.04770054  0.33131176  1
  Ti  Ti20  1  0.65715857  0.03024570  0.66799380  1
  Ti  Ti21  1  0.60638589  0.42772633  0.00836662  1
  Ti  Ti22  1  0.71144661  0.34443374  0.30073666  1
  Ti  Ti23  1  0.63864372  0.30322164  0.70141447  1
  Ti  Ti24  1  0.69496573  0.67991794  -0.02695717  1
  Ti  Ti25  1  0.55130652  0.67787630  0.30513144  1
  Ti  Ti26  1  0.76066906  0.62957247  0.76415938  1
  Ti  Ti27  1  0.10677947  0.21534548  0.17414987  1
  Ti  Ti28  1  -0.08765367  0.23217942  0.51046036  1
  Ti  Ti29  1  -0.02960752  0.19964331  0.83615565  1
  Ti  Ti30  1  -0.06072069  0.60586458  0.17243802  1
  Ti  Ti31  1  -0.07678365  0.51490817  0.51900588  1
  Ti  Ti32  1  -0.05605017  0.47183205  0.87776709  1
  Ti  Ti33  1  0.02860401  0.82261161  0.11604243  1
  Ti  Ti34  1  0.02454622  0.80675588  0.39911682  1
  Ti  Ti35  1  0.01532655  0.81295285  0.92780168  1
  Ti  Ti36  1  0.30116808  0.17825255  0.16367229  1
  Ti  Ti37  1  0.34144914  0.16564091  0.50172179  1
  Ti  Ti38  1  0.31125853  0.21859985  0.91894444  1
  Ti  Ti39  1  0.33335379  0.48719128  0.24267270  1
  Ti  Ti40  1  0.32508020  0.46513847  0.52251257  1
  Ti  Ti41  1  0.28035800  0.50142182  0.78532739  1
  Ti  Ti42  1  0.30407335  0.85730912  0.18525820  1
  Ti  Ti43  1  0.35837476  0.89955722  0.52576338  1
  Ti  Ti44  1  0.33067712  0.83414480  0.85194917  1
  Ti  Ti45  1  0.66166113  0.16411542  0.06477631  1
  Ti  Ti46  1  0.68626355  0.16988206  0.52987580  1
  Ti  Ti47  1  0.58704221  0.23654409  0.88764417  1
  Ti  Ti48  1  0.68887926  0.53827700  0.18067021  1
  Ti  Ti49  1  0.73500619  0.57016741  0.53720855  1
  Ti  Ti50  1  0.70267926  0.44714580  0.85227322  1
  Ti  Ti51  1  0.75182601  0.89645651  0.18762383  1
  Ti  Ti52  1  0.68435003  0.86402036  0.50580774  1
  Ti  Ti53  1  0.57530142  0.80057463  0.87728719  1
  Ti  Ti54  1  0.15494539  0.02276697  0.23080537  1
  Ti  Ti55  1  0.11667500  -0.03834628  0.51323659  1
  Ti  Ti56  1  0.07599424  -0.02443095  0.82226382  1
  Ti  Ti57  1  0.19081648  0.39331551  0.16304928  1
  Ti  Ti58  1  0.08733829  0.32816107  0.48085691  1
  Ti  Ti59  1  0.20333517  0.33317877  0.82105305  1
  Ti  Ti60  1  0.19470704  0.59084533  0.15169874  1
  Ti  Ti61  1  0.22996475  0.63010963  0.54821625  1
  Ti  Ti62  1  0.16037094  0.74487874  0.80547431  1
  Ti  Ti63  1  0.56266404  -0.00144462  0.13323371  1
  Ti  Ti64  1  0.48627639  0.05479300  0.44166670  1
  Ti  Ti65  1  0.48650339  -0.01729179  0.79477244  1
  Ti  Ti66  1  0.53485929  0.39094325  0.18690713  1
  Ti  Ti67  1  0.44570522  0.31627278  0.46714901  1
  Ti  Ti68  1  0.44444674  0.31385166  0.75776621  1
  Ti  Ti69  1  0.44593402  0.57713223  0.14101656  1
  Ti  Ti70  1  0.46316844  0.72879000  0.53025836  1
  Ti  Ti71  1  0.45929297  0.53042536  0.76164985  1
  Ti  Ti72  1  0.83921556  0.07598821  0.11765408  1
  Ti  Ti73  1  0.85439083  0.05411706  0.45807844  1
  Ti  Ti74  1  0.84721114  -0.00297135  0.82812062  1
  Ti  Ti75  1  0.87282470  0.28585683  0.12928513  1
  Ti  Ti76  1  0.76502002  0.37206498  0.54531843  1
  Ti  Ti77  1  0.81112065  0.29776954  0.80941130  1
  Ti  Ti78  1  0.78565734  0.69956778  0.27025136  1
  Ti  Ti79  1  0.85231148  0.73468155  0.51617567  1
  Ti  Ti80  1  0.95720482  0.68030758  0.78362610  1
  Ti  Ti81  1  0.11784184  0.17061551  -0.05532030  1
  Ti  Ti82  1  0.08834300  0.14765548  0.39843147  1
  Ti  Ti83  1  0.13375252  0.13420639  0.60339229  1
  Ti  Ti84  1  0.15554843  0.50989768  -0.03247812  1
  Ti  Ti85  1  0.11820067  0.50577240  0.30224808  1
  Ti  Ti86  1  0.14277647  0.46263644  0.62646158  1
  Ti  Ti87  1  0.19289064  0.77262275  0.00833640  1
  Ti  Ti88  1  0.21909755  0.85577239  0.37618957  1
  Ti  Ti89  1  0.21659143  0.81224259  0.61638750  1
  Ti  Ti90  1  0.45898678  0.14587311  0.03421403  1
  Ti  Ti91  1  0.57303200  0.16411010  0.27591347  1
  Ti  Ti92  1  0.43232916  0.13341015  0.67171745  1
  Ti  Ti93  1  0.52279931  0.59774866  -0.04646335  1
  Ti  Ti94  1  0.59089341  0.46081181  0.41873720  1
  Ti  Ti95  1  0.57416961  0.57035946  0.62546634  1
  Ti  Ti96  1  0.54038103  0.80997101  0.08300223  1
  Ti  Ti97  1  0.42823938  0.82920961  0.35492467  1
  Ti  Ti98  1  0.56106539  0.84866838  0.65356650  1
  Ti  Ti99  1  0.81812010  0.15452448  -0.05114468  1
  Ti  Ti100  1  0.86784831  0.14441726  0.29405664  1
  Ti  Ti101  1  0.84597003  0.09730076  0.66325951  1
  Ti  Ti102  1  0.81897901  0.45946041  0.04083850  1
  Ti  Ti103  1  0.85778800  0.47654960  0.26848759  1
  Ti  Ti104  1  0.84203620  0.46789821  0.70446865  1
  Ti  Ti105  1  0.84183604  0.81438511  0.03324026  1
  Ti  Ti106  1  0.82859694  0.85824588  0.37701670  1
  Ti  Ti107  1  0.77866568  0.83585973  0.69644382  1
  Co  Co108  1  0.60244466  0.81849139  0.24610638  1
  Co  Co109  1  0.06246954  0.81927557  0.56514506  1
  Co  Co110  1  0.91031346  0.85424601  0.81327597  1
  Co  Co111  1  0.80754571  0.56554511  0.91257838  1
  Co  Co112  1  0.05270836  0.82954986  0.73296927  1
  Co  Co113  1  0.44824973  0.45335113  0.02764548  1
  Co  Co114  1  0.68158481  0.47114678  0.69055270  1
  Co  Co115  1  0.41300608  0.46193125  0.37610545  1
  Co  Co116  1  0.68944460  0.11470022  0.37100938  1
  Co  Co117  1  0.55187968  0.28032135  0.06057081  1
  Co  Co118  1  0.65765617  0.74431986  0.75716940  1
  Co  Co119  1  0.23535982  0.95378991  0.08929754  1
  Co  Co120  1  0.99596281  0.08070728  0.54612265  1
  Co  Co121  1  0.25941790  0.56857451  0.39193670  1
  Co  Co122  1  0.04935106  0.50697054  0.10518103  1
  Co  Co123  1  0.22530883  0.16696554  0.30031592  1
  Co  Co124  1  0.30727532  0.53955113  0.05955175  1
  Co  Co125  1  0.52533311  0.32198118  0.32520578  1
  Co  Co126  1  0.40488055  0.17881421  0.34083745  1
  Co  Co127  1  0.21321215  1.02883383  0.38668282  1
  Co  Co128  1  0.87694466  0.62441662  0.64008207  1
  Co  Co129  1  0.82263306  0.61461883  0.40434566  1
  Co  Co130  1  0.69099551  0.05941856  0.20709897  1
  Co  Co131  1  0.63161753  0.01718219  0.49867939  1
  Co  Co132  1  0.60554829  0.58895442  0.81307045  1
  Co  Co133  1  0.24311186  0.25549553  0.42639434  1
  Co  Co134  1  0.65529940  0.91438879  0.77920229  1
  Co  Co135  1  0.06832393  0.34410326  0.89961270  1
  Co  Co136  1  0.84416673  0.72511792  0.89612638  1
  Co  Co137  1  0.00578058  0.08110950  0.72272585  1
  Co  Co138  1  0.37418556  0.54126587  0.91514889  1
  Co  Co139  1  0.78754344  0.23945600  0.40481980  1
  Co  Co140  1  0.44808142  0.85473368  0.95150347  1
  Co  Co141  1  0.28368048  0.40731961  0.95982802  1
  Co  Co142  1  0.11397631  0.47958756  0.80326757  1
  Co  Co143  1  0.68456889  0.57228662  0.34104267  1
  Co  Co144  1  0.67473438  0.85492464  0.02080422  1
  Co  Co145  1  0.77977971  0.45260246  0.40814536  1
  Co  Co146  1  0.94270112  0.91377184  0.49022604  1
  Co  Co147  1  0.63547230  0.29588766  0.44121458  1
  Co  Co148  1  0.08296166  0.62420740  0.87606739  1
  Co  Co149  1  0.79682555  0.95459210  0.57115952  1
  Co  Co150  1  0.44602967  0.30918842  0.93482947  1
  Co  Co151  1  0.80618307  0.62550570  0.08230408  1
  Co  Co152  1  0.75249139  0.85350084  0.88525280  1
  Co  Co153  1  0.92670077  0.78036349  0.64953365  1
  Co  Co154  1  0.04028765  -0.00934139  0.36688072  1
  Co  Co155  1  0.53184242  0.51874349  0.27691429  1
  Co  Co156  1  0.56648270  0.15627441  0.74505078  1
  Co  Co157  1  0.18486634  0.90685048  0.93496234  1
  Co  Co158  1  0.95957078  0.22180808  0.66473972  1
  Co  Co159  1  0.12485282  0.30979355  0.31260075  1
  Co  Co160  1  0.18343444  0.61477014  0.71214667  1
  Co  Co161  1  0.25181365  0.11118311  0.03541914  1
  Ni  Ni162  1  0.15117914  0.68849549  0.37734296  1
  Ni  Ni163  1  1.00100554  0.52651306  0.69325792  1
  Ni  Ni164  1  0.44342188  0.74358611  0.19783841  1
  Ni  Ni165  1  0.95628148  0.37422285  0.59135910  1
  Ni  Ni166  1  0.40159679  0.58739678  0.60569182  1
  Ni  Ni167  1  0.45407065  0.23658210  0.19102125  1
  Ni  Ni168  1  0.52041959  0.88989660  0.48193842  1
  Ni  Ni169  1  0.74310875  0.21277494  0.20144958  1
  Ni  Ni170  1  0.52758928  0.23640784  0.58342219  1
  Ni  Ni171  1  0.42727444  0.69476327  0.86277171  1
  Ni  Ni172  1  0.73121029  0.30291464  0.97451541  1
  Ni  Ni173  1  0.50423187  0.69983511  0.70702675  1
  Ni  Ni174  1  0.31106365  0.73644822  0.44883093  1
  Ni  Ni175  1  0.79322543  0.25047484  0.65082382  1
  Ni  Ni176  1  0.99558235  0.10189880  0.18462358  1
  Ni  Ni177  1  0.11677167  0.28529544  0.66572476  1
  Ni  Ni178  1  0.44867728  0.42005906  0.62614227  1
  Ni  Ni179  1  0.93361574  0.95850208  0.04364290  1
  Ni  Ni180  1  0.58398229  0.64782981  0.11555582  1
  Ni  Ni181  1  0.53575081  0.42413599  0.85595936  1
  Ni  Ni182  1  0.71636695  0.00216937  0.03928537  1
  Ni  Ni183  1  0.05634943  0.69352413  0.24302454  1
  Ni  Ni184  1  0.53626068  -0.00693770  0.97284383  1
  Ni  Ni185  1  0.97498086  0.05883928  0.92108048  1
  Ni  Ni186  1  0.18898008  0.75081965  0.17967522  1
  Ni  Ni187  1  0.79060459  0.99914903  0.31195096  1
  Ni  Ni188  1  0.73009599  0.15322127  0.78015234  1
  Ni  Ni189  1  0.23511670  0.33191727  0.56052563  1
  Ni  Ni190  1  0.39221146  0.87249387  0.68982361  1
  Ni  Ni191  1  0.26579934  0.65688209  0.90607554  1
  Ni  Ni192  1  0.59744532  0.39539838  0.56979646  1
  Ni  Ni193  1  -0.00658588  0.44264991  0.38709149  1
  Ni  Ni194  1  0.57501872  0.62145254  0.46530308  1
  Ni  Ni195  1  0.38003435  0.03122828  0.13631957  1
  Ni  Ni196  1  0.42970295  0.13579571  0.84852472  1
  Ni  Ni197  1  1.01074511  0.38922630  0.21142180  1
  Ni  Ni198  1  0.14998869  0.15699674  0.77549830  1
  Ni  Ni199  1  0.20278386  0.28123002  0.03727682  1
  Ni  Ni200  1  0.70600875  0.74436067  0.13865423  1
  Ni  Ni201  1  0.92253552  0.78740754  0.24820327  1
  Ni  Ni202  1  0.70695987  0.36390668  0.13075786  1
  Ni  Ni203  1  0.22811329  0.41234741  0.39236686  1
  Ni  Ni204  1  0.09772678  0.86675064  0.26054980  1
  Ni  Ni205  1  0.09678300  0.54600537  0.47272707  1
  Ni  Ni206  1  0.45889558  0.90969638  0.21972552  1
  Ni  Ni207  1  0.67444652  0.71764006  0.59149474  1
  Ni  Ni208  1  0.90024982  0.31581113  0.95674671  1
  Ni  Ni209  1  0.23347332  0.05221722  0.86991029  1
  Ni  Ni210  1  0.20739885  0.89926220  0.76189818  1
  Ni  Ni211  1  0.68607707  0.72990867  0.40982412  1
  Ni  Ni212  1  0.97340807  0.17596370  0.03611563  1
  Ni  Ni213  1  0.07637250  0.66972699  0.06957218  1
  Ni  Ni214  1  0.26793419  0.02951150  0.53570974  1
  Ni  Ni215  1  0.48640251  0.99697786  0.60756491  1
