# generated using pymatgen
data_Ti2CoNi
_symmetry_space_group_name_H-M   'P 1'
_cell_length_a   14.57157078
_cell_length_b   14.59994352
_cell_length_c   14.53776648
_cell_angle_alpha   90.33120590
_cell_angle_beta   89.82488922
_cell_angle_gamma   89.97924577
_symmetry_Int_Tables_number   1
_chemical_formula_structural   Ti2CoNi
_chemical_formula_sum   'Ti108 Co54 Ni54'
_cell_volume   3092.75785583
_cell_formula_units_Z   54
loop_
 _symmetry_equiv_pos_site_id
 _symmetry_equiv_pos_as_xyz
  1  'x, y, z'
loop_
 _atom_site_type_symbol
 _atom_site_label
 _atom_site_symmetry_multiplicity
 _atom_site_fract_x
 _atom_site_fract_y
 _atom_site_fract_z
 _atom_site_occupancy
  Ti  Ti0  1  0.03838474  -0.08483899  -0.01421784  1
  Ti  Ti1  1  -0.04011324  0.01880239  0.30960553  1
  Ti  Ti2  1  -0.02971225  0.02859481  0.63541613  1
  Ti  Ti3  1  0.04750138  0.39191204  -0.01183470  1
  Ti  Ti4  1  0.02596507  0.30337805  0.38723453  1
  Ti  Ti5  1  -0.04904515  0.42044172  0.67685111  1
  Ti  Ti6  1  -0.02730571  0.69087167  -0.10078880  1
  Ti  Ti7  1  -0.01004515  0.63733502  0.36817402  1
  Ti  Ti8  1  0.03189546  0.68522777  0.65414850  1
  Ti  Ti9  1  0.35454618  -0.03984630  0.02742924  1
  Ti  Ti10  1  0.37707592  0.02570673  0.23009868  1
  Ti  Ti11  1  0.31033511  -0.00628384  0.62943452  1
  Ti  Ti12  1  0.28379014  0.28730906  -0.05036290  1
  Ti  Ti13  1  0.37292316  0.29737686  0.30197903  1
  Ti  Ti14  1  0.31052126  0.34793243  0.61957843  1
  Ti  Ti15  1  0.31668710  0.61977780  -0.01112436  1
  Ti  Ti16  1  0.27947236  0.70130564  0.35363770  1
  Ti  Ti17  1  0.34287134  0.64052618  0.73793659  1
  Ti  Ti18  1  0.65176525  0.03414236  0.07435171  1
  Ti  Ti19  1  0.65604746  0.02790557  0.31875135  1
  Ti  Ti20  1  0.59246634  0.01552464  0.70659992  1
  Ti  Ti21  1  0.61889356  0.36547998  0.08527881  1
  Ti  Ti22  1  0.75907736  0.35951144  0.37800387  1
  Ti  Ti23  1  0.61428147  0.20841267  0.63033352  1
  Ti  Ti24  1  0.62466064  0.62761953  -0.03983806  1
  Ti  Ti25  1  0.67310004  0.67309152  0.33223814  1
  Ti  Ti26  1  0.67028443  0.68040995  0.64784829  1
  Ti  Ti27  1  -0.03397841  0.09973146  0.11019960  1
  Ti  Ti28  1  0.02899101  0.21132302  0.59043190  1
  Ti  Ti29  1  -0.02412290  0.14339804  0.81201893  1
  Ti  Ti30  1  -0.04308700  0.42250225  0.15207250  1
  Ti  Ti31  1  0.03428304  0.48000248  0.48596337  1
  Ti  Ti32  1  -0.08411984  0.50293263  0.87586514  1
  Ti  Ti33  1  -0.02411194  0.77157467  0.19383328  1
  Ti  Ti34  1  -0.03753995  0.78444825  0.51961571  1
  Ti  Ti35  1  0.06384042  0.83282016  0.79316853  1
  Ti  Ti36  1  0.31211390  0.14033186  0.08237050  1
  Ti  Ti37  1  0.31084062  0.11389687  0.41783077  1
  Ti  Ti38  1  0.36603914  0.13585816  0.79988159  1
  Ti  Ti39  1  0.37886357  0.50298873  0.18615815  1
  Ti  Ti40  1  0.33010814  0.47600654  0.43605706  1
  Ti  Ti41  1  0.33814634  0.46529768  0.87829686  1
  Ti  Ti42  1  0.35162432  0.79795566  0.15981640  1
  Ti  Ti43  1  0.36292504  0.84306963  0.47848335  1
  Ti  Ti44  1  0.27319195  0.84377583  0.78273941  1
  Ti  Ti45  1  0.72614046  0.19660612  0.13123497  1
  Ti  Ti46  1  0.70733722  0.11531207  0.49912259  1
  Ti  Ti47  1  0.66686524  0.24891784  0.80659441  1
  Ti  Ti48  1  0.71306467  0.46993103  0.21095570  1
  Ti  Ti49  1  0.58685614  0.47986981  0.49897900  1
  Ti  Ti50  1  0.61566222  0.49406276  0.80085349  1
  Ti  Ti51  1  0.70730224  0.81151192  0.19344708  1
  Ti  Ti52  1  0.63912045  0.91111016  0.49126191  1
  Ti  Ti53  1  0.69982658  0.85337341  0.75931903  1
  Ti  Ti54  1  0.14099960  0.06685501  0.18350597  1
  Ti  Ti55  1  0.14648200  0.03814844  0.53985355  1
  Ti  Ti56  1  0.15491090  0.02478047  0.84212820  1
  Ti  Ti57  1  0.11787450  0.30232991  0.22830251  1
  Ti  Ti58  1  0.17887944  0.29572446  0.50339216  1
  Ti  Ti59  1  0.15002289  0.37488681  0.83348578  1
  Ti  Ti60  1  0.13189943  0.71775996  0.25262003  1
  Ti  Ti61  1  0.20916709  0.63703813  0.55053658  1
  Ti  Ti62  1  0.17146094  0.70978799  0.89343873  1
  Ti  Ti63  1  0.53440702  -0.07006221  0.18593390  1
  Ti  Ti64  1  0.47757169  -0.02314818  0.39788470  1
  Ti  Ti65  1  0.51921865  0.01460543  0.92217736  1
  Ti  Ti66  1  0.43398653  0.30897469  0.07703182  1
  Ti  Ti67  1  0.48969821  0.34556849  0.57839545  1
  Ti  Ti68  1  0.47436412  0.31023719  0.87082889  1
  Ti  Ti69  1  0.53949155  0.62531827  0.21177631  1
  Ti  Ti70  1  0.48882518  0.68718532  0.56205175  1
  Ti  Ti71  1  0.54495346  0.70794516  0.79628479  1
  Ti  Ti72  1  0.89927939  -0.07019356  0.14043851  1
  Ti  Ti73  1  0.84531485  -0.04503336  0.48896383  1
  Ti  Ti74  1  0.81819379  0.01032838  0.80830579  1
  Ti  Ti75  1  0.87375184  0.27132547  0.24081283  1
  Ti  Ti76  1  0.78417539  0.41831877  0.55245374  1
  Ti  Ti77  1  0.83602889  0.34093154  0.83276239  1
  Ti  Ti78  1  0.85881798  0.65849309  0.09972381  1
  Ti  Ti79  1  0.82056668  0.66911849  0.45938431  1
  Ti  Ti80  1  0.79735188  0.70732899  0.82513875  1
  Ti  Ti81  1  0.13213499  0.23222484  0.05272417  1
  Ti  Ti82  1  0.13089078  0.12062123  0.36717661  1
  Ti  Ti83  1  0.19532582  0.22515148  0.73167585  1
  Ti  Ti84  1  0.15424390  0.57447832  0.07642109  1
  Ti  Ti85  1  0.13946901  0.51704309  0.25253529  1
  Ti  Ti86  1  0.22310247  0.49520379  0.70375131  1
  Ti  Ti87  1  0.16228376  0.79053274  0.07971890  1
  Ti  Ti88  1  0.10090881  0.89728420  0.35585848  1
  Ti  Ti89  1  0.17606254  0.84462582  0.54105881  1
  Ti  Ti90  1  0.58947871  0.19950652  -0.02337251  1
  Ti  Ti91  1  0.57016630  0.24168234  0.32994898  1
  Ti  Ti92  1  0.42340558  0.14389792  0.58038454  1
  Ti  Ti93  1  0.48261912  0.48862497  -0.00405228  1
  Ti  Ti94  1  0.54708304  0.44576435  0.28865318  1
  Ti  Ti95  1  0.44752193  0.44719214  0.72727091  1
  Ti  Ti96  1  0.49369865  0.80436478  -0.00451784  1
  Ti  Ti97  1  0.48119169  0.74573182  0.35864559  1
  Ti  Ti98  1  0.44327640  0.83445672  0.69757250  1
  Ti  Ti99  1  0.86387202  0.19144697  -0.02560716  1
  Ti  Ti100  1  0.88596404  0.19667928  0.42702978  1
  Ti  Ti101  1  0.85428183  0.23582175  0.67330081  1
  Ti  Ti102  1  0.76563391  0.47170250  0.01476810  1
  Ti  Ti103  1  0.85282659  0.55048659  0.27744006  1
  Ti  Ti104  1  0.79216667  0.53314746  0.70707030  1
  Ti  Ti105  1  0.79139388  0.88621562  -0.02301876  1
  Ti  Ti106  1  0.90278754  0.83622127  0.35196764  1
  Ti  Ti107  1  0.88288967  0.85415862  0.68738189  1
  Co  Co108  1  0.70443443  0.11101487  0.89819610  1
  Co  Co109  1  0.79953533  0.34298095  0.11504574  1
  Co  Co110  1  0.07049950  0.56036768  0.93500922  1
  Co  Co111  1  0.17053879  0.40407738  0.11610232  1
  Co  Co112  1  0.46075382  0.12878540  0.36192587  1
  Co  Co113  1  0.27211261  0.41987037  0.26744323  1
  Co  Co114  1  0.47186316  0.57166181  0.85642424  1
  Co  Co115  1  0.17724390  0.74422021  0.69635819  1
  Co  Co116  1  0.77378584  0.25778352  0.53633228  1
  Co  Co117  1  0.97137326  0.26245379  0.09760858  1
  Co  Co118  1  0.15893763  0.58760691  0.39721570  1
  Co  Co119  1  0.20753861  0.56366289  0.85050326  1
  Co  Co120  1  0.47843149  0.07210798  0.07805444  1
  Co  Co121  1  0.73753458  0.28869762  0.96355532  1
  Co  Co122  1  0.64939105  0.78582378  0.90507521  1
  Co  Co123  1  0.56462935  0.21905342  0.13781168  1
  Co  Co124  1  1.00636739  0.93665565  0.47995499  1
  Co  Co125  1  0.05872742  0.49294876  0.78843709  1
  Co  Co126  1  0.00202488  0.09687246  0.46359136  1
  Co  Co127  1  0.51663044  0.77786779  0.17700612  1
  Co  Co128  1  0.03955318  0.68192868  0.05558563  1
  Co  Co129  1  0.17235439  0.94101860  0.69470488  1
  Co  Co130  1  0.04277269  0.87507266  0.63183021  1
  Co  Co131  1  0.62891329  0.87610667  0.04857342  1
  Co  Co132  1  0.22016418  0.27062173  0.35425672  1
  Co  Co133  1  0.91376059  0.56276261  0.57063475  1
  Co  Co134  1  0.19160024  0.88317943  0.91969718  1
  Co  Co135  1  0.85441162  0.11345375  0.56636315  1
  Co  Co136  1  0.11642564  0.09674329  0.69723016  1
  Co  Co137  1  0.36404556  0.64613744  0.48299894  1
  Co  Co138  1  0.83077744  0.71094718  0.27544892  1
  Co  Co139  1  0.88951798  0.36269644  0.98576124  1
  Co  Co140  1  0.54430038  0.87911742  0.82246390  1
  Co  Co141  1  0.42239654  0.16519219  0.95032563  1
  Co  Co142  1  0.20035600  0.47312161  0.54056461  1
  Co  Co143  1  0.42406969  0.18639453  0.20167778  1
  Co  Co144  1  0.07029479  0.53246668  0.63360051  1
  Co  Co145  1  0.93761220  0.59874738  0.74448928  1
  Co  Co146  1  0.28677069  0.29495781  0.15011298  1
  Co  Co147  1  1.00054175  0.97702084  0.78256656  1
  Co  Co148  1  0.54185598  0.13842224  0.80760612  1
  Co  Co149  1  0.67186849  0.95466794  0.89521278  1
  Co  Co150  1  0.36389423  0.52448590  0.60464980  1
  Co  Co151  1  0.63446777  0.48011144  0.64366068  1
  Co  Co152  1  0.15493815  0.41913527  0.38274705  1
  Co  Co153  1  0.67672060  0.31702146  0.23432572  1
  Co  Co154  1  -0.00460393  0.60000951  0.19812818  1
  Co  Co155  1  0.73819202  0.57504360  0.54657251  1
  Co  Co156  1  0.59367321  0.85247439  0.32503824  1
  Co  Co157  1  0.55311914  0.09015147  0.22389155  1
  Co  Co158  1  0.51614545  0.58793901  0.68152002  1
  Co  Co159  1  0.19724262  0.45805546  0.96555227  1
  Co  Co160  1  0.93844870  0.33915610  0.52478971  1
  Co  Co161  1  0.87650469  0.48854173  0.42709336  1
  Ni  Ni162  1  0.74073024  0.82001358  0.38922719  1
  Ni  Ni163  1  0.80754745  0.05848449  0.37336944  1
  Ni  Ni164  1  0.60610925  0.53248853  0.09463286  1
  Ni  Ni165  1  0.00415084  0.17275691  0.26367785  1
  Ni  Ni166  1  0.73541276  0.19526335  0.32851805  1
  Ni  Ni167  1  0.62004233  0.38495207  0.91858935  1
  Ni  Ni168  1  0.54463482  0.60105321  0.40639492  1
  Ni  Ni169  1  0.10547528  0.73683862  0.43317564  1
  Ni  Ni170  1  0.08686528  0.08598649  -0.01008885  1
  Ni  Ni171  1  0.92583397  0.79838957  0.02346418  1
  Ni  Ni172  1  0.82602267  0.08768324  0.21087356  1
  Ni  Ni173  1  0.94324719  0.53562793  0.03674265  1
  Ni  Ni174  1  0.70769847  0.51921580  0.39147229  1
  Ni  Ni175  1  0.46688647  0.94790353  0.57258467  1
  Ni  Ni176  1  0.40529369  0.58501587  0.32815903  1
  Ni  Ni177  1  0.25690820  0.16511776  0.58401514  1
  Ni  Ni178  1  0.11143004  0.36924217  0.64519743  1
  Ni  Ni179  1  0.73999198  0.11807820  0.70533700  1
  Ni  Ni180  1  0.71262576  0.63648343  0.16912384  1
  Ni  Ni181  1  0.30817419  0.79606911  0.99255275  1
  Ni  Ni182  1  0.35599686  0.26881065  0.47604519  1
  Ni  Ni183  1  0.44397058  0.66058373  0.07622884  1
  Ni  Ni184  1  0.08518683  0.90587108  0.18437936  1
  Ni  Ni185  1  0.93329467  0.02606064  0.93294550  1
  Ni  Ni186  1  0.43375702  -0.00904706  0.75294022  1
  Ni  Ni187  1  0.99337510  0.45112580  0.31195747  1
  Ni  Ni188  1  0.25157606  0.12140024  0.93007907  1
  Ni  Ni189  1  0.84493225  0.69483197  0.64502722  1
  Ni  Ni190  1  0.39020950  0.87223958  0.30509187  1
  Ni  Ni191  1  0.32149000  0.43694714  0.05523029  1
  Ni  Ni192  1  0.25525582  0.95911151  0.41093931  1
  Ni  Ni193  1  0.77578656  0.81405728  0.55615454  1
  Ni  Ni194  1  0.59429688  0.83515471  0.63042400  1
  Ni  Ni195  1  0.32591872  0.32840789  0.78449345  1
  Ni  Ni196  1  0.55754296  0.06958545  0.52012492  1
  Ni  Ni197  1  0.72934156  0.35588417  0.69547467  1
  Ni  Ni198  1  0.28505022  0.64177877  0.18027878  1
  Ni  Ni199  1  0.19226517  0.96927619  0.06079966  1
  Ni  Ni200  1  0.23507054  0.87136133  0.26042644  1
  Ni  Ni201  1  0.75254337  0.55560956  0.86884264  1
  Ni  Ni202  1  0.45964549  0.25183225  0.71312283  1
  Ni  Ni203  1  0.38930397  0.72180732  0.87458407  1
  Ni  Ni204  1  0.62688481  0.30203044  0.48198455  1
  Ni  Ni205  1  0.39334921  0.89245457  0.88144605  1
  Ni  Ni206  1  0.90548784  0.85805288  0.85811296  1
  Ni  Ni207  1  0.26693748  0.15631164  0.24959337  1
  Ni  Ni208  1  1.01859533  0.28977765  0.75886611  1
  Ni  Ni209  1  0.79244682  0.93365814  0.27131111  1
  Ni  Ni210  1  0.31541400  0.76072848  0.61207709  1
  Ni  Ni211  1  0.72848962  0.74077650  0.03420447  1
  Ni  Ni212  1  0.47813648  0.36675381  0.41663476  1
  Ni  Ni213  1  0.74504721  0.96732782  0.63040484  1
  Ni  Ni214  1  0.11332362  0.21406957  0.88356494  1
  Ni  Ni215  1  0.81465667  0.04623265  0.04513211  1
