# generated using pymatgen
data_Ti2CoNi
_symmetry_space_group_name_H-M   'P 1'
_cell_length_a   14.69596511
_cell_length_b   14.59232550
_cell_length_c   14.68260704
_cell_angle_alpha   89.72229033
_cell_angle_beta   89.69946942
_cell_angle_gamma   90.36454061
_symmetry_Int_Tables_number   1
_chemical_formula_structural   Ti2CoNi
_chemical_formula_sum   'Ti108 Co54 Ni54'
_cell_volume   3148.51567474
_cell_formula_units_Z   54
loop_
 _symmetry_equiv_pos_site_id
 _symmetry_equiv_pos_as_xyz
  1  'x, y, z'
loop_
 _atom_site_type_symbol
 _atom_site_label
 _atom_site_symmetry_multiplicity
 _atom_site_fract_x
 _atom_site_fract_y
 _atom_site_fract_z
 _atom_site_occupancy
  Ti  Ti0  1  -0.05716135  -0.00635687  -0.00246995  1
  Ti  Ti1  1  0.07173873  0.03308188  0.31512355  1
  Ti  Ti2  1  -0.00900826  -0.06081793  0.64942678  1
  Ti  Ti3  1  -0.01400128  0.41582321  0.03057007  1
  Ti  Ti4  1  -0.00703312  0.37726824  0.33809457  1
  Ti  Ti5  1  0.06124631  0.39885515  0.63989226  1
  Ti  Ti6  1  0.02684294  0.69028071  0.02075599  1
  Ti  Ti7  1  0.09008134  0.59074746  0.35857889  1
  Ti  Ti8  1  -0.00612024  0.70884214  0.69728992  1
  Ti  Ti9  1  0.37633441  0.00052539  0.00510644  1
  Ti  Ti10  1  0.37106303  0.02107899  0.33252841  1
  Ti  Ti11  1  0.31633586  0.01002928  0.66244614  1
  Ti  Ti12  1  0.26612459  0.28374896  -0.01812179  1
  Ti  Ti13  1  0.40887640  0.36473281  0.28421764  1
  Ti  Ti14  1  0.30337255  0.28713185  0.64696025  1
  Ti  Ti15  1  0.35221817  0.71091457  -0.04951701  1
  Ti  Ti16  1  0.36261500  0.66368096  0.26348638  1
  Ti  Ti17  1  0.31269073  0.60376047  0.75647159  1
  Ti  Ti18  1  0.65316039  -0.07335940  0.01606402  1
  Ti  Ti19  1  0.67279629  -0.00753381  0.25212169  1
  Ti  Ti20  1  0.75861052  0.00240770  0.59857128  1
  Ti  Ti21  1  0.71027008  0.30065913  -0.06116485  1
  Ti  Ti22  1  0.66759853  0.32065627  0.35125533  1
  Ti  Ti23  1  0.69297707  0.35088357  0.73223425  1
  Ti  Ti24  1  0.64728342  0.70097952  -0.03445382  1
  Ti  Ti25  1  0.64328363  0.68021440  0.40625811  1
  Ti  Ti26  1  0.65164315  0.65282288  0.64634626  1
  Ti  Ti27  1  -0.00622743  0.24926554  0.15798805  1
  Ti  Ti28  1  0.01236548  0.16918493  0.42532767  1
  Ti  Ti29  1  0.06319195  0.19502918  0.87863012  1
  Ti  Ti30  1  0.00982175  0.57077655  0.19153788  1
  Ti  Ti31  1  -0.06486183  0.45934642  0.50670641  1
  Ti  Ti32  1  -0.08549199  0.53045790  0.85715504  1
  Ti  Ti33  1  -0.02205381  0.78134995  0.22790410  1
  Ti  Ti34  1  -0.01673017  0.80020424  0.51863596  1
  Ti  Ti35  1  0.01060441  0.83767911  0.89523677  1
  Ti  Ti36  1  0.32772041  0.14993597  0.15001788  1
  Ti  Ti37  1  0.41629824  0.18902854  0.46145465  1
  Ti  Ti38  1  0.33572275  0.15149371  0.83881205  1
  Ti  Ti39  1  0.34873494  0.56611689  0.08247619  1
  Ti  Ti40  1  0.26728467  0.45914954  0.51216717  1
  Ti  Ti41  1  0.31839713  0.41489243  0.81567519  1
  Ti  Ti42  1  0.28887846  0.86082596  0.19975355  1
  Ti  Ti43  1  0.29483596  0.89459713  0.49547160  1
  Ti  Ti44  1  0.43801500  0.84377479  0.76196240  1
  Ti  Ti45  1  0.63720129  0.10047703  0.11332042  1
  Ti  Ti46  1  0.70405322  0.18848045  0.52683054  1
  Ti  Ti47  1  0.61118715  0.17527580  0.79938468  1
  Ti  Ti48  1  0.62506855  0.55613759  0.10145055  1
  Ti  Ti49  1  0.69092842  0.40387393  0.52522689  1
  Ti  Ti50  1  0.62704388  0.49974586  0.90339940  1
  Ti  Ti51  1  0.71105071  0.80415512  0.24094274  1
  Ti  Ti52  1  0.67741784  0.89817320  0.44280574  1
  Ti  Ti53  1  0.64460191  0.93347423  0.77476337  1
  Ti  Ti54  1  0.08343069  0.02835329  0.12896452  1
  Ti  Ti55  1  0.14446685  0.05026095  0.57748202  1
  Ti  Ti56  1  0.14248847  0.01259803  0.79308608  1
  Ti  Ti57  1  0.23242904  0.33715765  0.16225389  1
  Ti  Ti58  1  0.14730774  0.28777796  0.48663629  1
  Ti  Ti59  1  0.10607990  0.39683741  0.85628386  1
  Ti  Ti60  1  0.15579028  0.72869185  0.14918731  1
  Ti  Ti61  1  0.21575588  0.69384343  0.47860832  1
  Ti  Ti62  1  0.13548270  0.67772180  0.83676443  1
  Ti  Ti63  1  0.50212248  -0.07734042  0.16231582  1
  Ti  Ti64  1  0.53891194  0.02186561  0.52182213  1
  Ti  Ti65  1  0.52584444  0.02171367  0.88608222  1
  Ti  Ti66  1  0.51625078  0.24690947  0.17906645  1
  Ti  Ti67  1  0.46020524  0.40628801  0.47589638  1
  Ti  Ti68  1  0.48645396  0.34386047  0.74400735  1
  Ti  Ti69  1  0.47796164  0.72427659  0.11760920  1
  Ti  Ti70  1  0.40900930  0.61851683  0.46341579  1
  Ti  Ti71  1  0.50367108  0.63974424  0.83060024  1
  Ti  Ti72  1  0.90526646  -0.02953469  0.19876895  1
  Ti  Ti73  1  0.89291130  -0.00546695  0.45011552  1
  Ti  Ti74  1  0.79070537  -0.00073977  0.89543254  1
  Ti  Ti75  1  0.80097171  0.31560522  0.13601294  1
  Ti  Ti76  1  0.86034943  0.31332141  0.61389659  1
  Ti  Ti77  1  0.87563158  0.31115463  0.83432757  1
  Ti  Ti78  1  0.81968708  0.64761012  0.26950731  1
  Ti  Ti79  1  0.85686995  0.63165408  0.49678663  1
  Ti  Ti80  1  0.76643630  0.66304738  0.80020060  1
  Ti  Ti81  1  0.19414558  0.11795215  0.00034802  1
  Ti  Ti82  1  0.22657955  0.17496245  0.33483921  1
  Ti  Ti83  1  0.14385465  0.21098534  0.67902413  1
  Ti  Ti84  1  0.16207279  0.49693391  0.05380636  1
  Ti  Ti85  1  0.19886847  0.42297488  0.32533061  1
  Ti  Ti86  1  0.13956402  0.58580415  0.62631566  1
  Ti  Ti87  1  0.19964789  0.84509819  -0.04877899  1
  Ti  Ti88  1  0.18101541  0.87751968  0.35567507  1
  Ti  Ti89  1  0.25612988  0.77684208  0.65690328  1
  Ti  Ti90  1  0.50211110  0.20787753  -0.01442866  1
  Ti  Ti91  1  0.59195205  0.14309266  0.35834165  1
  Ti  Ti92  1  0.45588147  0.14089363  0.67084350  1
  Ti  Ti93  1  0.46917203  0.42707647  0.00413247  1
  Ti  Ti94  1  0.58779924  0.49917353  0.33145241  1
  Ti  Ti95  1  0.47960014  0.55189608  0.64764043  1
  Ti  Ti96  1  0.51315885  0.82573462  -0.05095966  1
  Ti  Ti97  1  0.48804452  0.82127847  0.43708056  1
  Ti  Ti98  1  0.57859322  0.83945665  0.61547324  1
  Ti  Ti99  1  0.82111993  0.15201639  0.02941000  1
  Ti  Ti100  1  0.82201928  0.19183839  0.33911475  1
  Ti  Ti101  1  0.88749966  0.13761813  0.70229183  1
  Ti  Ti102  1  0.84412725  0.54079215  0.08494892  1
  Ti  Ti103  1  0.76310017  0.46994607  0.24955159  1
  Ti  Ti104  1  0.79437212  0.52007240  0.65511315  1
  Ti  Ti105  1  0.84055989  0.73498281  -0.03252441  1
  Ti  Ti106  1  0.83029421  0.79665414  0.40757107  1
  Ti  Ti107  1  0.86298033  0.85046346  0.76772839  1
  Co  Co108  1  0.36287853  0.87491659  0.90112045  1
  Co  Co109  1  0.33045829  0.76523255  0.38651410  1
  Co  Co110  1  0.75836837  0.57415281  0.95718679  1
  Co  Co111  1  0.08599261  0.41232739  0.18268311  1
  Co  Co112  1  0.44294697  0.70889327  0.67893301  1
  Co  Co113  1  0.56441322  0.41260048  0.61762248  1
  Co  Co114  1  0.91748184  0.42769772  0.71771718  1
  Co  Co115  1  0.64878735  0.26019032  0.07766965  1
  Co  Co116  1  0.27856356  0.75435883  0.81602638  1
  Co  Co117  1  0.38777697  0.00939511  0.80972911  1
  Co  Co118  1  0.01565165  0.14196666  0.02531117  1
  Co  Co119  1  0.42556964  0.89843070  0.59304426  1
  Co  Co120  1  0.84216894  0.70072086  0.64192582  1
  Co  Co121  1  0.62593209  0.08570923  0.65710269  1
  Co  Co122  1  0.20871309  0.52968835  0.87137641  1
  Co  Co123  1  0.26114418  0.90413292  0.77346383  1
  Co  Co124  1  0.26351611  0.16379285  0.54667694  1
  Co  Co125  1  0.77437557  0.18309950  0.84803862  1
  Co  Co126  1  0.59036248  0.24791493  0.64322306  1
  Co  Co127  1  0.36738492  0.84559204  0.06100482  1
  Co  Co128  1  0.49890275  0.08149299  0.24918921  1
  Co  Co129  1  0.00442428  0.23830123  0.57911548  1
  Co  Co130  1  0.91861091  0.12548744  0.88211762  1
  Co  Co131  1  0.37419997  0.75256211  0.54597684  1
  Co  Co132  1  0.36636569  0.44283020  0.64428463  1
  Co  Co133  1  0.90292507  0.68928798  0.12335188  1
  Co  Co134  1  0.06500843  0.53582123  0.76381694  1
  Co  Co135  1  0.50811188  0.98767918  0.69840498  1
  Co  Co136  1  0.95581005  0.68717851  0.85374248  1
  Co  Co137  1  0.94817814  0.68505061  0.36379531  1
  Co  Co138  1  0.74167554  0.20308161  0.68481345  1
  Co  Co139  1  0.32840659  0.48532967  0.21521841  1
  Co  Co140  1  0.61608929  0.80165249  0.11177539  1
  Co  Co141  1  0.91991862  0.27139609  -0.01201502  1
  Co  Co142  1  0.75406128  0.05212177  0.75320177  1
  Co  Co143  1  0.42424584  0.51439269  0.34277014  1
  Co  Co144  1  0.38621476  0.33423114  0.10874660  1
  Co  Co145  1  0.95093056  0.56293893  0.63992592  1
  Co  Co146  1  0.03484043  0.09973506  0.71362845  1
  Co  Co147  1  0.54150286  0.69967256  0.53875409  1
  Co  Co148  1  0.50181583  0.60872759  -0.00263595  1
  Co  Co149  1  0.29584532  0.43394833  0.99051335  1
  Co  Co150  1  0.09685439  0.99564946  0.95088820  1
  Co  Co151  1  0.97314890  0.08026138  0.56200581  1
  Co  Co152  1  0.10693940  0.88945464  0.21693754  1
  Co  Co153  1  0.22251722  0.02447628  0.23660988  1
  Co  Co154  1  0.25584903  0.00166488  0.90586619  1
  Co  Co155  1  0.20706201  0.71049153  0.29907389  1
  Co  Co156  1  0.30627212  0.60326290  0.59801105  1
  Co  Co157  1  0.71256945  0.75373527  0.52931944  1
  Co  Co158  1  0.26970245  0.56918092  0.36201606  1
  Co  Co159  1  0.71938377  0.56078293  0.49256555  1
  Co  Co160  1  0.37563623  0.04042813  0.51276507  1
  Co  Co161  1  0.44703968  0.29767267  0.59117736  1
  Ni  Ni162  1  0.98083099  0.88706051  0.35053437  1
  Ni  Ni163  1  0.83279315  0.41669381  0.96284883  1
  Ni  Ni164  1  0.06177070  -0.03737239  0.47068927  1
  Ni  Ni165  1  0.72634610  0.80491828  0.69201521  1
  Ni  Ni166  1  0.94681849  0.12341115  0.25701468  1
  Ni  Ni167  1  0.76806848  0.47180232  0.81678558  1
  Ni  Ni168  1  0.18506847  0.56384844  0.20991170  1
  Ni  Ni169  1  0.40581484  0.29820389  0.89101027  1
  Ni  Ni170  1  0.56488156  0.34162125  0.88621014  1
  Ni  Ni171  1  0.20492060  0.44765145  0.70300085  1
  Ni  Ni172  1  0.99935785  0.27807244  0.74059527  1
  Ni  Ni173  1  0.60339145  0.76341457  0.79482883  1
  Ni  Ni174  1  0.21792687  0.95098924  0.07384122  1
  Ni  Ni175  1  0.89568086  0.28864689  0.45402641  1
  Ni  Ni176  1  0.91451550  0.52518953  0.33764947  1
  Ni  Ni177  1  0.72971936  0.05895322  0.42349897  1
  Ni  Ni178  1  0.54837675  0.76880169  0.27629710  1
  Ni  Ni179  1  0.90377541  0.84734201  0.07207248  1
  Ni  Ni180  1  0.05774768  0.55242803  0.93264973  1
  Ni  Ni181  1  0.64569768  0.63678513  0.24098439  1
  Ni  Ni182  1  0.80562081  0.41591218  0.40118764  1
  Ni  Ni183  1  0.62257224  0.38188445  0.19859584  1
  Ni  Ni184  1  0.96766582  0.98073667  0.81799806  1
  Ni  Ni185  1  0.06690811  0.86459662  0.06027082  1
  Ni  Ni186  1  0.48736120  0.55950016  0.19397471  1
  Ni  Ni187  1  0.66235231  0.11298312  0.95126880  1
  Ni  Ni188  1  0.47469953  0.08587376  0.09473247  1
  Ni  Ni189  1  0.78399338  -0.00604009  0.08722042  1
  Ni  Ni190  1  0.03213715  0.63371432  0.51135309  1
  Ni  Ni191  1  0.08309696  0.75829262  0.40119514  1
  Ni  Ni192  1  0.10338777  0.29211961  1.02965674  1
  Ni  Ni193  1  0.10094832  0.84928140  0.74776573  1
  Ni  Ni194  1  0.19957936  0.65519462  0.00031093  1
  Ni  Ni195  1  0.91990076  0.42116315  0.19506901  1
  Ni  Ni196  1  0.56611193  0.27115461  0.48059778  1
  Ni  Ni197  1  0.15754322  0.17501142  0.16419428  1
  Ni  Ni198  1  0.10128042  0.46158192  0.47442337  1
  Ni  Ni199  1  0.22314066  0.26957606  0.81239940  1
  Ni  Ni200  1  0.37914033  0.54659653  0.90640588  1
  Ni  Ni201  1  0.56111817  0.53980187  0.49606151  1
  Ni  Ni202  1  0.80680236  0.93279186  0.32078872  1
  Ni  Ni203  1  0.54113520  0.96176418  0.35395814  1
  Ni  Ni204  1  0.13721939  0.85404986  0.56861446  1
  Ni  Ni205  1  0.70285459  0.42490334  0.05980099  1
  Ni  Ni206  1  0.38921861  0.19980034  0.29633505  1
  Ni  Ni207  1  0.73981972  0.68706702  0.10882210  1
  Ni  Ni208  1  0.30540942  0.30688976  0.42256809  1
  Ni  Ni209  1  0.10730263  0.27287945  0.28863573  1
  Ni  Ni210  1  0.83771332  0.85994384  0.57553330  1
  Ni  Ni211  1  0.21499717  1.03605353  0.42502041  1
  Ni  Ni212  1  0.69741806  0.20941819  0.22930291  1
  Ni  Ni213  1  0.62079051  0.51463690  0.74030133  1
  Ni  Ni214  1  0.73015176  0.82983101  0.88003062  1
  Ni  Ni215  1  0.41790772  0.86215655  0.29255884  1
