# generated using pymatgen
data_Ti2CoNi
_symmetry_space_group_name_H-M   'P 1'
_cell_length_a   14.50739127
_cell_length_b   14.59022467
_cell_length_c   14.52531156
_cell_angle_alpha   89.86940467
_cell_angle_beta   89.65286372
_cell_angle_gamma   90.21057551
_symmetry_Int_Tables_number   1
_chemical_formula_structural   Ti2CoNi
_chemical_formula_sum   'Ti108 Co54 Ni54'
_cell_volume   3074.43068388
_cell_formula_units_Z   54
loop_
 _symmetry_equiv_pos_site_id
 _symmetry_equiv_pos_as_xyz
  1  'x, y, z'
loop_
 _atom_site_type_symbol
 _atom_site_label
 _atom_site_symmetry_multiplicity
 _atom_site_fract_x
 _atom_site_fract_y
 _atom_site_fract_z
 _atom_site_occupancy
  Ti  Ti0  1  -0.00039036  -0.04363765  -0.02716651  1
  Ti  Ti1  1  0.04303726  -0.02105396  0.34313581  1
  Ti  Ti2  1  0.02804616  0.07576110  0.67943437  1
  Ti  Ti3  1  -0.07224867  0.42221779  0.01853054  1
  Ti  Ti4  1  0.05997608  0.39543021  0.27716177  1
  Ti  Ti5  1  0.05031304  0.25779425  0.68632775  1
  Ti  Ti6  1  0.01966735  0.68572843  0.01297597  1
  Ti  Ti7  1  -0.06348309  0.69778926  0.34449267  1
  Ti  Ti8  1  0.00359183  0.69164321  0.76737043  1
  Ti  Ti9  1  0.28548397  -0.02410703  -0.01306556  1
  Ti  Ti10  1  0.26713613  0.02218764  0.32793259  1
  Ti  Ti11  1  0.31960640  -0.01543269  0.64624257  1
  Ti  Ti12  1  0.35413935  0.28402120  0.04760488  1
  Ti  Ti13  1  0.38090975  0.31486499  0.25677432  1
  Ti  Ti14  1  0.34394939  0.38803876  0.65720297  1
  Ti  Ti15  1  0.39848500  0.69697850  0.02302329  1
  Ti  Ti16  1  0.35380706  0.66833681  0.28946587  1
  Ti  Ti17  1  0.38686502  0.61601144  0.67021614  1
  Ti  Ti18  1  0.66375044  0.05423389  -0.01564508  1
  Ti  Ti19  1  0.67420056  -0.10297545  0.38878634  1
  Ti  Ti20  1  0.69047852  0.02295910  0.70467643  1
  Ti  Ti21  1  0.69254583  0.27871396  -0.04069186  1
  Ti  Ti22  1  0.71628503  0.32459507  0.33661780  1
  Ti  Ti23  1  0.67575744  0.35079616  0.65415260  1
  Ti  Ti24  1  0.66929181  0.61374263  0.03951582  1
  Ti  Ti25  1  0.72537126  0.63241756  0.35215427  1
  Ti  Ti26  1  0.58305787  0.63161890  0.62690990  1
  Ti  Ti27  1  -0.04300916  0.13403089  0.23384158  1
  Ti  Ti28  1  -0.03132790  0.16142542  0.50545182  1
  Ti  Ti29  1  0.01482742  0.17988507  0.90387117  1
  Ti  Ti30  1  0.03073758  0.53187497  0.14274866  1
  Ti  Ti31  1  0.01049859  0.50451064  0.48351346  1
  Ti  Ti32  1  0.01319878  0.51933449  0.84222551  1
  Ti  Ti33  1  -0.06568964  0.89449164  0.20591429  1
  Ti  Ti34  1  -0.01318105  0.82183418  0.47867062  1
  Ti  Ti35  1  -0.01168901  0.90028968  0.78000909  1
  Ti  Ti36  1  0.35127728  0.10506744  0.14861031  1
  Ti  Ti37  1  0.41133058  0.16407701  0.57363827  1
  Ti  Ti38  1  0.27439659  0.13995730  0.89156097  1
  Ti  Ti39  1  0.29914168  0.51432939  0.07065646  1
  Ti  Ti40  1  0.26993270  0.54869697  0.51658814  1
  Ti  Ti41  1  0.32053409  0.45620144  0.87505823  1
  Ti  Ti42  1  0.30482216  0.83414047  0.23752427  1
  Ti  Ti43  1  0.29653046  0.77347977  0.56242928  1
  Ti  Ti44  1  0.40414373  0.80614947  0.77900462  1
  Ti  Ti45  1  0.68114614  0.17479403  0.24332605  1
  Ti  Ti46  1  0.59179027  0.23838440  0.47495013  1
  Ti  Ti47  1  0.76846313  0.14290828  0.84231280  1
  Ti  Ti48  1  0.73241477  0.49693819  0.18715200  1
  Ti  Ti49  1  0.71584324  0.49508753  0.51773703  1
  Ti  Ti50  1  0.62595220  0.43744410  0.88678832  1
  Ti  Ti51  1  0.57751917  0.86137255  0.21381435  1
  Ti  Ti52  1  0.63150469  0.73334705  0.47644170  1
  Ti  Ti53  1  0.66070080  0.84770801  0.79602758  1
  Ti  Ti54  1  0.13555461  0.05703051  0.16023034  1
  Ti  Ti55  1  0.11836322  -0.00552617  0.52034031  1
  Ti  Ti56  1  0.17261253  -0.03831141  0.81139188  1
  Ti  Ti57  1  0.21064918  0.36979017  0.14785074  1
  Ti  Ti58  1  0.08712220  0.31073440  0.48308547  1
  Ti  Ti59  1  0.21523149  0.30972154  0.79094083  1
  Ti  Ti60  1  0.15917629  0.66898311  0.15037661  1
  Ti  Ti61  1  0.10367866  0.66298838  0.46765804  1
  Ti  Ti62  1  0.25355908  0.67193528  0.80279241  1
  Ti  Ti63  1  0.53716544  0.07023994  0.14222155  1
  Ti  Ti64  1  0.55877306  0.03739965  0.52674546  1
  Ti  Ti65  1  0.52265392  -0.03358830  0.86764530  1
  Ti  Ti66  1  0.59048844  0.35674489  0.15476625  1
  Ti  Ti67  1  0.41261441  0.32170118  0.44894345  1
  Ti  Ti68  1  0.49259621  0.34834843  0.79029868  1
  Ti  Ti69  1  0.55738621  0.67166289  0.21908562  1
  Ti  Ti70  1  0.44447237  0.66532440  0.47133247  1
  Ti  Ti71  1  0.55436958  0.61975281  0.85243656  1
  Ti  Ti72  1  0.80149997  -0.06139973  0.07152427  1
  Ti  Ti73  1  0.75957896  0.02840700  0.51224523  1
  Ti  Ti74  1  0.81721319  -0.07544398  0.87388574  1
  Ti  Ti75  1  0.78255024  0.32143326  0.11413695  1
  Ti  Ti76  1  0.88594540  0.38291297  0.42934392  1
  Ti  Ti77  1  0.82731962  0.30894004  0.78250296  1
  Ti  Ti78  1  0.87769674  0.70978564  0.16105099  1
  Ti  Ti79  1  0.90408679  0.64131382  0.58175681  1
  Ti  Ti80  1  0.82657530  0.74401467  0.78896366  1
  Ti  Ti81  1  0.14068747  0.21410072  0.04374924  1
  Ti  Ti82  1  0.19611450  0.25666321  0.33122857  1
  Ti  Ti83  1  0.24256975  0.16710741  0.66469649  1
  Ti  Ti84  1  0.13745760  0.48212183  -0.02286169  1
  Ti  Ti85  1  0.20992667  0.54331278  0.29825273  1
  Ti  Ti86  1  0.12737885  0.45758937  0.63158488  1
  Ti  Ti87  1  0.23353739  0.79359821  0.02940075  1
  Ti  Ti88  1  0.17091276  0.83484805  0.39803305  1
  Ti  Ti89  1  0.10806814  0.79670968  0.62605474  1
  Ti  Ti90  1  0.48993718  0.16903971  -0.04946497  1
  Ti  Ti91  1  0.48274838  0.14002803  0.32638780  1
  Ti  Ti92  1  0.56344798  0.18111494  0.69427115  1
  Ti  Ti93  1  0.48673069  0.51929464  0.01700522  1
  Ti  Ti94  1  0.45845902  0.50880394  0.32832116  1
  Ti  Ti95  1  0.51770578  0.46669459  0.60780023  1
  Ti  Ti96  1  0.55236541  0.79581811  -0.00990575  1
  Ti  Ti97  1  0.46214996  0.93631577  0.37231795  1
  Ti  Ti98  1  0.53612151  0.89773941  0.65580847  1
  Ti  Ti99  1  0.82332752  0.13806479  0.07976825  1
  Ti  Ti100  1  0.82170023  0.17364078  0.40251248  1
  Ti  Ti101  1  0.83854939  0.18476699  0.63799584  1
  Ti  Ti102  1  0.86537690  0.60281189  -0.06969531  1
  Ti  Ti103  1  0.89333488  0.52368251  0.28018290  1
  Ti  Ti104  1  0.91484946  0.45143910  0.66862694  1
  Ti  Ti105  1  0.79968915  0.76078045  -0.01149037  1
  Ti  Ti106  1  0.85902565  0.91017089  0.38181055  1
  Ti  Ti107  1  0.73980699  0.75452963  0.62228251  1
  Co  Co108  1  0.54873792  0.28915331  0.31406599  1
  Co  Co109  1  0.03628849  0.80377223  0.29512847  1
  Co  Co110  1  0.25896786  0.83507003  0.87385132  1
  Co  Co111  1  0.46174806  0.75830087  0.60652258  1
  Co  Co112  1  0.69437480  0.80219076  0.10587359  1
  Co  Co113  1  0.06056407  0.36596716  0.09836270  1
  Co  Co114  1  0.68172493  0.90157306  0.57443583  1
  Co  Co115  1  0.86260842  0.03179164  0.76874056  1
  Co  Co116  1  0.39830088  0.05392323  0.45764111  1
  Co  Co117  1  0.76637008  0.56200428  0.64024056  1
  Co  Co118  1  0.27560453  0.23786618  0.50165459  1
  Co  Co119  1  0.25848130  0.08101076  0.51388623  1
  Co  Co120  1  0.94461798  1.01233853  0.47357287  1
  Co  Co121  1  0.76136475  0.45709686  0.75889942  1
  Co  Co122  1  0.12491559  0.78703767  0.79601723  1
  Co  Co123  1  0.86352215  0.57212169  0.44253726  1
  Co  Co124  1  0.75366279  0.90521042  0.22854500  1
  Co  Co125  1  0.31090165  0.43065952  0.38201514  1
  Co  Co126  1  0.41189716  0.90773716  0.54545284  1
  Co  Co127  1  0.24703804  0.20610134  0.18265055  1
  Co  Co128  1  0.61586434  0.50405733  0.73014310  1
  Co  Co129  1  0.83849279  0.24063584  0.24500473  1
  Co  Co130  1  0.78803165  0.77467022  0.30380878  1
  Co  Co131  1  0.72357349  0.67088094  0.18985076  1
  Co  Co132  1  0.87284670  0.02499780  0.61644706  1
  Co  Co133  1  0.67828469  0.72356776  0.89774620  1
  Co  Co134  1  0.67990513  0.88757835  0.95466992  1
  Co  Co135  1  0.94985078  0.78296818  0.89306437  1
  Co  Co136  1  0.58895162  0.93141708  0.07707844  1
  Co  Co137  1  0.92532222  0.17265546  0.77945026  1
  Co  Co138  1  0.70158296  0.03764568  0.15851990  1
  Co  Co139  1  0.87233135  0.43667143  0.86768680  1
  Co  Co140  1  0.75755376  0.47281715  0.36178861  1
  Co  Co141  1  0.32829328  0.17092150  0.36074178  1
  Co  Co142  1  0.10008496  0.83773962  0.94172262  1
  Co  Co143  1  0.26946363  0.95830809  0.14248915  1
  Co  Co144  1  0.54750113  0.86093211  0.49031957  1
  Co  Co145  1  0.26375695  0.68017115  0.42779177  1
  Co  Co146  1  0.43838508  0.40867084  0.12646556  1
  Co  Co147  1  0.86096052  0.27488195  0.94311535  1
  Co  Co148  1  0.69388235  0.65389356  0.75066800  1
  Co  Co149  1  0.94676373  0.25327845  0.07934386  1
  Co  Co150  1  0.72467372  0.56424931  0.87599593  1
  Co  Co151  1  0.42069109  0.59739015  0.15935479  1
  Co  Co152  1  0.08471512  0.23396257  0.20180392  1
  Co  Co153  1  0.87324052  0.57853428  0.75943914  1
  Co  Co154  1  0.93596855  0.83129296  0.04730794  1
  Co  Co155  1  0.40312114  0.85731406  0.93590486  1
  Co  Co156  1  0.56609424  0.52394054  0.16093509  1
  Co  Co157  1  0.16967682  0.70726492  0.29876857  1
  Co  Co158  1  0.38555459  0.23634738  0.71814066  1
  Co  Co159  1  0.21323929  0.64954660  0.63593291  1
  Co  Co160  1  0.41718609  0.48654783  0.49503878  1
  Co  Co161  1  0.44919999  0.50359962  0.76711928  1
  Ni  Ni162  1  0.35105518  -0.02666295  0.81907739  1
  Ni  Ni163  1  0.50286377  0.30999885  0.60207533  1
  Ni  Ni164  1  0.39064685  0.60342881  0.88291899  1
  Ni  Ni165  1  0.81727565  0.74995065  0.46882769  1
  Ni  Ni166  1  -0.00240793  0.92514095  0.61493123  1
  Ni  Ni167  1  0.33299060  0.47502172  0.22623828  1
  Ni  Ni168  1  0.24512884  0.38282393  0.52871592  1
  Ni  Ni169  1  0.60168919  0.11383964  0.83906278  1
  Ni  Ni170  1  0.07735876  0.14020516  0.37053080  1
  Ni  Ni171  1  -0.00301471  0.09797119  0.06405514  1
  Ni  Ni172  1  0.36373552  0.80871574  0.40693258  1
  Ni  Ni173  1  0.94049339  0.31943771  0.57790255  1
  Ni  Ni174  1  0.91490008  0.38599185  0.19368321  1
  Ni  Ni175  1  0.97697734  0.27062380  0.34511439  1
  Ni  Ni176  1  0.12808213  0.16431943  0.54553488  1
  Ni  Ni177  1  0.07221189  0.39301725  0.77067955  1
  Ni  Ni178  1  0.47304042  1.04599353  0.71965335  1
  Ni  Ni179  1  0.75454237  0.45759656  0.00095016  1
  Ni  Ni180  1  0.42236351  0.96599839  0.21482736  1
  Ni  Ni181  1  0.11638369  0.64521372  0.89035859  1
  Ni  Ni182  1  0.65776476  0.11007718  0.39893523  1
  Ni  Ni183  1  0.57690735  0.40031305  0.45620991  1
  Ni  Ni184  1  0.57996311  0.56594126  0.44198975  1
  Ni  Ni185  1  0.82191857  0.04848259  0.28353728  1
  Ni  Ni186  1  0.85864907  0.56196979  0.09623556  1
  Ni  Ni187  1  0.22092799  0.33056165  0.95463018  1
  Ni  Ni188  1  0.13492642  0.05651364  0.96978772  1
  Ni  Ni189  1  0.15019464  0.44742584  0.41525766  1
  Ni  Ni190  1  0.69044834  0.16434457  0.58069741  1
  Ni  Ni191  1  0.51410606  0.76742425  0.34820033  1
  Ni  Ni192  1  0.08471110  0.82138116  0.11218642  1
  Ni  Ni193  1  0.64697263  0.27687230  0.80782571  1
  Ni  Ni194  1  0.04805149  0.34111704  0.92686229  1
  Ni  Ni195  1  0.48432744  0.23391868  0.14021053  1
  Ni  Ni196  1  0.87990715  0.07001263  0.93758114  1
  Ni  Ni197  1  0.04872519  0.57375753  0.31622139  1
  Ni  Ni198  1  0.05423556  0.60378138  0.63271481  1
  Ni  Ni199  1  0.14766966  0.90375969  0.23523385  1
  Ni  Ni200  1  0.80180674  0.89607228  0.69792823  1
  Ni  Ni201  1  0.25065944  0.50984063  0.72715637  1
  Ni  Ni202  1  0.26945676  0.92753102  0.48042517  1
  Ni  Ni203  1  0.59412313  0.01232712  0.28650392  1
  Ni  Ni204  1  0.24939324  0.62607895  -0.02823040  1
  Ni  Ni205  1  0.60948742  0.45364616  0.30241781  1
  Ni  Ni206  1  0.75808459  0.31288121  0.51166524  1
  Ni  Ni207  1  0.13702663  0.13095958  0.79836492  1
  Ni  Ni208  1  0.40498042  0.85352364  0.09777314  1
  Ni  Ni209  1  0.45095359  0.00228574  0.01401508  1
  Ni  Ni210  1  0.51267368  0.33573584  0.98734032  1
  Ni  Ni211  1  0.55230078  0.74167155  0.74328498  1
  Ni  Ni212  1  0.25075775  0.83623204  0.70894285  1
  Ni  Ni213  1  0.91599428  0.79083716  0.64030800  1
  Ni  Ni214  1  0.36680474  0.27888996  0.87723429  1
  Ni  Ni215  1  0.63968600  0.19281221  0.08250132  1
