# generated using pymatgen
data_Ti2CoNi
_symmetry_space_group_name_H-M   'P 1'
_cell_length_a   14.60547969
_cell_length_b   14.57805107
_cell_length_c   14.63350255
_cell_angle_alpha   90.08683362
_cell_angle_beta   89.80019741
_cell_angle_gamma   89.87546838
_symmetry_Int_Tables_number   1
_chemical_formula_structural   Ti2CoNi
_chemical_formula_sum   'Ti108 Co54 Ni54'
_cell_volume   3115.72708552
_cell_formula_units_Z   54
loop_
 _symmetry_equiv_pos_site_id
 _symmetry_equiv_pos_as_xyz
  1  'x, y, z'
loop_
 _atom_site_type_symbol
 _atom_site_label
 _atom_site_symmetry_multiplicity
 _atom_site_fract_x
 _atom_site_fract_y
 _atom_site_fract_z
 _atom_site_occupancy
  Ti  Ti0  1  -0.01860375  0.01447555  -0.00580332  1
  Ti  Ti1  1  -0.00190088  -0.00945609  0.30393606  1
  Ti  Ti2  1  0.01130590  0.00272806  0.70799708  1
  Ti  Ti3  1  0.00164963  0.29767764  0.02395864  1
  Ti  Ti4  1  0.00245782  0.33695254  0.34069425  1
  Ti  Ti5  1  -0.05022592  0.35066828  0.63549055  1
  Ti  Ti6  1  -0.05972012  0.60864170  0.02826831  1
  Ti  Ti7  1  0.03038856  0.65461790  0.27642676  1
  Ti  Ti8  1  -0.01497829  0.72171748  0.69463609  1
  Ti  Ti9  1  0.29668419  0.02715185  0.03820861  1
  Ti  Ti10  1  0.36145837  0.07894458  0.35632814  1
  Ti  Ti11  1  0.30342581  0.07799822  0.63831211  1
  Ti  Ti12  1  0.37015122  0.36267600  0.02149815  1
  Ti  Ti13  1  0.26188724  0.27711855  0.29490860  1
  Ti  Ti14  1  0.34841017  0.34242959  0.71533814  1
  Ti  Ti15  1  0.25305545  0.72334025  -0.00022185  1
  Ti  Ti16  1  0.36554829  0.60505101  0.28765773  1
  Ti  Ti17  1  0.31496394  0.61341237  0.62062905  1
  Ti  Ti18  1  0.70884178  -0.00874782  0.05390576  1
  Ti  Ti19  1  0.65877077  -0.07865679  0.22567825  1
  Ti  Ti20  1  0.60996948  -0.00250118  0.69273722  1
  Ti  Ti21  1  0.64008340  0.31705323  -0.05467077  1
  Ti  Ti22  1  0.61518380  0.30643503  0.44648266  1
  Ti  Ti23  1  0.70890577  0.35639630  0.71981693  1
  Ti  Ti24  1  0.69546120  0.55065864  -0.01836507  1
  Ti  Ti25  1  0.63060002  0.77796695  0.33776882  1
  Ti  Ti26  1  0.71884627  0.67259209  0.61074127  1
  Ti  Ti27  1  0.06697880  0.14146926  0.13243964  1
  Ti  Ti28  1  -0.07595384  0.20282360  0.51111238  1
  Ti  Ti29  1  0.08942310  0.12177036  0.83732542  1
  Ti  Ti30  1  0.01839069  0.48756868  0.17695226  1
  Ti  Ti31  1  0.04617549  0.51168013  0.45362711  1
  Ti  Ti32  1  0.01555384  0.54940050  0.86429083  1
  Ti  Ti33  1  -0.07743210  0.78396683  0.18336069  1
  Ti  Ti34  1  0.04985518  0.84080907  0.50841098  1
  Ti  Ti35  1  -0.08784361  0.86581851  0.83080360  1
  Ti  Ti36  1  0.39048394  0.18415582  0.15425826  1
  Ti  Ti37  1  0.31557464  0.24010963  0.47110801  1
  Ti  Ti38  1  0.30512584  0.09872036  0.84712779  1
  Ti  Ti39  1  0.29224306  0.44342449  0.19980497  1
  Ti  Ti40  1  0.31756970  0.44727104  0.40356105  1
  Ti  Ti41  1  0.30557004  0.61379758  0.83128942  1
  Ti  Ti42  1  0.37231401  0.86986562  0.13343782  1
  Ti  Ti43  1  0.30493184  0.92732511  0.49045764  1
  Ti  Ti44  1  0.33273494  0.84477031  0.85841785  1
  Ti  Ti45  1  0.59716115  0.21855676  0.18583910  1
  Ti  Ti46  1  0.73251639  0.13486806  0.52342522  1
  Ti  Ti47  1  0.68526015  0.08773296  0.86227885  1
  Ti  Ti48  1  0.63379107  0.49706851  0.15804800  1
  Ti  Ti49  1  0.65601592  0.54494738  0.48161288  1
  Ti  Ti50  1  0.69480066  0.56893487  0.78204743  1
  Ti  Ti51  1  0.64437199  0.74655769  0.09588869  1
  Ti  Ti52  1  0.72018423  0.83027416  0.49199965  1
  Ti  Ti53  1  0.68795817  0.84034973  0.92116640  1
  Ti  Ti54  1  0.21248200  -0.06068497  0.22497522  1
  Ti  Ti55  1  0.06051094  0.05424143  0.51544979  1
  Ti  Ti56  1  0.19372268  -0.03929437  0.77277544  1
  Ti  Ti57  1  0.13209196  0.35135257  0.14361422  1
  Ti  Ti58  1  0.14757072  0.41911252  0.61398655  1
  Ti  Ti59  1  0.19444761  0.39034120  0.84206505  1
  Ti  Ti60  1  0.21997412  0.71245672  0.17550075  1
  Ti  Ti61  1  0.21067329  0.72668292  0.50600138  1
  Ti  Ti62  1  0.14237418  0.70099222  0.83931334  1
  Ti  Ti63  1  0.50898496  0.02997925  0.21174689  1
  Ti  Ti64  1  0.54001797  -0.06289305  0.50735761  1
  Ti  Ti65  1  0.45753622  -0.01157501  0.80649019  1
  Ti  Ti66  1  0.46506715  0.35255061  0.21250595  1
  Ti  Ti67  1  0.47120083  0.39014430  0.55073414  1
  Ti  Ti68  1  0.47404304  0.33758042  0.85465403  1
  Ti  Ti69  1  0.53525509  0.65614365  0.23076590  1
  Ti  Ti70  1  0.50005498  0.67789663  0.57160393  1
  Ti  Ti71  1  0.47938877  0.70759149  0.82777418  1
  Ti  Ti72  1  0.83573948  0.01891556  0.20221079  1
  Ti  Ti73  1  0.87731012  -0.03798066  0.48341007  1
  Ti  Ti74  1  0.88170730  0.07378962  0.81807804  1
  Ti  Ti75  1  0.79853176  0.24556309  0.20170593  1
  Ti  Ti76  1  0.85995984  0.43005394  0.48254351  1
  Ti  Ti77  1  0.92394827  0.27988706  0.81436924  1
  Ti  Ti78  1  0.75758645  0.66483798  0.24824718  1
  Ti  Ti79  1  0.89110911  0.63582239  0.50505331  1
  Ti  Ti80  1  0.84418913  0.67968620  0.85149992  1
  Ti  Ti81  1  0.19954506  0.19828655  -0.01859633  1
  Ti  Ti82  1  0.16478923  0.09697438  0.32835555  1
  Ti  Ti83  1  0.15191705  0.23542872  0.58650810  1
  Ti  Ti84  1  0.22474518  0.50507059  0.00283652  1
  Ti  Ti85  1  0.19233989  0.58746847  0.35017514  1
  Ti  Ti86  1  0.12084897  0.56831515  0.70741270  1
  Ti  Ti87  1  0.05432969  0.82592387  0.02348435  1
  Ti  Ti88  1  0.18294091  0.79530634  0.34488045  1
  Ti  Ti89  1  0.21415053  0.78565372  0.68270504  1
  Ti  Ti90  1  0.49793490  0.14885968  -0.08516191  1
  Ti  Ti91  1  0.58297919  0.10844335  0.37940777  1
  Ti  Ti92  1  0.55801929  0.21126803  0.64283344  1
  Ti  Ti93  1  0.49963249  0.52325589  -0.07689310  1
  Ti  Ti94  1  0.51855321  0.47651492  0.35082424  1
  Ti  Ti95  1  0.45929788  0.52235142  0.72419226  1
  Ti  Ti96  1  0.48989241  0.78759422  -0.00268796  1
  Ti  Ti97  1  0.44325888  0.79319290  0.40509972  1
  Ti  Ti98  1  0.47226778  0.85224456  0.66393459  1
  Ti  Ti99  1  0.81120755  0.25404069  -0.00675678  1
  Ti  Ti100  1  0.82058931  0.11419939  0.36237467  1
  Ti  Ti101  1  0.82568768  0.20592281  0.67726051  1
  Ti  Ti102  1  0.84476642  0.43744654  0.06487624  1
  Ti  Ti103  1  0.80752838  0.43384177  0.25849907  1
  Ti  Ti104  1  0.86660100  0.47737642  0.75107859  1
  Ti  Ti105  1  0.85077225  0.79612903  0.00268679  1
  Ti  Ti106  1  0.82213009  0.85327913  0.32744250  1
  Ti  Ti107  1  0.80013226  0.90027830  0.68101011  1
  Co  Co108  1  0.16930403  0.55500062  0.17991103  1
  Co  Co109  1  0.76535601  0.22767535  0.83657252  1
  Co  Co110  1  0.36327522  0.78900287  0.55955149  1
  Co  Co111  1  0.53912362  0.36878109  0.70011660  1
  Co  Co112  1  0.09679105  0.23568947  0.26168601  1
  Co  Co113  1  0.83615746  0.53442548  0.91086833  1
  Co  Co114  1  0.76530052  0.39504595  0.87954794  1
  Co  Co115  1  0.14520643  0.43401486  0.29598129  1
  Co  Co116  1  0.07564636  0.83976281  0.75335353  1
  Co  Co117  1  0.32301618  0.27248657  0.87747887  1
  Co  Co118  1  0.99435715  0.17639142  0.67516109  1
  Co  Co119  1  0.88069784  0.92864669  0.08348744  1
  Co  Co120  1  0.04524122  0.94728413  0.86872820  1
  Co  Co121  1  0.34906109  0.45182564  0.87395609  1
  Co  Co122  1  0.63796458  0.37119667  0.26287397  1
  Co  Co123  1  0.00775412  0.14942519  0.38918921  1
  Co  Co124  1  0.21241215  0.55152964  0.50892815  1
  Co  Co125  1  0.60896128  0.44384955  0.82642813  1
  Co  Co126  1  0.71635473  0.41790015  0.39468853  1
  Co  Co127  1  0.88947681  0.05819254  0.60939233  1
  Co  Co128  1  0.34400821  0.66459602  0.43928557  1
  Co  Co129  1  0.46102961  1.04246448  0.64997012  1
  Co  Co130  1  0.40841432  0.07861983  0.50219594  1
  Co  Co131  1  0.84282639  0.28842940  0.37826758  1
  Co  Co132  1  0.12985430  0.94192903  0.39662428  1
  Co  Co133  1  0.17220961  0.39672005  0.45112463  1
  Co  Co134  1  0.12347570  0.00076797  0.08371790  1
  Co  Co135  1  0.70961002  0.97829497  0.56083146  1
  Co  Co136  1  0.82400796  0.54875244  0.37257483  1
  Co  Co137  1  0.88878182  0.69830663  0.34779750  1
  Co  Co138  1  0.78309533  0.50581673  0.61316456  1
  Co  Co139  1  0.48430570  0.21786135  0.47841649  1
  Co  Co140  1  0.73737019  0.68164713  0.42088200  1
  Co  Co141  1  0.31488286  0.57567886  0.10691461  1
  Co  Co142  1  0.60099927  0.23060935  0.79965974  1
  Co  Co143  1  0.14706290  0.23173535  0.42275333  1
  Co  Co144  1  0.17538230  0.84633409  0.89806285  1
  Co  Co145  1  0.57736834  0.09001254  0.53876447  1
  Co  Co146  1  0.03134106  0.33160942  0.50219632  1
  Co  Co147  1  0.43272782  0.33850881  0.38160676  1
  Co  Co148  1  0.17962536  0.01484025  0.93323159  1
  Co  Co149  1  0.99564812  0.73492410  0.89550846  1
  Co  Co150  1  0.84906739  0.63428075  0.69083330  1
  Co  Co151  1  0.89377135  0.58685364  0.20333867  1
  Co  Co152  1  0.21333122  0.86845979  0.06694502  1
  Co  Co153  1  0.43516657  0.54246850  0.51054785  1
  Co  Co154  1  0.95960232  0.88982560  0.62759178  1
  Co  Co155  1  0.69947091  0.23298833  0.33388757  1
  Co  Co156  1  0.22757056  0.08291396  0.48862051  1
  Co  Co157  1  0.32916250  0.92019332  0.68922784  1
  Co  Co158  1  0.65983396  0.55494259  0.31588329  1
  Co  Co159  1  0.33553838  0.76242271  0.28623599  1
  Co  Co160  1  0.76874824  0.83179723  0.15764288  1
  Co  Co161  1  0.36852228  0.73760111  0.71698708  1
  Ni  Ni162  1  0.27303709  0.49042774  0.72701593  1
  Ni  Ni163  1  0.46002891  0.20036913  0.30638377  1
  Ni  Ni164  1  0.24246943  0.21540498  0.74383347  1
  Ni  Ni165  1  0.99567414  0.82801218  0.34285948  1
  Ni  Ni166  1  0.71381145  0.15295950  0.08423844  1
  Ni  Ni167  1  0.07729516  0.64527578  0.57505105  1
  Ni  Ni168  1  0.08599125  0.83598760  0.19682725  1
  Ni  Ni169  1  0.31323837  0.43426071  0.57269533  1
  Ni  Ni170  1  0.42904343  0.18281048  0.76562910  1
  Ni  Ni171  1  0.05870927  0.45893716  0.01002028  1
  Ni  Ni172  1  0.53687679  0.61567655  0.05901247  1
  Ni  Ni173  1  0.49922619  0.25052439  0.04737257  1
  Ni  Ni174  1  0.03842357  0.41160701  0.76518894  1
  Ni  Ni175  1  0.39389514  0.64785459  0.97219189  1
  Ni  Ni176  1  0.04843637  0.69389995  0.42895578  1
  Ni  Ni177  1  0.86003837  0.77788204  0.57787127  1
  Ni  Ni178  1  0.80917509  0.96285309  0.92448911  1
  Ni  Ni179  1  0.50810981  0.82433948  0.21899824  1
  Ni  Ni180  1  0.79545280  0.66161709  0.08682357  1
  Ni  Ni181  1  0.53173089  0.64281214  0.40436295  1
  Ni  Ni182  1  0.26506108  0.27531396  0.11283177  1
  Ni  Ni183  1  0.69366634  0.34582838  0.10278556  1
  Ni  Ni184  1  0.42214645  0.94339566  0.96664789  1
  Ni  Ni185  1  0.45544640  0.51256704  0.16464906  1
  Ni  Ni186  1  0.96675447  0.52041848  0.61313848  1
  Ni  Ni187  1  0.94167013  0.16535996  0.24744932  1
  Ni  Ni188  1  0.57991457  -0.02412137  0.92834782  1
  Ni  Ni189  1  0.14393890  0.09605191  0.67337942  1
  Ni  Ni190  1  0.10888559  0.62180687  0.98651738  1
  Ni  Ni191  1  0.76862893  0.30437948  0.54767949  1
  Ni  Ni192  1  0.60522029  0.52270079  0.64421898  1
  Ni  Ni193  1  0.37672807  0.91820062  0.30821504  1
  Ni  Ni194  1  0.34449525  0.03387258  0.19421433  1
  Ni  Ni195  1  0.17072885  0.94526418  0.59241080  1
  Ni  Ni196  1  0.57978833  0.85559810  0.79966478  1
  Ni  Ni197  1  0.05522103  0.68407166  0.12282346  1
  Ni  Ni198  1  0.40534682  0.70665121  0.13342225  1
  Ni  Ni199  1  0.62256776  0.68587031  0.91538534  1
  Ni  Ni200  1  0.95179392  0.16780625  0.93931374  1
  Ni  Ni201  1  0.47699743  0.07030485  0.05496907  1
  Ni  Ni202  1  0.70838013  -0.02292637  0.38883740  1
  Ni  Ni203  1  0.93486607  0.40783695  0.91450339  1
  Ni  Ni204  1  0.94517359  0.32157634  0.17430367  1
  Ni  Ni205  1  0.38985628  0.21908356  0.61387155  1
  Ni  Ni206  1  0.75405708  0.06344252  0.70266424  1
  Ni  Ni207  1  0.72615705  0.76325793  0.77105253  1
  Ni  Ni208  1  0.63963362  0.83286064  0.64024300  1
  Ni  Ni209  1  0.68916683  0.08911125  0.24446561  1
  Ni  Ni210  1  0.53783921  0.41351188  0.04523378  1
  Ni  Ni211  1  0.55213280  0.91852484  0.08277330  1
  Ni  Ni212  1  0.58801422  0.68794300  0.71427906  1
  Ni  Ni213  1  0.07994134  0.28246937  0.87797021  1
  Ni  Ni214  1  0.89330828  0.13661832  0.09196403  1
  Ni  Ni215  1  0.54182786  0.93126476  0.34609487  1
