# generated using pymatgen
data_Ti2CoNi
_symmetry_space_group_name_H-M   'P 1'
_cell_length_a   14.59175354
_cell_length_b   14.66650154
_cell_length_c   14.68852579
_cell_angle_alpha   90.03458272
_cell_angle_beta   90.15103073
_cell_angle_gamma   89.91927677
_symmetry_Int_Tables_number   1
_chemical_formula_structural   Ti2CoNi
_chemical_formula_sum   'Ti108 Co54 Ni54'
_cell_volume   3143.47644273
_cell_formula_units_Z   54
loop_
 _symmetry_equiv_pos_site_id
 _symmetry_equiv_pos_as_xyz
  1  'x, y, z'
loop_
 _atom_site_type_symbol
 _atom_site_label
 _atom_site_symmetry_multiplicity
 _atom_site_fract_x
 _atom_site_fract_y
 _atom_site_fract_z
 _atom_site_occupancy
  Ti  Ti0  1  -0.05815977  -0.04425924  -0.04918061  1
  Ti  Ti1  1  0.02354454  -0.03687088  0.38422074  1
  Ti  Ti2  1  -0.01498390  -0.02912053  0.66031120  1
  Ti  Ti3  1  0.07765250  0.30821866  0.02703803  1
  Ti  Ti4  1  -0.10076922  0.33861336  0.35627192  1
  Ti  Ti5  1  0.03192397  0.42697751  0.67515282  1
  Ti  Ti6  1  -0.00944595  0.66842560  0.07383631  1
  Ti  Ti7  1  -0.08559966  0.66209060  0.26564838  1
  Ti  Ti8  1  0.00143821  0.65005730  0.63344512  1
  Ti  Ti9  1  0.37107419  0.03985478  -0.01567523  1
  Ti  Ti10  1  0.37669121  -0.03807241  0.37580893  1
  Ti  Ti11  1  0.35214106  -0.04208196  0.69864697  1
  Ti  Ti12  1  0.34183066  0.25893804  -0.02856745  1
  Ti  Ti13  1  0.31578114  0.31952470  0.36929009  1
  Ti  Ti14  1  0.37139229  0.35615301  0.67165880  1
  Ti  Ti15  1  0.37910850  0.69381295  0.01069654  1
  Ti  Ti16  1  0.38834014  0.66775962  0.30340689  1
  Ti  Ti17  1  0.34586181  0.72781479  0.68258684  1
  Ti  Ti18  1  0.73927356  0.00054912  -0.03718388  1
  Ti  Ti19  1  0.62574210  0.01242141  0.34398465  1
  Ti  Ti20  1  0.65175079  -0.00112737  0.65543308  1
  Ti  Ti21  1  0.63701688  0.29688509  0.06192245  1
  Ti  Ti22  1  0.69645196  0.28764684  0.32368685  1
  Ti  Ti23  1  0.64411142  0.37597536  0.61843144  1
  Ti  Ti24  1  0.66338897  0.70784145  -0.05853565  1
  Ti  Ti25  1  0.68408477  0.74021833  0.38567553  1
  Ti  Ti26  1  0.67655717  0.58670596  0.65897170  1
  Ti  Ti27  1  -0.04655138  0.15543912  0.14589878  1
  Ti  Ti28  1  0.02055610  0.21257179  0.45077904  1
  Ti  Ti29  1  0.03588660  0.15032427  0.82565524  1
  Ti  Ti30  1  0.10686368  0.54028920  0.19491833  1
  Ti  Ti31  1  -0.04917992  0.53075283  0.40466628  1
  Ti  Ti32  1  0.04105687  0.55090705  0.82530365  1
  Ti  Ti33  1  -0.01904527  0.84880896  0.22753945  1
  Ti  Ti34  1  0.03164656  0.74230832  0.42882900  1
  Ti  Ti35  1  0.05688243  0.81723526  0.84296280  1
  Ti  Ti36  1  0.35207764  0.27175866  0.17680414  1
  Ti  Ti37  1  0.30238514  0.06472182  0.52353646  1
  Ti  Ti38  1  0.28330617  0.13786077  0.81170783  1
  Ti  Ti39  1  0.29209571  0.45813977  0.10016504  1
  Ti  Ti40  1  0.33244247  0.52248507  0.56306316  1
  Ti  Ti41  1  0.30938778  0.46207035  0.85336436  1
  Ti  Ti42  1  0.28501354  0.81324648  0.12635576  1
  Ti  Ti43  1  0.21683429  0.86422241  0.46919900  1
  Ti  Ti44  1  0.35762649  0.85812507  0.87225282  1
  Ti  Ti45  1  0.59239630  0.17475913  0.20903414  1
  Ti  Ti46  1  0.68311506  0.21011073  0.50356928  1
  Ti  Ti47  1  0.64280667  0.20836992  0.76174767  1
  Ti  Ti48  1  0.65905781  0.54801183  0.17838992  1
  Ti  Ti49  1  0.67433794  0.51139849  0.47061317  1
  Ti  Ti50  1  0.67349261  0.50777980  0.84749749  1
  Ti  Ti51  1  0.63611285  0.80222739  0.15865011  1
  Ti  Ti52  1  0.75919645  0.84240501  0.54109530  1
  Ti  Ti53  1  0.64882142  0.78790273  0.72485486  1
  Ti  Ti54  1  0.20110658  0.03016252  0.11174125  1
  Ti  Ti55  1  0.11997835  0.06460049  0.52825282  1
  Ti  Ti56  1  0.15754494  -0.01694302  0.78335205  1
  Ti  Ti57  1  0.15616466  0.24167708  0.21544815  1
  Ti  Ti58  1  0.08924517  0.40619945  0.48609480  1
  Ti  Ti59  1  0.11316016  0.36132741  0.83431967  1
  Ti  Ti60  1  0.18796330  0.66633028  0.06692519  1
  Ti  Ti61  1  0.21151782  0.68755315  0.54587829  1
  Ti  Ti62  1  0.24044722  0.66217955  0.84806600  1
  Ti  Ti63  1  0.42397461  -0.06103934  0.15688418  1
  Ti  Ti64  1  0.52081250  0.04094997  0.50763056  1
  Ti  Ti65  1  0.46929708  0.06295417  0.81750058  1
  Ti  Ti66  1  0.50853850  0.38725276  0.19270950  1
  Ti  Ti67  1  0.49942172  0.28775112  0.50444399  1
  Ti  Ti68  1  0.53403386  0.31915761  0.89494367  1
  Ti  Ti69  1  0.45577436  0.57049027  0.14847275  1
  Ti  Ti70  1  0.50806551  0.64707287  0.48503171  1
  Ti  Ti71  1  0.43804015  0.62224675  0.83761018  1
  Ti  Ti72  1  0.84118914  -0.01773145  0.13637003  1
  Ti  Ti73  1  0.77441631  0.04209933  0.49876564  1
  Ti  Ti74  1  0.81246248  0.07203486  0.79506594  1
  Ti  Ti75  1  0.89198392  0.34376077  0.15088195  1
  Ti  Ti76  1  0.90398875  0.35527717  0.54679947  1
  Ti  Ti77  1  0.83437284  0.27483909  0.84236958  1
  Ti  Ti78  1  0.80237984  0.69786100  0.08682855  1
  Ti  Ti79  1  0.82704490  0.64611826  0.53553078  1
  Ti  Ti80  1  0.87138275  0.60023480  0.92166775  1
  Ti  Ti81  1  0.06322024  0.11332835  0.00405034  1
  Ti  Ti82  1  0.24801055  0.13857300  0.35100372  1
  Ti  Ti83  1  0.20050247  0.24421169  0.65579929  1
  Ti  Ti84  1  0.08848289  0.50063917  -0.00094927  1
  Ti  Ti85  1  0.23156509  0.51981534  0.37870902  1
  Ti  Ti86  1  0.16679343  0.55278123  0.66786635  1
  Ti  Ti87  1  0.09285458  0.84251058  0.06417545  1
  Ti  Ti88  1  0.18116786  0.84249605  0.27815118  1
  Ti  Ti89  1  0.10952369  0.81480371  0.64951048  1
  Ti  Ti90  1  0.57124555  0.07983397  0.03310435  1
  Ti  Ti91  1  0.43166835  0.11697476  0.28278619  1
  Ti  Ti92  1  0.41612665  0.15639451  0.65058339  1
  Ti  Ti93  1  0.57619823  0.48158567  0.00825250  1
  Ti  Ti94  1  0.45897421  0.47821902  0.37044943  1
  Ti  Ti95  1  0.50145540  0.50846230  0.68796818  1
  Ti  Ti96  1  0.57292832  0.89915584  -0.10241036  1
  Ti  Ti97  1  0.51996194  0.84098392  0.33057272  1
  Ti  Ti98  1  0.51591322  0.83199513  0.57975994  1
  Ti  Ti99  1  0.78320587  0.18502819  0.03655146  1
  Ti  Ti100  1  0.89012754  0.13092198  0.33821688  1
  Ti  Ti101  1  0.91011688  0.16678763  0.64071669  1
  Ti  Ti102  1  0.79681373  0.42326707  0.00092211  1
  Ti  Ti103  1  0.78674517  0.47798254  0.29952459  1
  Ti  Ti104  1  0.86113187  0.53216303  0.73068479  1
  Ti  Ti105  1  0.80705315  0.80865781  -0.10344607  1
  Ti  Ti106  1  0.82041137  0.92869303  0.34106254  1
  Ti  Ti107  1  0.85392249  0.78229457  0.70281791  1
  Co  Co108  1  0.73201861  0.12943377  0.35164233  1
  Co  Co109  1  0.19374884  0.99203401  0.38151209  1
  Co  Co110  1  0.22040540  0.37871336  0.96899756  1
  Co  Co111  1  0.91292860  0.84070704  0.07674434  1
  Co  Co112  1  0.94627736  0.76146940  0.94780378  1
  Co  Co113  1  0.94843430  0.06561336  0.51506693  1
  Co  Co114  1  0.21705944  0.41334695  0.70636761  1
  Co  Co115  1  0.28746665  -0.01276621  0.24221140  1
  Co  Co116  1  0.34552182  0.63104827  0.45304676  1
  Co  Co117  1  0.52601454  0.31667430  0.70286783  1
  Co  Co118  1  0.47901846  0.29048955  0.32080825  1
  Co  Co119  1  0.69562935  0.34220952  0.90279473  1
  Co  Co120  1  0.11564558  0.68902111  0.74974685  1
  Co  Co121  1  0.43780777  0.39091842  0.04491552  1
  Co  Co122  1  0.43803986  0.86895793  1.01423907  1
  Co  Co123  1  0.25460497  0.55519554  -0.02571655  1
  Co  Co124  1  0.74850289  0.12959617  0.64520566  1
  Co  Co125  1  0.84336478  0.20616140  0.48185816  1
  Co  Co126  1  0.69955318  0.07034952  0.13568149  1
  Co  Co127  1  0.94406730  0.68702142  0.79962661  1
  Co  Co128  1  0.10967600  0.95493737  0.95007897  1
  Co  Co129  1  0.48638225  0.24669398  0.08154038  1
  Co  Co130  1  0.27157115  0.92069746  0.01225690  1
  Co  Co131  1  0.79108222  0.61163555  0.38418515  1
  Co  Co132  1  0.42454080  0.11024265  0.12248800  1
  Co  Co133  1  0.70018215  0.93423676  0.21918116  1
  Co  Co134  1  0.32710889  0.24517929  0.54015695  1
  Co  Co135  1  0.94738563  0.51504670  0.56600258  1
  Co  Co136  1  0.37910657  0.39515724  0.49348632  1
  Co  Co137  1  0.86155615  0.76749620  0.38840317  1
  Co  Co138  1  0.21156335  0.07225684  0.93523396  1
  Co  Co139  1  0.42127231  0.53473334  0.97874755  1
  Co  Co140  1  0.73770103  0.66959105  0.24612682  1
  Co  Co141  1  0.34933637  0.49561368  0.25365892  1
  Co  Co142  1  0.93145771  0.77999534  0.55739015  1
  Co  Co143  1  0.55572888  0.00598278  0.20068082  1
  Co  Co144  1  0.59772497  0.92462298  0.05912609  1
  Co  Co145  1  0.08175772  0.67083958  0.92761252  1
  Co  Co146  1  0.22808130  0.37791970  0.54546797  1
  Co  Co147  1  0.06721140  0.11923087  0.67387920  1
  Co  Co148  1  0.74789694  0.85986416  0.04761432  1
  Co  Co149  1  0.89194920  0.91794123  0.49037538  1
  Co  Co150  1  0.08555338  0.11829901  0.33672880  1
  Co  Co151  1  0.72074132  0.57252449  1.01346061  1
  Co  Co152  1  0.16735424  0.22570297  0.90986667  1
  Co  Co153  1  0.08466731  0.60419939  0.33884576  1
  Co  Co154  1  0.95757631  0.01852049  0.24604455  1
  Co  Co155  1  0.02084629  -0.01603665  0.10079123  1
  Co  Co156  1  0.17931684  0.23097583  0.47694512  1
  Co  Co157  1  0.11461917  0.97980989  0.23679890  1
  Co  Co158  1  0.27074466  0.85217807  0.61349703  1
  Co  Co159  1  0.22917110  0.82902671  0.77019522  1
  Co  Co160  1  0.23212099  0.07813929  0.66768161  1
  Co  Co161  1  0.57323779  0.17179382  0.38249313  1
  Ni  Ni162  1  0.20525235  0.79617555  0.93900268  1
  Ni  Ni163  1  0.59351209  0.64866576  0.79790298  1
  Ni  Ni164  1  0.89451906  0.11609321  0.93490492  1
  Ni  Ni165  1  0.64924982  0.71694992  0.56004365  1
  Ni  Ni166  1  0.61692410  0.42649805  0.31088234  1
  Ni  Ni167  1  0.41591160  0.15644382  0.44001528  1
  Ni  Ni168  1  0.82133587  0.97171564  0.65113631  1
  Ni  Ni169  1  0.47972178  0.45438004  0.83984401  1
  Ni  Ni170  1  0.73133978  0.91768494  0.79289492  1
  Ni  Ni171  1  0.48295816  0.17020259  0.93649833  1
  Ni  Ni172  1  0.50510280  0.74892467  0.91886205  1
  Ni  Ni173  1  0.35238282  0.82735882  0.28013341  1
  Ni  Ni174  1  0.76537631  0.66222292  0.79391637  1
  Ni  Ni175  1  0.42495857  0.23306928  0.79764591  1
  Ni  Ni176  1  0.58007331  0.65862969  0.07863664  1
  Ni  Ni177  1  0.08915256  0.71697366  0.21064499  1
  Ni  Ni178  1  0.97098042  0.29326500  0.75187940  1
  Ni  Ni179  1  0.62254622  0.89845624  0.46824890  1
  Ni  Ni180  1  0.78515938  0.28773371  0.63639238  1
  Ni  Ni181  1  0.66410288  0.17893000  0.92200236  1
  Ni  Ni182  1  0.78748142  0.20702057  0.20565771  1
  Ni  Ni183  1  0.63440313  0.04377123  0.83083189  1
  Ni  Ni184  1  0.75648250  0.36443372  0.46156587  1
  Ni  Ni185  1  0.51294936  0.67398574  0.65535336  1
  Ni  Ni186  1  0.81485183  0.81348186  0.21181090  1
  Ni  Ni187  1  0.07399555  0.42248411  0.32387499  1
  Ni  Ni188  1  0.92385980  0.26642913  -0.00912536  1
  Ni  Ni189  1  0.27517745  0.30413608  0.81452106  1
  Ni  Ni190  1  0.06194343  0.38339465  0.16669167  1
  Ni  Ni191  1  0.04968113  0.27261843  0.60444709  1
  Ni  Ni192  1  0.05143089  0.89508855  0.52560402  1
  Ni  Ni193  1  0.45066297  0.75935550  0.15123855  1
  Ni  Ni194  1  0.93630283  0.50414865  0.07158528  1
  Ni  Ni195  1  0.52453797  0.93828161  0.72825139  1
  Ni  Ni196  1  0.24059632  0.64194283  0.22870823  1
  Ni  Ni197  1  0.09261263  0.57718696  0.50262360  1
  Ni  Ni198  1  0.39165054  0.92464482  0.53598627  1
  Ni  Ni199  1  0.57846260  0.16237682  0.61979447  1
  Ni  Ni200  1  0.21960587  0.39655669  0.24354891  1
  Ni  Ni201  1  0.94691760  0.48387665  0.23560874  1
  Ni  Ni202  1  0.59877132  0.58139881  0.34732598  1
  Ni  Ni203  1  0.52123049  0.46800899  0.53313155  1
  Ni  Ni204  1  0.55834007  0.69384928  0.25346936  1
  Ni  Ni205  1  0.21881252  0.19471692  0.06504788  1
  Ni  Ni206  1  0.95738312  0.41585637  0.91418500  1
  Ni  Ni207  1  0.78746557  0.46932630  0.59657517  1
  Ni  Ni208  1  0.00409910  0.25523484  0.26962893  1
  Ni  Ni209  1  0.21164660  0.70678053  0.38059113  1
  Ni  Ni210  1  0.47768255  0.79235210  0.76380689  1
  Ni  Ni211  1  0.75050766  0.39953497  0.75017006  1
  Ni  Ni212  1  0.38927991  0.78594167  0.44682354  1
  Ni  Ni213  1  0.89936300  0.91566739  0.79418675  1
  Ni  Ni214  1  0.32961624  0.56037240  0.72045041  1
  Ni  Ni215  1  0.72405458  0.38196720  0.17062424  1
