# generated using pymatgen
data_Ti2CoNi
_symmetry_space_group_name_H-M   'P 1'
_cell_length_a   14.48038940
_cell_length_b   14.50620867
_cell_length_c   14.47537233
_cell_angle_alpha   90.06213056
_cell_angle_beta   89.68917006
_cell_angle_gamma   90.12552265
_symmetry_Int_Tables_number   1
_chemical_formula_structural   Ti2CoNi
_chemical_formula_sum   'Ti108 Co54 Ni54'
_cell_volume   3040.57851052
_cell_formula_units_Z   54
loop_
 _symmetry_equiv_pos_site_id
 _symmetry_equiv_pos_as_xyz
  1  'x, y, z'
loop_
 _atom_site_type_symbol
 _atom_site_label
 _atom_site_symmetry_multiplicity
 _atom_site_fract_x
 _atom_site_fract_y
 _atom_site_fract_z
 _atom_site_occupancy
  Ti  Ti0  1  -0.06730535  0.04183215  0.09506148  1
  Ti  Ti1  1  0.05077475  -0.03364148  0.27113009  1
  Ti  Ti2  1  0.05331450  0.09903140  0.64280709  1
  Ti  Ti3  1  -0.05225973  0.26272214  0.00800204  1
  Ti  Ti4  1  -0.04496953  0.31757938  0.34150635  1
  Ti  Ti5  1  -0.01091102  0.26390427  0.72130464  1
  Ti  Ti6  1  -0.04906020  0.67084738  0.02895581  1
  Ti  Ti7  1  0.01709323  0.62228757  0.30918421  1
  Ti  Ti8  1  -0.04712460  0.69852806  0.71236215  1
  Ti  Ti9  1  0.29382299  0.00486656  -0.01254068  1
  Ti  Ti10  1  0.23979134  0.00732774  0.31487953  1
  Ti  Ti11  1  0.32032440  -0.00502599  0.63334190  1
  Ti  Ti12  1  0.38307537  0.38789489  -0.03100043  1
  Ti  Ti13  1  0.38136682  0.32004376  0.35023163  1
  Ti  Ti14  1  0.35747863  0.32919676  0.78151306  1
  Ti  Ti15  1  0.33225292  0.63489138  0.04306165  1
  Ti  Ti16  1  0.33670184  0.61225203  0.31573834  1
  Ti  Ti17  1  0.37188817  0.76019900  0.66546932  1
  Ti  Ti18  1  0.62709459  -0.04636962  0.04434953  1
  Ti  Ti19  1  0.64549865  -0.01489716  0.39143704  1
  Ti  Ti20  1  0.66119145  -0.01196176  0.72477706  1
  Ti  Ti21  1  0.67375540  0.38340109  -0.01298853  1
  Ti  Ti22  1  0.67059414  0.28034083  0.39533138  1
  Ti  Ti23  1  0.63294232  0.29512154  0.62002521  1
  Ti  Ti24  1  0.64642569  0.61404657  -0.07072312  1
  Ti  Ti25  1  0.68449104  0.68847482  0.37682957  1
  Ti  Ti26  1  0.67435921  0.67309886  0.75223524  1
  Ti  Ti27  1  0.02418717  0.18817740  0.17583330  1
  Ti  Ti28  1  -0.02298526  0.20936102  0.48399473  1
  Ti  Ti29  1  0.01388720  0.01882724  0.84314390  1
  Ti  Ti30  1  -0.00278011  0.53871912  0.11957209  1
  Ti  Ti31  1  0.01658135  0.46882504  0.43244455  1
  Ti  Ti32  1  -0.04664299  0.50630938  0.86316932  1
  Ti  Ti33  1  0.02709389  0.85078376  0.09661975  1
  Ti  Ti34  1  0.01906408  0.93416097  0.49368588  1
  Ti  Ti35  1  0.01363190  0.82037686  0.89705056  1
  Ti  Ti36  1  0.34698621  0.10400193  0.16027595  1
  Ti  Ti37  1  0.32279458  0.16303266  0.52247984  1
  Ti  Ti38  1  0.29966252  0.13450232  0.80335424  1
  Ti  Ti39  1  0.26262915  0.52290657  0.15662874  1
  Ti  Ti40  1  0.32459354  0.57613149  0.50294741  1
  Ti  Ti41  1  0.33086921  0.60276716  0.80962019  1
  Ti  Ti42  1  0.39018765  0.80830597  0.19090022  1
  Ti  Ti43  1  0.34355383  0.90492387  0.45785933  1
  Ti  Ti44  1  0.30906604  0.79567928  0.86843059  1
  Ti  Ti45  1  0.68497853  0.24985446  0.15039986  1
  Ti  Ti46  1  0.74104496  0.13343902  0.51900032  1
  Ti  Ti47  1  0.64734006  0.17397544  0.93204961  1
  Ti  Ti48  1  0.65913652  0.45181461  0.20231832  1
  Ti  Ti49  1  0.68991619  0.55645362  0.56510239  1
  Ti  Ti50  1  0.64060821  0.48130915  0.73916577  1
  Ti  Ti51  1  0.70394145  0.84215503  0.20443158  1
  Ti  Ti52  1  0.64771197  0.79764258  0.53260365  1
  Ti  Ti53  1  0.70864259  0.80796797  0.89074936  1
  Ti  Ti54  1  0.14123873  0.04397897  0.12245146  1
  Ti  Ti55  1  0.14466946  0.06544660  0.48325450  1
  Ti  Ti56  1  0.17830000  -0.00769546  0.78102374  1
  Ti  Ti57  1  0.12097869  0.39573318  0.12538271  1
  Ti  Ti58  1  0.24818186  0.36951193  0.52382114  1
  Ti  Ti59  1  0.14043634  0.35219977  0.83813677  1
  Ti  Ti60  1  0.12402839  0.69204183  0.15726364  1
  Ti  Ti61  1  0.10859151  0.59890985  0.55503324  1
  Ti  Ti62  1  0.15022132  0.70647044  0.76300603  1
  Ti  Ti63  1  0.54057187  -0.00952630  0.22799564  1
  Ti  Ti64  1  0.50430462  0.02203686  0.52527283  1
  Ti  Ti65  1  0.49585999  0.07164334  0.85221642  1
  Ti  Ti66  1  0.50314015  0.32849227  0.14700327  1
  Ti  Ti67  1  0.49387334  0.26003746  0.48571361  1
  Ti  Ti68  1  0.54676475  0.30456153  0.80277722  1
  Ti  Ti69  1  0.52077998  0.68262296  0.07762054  1
  Ti  Ti70  1  0.46162886  0.72555907  0.49525148  1
  Ti  Ti71  1  0.48544960  0.73861523  0.83886040  1
  Ti  Ti72  1  0.76382909  0.02986522  0.19219987  1
  Ti  Ti73  1  0.80764143  -0.06037987  0.47872696  1
  Ti  Ti74  1  0.83929874  -0.08412351  0.81407947  1
  Ti  Ti75  1  0.93693505  0.36323218  0.14955715  1
  Ti  Ti76  1  0.78232712  0.38773943  0.50319174  1
  Ti  Ti77  1  0.80374176  0.25500752  0.80842400  1
  Ti  Ti78  1  0.81521691  0.69066114  0.18740621  1
  Ti  Ti79  1  0.93663312  0.66146832  0.51205291  1
  Ti  Ti80  1  0.85275677  0.65355852  0.84922725  1
  Ti  Ti81  1  0.14552366  0.22182687  0.01464499  1
  Ti  Ti82  1  0.17931320  0.21699790  0.38296276  1
  Ti  Ti83  1  0.23121691  0.28654927  0.67965747  1
  Ti  Ti84  1  0.13937246  0.54408216  -0.11989019  1
  Ti  Ti85  1  0.20219982  0.43861833  0.37516300  1
  Ti  Ti86  1  0.08254168  0.40553576  0.62296242  1
  Ti  Ti87  1  0.23040139  0.81845373  0.05386993  1
  Ti  Ti88  1  0.20150882  0.79795230  0.33813385  1
  Ti  Ti89  1  0.19737494  0.78428019  0.60009350  1
  Ti  Ti90  1  0.52862697  0.12712294  0.08388277  1
  Ti  Ti91  1  0.50018640  0.16823130  0.28073079  1
  Ti  Ti92  1  0.44619356  0.18699082  0.67974998  1
  Ti  Ti93  1  0.53207012  0.49640756  0.04813841  1
  Ti  Ti94  1  0.48892834  0.50159734  0.32804607  1
  Ti  Ti95  1  0.49434609  0.43599614  0.64082547  1
  Ti  Ti96  1  0.47408823  0.91582579  -0.07793088  1
  Ti  Ti97  1  0.54694591  0.79245799  0.29992596  1
  Ti  Ti98  1  0.55430737  0.79576003  0.67213086  1
  Ti  Ti99  1  0.85912341  0.10631808  -0.07174066  1
  Ti  Ti100  1  0.82590201  0.22399067  0.27051498  1
  Ti  Ti101  1  0.83323981  0.04409721  0.65004255  1
  Ti  Ti102  1  0.80391741  0.51422933  0.01844748  1
  Ti  Ti103  1  0.83832360  0.53540813  0.40606290  1
  Ti  Ti104  1  0.84174377  0.52336928  0.68883753  1
  Ti  Ti105  1  0.83564225  0.84401036  0.04471336  1
  Ti  Ti106  1  0.91714585  0.83232871  0.35462222  1
  Ti  Ti107  1  0.87839190  0.84402427  0.62301956  1
  Co  Co108  1  0.29193741  0.31496529  0.07735379  1
  Co  Co109  1  0.85749097  0.17941918  0.12592799  1
  Co  Co110  1  0.08458499  0.34293467  0.45524052  1
  Co  Co111  1  0.54635108  0.28500155  -0.01058073  1
  Co  Co112  1  0.56764717  0.45949856  0.88235422  1
  Co  Co113  1  0.55208647  0.61929223  0.45242908  1
  Co  Co114  1  0.77279554  0.97867429  0.97360113  1
  Co  Co115  1  0.38214371  0.42078564  0.14599611  1
  Co  Co116  1  0.82282422  0.25259459  0.42482421  1
  Co  Co117  1  0.37807474  0.24399584  0.20503632  1
  Co  Co118  1  0.79184298  0.35666868  0.10331160  1
  Co  Co119  1  0.57658152  0.62826666  0.61403289  1
  Co  Co120  1  0.62637101  0.68222975  0.20878181  1
  Co  Co121  1  0.02422704  0.10181777  -0.01028288  1
  Co  Co122  1  0.90625702  0.08368100  0.25438165  1
  Co  Co123  1  0.78527293  0.92027812  0.31603821  1
  Co  Co124  1  0.01735361  0.65297469  0.86670688  1
  Co  Co125  1  0.45269037  0.58271191  0.92086514  1
  Co  Co126  1  -0.05601504  0.40963897  0.73510395  1
  Co  Co127  1  1.04203978  0.80393049  0.61206957  1
  Co  Co128  1  0.93059800  -0.05432305  0.96447195  1
  Co  Co129  1  0.90511276  0.90521960  0.20466824  1
  Co  Co130  1  0.97987666  0.95230902  0.69125863  1
  Co  Co131  1  1.05327870  0.55490108  0.72565653  1
  Co  Co132  1  0.51457743  0.60123124  0.75498684  1
  Co  Co133  1  0.39657901  0.93828422  0.27534473  1
  Co  Co134  1  0.78777202  0.10015696  0.37525046  1
  Co  Co135  1  0.25056109  0.86466204  0.74370282  1
  Co  Co136  1  0.68255400  0.58311627  0.09386481  1
  Co  Co137  1  0.63970226  0.00463436  0.88972024  1
  Co  Co138  1  0.01474433  0.21378882  0.87264204  1
  Co  Co139  1  0.66902311  0.76067715  0.06961457  1
  Co  Co140  1  0.11136481  0.73191184  -0.01286366  1
  Co  Co141  1  0.14289553  0.57183814  0.04174278  1
  Co  Co142  1  0.43496196  0.46868031  0.79664197  1
  Co  Co143  1  0.17980681  0.08293393  0.90863136  1
  Co  Co144  1  0.07548494  0.85638751  0.76476104  1
  Co  Co145  1  0.56980434  0.78236993  0.95635210  1
  Co  Co146  1  0.27623807  0.70029558  0.20801401  1
  Co  Co147  1  0.74644509  0.58452877  0.27574161  1
  Co  Co148  1  0.23199097  0.66539672  0.92051326  1
  Co  Co149  1  0.93014519  0.99077951  0.37263610  1
  Co  Co150  1  0.93444992  0.35543975  0.56725896  1
  Co  Co151  1  0.05017111  0.10993314  0.34364478  1
  Co  Co152  1  0.86539026  0.68766316  0.34955337  1
  Co  Co153  1  0.32757294  0.96730238  0.84044737  1
  Co  Co154  1  0.33272192  0.15574606  0.34339778  1
  Co  Co155  1  0.27210473  0.25929938  0.91435303  1
  Co  Co156  1  -0.04939190  0.51679874  0.57201387  1
  Co  Co157  1  0.58620601  0.88152507  0.80582159  1
  Co  Co158  1  0.14006318  0.16338352  0.78183598  1
  Co  Co159  1  0.39110910  0.31202843  0.60670485  1
  Co  Co160  1  0.13121379  0.95854043  0.62159078  1
  Co  Co161  1  0.91767513  0.06247126  0.51989875  1
  Ni  Ni162  1  0.49977993  0.02586244  0.69353789  1
  Ni  Ni163  1  0.09861934  0.33782974  0.27495059  1
  Ni  Ni164  1  0.41620261  0.43010348  0.46256463  1
  Ni  Ni165  1  0.30934860  0.45559636  0.64546488  1
  Ni  Ni166  1  0.71570313  0.11691884  0.06831819  1
  Ni  Ni167  1  0.79018193  0.68482687  1.00259215  1
  Ni  Ni168  1  0.11023318  0.93811403  0.97139727  1
  Ni  Ni169  1  0.79832233  0.68065990  0.64008105  1
  Ni  Ni170  1  0.39151719  0.80697658  0.01977067  1
  Ni  Ni171  1  0.29592851  0.94194735  0.15118582  1
  Ni  Ni172  1  0.80147256  0.76220281  0.49689455  1
  Ni  Ni173  1  0.27452966  0.46230637  0.85384836  1
  Ni  Ni174  1  0.83288052  0.51896059  0.16887362  1
  Ni  Ni175  1  0.84541623  0.22719308  0.62903970  1
  Ni  Ni176  1  0.03439306  0.41637538  -0.01321138  1
  Ni  Ni177  1  0.59723754  0.12672104  0.43163871  1
  Ni  Ni178  1  0.38043865  0.76836127  0.34158124  1
  Ni  Ni179  1  0.66544875  0.48347737  0.37009984  1
  Ni  Ni180  1  0.77866594  0.24661540  0.98554799  1
  Ni  Ni181  1  0.75111663  0.08340391  0.81268960  1
  Ni  Ni182  1  0.85421156  0.38059417  0.94509517  1
  Ni  Ni183  1  0.19212022  0.14313227  0.23640368  1
  Ni  Ni184  1  0.16691576  0.85730215  0.21099035  1
  Ni  Ni185  1  0.60371233  0.40960152  0.48563010  1
  Ni  Ni186  1  0.45479180  0.87411686  0.58149502  1
  Ni  Ni187  1  0.19115909  0.90161049  0.47271307  1
  Ni  Ni188  1  0.72471695  0.83076165  0.71004379  1
  Ni  Ni189  1  0.50777298  0.89236359  0.41135227  1
  Ni  Ni190  1  0.76342978  0.48701627  0.83636617  1
  Ni  Ni191  1  0.27405538  0.72868097  0.46586831  1
  Ni  Ni192  1  0.81006760  0.40794875  0.29134015  1
  Ni  Ni193  1  0.66457736  0.14221393  0.26693484  1
  Ni  Ni194  1  0.54037068  0.83806776  0.12545279  1
  Ni  Ni195  1  0.70410048  0.94076237  0.58984596  1
  Ni  Ni196  1  0.98456618  0.75343789  0.21537703  1
  Ni  Ni197  1  0.42523425  0.57117085  0.17107426  1
  Ni  Ni198  1  0.41912475  0.22460869  0.88483081  1
  Ni  Ni199  1  0.96836011  0.47698454  0.26580293  1
  Ni  Ni200  1  0.17531020  0.60880073  0.38809138  1
  Ni  Ni201  1  0.45583316  -0.03049524  0.07881557  1
  Ni  Ni202  1  0.77368032  0.37488793  0.67701442  1
  Ni  Ni203  1  0.58057942  0.13331237  0.59699073  1
  Ni  Ni204  1  0.90860770  0.13656123  0.76380439  1
  Ni  Ni205  1  0.61673847  0.15219531  0.75548006  1
  Ni  Ni206  1  0.45067326  0.05064283  0.37503522  1
  Ni  Ni207  1  0.22848126  0.11919043  0.64506657  1
  Ni  Ni208  1  0.42026141  0.89667059  0.74499789  1
  Ni  Ni209  1  0.39749022  0.59752605  0.63201148  1
  Ni  Ni210  1  0.13011920  0.53817672  0.23419712  1
  Ni  Ni211  1  0.06663347  0.74777736  0.45344731  1
  Ni  Ni212  1  0.14337202  0.22819451  0.55031205  1
  Ni  Ni213  1  0.52799548  0.34153513  0.32049608  1
  Ni  Ni214  1  0.25194435  0.61906538  0.64593283  1
  Ni  Ni215  1  0.25591302  0.36333304  0.24107961  1
