# generated using pymatgen
data_Ti2CoNi
_symmetry_space_group_name_H-M   'P 1'
_cell_length_a   14.66676416
_cell_length_b   14.66662678
_cell_length_c   14.71582215
_cell_angle_alpha   89.95355258
_cell_angle_beta   89.70851310
_cell_angle_gamma   89.80927354
_symmetry_Int_Tables_number   1
_chemical_formula_structural   Ti2CoNi
_chemical_formula_sum   'Ti108 Co54 Ni54'
_cell_volume   3165.48978617
_cell_formula_units_Z   54
loop_
 _symmetry_equiv_pos_site_id
 _symmetry_equiv_pos_as_xyz
  1  'x, y, z'
loop_
 _atom_site_type_symbol
 _atom_site_label
 _atom_site_symmetry_multiplicity
 _atom_site_fract_x
 _atom_site_fract_y
 _atom_site_fract_z
 _atom_site_occupancy
  Ti  Ti0  1  -0.00186696  -0.02190408  -0.02032487  1
  Ti  Ti1  1  -0.14444720  -0.04135759  0.26561141  1
  Ti  Ti2  1  0.09545555  0.00356362  0.70714000  1
  Ti  Ti3  1  0.04997775  0.33440206  0.03348868  1
  Ti  Ti4  1  -0.04041485  0.35942164  0.29063286  1
  Ti  Ti5  1  -0.03873092  0.29567271  0.67242147  1
  Ti  Ti6  1  -0.01690903  0.70573274  0.01205924  1
  Ti  Ti7  1  0.08547640  0.69486943  0.28412293  1
  Ti  Ti8  1  0.00470088  0.59954755  0.68552508  1
  Ti  Ti9  1  0.30466779  0.04753786  0.04773185  1
  Ti  Ti10  1  0.28286485  -0.01414885  0.33756329  1
  Ti  Ti11  1  0.29366403  -0.01961072  0.66351965  1
  Ti  Ti12  1  0.43671362  0.37611691  -0.00243100  1
  Ti  Ti13  1  0.22688451  0.33186537  0.44865991  1
  Ti  Ti14  1  0.22038073  0.34191414  0.65896545  1
  Ti  Ti15  1  0.37637371  0.71088919  -0.09493581  1
  Ti  Ti16  1  0.30300618  0.64288699  0.34550918  1
  Ti  Ti17  1  0.36806962  0.61198365  0.63418834  1
  Ti  Ti18  1  0.75252656  0.04014680  -0.06671920  1
  Ti  Ti19  1  0.70568375  0.04416437  0.39667257  1
  Ti  Ti20  1  0.60390534  -0.07886273  0.65535863  1
  Ti  Ti21  1  0.64420706  0.26900426  0.01398544  1
  Ti  Ti22  1  0.69273865  0.39844816  0.25424830  1
  Ti  Ti23  1  0.63798632  0.33247960  0.67793157  1
  Ti  Ti24  1  0.70710560  0.57878852  -0.00199863  1
  Ti  Ti25  1  0.64696222  0.60381538  0.28399008  1
  Ti  Ti26  1  0.69908444  0.67866500  0.62423846  1
  Ti  Ti27  1  -0.01154751  0.15405884  0.22689129  1
  Ti  Ti28  1  -0.00611254  0.13598784  0.52976844  1
  Ti  Ti29  1  -0.00243326  0.28572854  0.84225055  1
  Ti  Ti30  1  0.04778613  0.50472841  0.12177647  1
  Ti  Ti31  1  -0.00573588  0.52824597  0.45422583  1
  Ti  Ti32  1  -0.02984655  0.48840994  0.83876623  1
  Ti  Ti33  1  0.03167406  0.85160510  0.13406764  1
  Ti  Ti34  1  0.05145933  0.73464303  0.46458048  1
  Ti  Ti35  1  -0.05397753  0.78531492  0.74943805  1
  Ti  Ti36  1  0.42722997  0.14071706  0.21952408  1
  Ti  Ti37  1  0.35187896  0.22640552  0.53069990  1
  Ti  Ti38  1  0.39513789  0.13143226  0.79098003  1
  Ti  Ti39  1  0.29694278  0.54769442  0.17178735  1
  Ti  Ti40  1  0.29342643  0.51156741  0.48648189  1
  Ti  Ti41  1  0.34262221  0.41856659  0.82655481  1
  Ti  Ti42  1  0.32292253  0.78362069  0.22892015  1
  Ti  Ti43  1  0.35417494  0.83754448  0.44253267  1
  Ti  Ti44  1  0.34506351  0.86535819  0.81375644  1
  Ti  Ti45  1  0.63090454  0.18815650  0.20317387  1
  Ti  Ti46  1  0.69020185  0.21556304  0.52715310  1
  Ti  Ti47  1  0.69903676  0.15818203  0.75516246  1
  Ti  Ti48  1  0.55943157  0.46131732  0.13810434  1
  Ti  Ti49  1  0.64004362  0.55072589  0.48651693  1
  Ti  Ti50  1  0.68971003  0.57989686  0.79717877  1
  Ti  Ti51  1  0.65888813  0.78513787  0.07098703  1
  Ti  Ti52  1  0.74442237  0.83605860  0.49664023  1
  Ti  Ti53  1  0.65426317  0.77009925  0.88463738  1
  Ti  Ti54  1  0.15581859  0.03880818  0.18916049  1
  Ti  Ti55  1  0.19485845  0.08394345  0.53751768  1
  Ti  Ti56  1  0.19557767  -0.02695596  0.88685668  1
  Ti  Ti57  1  0.19502311  0.28451258  0.26577357  1
  Ti  Ti58  1  0.04080326  0.32484645  0.51068566  1
  Ti  Ti59  1  0.15009615  0.40839131  0.84755371  1
  Ti  Ti60  1  0.15476145  0.66981660  0.10608732  1
  Ti  Ti61  1  0.23565062  0.71026490  0.53205472  1
  Ti  Ti62  1  0.20058399  0.62105052  0.87185698  1
  Ti  Ti63  1  0.54444020  -0.10880417  0.19192325  1
  Ti  Ti64  1  0.49321961  -0.00213086  0.40359462  1
  Ti  Ti65  1  0.57463811  -0.00176214  0.84017102  1
  Ti  Ti66  1  0.36334289  0.34810817  0.17709285  1
  Ti  Ti67  1  0.57182842  0.38066791  0.51400618  1
  Ti  Ti68  1  0.53548235  0.30571508  0.83184805  1
  Ti  Ti69  1  0.47348243  0.67307848  0.14309560  1
  Ti  Ti70  1  0.44723588  0.68364227  0.48751385  1
  Ti  Ti71  1  0.51931731  0.65058834  0.77786823  1
  Ti  Ti72  1  0.71067780  0.01027809  0.14737318  1
  Ti  Ti73  1  0.88941607  -0.04150740  0.49321663  1
  Ti  Ti74  1  0.90425285  -0.01215339  0.80904309  1
  Ti  Ti75  1  0.86203183  0.39253440  0.12344043  1
  Ti  Ti76  1  0.85399344  0.33052472  0.50663325  1
  Ti  Ti77  1  0.79775222  0.32327712  0.83904099  1
  Ti  Ti78  1  0.81425449  0.68019613  0.15779528  1
  Ti  Ti79  1  0.87877803  0.66940662  0.53600331  1
  Ti  Ti80  1  0.85812845  0.65925668  0.86662597  1
  Ti  Ti81  1  0.19519251  0.21218733  0.08288455  1
  Ti  Ti82  1  0.10083757  0.07905506  0.36833230  1
  Ti  Ti83  1  0.15851288  0.15538449  0.78605527  1
  Ti  Ti84  1  0.22463589  0.48105142  0.01267807  1
  Ti  Ti85  1  0.16485751  0.49429937  0.26655359  1
  Ti  Ti86  1  0.20255805  0.54124911  0.69273952  1
  Ti  Ti87  1  0.24731642  0.81853166  0.03037611  1
  Ti  Ti88  1  0.06360884  0.89473972  0.35552146  1
  Ti  Ti89  1  0.09609896  0.83823797  0.61649479  1
  Ti  Ti90  1  0.47513576  0.12857052  -0.00950614  1
  Ti  Ti91  1  0.51585323  0.19451318  0.40794413  1
  Ti  Ti92  1  0.44634521  0.07671600  0.58872414  1
  Ti  Ti93  1  0.51561976  0.57330926  -0.03898606  1
  Ti  Ti94  1  0.48333108  0.42537750  0.34903140  1
  Ti  Ti95  1  0.41923730  0.41603089  0.64114696  1
  Ti  Ti96  1  0.48271815  0.91209857  -0.01363275  1
  Ti  Ti97  1  0.57510803  0.80413301  0.38879211  1
  Ti  Ti98  1  0.44759368  0.78347117  0.66889336  1
  Ti  Ti99  1  0.91114998  0.16944322  -0.01811356  1
  Ti  Ti100  1  0.77239603  0.23877568  0.33951239  1
  Ti  Ti101  1  0.84633151  0.09500688  0.64662100  1
  Ti  Ti102  1  0.89039106  0.54709780  0.02469388  1
  Ti  Ti103  1  0.82138051  0.52538713  0.34930892  1
  Ti  Ti104  1  0.81770769  0.45387788  0.70112851  1
  Ti  Ti105  1  0.83330913  0.88691076  0.04787634  1
  Ti  Ti106  1  0.77710381  0.77580787  0.31691689  1
  Ti  Ti107  1  0.80074200  0.87975407  0.66804999  1
  Co  Co108  1  0.05683807  0.87883592  0.81639646  1
  Co  Co109  1  0.95692939  0.95297559  0.65480453  1
  Co  Co110  1  0.16514713  0.82706479  0.21256531  1
  Co  Co111  1  0.75824778  0.27525676  0.16725122  1
  Co  Co112  1  0.73834862  0.52927643  0.16930641  1
  Co  Co113  1  0.89114306  0.52925064  0.20154384  1
  Co  Co114  1  0.36101362  0.27041427  0.33659560  1
  Co  Co115  1  0.42700630  0.89028057  0.30308248  1
  Co  Co116  1  0.62131952  0.63226074  0.11844821  1
  Co  Co117  1  -0.01907986  0.65824201  0.16764048  1
  Co  Co118  1  0.99830067  0.13267374  0.70168181  1
  Co  Co119  1  0.00949665  0.98576456  0.23043456  1
  Co  Co120  1  0.25512465  0.32773200  0.97356025  1
  Co  Co121  1  0.35362080  0.21893032  0.05875424  1
  Co  Co122  1  0.41680585  0.51219016  0.08482967  1
  Co  Co123  1  0.74770176  0.19550964  0.91741146  1
  Co  Co124  1  0.13032536  0.24357588  0.92056741  1
  Co  Co125  1  0.93100900  0.81498837  0.57629232  1
  Co  Co126  1  0.27145315  0.14031788  0.24425756  1
  Co  Co127  1  0.66925504  0.42168161  0.80592528  1
  Co  Co128  1  0.05356643  0.98247076  0.51052157  1
  Co  Co129  1  0.64119236  0.50134753  0.65751321  1
  Co  Co130  1  0.73252684  1.00910061  0.56867083  1
  Co  Co131  1  0.39345052  0.37168653  0.47579980  1
  Co  Co132  1  0.46754951  0.51391766  0.51811245  1
  Co  Co133  1  -0.06422860  0.05103287  0.37140353  1
  Co  Co134  1  0.60995509  0.93333938  0.49407999  1
  Co  Co135  1  0.23021453  0.17310986  0.40402898  1
  Co  Co136  1  0.84747527  0.61859199  0.70613737  1
  Co  Co137  1  0.88682969  1.03922053  0.10405036  1
  Co  Co138  1  0.06930997  0.42955851  0.70661168  1
  Co  Co139  1  0.20741044  0.78346179  0.87378162  1
  Co  Co140  1  0.80425255  0.73056206  -0.00086329  1
  Co  Co141  1  0.35371614  0.54010061  0.94114777  1
  Co  Co142  1  0.28490983  0.71457694  0.74114088  1
  Co  Co143  1  0.58750892  0.15814892  0.87749311  1
  Co  Co144  1  0.40409457  0.27714737  0.70997237  1
  Co  Co145  1  0.92743508  0.83480753  0.91869325  1
  Co  Co146  1  0.19926435  0.86708582  0.73835737  1
  Co  Co147  1  0.91045974  0.23810840  0.12636428  1
  Co  Co148  1  0.51031695  0.24609797  0.57292368  1
  Co  Co149  1  0.37309161  0.11190810  0.39710368  1
  Co  Co150  1  0.20062927  0.78538041  0.37658290  1
  Co  Co151  1  0.52173251  0.73641734  0.97162379  1
  Co  Co152  1  0.53966647  0.62646976  0.61963575  1
  Co  Co153  1  0.81601401  0.12465313  0.23621976  1
  Co  Co154  1  0.26107206  0.27637617  0.80577680  1
  Co  Co155  1  0.59340897  0.09284074  0.54041175  1
  Co  Co156  1  0.39087464  0.26153835  0.89403973  1
  Co  Co157  1  0.17868916  0.38240622  0.13128542  1
  Co  Co158  1  0.27733497  0.14670487  0.92006798  1
  Co  Co159  1  0.30177283  0.82613372  0.61554887  1
  Co  Co160  1  1.01121556  0.53142127  0.29671902  1
  Co  Co161  1  0.76936831  0.14697303  0.07603105  1
  Ni  Ni162  1  0.28037431  0.16262383  0.66783946  1
  Ni  Ni163  1  0.11654635  0.71553240  0.74488649  1
  Ni  Ni164  1  0.64747966  0.93491086  0.00359098  1
  Ni  Ni165  1  0.15272303  -0.04857799  0.05351462  1
  Ni  Ni166  1  0.06795516  0.55696606  0.95967596  1
  Ni  Ni167  1  0.08676385  0.82617218  -0.02972566  1
  Ni  Ni168  1  0.09576378  0.41294140  0.38143805  1
  Ni  Ni169  1  0.91791974  0.66198931  0.34725531  1
  Ni  Ni170  1  0.10937938  0.61194717  0.56594081  1
  Ni  Ni171  1  0.76162906  0.74898065  0.76082177  1
  Ni  Ni172  1  0.91057775  0.81529506  0.41259264  1
  Ni  Ni173  1  0.63346994  0.75642987  0.23090948  1
  Ni  Ni174  1  0.37460495  1.00689859  0.89500583  1
  Ni  Ni175  1  0.77790976  0.87809548  0.87415084  1
  Ni  Ni176  1  0.54226729  0.16702043  0.70895260  1
  Ni  Ni177  1  0.90728994  0.37572189  0.95920432  1
  Ni  Ni178  1  0.40533577  0.81187406  0.08189947  1
  Ni  Ni179  1  0.45418907  -0.03147715  0.72757988  1
  Ni  Ni180  1  0.68147567  0.91236506  0.29722389  1
  Ni  Ni181  1  0.07964249  0.24539451  0.36940506  1
  Ni  Ni182  1  0.87009385  0.17077900  0.80060928  1
  Ni  Ni183  1  0.59538158  0.42741587  0.94718216  1
  Ni  Ni184  1  0.79429562  0.52657245  0.55655669  1
  Ni  Ni185  1  0.12632423  0.09525314  0.98269572  1
  Ni  Ni186  1  0.93296283  0.79996268  0.25104128  1
  Ni  Ni187  1  0.51147760  0.82949969  0.82019401  1
  Ni  Ni188  1  0.31648434  0.66079209  0.05199128  1
  Ni  Ni189  1  0.74516118  0.66833804  0.43759572  1
  Ni  Ni190  1  0.80445841  0.48703691  0.88763907  1
  Ni  Ni191  1  0.72784807  -0.00346307  0.75862674  1
  Ni  Ni192  1  0.51788145  0.58778512  0.38050314  1
  Ni  Ni193  1  0.82606680  0.12917744  0.48029884  1
  Ni  Ni194  1  0.44957163  0.90930106  0.56134794  1
  Ni  Ni195  1  0.50308428  0.25671383  0.10278199  1
  Ni  Ni196  1  1.01517900  0.10380889  0.86198143  1
  Ni  Ni197  1  0.12109140  0.21359733  0.62080890  1
  Ni  Ni198  1  0.43606142  0.55165925  0.25141025  1
  Ni  Ni199  1  0.15163762  0.59568533  0.40980490  1
  Ni  Ni200  1  0.58051233  0.04612060  0.27026773  1
  Ni  Ni201  1  0.79669430  0.26893982  0.66160568  1
  Ni  Ni202  1  0.62347582  0.30894208  0.37340268  1
  Ni  Ni203  1  0.36486890  0.57755386  0.78956848  1
  Ni  Ni204  1  0.46229055  0.72032058  0.30590170  1
  Ni  Ni205  1  0.57874097  0.77851598  0.55522985  1
  Ni  Ni206  1  0.42618993  -0.01048292  0.15042849  1
  Ni  Ni207  1  0.92637103  0.21990198  0.38515181  1
  Ni  Ni208  1  0.73540672  0.40904840  0.43114358  1
  Ni  Ni209  1  0.31339745  0.43420945  0.32598308  1
  Ni  Ni210  1  0.20309525  0.90878008  0.49343167  1
  Ni  Ni211  1  0.95132674  0.45498029  0.59372663  1
  Ni  Ni212  1  0.51327779  0.29699230  0.25381446  1
  Ni  Ni213  1  0.71022865  0.41190311  0.06075207  1
  Ni  Ni214  1  0.27962292  0.92867698  0.16476018  1
  Ni  Ni215  1  0.13990282  0.45524994  0.54768327  1
