# generated using pymatgen
data_Ti2CoNi
_symmetry_space_group_name_H-M   'P 1'
_cell_length_a   14.64762342
_cell_length_b   14.64991186
_cell_length_c   14.63338242
_cell_angle_alpha   89.99735500
_cell_angle_beta   89.71345670
_cell_angle_gamma   89.98249133
_symmetry_Int_Tables_number   1
_chemical_formula_structural   Ti2CoNi
_chemical_formula_sum   'Ti108 Co54 Ni54'
_cell_volume   3140.08531844
_cell_formula_units_Z   54
loop_
 _symmetry_equiv_pos_site_id
 _symmetry_equiv_pos_as_xyz
  1  'x, y, z'
loop_
 _atom_site_type_symbol
 _atom_site_label
 _atom_site_symmetry_multiplicity
 _atom_site_fract_x
 _atom_site_fract_y
 _atom_site_fract_z
 _atom_site_occupancy
  Ti  Ti0  1  0.00952262  0.01938103  0.10574748  1
  Ti  Ti1  1  -0.04051343  -0.00752933  0.29641610  1
  Ti  Ti2  1  -0.04144937  -0.06865450  0.63404136  1
  Ti  Ti3  1  0.06196228  0.34906998  -0.04323444  1
  Ti  Ti4  1  0.06563670  0.36147980  0.27565982  1
  Ti  Ti5  1  -0.06179650  0.29773948  0.66675934  1
  Ti  Ti6  1  -0.01927553  0.67391911  0.01182073  1
  Ti  Ti7  1  0.05370380  0.64228207  0.37380860  1
  Ti  Ti8  1  0.03519548  0.59539181  0.65930026  1
  Ti  Ti9  1  0.30817439  -0.03473801  -0.04289989  1
  Ti  Ti10  1  0.25879934  0.02377590  0.31699005  1
  Ti  Ti11  1  0.35779374  0.02697345  0.70227099  1
  Ti  Ti12  1  0.35441341  0.33910876  0.00094915  1
  Ti  Ti13  1  0.30288745  0.32842048  0.40533019  1
  Ti  Ti14  1  0.36473196  0.38737237  0.67128952  1
  Ti  Ti15  1  0.36506210  0.68059346  -0.02455280  1
  Ti  Ti16  1  0.31607052  0.68523673  0.26337391  1
  Ti  Ti17  1  0.35545506  0.78218468  0.64226537  1
  Ti  Ti18  1  0.69982207  0.00020796  -0.07983366  1
  Ti  Ti19  1  0.61026424  0.02149020  0.37818594  1
  Ti  Ti20  1  0.61129613  -0.00896270  0.63174639  1
  Ti  Ti21  1  0.65898013  0.38781456  -0.03012696  1
  Ti  Ti22  1  0.72047665  0.41106402  0.34746767  1
  Ti  Ti23  1  0.66995741  0.25510587  0.70057164  1
  Ti  Ti24  1  0.68507128  0.61018130  -0.01041288  1
  Ti  Ti25  1  0.67519875  0.59054387  0.29637432  1
  Ti  Ti26  1  0.70212085  0.68704230  0.69542449  1
  Ti  Ti27  1  0.01841526  0.18801125  0.20741285  1
  Ti  Ti28  1  0.05464200  0.16941745  0.54634888  1
  Ti  Ti29  1  -0.02176207  0.20351868  0.83454271  1
  Ti  Ti30  1  -0.01606719  0.52715471  0.20280359  1
  Ti  Ti31  1  -0.07202976  0.55698747  0.49446223  1
  Ti  Ti32  1  -0.00028707  0.50340758  0.84761807  1
  Ti  Ti33  1  -0.06573870  0.83124155  0.19369244  1
  Ti  Ti34  1  -0.03869731  0.82707441  0.41582593  1
  Ti  Ti35  1  0.02438797  0.89611928  0.80686004  1
  Ti  Ti36  1  0.39728318  0.15053636  0.18096990  1
  Ti  Ti37  1  0.35615858  0.11667894  0.50575146  1
  Ti  Ti38  1  0.32040316  0.18673906  0.86588931  1
  Ti  Ti39  1  0.34193287  0.43653369  0.16250490  1
  Ti  Ti40  1  0.29171059  0.49365954  0.51726371  1
  Ti  Ti41  1  0.30309878  0.53121881  0.84666433  1
  Ti  Ti42  1  0.33979454  0.83814309  0.11888548  1
  Ti  Ti43  1  0.35995019  0.91234709  0.47209259  1
  Ti  Ti44  1  0.34597024  0.84252330  0.82049222  1
  Ti  Ti45  1  0.64903671  0.11963314  0.18243391  1
  Ti  Ti46  1  0.66561558  0.20200027  0.48156215  1
  Ti  Ti47  1  0.68310765  0.19409156  0.87952928  1
  Ti  Ti48  1  0.66311293  0.35040382  0.16867044  1
  Ti  Ti49  1  0.66651776  0.37979635  0.53258556  1
  Ti  Ti50  1  0.61352693  0.49752636  0.80683539  1
  Ti  Ti51  1  0.73630834  0.83960885  0.12509959  1
  Ti  Ti52  1  0.72700934  0.82377162  0.53570598  1
  Ti  Ti53  1  0.65351543  0.81641013  0.93887075  1
  Ti  Ti54  1  0.22250377  0.03877684  0.12719318  1
  Ti  Ti55  1  0.08395006  -0.03649350  0.46646242  1
  Ti  Ti56  1  0.14508129  0.05267037  0.85207921  1
  Ti  Ti57  1  0.17302822  0.31447044  0.11655758  1
  Ti  Ti58  1  0.10932318  0.35794628  0.50788543  1
  Ti  Ti59  1  0.19392613  0.35166375  0.79564605  1
  Ti  Ti60  1  0.18104097  0.70173255  0.06868538  1
  Ti  Ti61  1  0.20732264  0.68608398  0.53798368  1
  Ti  Ti62  1  0.09121839  0.66499357  0.82757899  1
  Ti  Ti63  1  0.48596921  0.01416648  0.06913043  1
  Ti  Ti64  1  0.54313303  -0.15425078  0.49058949  1
  Ti  Ti65  1  0.49386511  0.05085357  0.87163891  1
  Ti  Ti66  1  0.47981062  0.32855119  0.24818734  1
  Ti  Ti67  1  0.49448766  0.37664568  0.44865969  1
  Ti  Ti68  1  0.51755506  0.31611097  0.78667440  1
  Ti  Ti69  1  0.57921461  0.65157210  0.16081049  1
  Ti  Ti70  1  0.44317598  0.66435229  0.53296828  1
  Ti  Ti71  1  0.50136238  0.75331610  0.84515318  1
  Ti  Ti72  1  0.77661445  -0.00787191  0.27196179  1
  Ti  Ti73  1  0.90464304  0.04497827  0.49808288  1
  Ti  Ti74  1  0.86770183  0.01270209  0.79501986  1
  Ti  Ti75  1  0.86802755  0.31109020  0.19673571  1
  Ti  Ti76  1  0.88838565  0.34589097  0.47989524  1
  Ti  Ti77  1  0.82009003  0.36531321  0.81200700  1
  Ti  Ti78  1  0.79767879  0.65460189  0.15830780  1
  Ti  Ti79  1  0.73383373  0.64090083  0.48048760  1
  Ti  Ti80  1  0.80309159  0.70577378  0.85002680  1
  Ti  Ti81  1  0.08620572  0.16440169  0.02001077  1
  Ti  Ti82  1  0.16437451  0.19743495  0.37588666  1
  Ti  Ti83  1  0.18079754  0.07948181  0.65684287  1
  Ti  Ti84  1  0.15173501  0.49705993  0.11359553  1
  Ti  Ti85  1  0.20660561  0.53385723  0.33988596  1
  Ti  Ti86  1  0.18738138  0.50372683  0.67854670  1
  Ti  Ti87  1  0.14521500  0.83264369  -0.07262717  1
  Ti  Ti88  1  0.15501412  0.80024258  0.26531017  1
  Ti  Ti89  1  0.17210957  0.80351845  0.70724423  1
  Ti  Ti90  1  0.50703766  0.23978787  -0.04206548  1
  Ti  Ti91  1  0.50186554  0.17688895  0.37431949  1
  Ti  Ti92  1  0.51448403  0.18125187  0.59992281  1
  Ti  Ti93  1  0.49421232  0.52735367  0.04882295  1
  Ti  Ti94  1  0.48983286  0.61280536  0.35205383  1
  Ti  Ti95  1  0.52819922  0.50370130  0.61016124  1
  Ti  Ti96  1  0.53272168  0.82630450  0.10510284  1
  Ti  Ti97  1  0.49570932  0.87073709  0.29393395  1
  Ti  Ti98  1  0.54993024  0.80874477  0.68009329  1
  Ti  Ti99  1  0.87305769  0.11846125  -0.00757986  1
  Ti  Ti100  1  0.86926049  0.17186437  0.34788948  1
  Ti  Ti101  1  0.76623473  0.10971329  0.62189623  1
  Ti  Ti102  1  0.85413403  0.51144137  0.04465999  1
  Ti  Ti103  1  0.85150203  0.56855553  0.32778010  1
  Ti  Ti104  1  0.84725499  0.51121678  0.67514843  1
  Ti  Ti105  1  0.93561780  0.88566014  -0.01314644  1
  Ti  Ti106  1  0.78113440  0.77171233  0.32044026  1
  Ti  Ti107  1  0.87692599  0.72337781  0.61649650  1
  Co  Co108  1  0.12072214  0.78068406  0.43400348  1
  Co  Co109  1  0.79988124  0.46884974  0.20250036  1
  Co  Co110  1  0.60636946  0.11208526  1.00671387  1
  Co  Co111  1  0.21452683  0.89630840  0.39919855  1
  Co  Co112  1  0.20534306  0.18397924  0.21900510  1
  Co  Co113  1  0.67503511  0.51468594  0.11585813  1
  Co  Co114  1  1.02133078  0.51335937  0.01587111  1
  Co  Co115  1  0.23321646  0.10672508  0.97736783  1
  Co  Co116  1  0.79368206  0.36184973  0.05955458  1
  Co  Co117  1  0.08899821  0.92274524  0.20537377  1
  Co  Co118  1  0.52789940  0.34126910  0.62041968  1
  Co  Co119  1  0.10882088  0.06520931  0.26169045  1
  Co  Co120  1  0.63270420  0.93470057  0.22051053  1
  Co  Co121  1  0.86638228  0.12192342  0.18421987  1
  Co  Co122  1  0.32148296  0.62870053  0.42179719  1
  Co  Co123  1  0.09766446  0.23095366  0.70086828  1
  Co  Co124  1  0.19824687  0.87417216  0.08448232  1
  Co  Co125  1  0.49288343  0.41866372  0.91629672  1
  Co  Co126  1  0.11575683  0.97720991  0.99568384  1
  Co  Co127  1  0.21828658  0.20631003  0.53754841  1
  Co  Co128  1  0.42433249  0.55766884  0.21621720  1
  Co  Co129  1  0.90969018  0.39571128  0.94859804  1
  Co  Co130  1  0.41993985  0.02515567  0.36067832  1
  Co  Co131  1  0.54062940  0.69759179  0.99746470  1
  Co  Co132  1  0.66682914  0.87260763  0.37826325  1
  Co  Co133  1  0.35707028  0.35494296  0.83391577  1
  Co  Co134  1  0.51906219  0.04779697  0.23721443  1
  Co  Co135  1  0.63107916  0.94807844  0.05699446  1
  Co  Co136  1  0.23040064  0.65357057  0.71425330  1
  Co  Co137  1  0.00396603  0.38388161  0.11825687  1
  Co  Co138  1  0.95622439  0.76468257  0.87424789  1
  Co  Co139  1  0.45051579  0.48576273  0.77108375  1
  Co  Co140  1  0.28311739  0.21099104  0.07776697  1
  Co  Co141  1  0.26857968  0.21524419  0.70592030  1
  Co  Co142  1  0.37467782  0.67165695  0.78595572  1
  Co  Co143  1  0.98904484  0.03672948  0.91214598  1
  Co  Co144  1  0.63618204  0.76878261  0.25035902  1
  Co  Co145  1  0.60217182  0.71913339  0.40859619  1
  Co  Co146  1  0.00621258  0.75944670  0.70895572  1
  Co  Co147  1  0.32485842  0.28705961  0.22743687  1
  Co  Co148  1  0.87577624  0.70302665  0.43866155  1
  Co  Co149  1  0.61061741  0.30272169  0.34838028  1
  Co  Co150  1  1.01916278  0.68996831  0.52936381  1
  Co  Co151  1  0.32559073  0.85621701  0.29030489  1
  Co  Co152  1  0.94074202  0.25611199  0.04596452  1
  Co  Co153  1  0.82103392  0.26272251  0.93385780  1
  Co  Co154  1  0.92084995  0.63138306  0.77383004  1
  Co  Co155  1  0.21965872  0.34354015  0.61738871  1
  Co  Co156  1  0.50908207  0.37468162  0.07830358  1
  Co  Co157  1  0.48053036  0.58494650  0.89041494  1
  Co  Co158  1  0.22615866  0.87863502  0.56326785  1
  Co  Co159  1  0.59758704  0.68616400  0.56941631  1
  Co  Co160  1  0.86770908  0.83516083  0.73866728  1
  Co  Co161  1  0.39620440  0.12792065  0.00234539  1
  Ni  Ni162  1  0.37944682  0.47723834  0.36232850  1
  Ni  Ni163  1  0.33922510  0.17568986  0.34279829  1
  Ni  Ni164  1  0.70474425  0.41295275  0.69602375  1
  Ni  Ni165  1  0.56193994  0.47490259  0.23746645  1
  Ni  Ni166  1  0.21727532  0.04011698  0.50003784  1
  Ni  Ni167  1  0.04773354  0.40098933  0.73086054  1
  Ni  Ni168  1  0.06958110  0.83102769  0.57674216  1
  Ni  Ni169  1  0.21768878  0.42183746  0.96183414  1
  Ni  Ni170  1  0.92564519  0.13032112  0.65064909  1
  Ni  Ni171  1  0.79097439  0.94588004  0.62591910  1
  Ni  Ni172  1  0.16421656  0.57780045  0.95546055  1
  Ni  Ni173  1  0.78402343  0.48166221  0.48558073  1
  Ni  Ni174  1  0.37827439  0.27972228  0.54772070  1
  Ni  Ni175  1  0.74758027  0.05615181  0.07401939  1
  Ni  Ni176  1  0.57629494  0.12558508  0.74690226  1
  Ni  Ni177  1  0.42469785  0.17454821  0.74235839  1
  Ni  Ni178  1  0.50790386  0.03978700  0.50531162  1
  Ni  Ni179  1  0.70485657  0.85934315  0.73941310  1
  Ni  Ni180  1  0.15058163  0.21632852  0.87031443  1
  Ni  Ni181  1  0.24211568  0.71054050  0.87251562  1
  Ni  Ni182  1  0.71006462  0.17361788  0.32178144  1
  Ni  Ni183  1  0.11931554  0.54029657  0.51355050  1
  Ni  Ni184  1  0.22031380  0.39154655  0.26917100  1
  Ni  Ni185  1  0.13717330  0.63127462  0.21848177  1
  Ni  Ni186  1  0.37929674  0.97676806  0.19777177  1
  Ni  Ni187  1  0.75544684  0.06636606  0.44316598  1
  Ni  Ni188  1  0.70537561  0.03578181  0.76306529  1
  Ni  Ni189  1  0.02237625  0.11032783  0.39186255  1
  Ni  Ni190  1  0.41711871  0.76319812  0.39669639  1
  Ni  Ni191  1  0.68864053  0.54664863  0.61048005  1
  Ni  Ni192  1  0.05261209  0.81291397  0.08491186  1
  Ni  Ni193  1  0.42284304  0.69136199  0.12720258  1
  Ni  Ni194  1  0.46435481  0.88272342  0.95177134  1
  Ni  Ni195  1  0.54577697  0.22404874  0.11962663  1
  Ni  Ni196  1  0.94746182  0.68849776  0.25904970  1
  Ni  Ni197  1  0.29361125  0.59191316  0.11596168  1
  Ni  Ni198  1  0.45314336  0.92934361  0.61818271  1
  Ni  Ni199  1  0.79120752  0.27547241  0.59336726  1
  Ni  Ni200  1  0.57156813  0.91493023  0.81773541  1
  Ni  Ni201  1  0.82336342  0.91706362  0.42424147  1
  Ni  Ni202  1  0.02814632  0.05706726  0.73912572  1
  Ni  Ni203  1  0.36311147  0.56936248  0.65251824  1
  Ni  Ni204  1  0.98874304  0.44081674  0.58593361  1
  Ni  Ni205  1  0.60326671  0.53728730  0.45723674  1
  Ni  Ni206  1  0.89862002  0.40877122  0.32804033  1
  Ni  Ni207  1  1.00251391  0.27014062  0.39222144  1
  Ni  Ni208  1  0.63119963  0.65812140  0.84285943  1
  Ni  Ni209  1  0.51709413  0.63551386  0.71262217  1
  Ni  Ni210  1  0.22792451  0.94385578  0.76925141  1
  Ni  Ni211  1  0.81739162  0.74031120  0.01282862  1
  Ni  Ni212  1  0.81919718  0.18230260  0.77821843  1
  Ni  Ni213  1  0.03507428  0.46795965  0.39487460  1
  Ni  Ni214  1  0.85922651  0.96204853  0.12789036  1
  Ni  Ni215  1  0.80704025  0.87030572  0.88744857  1
