# generated using pymatgen
data_Ti2CoNi
_symmetry_space_group_name_H-M   'P 1'
_cell_length_a   14.63188056
_cell_length_b   14.65487647
_cell_length_c   14.66184486
_cell_angle_alpha   90.00150956
_cell_angle_beta   89.88540301
_cell_angle_gamma   89.98097579
_symmetry_Int_Tables_number   1
_chemical_formula_structural   Ti2CoNi
_chemical_formula_sum   'Ti108 Co54 Ni54'
_cell_volume   3143.90950317
_cell_formula_units_Z   54
loop_
 _symmetry_equiv_pos_site_id
 _symmetry_equiv_pos_as_xyz
  1  'x, y, z'
loop_
 _atom_site_type_symbol
 _atom_site_label
 _atom_site_symmetry_multiplicity
 _atom_site_fract_x
 _atom_site_fract_y
 _atom_site_fract_z
 _atom_site_occupancy
  Ti  Ti0  1  0.00489643  -0.07491235  0.03873666  1
  Ti  Ti1  1  -0.05967523  -0.01626030  0.25268183  1
  Ti  Ti2  1  0.03231921  0.01654250  0.73257262  1
  Ti  Ti3  1  -0.01103299  0.30233286  0.03798096  1
  Ti  Ti4  1  -0.05234750  0.37448008  0.35177931  1
  Ti  Ti5  1  -0.01433272  0.38637616  0.65155939  1
  Ti  Ti6  1  -0.02625773  0.58442824  -0.04859713  1
  Ti  Ti7  1  0.01180549  0.65457565  0.35713044  1
  Ti  Ti8  1  -0.02615649  0.72004179  0.65875242  1
  Ti  Ti9  1  0.30000538  0.00878631  0.01956701  1
  Ti  Ti10  1  0.35117689  0.07494937  0.25342025  1
  Ti  Ti11  1  0.31463267  -0.03530471  0.70659937  1
  Ti  Ti12  1  0.39013408  0.30162315  -0.05729580  1
  Ti  Ti13  1  0.27350597  0.27225403  0.30972862  1
  Ti  Ti14  1  0.27156613  0.32792002  0.57273911  1
  Ti  Ti15  1  0.34811379  0.70995607  0.06624596  1
  Ti  Ti16  1  0.34364221  0.66894164  0.29816245  1
  Ti  Ti17  1  0.31074860  0.68645306  0.72904128  1
  Ti  Ti18  1  0.62907345  -0.00326688  0.06418776  1
  Ti  Ti19  1  0.64112448  0.01672934  0.26359182  1
  Ti  Ti20  1  0.62144302  -0.06655677  0.63173041  1
  Ti  Ti21  1  0.70617598  0.30594683  0.10355500  1
  Ti  Ti22  1  0.70167604  0.38889505  0.31070598  1
  Ti  Ti23  1  0.61878661  0.41994106  0.67209489  1
  Ti  Ti24  1  0.61087681  0.68291968  -0.07687721  1
  Ti  Ti25  1  0.71356171  0.65010068  0.23324248  1
  Ti  Ti26  1  0.63037716  0.60430433  0.63115161  1
  Ti  Ti27  1  -0.02796007  0.18255341  0.21906233  1
  Ti  Ti28  1  0.02091187  0.12514408  0.54824182  1
  Ti  Ti29  1  0.09253185  0.18459421  0.81167794  1
  Ti  Ti30  1  0.07404898  0.51048506  0.19773329  1
  Ti  Ti31  1  0.03918976  0.55015058  0.53736392  1
  Ti  Ti32  1  0.01049958  0.43328394  0.84191064  1
  Ti  Ti33  1  0.03731622  0.80130777  0.21038409  1
  Ti  Ti34  1  -0.02246866  0.89374274  0.58856213  1
  Ti  Ti35  1  -0.04929974  0.83831633  0.86044857  1
  Ti  Ti36  1  0.34893929  0.18702586  0.08994849  1
  Ti  Ti37  1  0.34629320  0.18943404  0.46674119  1
  Ti  Ti38  1  0.37378448  0.15081925  0.80203297  1
  Ti  Ti39  1  0.27753324  0.52000869  0.14738822  1
  Ti  Ti40  1  0.34709691  0.50248214  0.53627243  1
  Ti  Ti41  1  0.36762637  0.52391904  0.85640132  1
  Ti  Ti42  1  0.35427104  0.87769818  0.30193597  1
  Ti  Ti43  1  0.31295659  0.91264967  0.50281296  1
  Ti  Ti44  1  0.31053206  0.83044574  0.89936934  1
  Ti  Ti45  1  0.68157101  0.20064565  0.27297872  1
  Ti  Ti46  1  0.66531186  0.20666606  0.46609672  1
  Ti  Ti47  1  0.67377593  0.11934830  0.79274101  1
  Ti  Ti48  1  0.59410076  0.49284878  0.17969016  1
  Ti  Ti49  1  0.65535682  0.40921131  0.48783370  1
  Ti  Ti50  1  0.68046330  0.48194214  0.88165653  1
  Ti  Ti51  1  0.69536012  0.83974917  0.17649398  1
  Ti  Ti52  1  0.68531081  0.90096848  0.43710631  1
  Ti  Ti53  1  0.68401015  0.86660457  0.82221912  1
  Ti  Ti54  1  0.19024044  -0.05493550  0.18881651  1
  Ti  Ti55  1  0.09966947  -0.03757896  0.46406810  1
  Ti  Ti56  1  0.16404912  -0.00946817  0.88225317  1
  Ti  Ti57  1  0.14907969  0.25803005  0.15223712  1
  Ti  Ti58  1  0.10210399  0.36255755  0.46220328  1
  Ti  Ti59  1  0.23581827  0.37104151  0.84777525  1
  Ti  Ti60  1  0.15401122  0.65595962  0.09361438  1
  Ti  Ti61  1  0.20105675  0.64615798  0.45404151  1
  Ti  Ti62  1  0.10056036  0.69263910  0.80288241  1
  Ti  Ti63  1  0.48301045  -0.05494916  0.17790227  1
  Ti  Ti64  1  0.51813417  0.05134005  0.51055431  1
  Ti  Ti65  1  0.54299970  0.01320936  0.88484362  1
  Ti  Ti66  1  0.41222983  0.41236871  0.23616572  1
  Ti  Ti67  1  0.48289302  0.33047440  0.54122266  1
  Ti  Ti68  1  0.53144870  0.37201670  0.84722787  1
  Ti  Ti69  1  0.56146826  0.69927361  0.11815714  1
  Ti  Ti70  1  0.53719281  0.68062903  0.46015914  1
  Ti  Ti71  1  0.53571084  0.72120897  0.74813772  1
  Ti  Ti72  1  0.82438968  0.03109666  0.09833680  1
  Ti  Ti73  1  0.87828109  -0.02143585  0.44567797  1
  Ti  Ti74  1  0.85093597  0.02361662  0.82712773  1
  Ti  Ti75  1  0.87539909  0.38940685  0.16298007  1
  Ti  Ti76  1  0.80472329  0.35678124  0.59414041  1
  Ti  Ti77  1  0.83405510  0.32734092  0.78721669  1
  Ti  Ti78  1  0.84680980  0.58353632  0.09674851  1
  Ti  Ti79  1  0.74194183  0.69828340  0.48603283  1
  Ti  Ti80  1  0.86221369  0.65205321  0.81923866  1
  Ti  Ti81  1  0.09713967  0.13564469  0.00582681  1
  Ti  Ti82  1  0.15126506  0.11124571  0.31708242  1
  Ti  Ti83  1  0.21175124  0.13614222  0.61465269  1
  Ti  Ti84  1  0.15635703  0.52264941  -0.04888862  1
  Ti  Ti85  1  0.26801678  0.48628450  0.35732206  1
  Ti  Ti86  1  0.17404975  0.45842491  0.67538770  1
  Ti  Ti87  1  0.17794731  0.83051516  0.04016114  1
  Ti  Ti88  1  0.17498647  0.80635444  0.36147827  1
  Ti  Ti89  1  0.17114625  0.80605556  0.60187823  1
  Ti  Ti90  1  0.54348191  0.21031770  0.04189063  1
  Ti  Ti91  1  0.50156050  0.15810160  0.34554436  1
  Ti  Ti92  1  0.53201566  0.22545875  0.69515385  1
  Ti  Ti93  1  0.45741092  0.50809177  0.03256378  1
  Ti  Ti94  1  0.50324853  0.48841297  0.38060637  1
  Ti  Ti95  1  0.43814037  0.47074218  0.69028017  1
  Ti  Ti96  1  0.46850967  0.86105584  0.01689039  1
  Ti  Ti97  1  0.53795469  0.81731458  0.32004302  1
  Ti  Ti98  1  0.44678255  0.79021833  0.59584462  1
  Ti  Ti99  1  0.81622989  0.18659217  -0.03938438  1
  Ti  Ti100  1  0.86424813  0.17826283  0.40620133  1
  Ti  Ti101  1  0.79869112  0.16013429  0.63613393  1
  Ti  Ti102  1  0.85185897  0.41206855  -0.03969115  1
  Ti  Ti103  1  0.82612107  0.53872415  0.38353551  1
  Ti  Ti104  1  0.87795414  0.54900047  0.65481897  1
  Ti  Ti105  1  0.80710028  0.86643283  0.00028059  1
  Ti  Ti106  1  0.84626712  0.79393463  0.33459654  1
  Ti  Ti107  1  0.77980123  0.77305775  0.66809194  1
  Co  Co108  1  0.05795130  0.85239493  0.72868793  1
  Co  Co109  1  0.69631977  0.13484898  0.12455745  1
  Co  Co110  1  0.39174327  0.82626627  0.76159483  1
  Co  Co111  1  0.22105067  0.69740491  0.91165362  1
  Co  Co112  1  0.18827652  0.49071945  0.51380007  1
  Co  Co113  1  0.38988969  0.61812402  0.44583934  1
  Co  Co114  1  0.22986448  0.27739471  0.00029189  1
  Co  Co115  1  0.30265769  0.58791228  -0.01078327  1
  Co  Co116  1  0.75264495  0.00231011  0.69914614  1
  Co  Co117  1  0.53593295  0.19727331  0.86008351  1
  Co  Co118  1  0.19172104  0.40112770  0.24663895  1
  Co  Co119  1  0.30417391  0.42868669  0.99746042  1
  Co  Co120  1  0.52353354  0.91096285  0.75414144  1
  Co  Co121  1  0.81684675  0.10467076  0.24601796  1
  Co  Co122  1  0.22521246  0.06165859  0.48032996  1
  Co  Co123  1  0.44741531  0.95132750  0.61471710  1
  Co  Co124  1  0.00385438  0.09164285  0.38504295  1
  Co  Co125  1  0.67811048  0.75041309  0.34751983  1
  Co  Co126  1  0.21687903  0.08299781  0.76504000  1
  Co  Co127  1  0.76719803  0.50076413  0.22219686  1
  Co  Co128  1  0.63607558  0.10602967  0.62134291  1
  Co  Co129  1  0.30277981  0.70908760  0.55921705  1
  Co  Co130  1  0.45781866  0.34548089  0.09117270  1
  Co  Co131  1  0.51608908  0.82047106  0.87886473  1
  Co  Co132  1  0.66228529  0.27055740  0.60539481  1
  Co  Co133  1  0.08048502  0.95026443  0.30321212  1
  Co  Co134  1  0.38101820  0.77965930  0.42874533  1
  Co  Co135  1  0.09895879  0.33038681  0.75403890  1
  Co  Co136  1  0.21981969  0.84019469  0.75673561  1
  Co  Co137  1  0.72529197  0.98796548  0.92510120  1
  Co  Co138  1  0.84457787  0.21447241  0.11870627  1
  Co  Co139  1  0.52039598  0.88030006  0.47684873  1
  Co  Co140  1  0.15359001  0.97637521  0.62836386  1
  Co  Co141  1  0.79319669  0.90817205  0.57218144  1
  Co  Co142  1  0.73808093  0.45878891  0.06152191  1
  Co  Co143  1  0.43732493  0.62583788  0.62339452  1
  Co  Co144  1  0.17383269  0.21499107  0.45456849  1
  Co  Co145  1  0.87980033  0.88783121  0.72423109  1
  Co  Co146  1  0.77947055  0.59097535  0.94678907  1
  Co  Co147  1  0.50149084  0.06654929  0.72535185  1
  Co  Co148  1  0.08912272  0.50822844  0.36980879  1
  Co  Co149  1  0.23477804  0.96771638  0.35375177  1
  Co  Co150  1  0.80571124  0.33072679  0.42858615  1
  Co  Co151  1  0.37296802  0.04068331  0.41103804  1
  Co  Co152  1  0.52637884  0.51143172  0.53991456  1
  Co  Co153  1  0.90952016  0.45115996  0.50139986  1
  Co  Co154  1  0.82882120  0.27313440  0.27043788  1
  Co  Co155  1  0.30092860  0.34265419  0.13542147  1
  Co  Co156  1  0.09773998  0.31490670  0.92442516  1
  Co  Co157  1  0.99804736  0.47044612  0.05771211  1
  Co  Co158  1  0.50317847  0.98062195  0.34199757  1
  Co  Co159  1  0.62740515  0.57005756  0.03813938  1
  Co  Co160  1  0.93175716  0.51403527  0.26132866  1
  Co  Co161  1  0.90013282  0.03558124  0.63406903  1
  Ni  Ni162  1  0.09109841  0.27469775  0.31429893  1
  Ni  Ni163  1  0.32981155  0.87786084  0.11743918  1
  Ni  Ni164  1  0.62577791  0.77518028  0.58038296  1
  Ni  Ni165  1  0.05690259  0.72754184  0.97425010  1
  Ni  Ni166  1  1.00063575  0.83607320  0.38838823  1
  Ni  Ni167  1  0.75736462  0.47947320  0.73233466  1
  Ni  Ni168  1  0.99646407  0.03998183  0.90953439  1
  Ni  Ni169  1  0.15450021  0.40868270  0.07554747  1
  Ni  Ni170  1  -0.00943198  0.67077470  0.11360383  1
  Ni  Ni171  1  0.72949014  0.71158534  0.05993744  1
  Ni  Ni172  1  0.41276515  0.68712799  0.88953146  1
  Ni  Ni173  1  0.75579533  0.53161653  0.54583331  1
  Ni  Ni174  1  0.65643822  0.56606009  0.40519000  1
  Ni  Ni175  1  0.38275224  0.35688316  0.40873653  1
  Ni  Ni176  1  0.87381307  0.85053801  0.16081575  1
  Ni  Ni177  1  0.63942827  0.84020024  -0.00519760  1
  Ni  Ni178  1  0.52477590  0.11525603  0.17989412  1
  Ni  Ni179  1  0.21581563  0.10435685  0.14357972  1
  Ni  Ni180  1  0.42413551  0.24514827  0.22746129  1
  Ni  Ni181  1  0.23284413  0.76944169  0.19781990  1
  Ni  Ni182  1  0.54483112  0.55374185  0.79718031  1
  Ni  Ni183  1  0.94966376  0.25089689  0.87775654  1
  Ni  Ni184  1  0.65918862  0.13078513  0.96075072  1
  Ni  Ni185  1  0.15659532  0.63735855  0.63020693  1
  Ni  Ni186  1  0.73524391  0.06522780  0.39305986  1
  Ni  Ni187  1  0.56955807  0.32220897  0.21384822  1
  Ni  Ni188  1  0.16963303  0.63823659  0.27876422  1
  Ni  Ni189  1  0.43320683  0.76930308  0.19228792  1
  Ni  Ni190  1  0.88718928  0.72413801  0.98033241  1
  Ni  Ni191  1  0.05815585  0.05188266  0.14734045  1
  Ni  Ni192  1  0.10216940  0.26713682  0.60431473  1
  Ni  Ni193  1  0.95732380  0.21743631  0.68927224  1
  Ni  Ni194  1  0.69777625  0.64373521  0.78406944  1
  Ni  Ni195  1  0.78456773  0.93985144  0.28149134  1
  Ni  Ni196  1  0.89805470  0.63004556  0.50579974  1
  Ni  Ni197  1  0.38752733  0.32676818  0.76546233  1
  Ni  Ni198  1  1.03342298  0.55862903  0.72637600  1
  Ni  Ni199  1  0.58602572  0.39982227  1.01086731  1
  Ni  Ni200  1  0.24414958  0.25203450  0.73101614  1
  Ni  Ni201  1  0.38142729  0.98225843  0.86557880  1
  Ni  Ni202  1  0.54543535  0.31565592  0.37891984  1
  Ni  Ni203  1  0.88408064  0.79094433  0.50059092  1
  Ni  Ni204  1  0.04988497  0.72858899  0.50759326  1
  Ni  Ni205  1  0.54977379  0.63782413  0.29113336  1
  Ni  Ni206  1  0.11794258  0.84131219  0.88500879  1
  Ni  Ni207  1  0.94786810  0.28318634  0.52297118  1
  Ni  Ni208  1  0.37788079  0.20730075  0.63324526  1
  Ni  Ni209  1  0.43581628  0.58364437  0.18734508  1
  Ni  Ni210  1  0.25119350  0.14151592  0.91769700  1
  Ni  Ni211  1  0.21110300  0.56242832  0.79354090  1
  Ni  Ni212  1  0.68261005  0.29387502  0.92755825  1
  Ni  Ni213  1  0.67554172  0.29622069  0.76699451  1
  Ni  Ni214  1  0.88903975  0.66937902  0.24141535  1
  Ni  Ni215  1  0.45942726  0.04733620  0.03568467  1
