# generated using pymatgen
data_Ti2CoNi
_symmetry_space_group_name_H-M   'P 1'
_cell_length_a   14.55678077
_cell_length_b   14.53812955
_cell_length_c   14.57876938
_cell_angle_alpha   89.97166568
_cell_angle_beta   89.91342791
_cell_angle_gamma   90.17936863
_symmetry_Int_Tables_number   1
_chemical_formula_structural   Ti2CoNi
_chemical_formula_sum   'Ti108 Co54 Ni54'
_cell_volume   3085.26209851
_cell_formula_units_Z   54
loop_
 _symmetry_equiv_pos_site_id
 _symmetry_equiv_pos_as_xyz
  1  'x, y, z'
loop_
 _atom_site_type_symbol
 _atom_site_label
 _atom_site_symmetry_multiplicity
 _atom_site_fract_x
 _atom_site_fract_y
 _atom_site_fract_z
 _atom_site_occupancy
  Ti  Ti0  1  -0.01918959  -0.03368574  0.00667182  1
  Ti  Ti1  1  0.04745274  0.02528934  0.29655312  1
  Ti  Ti2  1  -0.01467467  -0.00824397  0.60429078  1
  Ti  Ti3  1  -0.01724197  0.31651119  0.02015053  1
  Ti  Ti4  1  -0.01129465  0.25095224  0.32837806  1
  Ti  Ti5  1  -0.06334948  0.33594358  0.61445257  1
  Ti  Ti6  1  0.03706132  0.76038887  -0.03211926  1
  Ti  Ti7  1  -0.03749536  0.77213831  0.34917113  1
  Ti  Ti8  1  0.00436597  0.67342294  0.64370194  1
  Ti  Ti9  1  0.31376731  0.06175720  -0.04600747  1
  Ti  Ti10  1  0.31879647  -0.07838393  0.29131412  1
  Ti  Ti11  1  0.45242986  -0.00534345  0.73210609  1
  Ti  Ti12  1  0.31116604  0.35397397  -0.02679696  1
  Ti  Ti13  1  0.31005341  0.39594563  0.29436258  1
  Ti  Ti14  1  0.40503253  0.41003709  0.60713690  1
  Ti  Ti15  1  0.27395883  0.65463955  -0.01022103  1
  Ti  Ti16  1  0.33376125  0.71635616  0.34544649  1
  Ti  Ti17  1  0.24798498  0.66553172  0.75300340  1
  Ti  Ti18  1  0.68443002  0.06317605  -0.02043292  1
  Ti  Ti19  1  0.60243166  -0.05102897  0.26125841  1
  Ti  Ti20  1  0.73074415  0.04198053  0.69606431  1
  Ti  Ti21  1  0.63808055  0.33094782  0.07455473  1
  Ti  Ti22  1  0.61159679  0.40705788  0.30679005  1
  Ti  Ti23  1  0.65884131  0.31813426  0.64730751  1
  Ti  Ti24  1  0.62985189  0.65488304  -0.00096592  1
  Ti  Ti25  1  0.63079161  0.62672197  0.32999631  1
  Ti  Ti26  1  0.72387862  0.59491089  0.66556351  1
  Ti  Ti27  1  -0.11543869  0.21131069  0.13889950  1
  Ti  Ti28  1  0.06924663  0.08879263  0.47385663  1
  Ti  Ti29  1  0.03650901  0.23086849  0.85484073  1
  Ti  Ti30  1  0.02991023  0.49860015  0.19760447  1
  Ti  Ti31  1  0.02983918  0.51501283  0.50866647  1
  Ti  Ti32  1  0.02180706  0.50431495  0.73030140  1
  Ti  Ti33  1  0.03263560  0.83038418  0.16695131  1
  Ti  Ti34  1  -0.02897496  0.81719273  0.53023772  1
  Ti  Ti35  1  0.07309886  0.89641011  0.85029684  1
  Ti  Ti36  1  0.35083391  0.11484447  0.28290162  1
  Ti  Ti37  1  0.33770956  0.10224661  0.49449472  1
  Ti  Ti38  1  0.36744951  0.26087191  0.75129595  1
  Ti  Ti39  1  0.34634737  0.58628950  0.17247555  1
  Ti  Ti40  1  0.29663205  0.51868543  0.47617603  1
  Ti  Ti41  1  0.37203076  0.47731872  0.79695553  1
  Ti  Ti42  1  0.30822796  0.78508613  0.16732071  1
  Ti  Ti43  1  0.29977919  0.88149551  0.47609681  1
  Ti  Ti44  1  0.36804702  0.82408216  0.85202645  1
  Ti  Ti45  1  0.63259374  0.21563491  0.24916260  1
  Ti  Ti46  1  0.65398805  0.14883694  0.51812106  1
  Ti  Ti47  1  0.73593267  0.22744621  0.80429406  1
  Ti  Ti48  1  0.57230291  0.51794243  0.14418777  1
  Ti  Ti49  1  0.72361507  0.43137290  0.51969203  1
  Ti  Ti50  1  0.68047158  0.53309185  0.87749737  1
  Ti  Ti51  1  0.67596121  0.85344329  0.10789511  1
  Ti  Ti52  1  0.66947757  0.77193994  0.55716933  1
  Ti  Ti53  1  0.70772222  0.85752408  0.84790959  1
  Ti  Ti54  1  0.09717928  0.03555861  0.12115794  1
  Ti  Ti55  1  0.19275362  0.00831757  0.59628079  1
  Ti  Ti56  1  0.22066407  0.00722085  0.80513957  1
  Ti  Ti57  1  0.15850029  0.35958767  0.12284034  1
  Ti  Ti58  1  0.17300984  0.24859120  0.45465645  1
  Ti  Ti59  1  0.20947091  0.33980760  0.79160985  1
  Ti  Ti60  1  0.08564321  0.60125676  0.06297511  1
  Ti  Ti61  1  0.24064275  0.69446466  0.51450690  1
  Ti  Ti62  1  0.12378104  0.61064160  0.87480333  1
  Ti  Ti63  1  0.43956544  0.01563860  0.15184705  1
  Ti  Ti64  1  0.51599858  -0.07149607  0.51837279  1
  Ti  Ti65  1  0.55035559  -0.04169389  0.87314352  1
  Ti  Ti66  1  0.45925354  0.32493746  0.10938688  1
  Ti  Ti67  1  0.55585301  0.34265188  0.50005671  1
  Ti  Ti68  1  0.52207818  0.26142609  0.87599816  1
  Ti  Ti69  1  0.53992704  0.70943470  0.16783576  1
  Ti  Ti70  1  0.45480947  0.62731829  0.58319741  1
  Ti  Ti71  1  0.46226411  0.64561312  0.89192963  1
  Ti  Ti72  1  0.78798118  0.02956309  0.13120128  1
  Ti  Ti73  1  0.82017663  0.04646616  0.51334320  1
  Ti  Ti74  1  0.88977241  -0.05876269  0.79410596  1
  Ti  Ti75  1  0.83668742  0.39782682  0.20016510  1
  Ti  Ti76  1  0.82917349  0.26346191  0.46144759  1
  Ti  Ti77  1  0.79507380  0.37690584  0.91344301  1
  Ti  Ti78  1  0.85877540  0.60711760  0.15810774  1
  Ti  Ti79  1  0.79233485  0.59307937  0.47460283  1
  Ti  Ti80  1  0.82187640  0.69635689  0.87966241  1
  Ti  Ti81  1  0.20496192  0.17242230  0.06071792  1
  Ti  Ti82  1  0.18273124  0.21146520  0.26478492  1
  Ti  Ti83  1  0.14582211  0.16479259  0.70335108  1
  Ti  Ti84  1  0.09780721  0.43586416  -0.07865298  1
  Ti  Ti85  1  0.09702559  0.59461722  0.35266686  1
  Ti  Ti86  1  0.16358416  0.39154526  0.60048128  1
  Ti  Ti87  1  0.20327902  0.89967039  0.00858731  1
  Ti  Ti88  1  0.15719133  0.77952076  0.33295480  1
  Ti  Ti89  1  0.15246830  0.82976134  0.66511138  1
  Ti  Ti90  1  0.50374555  0.12025407  -0.00349650  1
  Ti  Ti91  1  0.49257841  0.20410784  0.39969386  1
  Ti  Ti92  1  0.47196068  0.17089139  0.62244771  1
  Ti  Ti93  1  0.50954721  0.46138938  -0.03417896  1
  Ti  Ti94  1  0.49240543  0.52602879  0.42579734  1
  Ti  Ti95  1  0.53725846  0.55278726  0.74523679  1
  Ti  Ti96  1  0.53068074  0.80612248  -0.01348371  1
  Ti  Ti97  1  0.49869059  0.80113979  0.34318297  1
  Ti  Ti98  1  0.46956775  0.81583277  0.66436249  1
  Ti  Ti99  1  0.85543323  0.17091457  -0.04940981  1
  Ti  Ti100  1  0.75180096  0.07662270  0.32311453  1
  Ti  Ti101  1  0.91993505  0.14118000  0.71904989  1
  Ti  Ti102  1  0.91833864  0.48708696  0.01852302  1
  Ti  Ti103  1  0.89744864  0.56141265  0.33220197  1
  Ti  Ti104  1  0.83345102  0.44576044  0.73352287  1
  Ti  Ti105  1  0.86031544  0.83273882  0.07660584  1
  Ti  Ti106  1  0.79657199  0.88655897  0.40643030  1
  Ti  Ti107  1  0.81632343  0.87281984  0.63690626  1
  Co  Co108  1  0.05217261  0.34074146  0.73324034  1
  Co  Co109  1  0.46224257  0.63582131  0.05116789  1
  Co  Co110  1  0.98780970  0.42648461  0.33743793  1
  Co  Co111  1  0.84352923  0.70726715  0.59095220  1
  Co  Co112  1  0.72571892  0.18379516  0.11038278  1
  Co  Co113  1  0.18908595  0.65758169  0.21087045  1
  Co  Co114  1  0.80308773  0.31907129  0.05259146  1
  Co  Co115  1  0.42635297  0.38137694  0.40974592  1
  Co  Co116  1  0.17533847  0.89347337  0.19483563  1
  Co  Co117  1  0.28167211  0.99951639  0.11306095  1
  Co  Co118  1  0.39277414  0.26672066  0.52738441  1
  Co  Co119  1  0.07537301  0.23253344  0.58822953  1
  Co  Co120  1  0.95016822  0.41428277  0.85958412  1
  Co  Co121  1  0.63401991  0.86126008  0.41080449  1
  Co  Co122  1  0.53429124  0.79559643  0.81627873  1
  Co  Co123  1  0.21387484  0.09242432  0.39664342  1
  Co  Co124  1  0.41269393  0.67110096  0.73979778  1
  Co  Co125  1  0.44638060  0.12436103  0.81897412  1
  Co  Co126  1  0.52711468  0.08716547  0.29699107  1
  Co  Co127  1  0.67487403  0.22756921  0.95784751  1
  Co  Co128  1  0.62347349  0.02811006  0.41676135  1
  Co  Co129  1  0.90197528  0.83523301  0.91521702  1
  Co  Co130  1  0.13114280  0.86727506  0.50408055  1
  Co  Co131  1  0.20717374  0.04456097  0.24399737  1
  Co  Co132  1  0.46210808  0.21235218  0.21737582  1
  Co  Co133  1  0.46563966  0.46057157  0.25760293  1
  Co  Co134  1  0.25771156  0.58190868  0.33965750  1
  Co  Co135  1  0.94384742  0.65397450  0.47102527  1
  Co  Co136  1  0.30252795  0.28051447  0.16647188  1
  Co  Co137  1  0.12931562  1.05049536  0.94085651  1
  Co  Co138  1  0.18150044  0.49160435  0.74341023  1
  Co  Co139  1  0.36981164  0.21499442  0.93920393  1
  Co  Co140  1  0.25451050  0.24809943  0.60958719  1
  Co  Co141  1  0.36426268  0.15417896  0.09565707  1
  Co  Co142  1  0.32551745  0.24037524  0.37711409  1
  Co  Co143  1  0.24670349  0.50159728  0.88644273  1
  Co  Co144  1  0.66441745  0.78282858  0.26862552  1
  Co  Co145  1  0.34355228  0.43535562  0.12558533  1
  Co  Co146  1  0.62728619  0.88346680  0.69792659  1
  Co  Co147  1  0.64797689  0.68208536  0.82917947  1
  Co  Co148  1  0.36620106  0.51973943  0.98664347  1
  Co  Co149  1  0.16261120  0.94075409  0.36874645  1
  Co  Co150  1  0.87369395  0.62205467  0.73661559  1
  Co  Co151  1  0.88881237  0.28674007  0.78450044  1
  Co  Co152  1  0.61200226  0.10463943  0.84053158  1
  Co  Co153  1  0.09078717  0.70344984  0.48681898  1
  Co  Co154  1  0.92259657  0.67238632  0.02217895  1
  Co  Co155  1  0.20997748  0.50183927  0.04837257  1
  Co  Co156  1  0.88969903  0.53303026  0.60288736  1
  Co  Co157  1  0.78987876  0.06451381  0.84180860  1
  Co  Co158  1  0.75471595  0.75091428  0.72210225  1
  Co  Co159  1  0.99034255  0.85273119  0.69675889  1
  Co  Co160  1  0.27853767  0.36619521  0.47613435  1
  Co  Co161  1  0.58692431  0.70429208  0.68219068  1
  Ni  Ni162  1  0.29956745  0.89847300  0.72369924  1
  Ni  Ni163  1  0.73797589  0.52861879  0.25434067  1
  Ni  Ni164  1  0.41837294  0.76053673  0.49329453  1
  Ni  Ni165  1  0.15162556  0.58132820  0.60614891  1
  Ni  Ni166  1  0.68926092  0.94666313  0.54762039  1
  Ni  Ni167  1  0.51021589  0.37083011  0.73812019  1
  Ni  Ni168  1  0.19933710  0.49398843  0.21682059  1
  Ni  Ni169  1  0.03062286  0.34141694  0.47073462  1
  Ni  Ni170  1  0.77202578  0.90814808  0.24265158  1
  Ni  Ni171  1  0.15117401  0.28509257  0.95838008  1
  Ni  Ni172  1  0.16016591  0.75547281  0.08700310  1
  Ni  Ni173  1  0.37281199  0.78081458  0.01935454  1
  Ni  Ni174  1  0.80946878  0.23604376  0.29294698  1
  Ni  Ni175  1  0.22731444  0.17523994  0.85633076  1
  Ni  Ni176  1  0.90834158  0.09863227  0.24156084  1
  Ni  Ni177  1  0.82075337  0.97111575  0.96941917  1
  Ni  Ni178  1  0.66807504  0.44694128  0.73661047  1
  Ni  Ni179  1  0.57829389  0.03246812  0.63140196  1
  Ni  Ni180  1  0.41026625  0.93729209  0.98390750  1
  Ni  Ni181  1  0.36363761  0.97145217  0.59551080  1
  Ni  Ni182  1  0.63183088  0.37484879  0.87945878  1
  Ni  Ni183  1  0.01166866  0.67318902  0.21637002  1
  Ni  Ni184  1  0.78452032  0.40066528  0.35584508  1
  Ni  Ni185  1  0.97570346  0.94565253  0.42642637  1
  Ni  Ni186  1  0.84314284  0.76122184  0.23643695  1
  Ni  Ni187  1  0.19647664  0.77597604  0.88123237  1
  Ni  Ni188  1  0.31737405  0.76459888  0.63772269  1
  Ni  Ni189  1  0.91395950  0.11483011  0.39859015  1
  Ni  Ni190  1  0.57293787  0.48160995  0.59599748  1
  Ni  Ni191  1  0.61534240  0.17343891  0.69973929  1
  Ni  Ni192  1  -0.04274310  0.58473801  0.87905194  1
  Ni  Ni193  1  0.73009448  0.47090619  0.08705478  1
  Ni  Ni194  1  0.78958576  0.57989737  0.99148751  1
  Ni  Ni195  1  0.93380310  0.16711867  0.55503954  1
  Ni  Ni196  1  0.06049888  0.01848535  0.74370434  1
  Ni  Ni197  1  0.44545357  -0.02161081  0.38076785  1
  Ni  Ni198  1  0.47390261  0.85502678  0.16886806  1
  Ni  Ni199  1  0.56427150  0.95989299  0.05182410  1
  Ni  Ni200  1  0.05282553  0.19055023  0.17099284  1
  Ni  Ni201  1  0.67526051  0.27293352  0.40183943  1
  Ni  Ni202  1  0.31384876  0.55392282  0.64583826  1
  Ni  Ni203  1  0.75271444  0.70777663  0.09101415  1
  Ni  Ni204  1  0.88836735  0.43297788  0.47344770  1
  Ni  Ni205  1  0.96997566  0.06919389  0.87318395  1
  Ni  Ni206  1  0.59511494  0.09130859  0.14566879  1
  Ni  Ni207  1  0.78616980  0.20379174  0.62650710  1
  Ni  Ni208  1  0.46192050  0.62533010  0.29120275  1
  Ni  Ni209  1  0.74518066  0.72985478  0.40303226  1
  Ni  Ni210  1  0.05864071  0.73424343  0.78917876  1
  Ni  Ni211  1  0.92500235  0.94524007  0.19840472  1
  Ni  Ni212  1  -0.00540016  0.34173897  0.18929156  1
  Ni  Ni213  1  0.01941869  0.15072936  0.01270285  1
  Ni  Ni214  1  0.62455141  0.61376401  0.50646233  1
  Ni  Ni215  1  0.31795598  0.10492999  0.69348416  1
