# generated using pymatgen
data_Ti2CoNi
_symmetry_space_group_name_H-M   'P 1'
_cell_length_a   14.63507530
_cell_length_b   14.59980694
_cell_length_c   14.57869095
_cell_angle_alpha   89.98288989
_cell_angle_beta   89.67060075
_cell_angle_gamma   89.89361664
_symmetry_Int_Tables_number   1
_chemical_formula_structural   Ti2CoNi
_chemical_formula_sum   'Ti108 Co54 Ni54'
_cell_volume   3114.96133347
_cell_formula_units_Z   54
loop_
 _symmetry_equiv_pos_site_id
 _symmetry_equiv_pos_as_xyz
  1  'x, y, z'
loop_
 _atom_site_type_symbol
 _atom_site_label
 _atom_site_symmetry_multiplicity
 _atom_site_fract_x
 _atom_site_fract_y
 _atom_site_fract_z
 _atom_site_occupancy
  Ti  Ti0  1  -0.01180693  -0.04079946  0.06476683  1
  Ti  Ti1  1  -0.09155825  -0.10331540  0.35344633  1
  Ti  Ti2  1  0.03035782  0.04987007  0.72736898  1
  Ti  Ti3  1  0.03433396  0.33687342  0.04474687  1
  Ti  Ti4  1  -0.00367408  0.31726483  0.25090063  1
  Ti  Ti5  1  -0.00734002  0.35000958  0.58588948  1
  Ti  Ti6  1  0.02764437  0.65542874  0.01934347  1
  Ti  Ti7  1  0.03426315  0.69326000  0.39837416  1
  Ti  Ti8  1  -0.03236273  0.65938162  0.70576219  1
  Ti  Ti9  1  0.26923570  -0.03209004  0.04521537  1
  Ti  Ti10  1  0.31607500  -0.06171200  0.27983324  1
  Ti  Ti11  1  0.29796576  -0.00002486  0.63311298  1
  Ti  Ti12  1  0.34526477  0.33850534  -0.00079194  1
  Ti  Ti13  1  0.39608979  0.27405894  0.35083124  1
  Ti  Ti14  1  0.37200369  0.32855065  0.66108613  1
  Ti  Ti15  1  0.33158581  0.64148603  -0.00637424  1
  Ti  Ti16  1  0.32242965  0.69578888  0.33012083  1
  Ti  Ti17  1  0.35816164  0.70437909  0.68182486  1
  Ti  Ti18  1  0.70509023  0.06137396  0.00920997  1
  Ti  Ti19  1  0.65486231  -0.00161516  0.32862286  1
  Ti  Ti20  1  0.73217289  -0.01724689  0.61127936  1
  Ti  Ti21  1  0.66142547  0.35847363  0.02603270  1
  Ti  Ti22  1  0.60151898  0.32138005  0.32406822  1
  Ti  Ti23  1  0.69233231  0.35175864  0.61477173  1
  Ti  Ti24  1  0.61169042  0.64895485  -0.00408544  1
  Ti  Ti25  1  0.65261005  0.65156947  0.37553555  1
  Ti  Ti26  1  0.60725227  0.65317211  0.65773166  1
  Ti  Ti27  1  -0.00540327  0.14353656  0.08839433  1
  Ti  Ti28  1  0.04847753  0.13568298  0.53975848  1
  Ti  Ti29  1  -0.10115734  0.17919227  0.81229275  1
  Ti  Ti30  1  0.00284778  0.49626711  0.14625235  1
  Ti  Ti31  1  -0.03714109  0.54650764  0.52346986  1
  Ti  Ti32  1  -0.03450514  0.47044902  0.77678017  1
  Ti  Ti33  1  0.01690267  0.77330620  0.17496361  1
  Ti  Ti34  1  0.07729498  0.87416555  0.50047189  1
  Ti  Ti35  1  -0.02087298  0.91330530  0.87056838  1
  Ti  Ti36  1  0.28505756  0.15314797  0.10095073  1
  Ti  Ti37  1  0.38265015  0.10787274  0.47214397  1
  Ti  Ti38  1  0.34556824  0.19899668  0.81549026  1
  Ti  Ti39  1  0.40006833  0.40157643  0.18927303  1
  Ti  Ti40  1  0.37832810  0.48622926  0.52964548  1
  Ti  Ti41  1  0.33352260  0.45836580  0.84361036  1
  Ti  Ti42  1  0.23737089  0.79953392  0.16461481  1
  Ti  Ti43  1  0.36189374  0.84376362  0.54762337  1
  Ti  Ti44  1  0.34554491  0.90390657  0.86834627  1
  Ti  Ti45  1  0.72424331  0.20225828  0.19834730  1
  Ti  Ti46  1  0.69185598  0.19166061  0.43070001  1
  Ti  Ti47  1  0.71221156  0.21070162  0.87221976  1
  Ti  Ti48  1  0.73243031  0.55339482  0.14966420  1
  Ti  Ti49  1  0.60995301  0.52220518  0.52446628  1
  Ti  Ti50  1  0.75425082  0.53993501  0.85517319  1
  Ti  Ti51  1  0.61258193  0.81771519  0.07939728  1
  Ti  Ti52  1  0.66794017  0.84732071  0.47249168  1
  Ti  Ti53  1  0.62498038  0.78652798  0.82955133  1
  Ti  Ti54  1  0.15648454  0.04492034  0.21479738  1
  Ti  Ti55  1  0.19655215  0.03603228  0.42830430  1
  Ti  Ti56  1  0.19679891  -0.01092720  0.79266035  1
  Ti  Ti57  1  0.22608112  0.29527689  0.25326647  1
  Ti  Ti58  1  0.17048839  0.32530875  0.48444586  1
  Ti  Ti59  1  0.07773939  0.30761248  0.81823147  1
  Ti  Ti60  1  0.17393020  0.59597112  0.16922021  1
  Ti  Ti61  1  0.23232851  0.62184852  0.55333457  1
  Ti  Ti62  1  0.17671104  0.66633648  0.77521942  1
  Ti  Ti63  1  0.52060175  -0.04977349  0.19599079  1
  Ti  Ti64  1  0.58170113  0.04855112  0.49699589  1
  Ti  Ti65  1  0.51241909  -0.00260349  0.79395729  1
  Ti  Ti66  1  0.54898720  0.27696055  0.15692411  1
  Ti  Ti67  1  0.51680857  0.36998165  0.47606522  1
  Ti  Ti68  1  0.52123568  0.25558741  0.91614906  1
  Ti  Ti69  1  0.49014917  0.65729876  0.17511971  1
  Ti  Ti70  1  0.50654448  0.72609740  0.47836098  1
  Ti  Ti71  1  0.44773171  0.63436621  0.84266155  1
  Ti  Ti72  1  0.83069133  0.03302920  0.24646774  1
  Ti  Ti73  1  0.91873063  -0.02006033  0.53167875  1
  Ti  Ti74  1  0.80597641  0.00298550  0.80982514  1
  Ti  Ti75  1  0.83535141  0.38592265  0.13863292  1
  Ti  Ti76  1  0.88035121  0.38844300  0.42228412  1
  Ti  Ti77  1  0.80514062  0.36281966  0.77471319  1
  Ti  Ti78  1  0.78838124  0.74402221  0.12582663  1
  Ti  Ti79  1  0.80931180  0.68484975  0.54963386  1
  Ti  Ti80  1  0.88316254  0.70508741  0.87799846  1
  Ti  Ti81  1  0.18085436  0.21425630  -0.04241808  1
  Ti  Ti82  1  0.08999361  0.17879948  0.34852838  1
  Ti  Ti83  1  0.18973071  0.17753604  0.70528243  1
  Ti  Ti84  1  0.14721057  0.49866616  -0.00868870  1
  Ti  Ti85  1  0.13431870  0.53244576  0.35494663  1
  Ti  Ti86  1  0.11040279  0.51152876  0.65680312  1
  Ti  Ti87  1  0.20426858  0.78919367  -0.03425653  1
  Ti  Ti88  1  0.12240884  0.87258917  0.31503748  1
  Ti  Ti89  1  0.09066594  0.84436511  0.70516115  1
  Ti  Ti90  1  0.49279495  0.11666298  0.07522887  1
  Ti  Ti91  1  0.51614572  0.13203237  0.28856361  1
  Ti  Ti92  1  0.52124921  0.21106590  0.60405724  1
  Ti  Ti93  1  0.54791148  0.47297285  -0.09739374  1
  Ti  Ti94  1  0.54399556  0.49968450  0.28037985  1
  Ti  Ti95  1  0.47935044  0.51200076  0.71115568  1
  Ti  Ti96  1  0.41527166  0.85026325  0.05113358  1
  Ti  Ti97  1  0.54585152  0.80825856  0.30899877  1
  Ti  Ti98  1  0.53724782  0.86672835  0.64157233  1
  Ti  Ti99  1  0.83880835  0.22854953  0.01145664  1
  Ti  Ti100  1  0.88303761  0.17226189  0.36193735  1
  Ti  Ti101  1  0.72928123  0.16586581  0.65607992  1
  Ti  Ti102  1  0.90401142  0.50592707  -0.02429870  1
  Ti  Ti103  1  0.73531021  0.48682036  0.33704111  1
  Ti  Ti104  1  0.79639905  0.53467194  0.66507369  1
  Ti  Ti105  1  0.80581785  0.91060330  0.00317052  1
  Ti  Ti106  1  0.72872561  0.83096595  0.27413709  1
  Ti  Ti107  1  0.82014192  0.82161722  0.72658184  1
  Co  Co108  1  0.53573674  0.38663531  0.63347723  1
  Co  Co109  1  0.56464494  0.09241457  0.91761927  1
  Co  Co110  1  0.52324009  0.20536242  0.43741495  1
  Co  Co111  1  0.58442126  0.06757441  0.66288447  1
  Co  Co112  1  0.00931279  0.95696772  0.22939321  1
  Co  Co113  1  0.15094083  0.70815427  0.27774996  1
  Co  Co114  1  0.87833784  0.60988762  0.39785715  1
  Co  Co115  1  0.00679344  0.62007542  0.25303958  1
  Co  Co116  1  0.56214362  0.96573898  0.03385988  1
  Co  Co117  1  0.14054842  0.94548659  0.93347892  1
  Co  Co118  1  0.12741101  0.42383599  0.20164680  1
  Co  Co119  1  0.90336230  0.78004921  1.01883793  1
  Co  Co120  1  0.40889896  0.50936021  0.98557520  1
  Co  Co121  1  0.13941772  0.07019782  0.03842361  1
  Co  Co122  1  0.99039279  0.26201794  0.44507639  1
  Co  Co123  1  0.84553874  0.40579298  0.58688774  1
  Co  Co124  1  0.66837857  0.07521912  0.79513030  1
  Co  Co125  1  0.03327252  0.01862175  0.38984044  1
  Co  Co126  1  0.64092566  0.20180362  0.03547632  1
  Co  Co127  1  0.86927062  0.88707124  0.17002121  1
  Co  Co128  1  0.37770183  0.17644710  0.96855387  1
  Co  Co129  1  0.88091670  0.22501203  0.17803140  1
  Co  Co130  1  0.92846788  0.77727429  0.46066854  1
  Co  Co131  1  0.78408417  0.75290897  0.40406669  1
  Co  Co132  1  0.66152553  0.92101864  0.74184127  1
  Co  Co133  1  0.80746290  0.63446553  1.00250557  1
  Co  Co134  1  0.45464910  1.00407476  0.59909799  1
  Co  Co135  1  0.12941319  0.33118865  0.65626853  1
  Co  Co136  1  0.10309499  0.11445618  0.85356603  1
  Co  Co137  1  0.13300573  0.90706016  0.11924619  1
  Co  Co138  1  0.66406952  0.93366031  0.90321118  1
  Co  Co139  1  0.26175173  0.07547656  0.91365078  1
  Co  Co140  1  0.37745616  0.55307864  0.25676620  1
  Co  Co141  1  0.70655086  0.50758261  -0.00112988  1
  Co  Co142  1  0.78590447  0.64198975  0.27305237  1
  Co  Co143  1  0.38095202  0.02242291  0.15222826  1
  Co  Co144  1  0.60702260  0.23649062  0.74699135  1
  Co  Co145  1  0.73188848  0.77601224  -0.04687486  1
  Co  Co146  1  0.89979415  0.74818128  0.28453196  1
  Co  Co147  1  0.81422140  0.85852023  0.54122849  1
  Co  Co148  1  0.64934995  0.48159464  0.72029970  1
  Co  Co149  1  0.42203105  1.01366430  0.96087245  1
  Co  Co150  1  0.84504558  0.06832689  0.10061281  1
  Co  Co151  1  0.25921545  0.44944543  0.28541797  1
  Co  Co152  1  0.65244990  0.36730201  0.84026189  1
  Co  Co153  1  0.98934160  0.11618234  0.24359184  1
  Co  Co154  1  0.89877541  0.62390302  0.13605323  1
  Co  Co155  1  0.20142708  0.37289583  0.92166445  1
  Co  Co156  1  0.29227234  0.55612548  0.40484697  1
  Co  Co157  1  0.40085431  0.43224669  0.36615311  1
  Co  Co158  1  0.64185673  0.68562814  0.20515637  1
  Co  Co159  1  0.62703594  0.08578014  0.16948484  1
  Co  Co160  1  0.77212461  0.52525844  0.49759485  1
  Co  Co161  1  0.34208082  0.29769901  0.50568575  1
  Ni  Ni162  1  0.89369538  0.48874083  0.27564067  1
  Ni  Ni163  1  0.23211315  0.15224164  0.55161998  1
  Ni  Ni164  1  0.88969444  0.06386153  0.94213848  1
  Ni  Ni165  1  0.48317529  0.76248266  0.93491055  1
  Ni  Ni166  1  0.27497146  0.84543760  0.72213660  1
  Ni  Ni167  1  0.15993464  0.48634172  0.81212260  1
  Ni  Ni168  1  0.45619327  -0.00456079  0.35438634  1
  Ni  Ni169  1  0.71027952  0.36433485  0.45154797  1
  Ni  Ni170  1  0.56492477  0.51970375  0.09865411  1
  Ni  Ni171  1  0.45481579  0.61734534  0.58144734  1
  Ni  Ni172  1  0.70736730  0.94616410  0.14955767  1
  Ni  Ni173  1  0.95383943  0.79609494  0.61353698  1
  Ni  Ni174  1  0.01883641  0.21075508  0.69081216  1
  Ni  Ni175  1  0.46558496  0.58147986  0.40579184  1
  Ni  Ni176  1  0.07385923  0.68348111  0.57545461  1
  Ni  Ni177  1  0.86747394  0.25937256  0.66522369  1
  Ni  Ni178  1  0.88118894  0.09434254  0.65249463  1
  Ni  Ni179  1  0.24177184  0.33473128  0.76999224  1
  Ni  Ni180  1  0.24896651  0.20020251  0.40018778  1
  Ni  Ni181  1  0.78948608  0.32271430  0.29652778  1
  Ni  Ni182  1  0.48390967  0.35328643  0.78781008  1
  Ni  Ni183  1  0.20265544  0.33677234  0.08678976  1
  Ni  Ni184  1  0.12529023  0.20437741  0.15778352  1
  Ni  Ni185  1  0.19167368  0.72939723  0.43470997  1
  Ni  Ni186  1  0.94068831  0.35126677  0.89923717  1
  Ni  Ni187  1  0.24602136  0.88334057  0.43835557  1
  Ni  Ni188  1  0.32737326  0.66535490  0.15055808  1
  Ni  Ni189  1  1.03894845  0.59109007  0.86233920  1
  Ni  Ni190  1  0.20178671  0.79358780  0.58627811  1
  Ni  Ni191  1  0.92942513  0.93402436  0.69638815  1
  Ni  Ni192  1  0.39767604  0.83286880  0.37988819  1
  Ni  Ni193  1  0.05268290  0.82079486  -0.00150079  1
  Ni  Ni194  1  0.04767691  0.75596429  0.84650059  1
  Ni  Ni195  1  0.79322268  0.38031874  0.94095823  1
  Ni  Ni196  1  0.68795897  0.79088572  0.63432268  1
  Ni  Ni197  1  0.04894868  0.39870573  0.38609723  1
  Ni  Ni198  1  0.39523511  0.22399754  0.19065335  1
  Ni  Ni199  1  0.60970240  0.61224282  0.81700154  1
  Ni  Ni200  1  0.40895938  0.80546777  0.20952411  1
  Ni  Ni201  1  0.31613128  0.73851826  0.84999986  1
  Ni  Ni202  1  0.51106481  0.90013965  0.47275076  1
  Ni  Ni203  1  0.82574631  0.24548194  0.51078383  1
  Ni  Ni204  1  0.28795359  0.54998692  0.70731445  1
  Ni  Ni205  1  0.75891232  0.67430925  0.74679828  1
  Ni  Ni206  1  0.32654621  0.10685988  0.29087860  1
  Ni  Ni207  1  0.24374453  0.42885702  0.59990953  1
  Ni  Ni208  1  0.49546359  0.38388892  0.04383808  1
  Ni  Ni209  1  0.66872336  0.39856978  0.19174312  1
  Ni  Ni210  1  0.28437897  0.48925062  0.10908377  1
  Ni  Ni211  1  0.77949578  0.03726029  0.43338370  1
  Ni  Ni212  1  0.13701763  0.99796316  0.60523960  1
  Ni  Ni213  1  0.00074135  0.20370410  0.93831384  1
  Ni  Ni214  1  0.45271446  0.81196695  0.77393267  1
  Ni  Ni215  1  0.37046011  0.15405175  0.64994039  1
