# generated using pymatgen
data_Ti2CoNi
_symmetry_space_group_name_H-M   'P 1'
_cell_length_a   14.62878491
_cell_length_b   14.60358140
_cell_length_c   14.58764289
_cell_angle_alpha   89.93035166
_cell_angle_beta   89.88376364
_cell_angle_gamma   90.21028818
_symmetry_Int_Tables_number   1
_chemical_formula_structural   Ti2CoNi
_chemical_formula_sum   'Ti108 Co54 Ni54'
_cell_volume   3116.36709091
_cell_formula_units_Z   54
loop_
 _symmetry_equiv_pos_site_id
 _symmetry_equiv_pos_as_xyz
  1  'x, y, z'
loop_
 _atom_site_type_symbol
 _atom_site_label
 _atom_site_symmetry_multiplicity
 _atom_site_fract_x
 _atom_site_fract_y
 _atom_site_fract_z
 _atom_site_occupancy
  Ti  Ti0  1  -0.00852778  0.01056222  -0.04043886  1
  Ti  Ti1  1  0.01726884  -0.00768874  0.23693293  1
  Ti  Ti2  1  -0.00505904  0.08097580  0.69243446  1
  Ti  Ti3  1  -0.04153872  0.23172819  -0.01409307  1
  Ti  Ti4  1  0.00420646  0.30655188  0.39103779  1
  Ti  Ti5  1  -0.04841333  0.37088624  0.62000460  1
  Ti  Ti6  1  0.04832221  0.72802007  0.02139595  1
  Ti  Ti7  1  0.01445445  0.70068490  0.35951824  1
  Ti  Ti8  1  -0.01164705  0.67853924  0.71271527  1
  Ti  Ti9  1  0.36260956  -0.03074558  0.06059990  1
  Ti  Ti10  1  0.35507058  -0.04836615  0.37658182  1
  Ti  Ti11  1  0.38347776  -0.01899252  0.58044158  1
  Ti  Ti12  1  0.34281086  0.38204407  -0.02379377  1
  Ti  Ti13  1  0.34866402  0.38326314  0.38738292  1
  Ti  Ti14  1  0.33866640  0.29743794  0.62601773  1
  Ti  Ti15  1  0.26728627  0.68162496  -0.01963904  1
  Ti  Ti16  1  0.32214135  0.72866494  0.33402446  1
  Ti  Ti17  1  0.26936844  0.64137562  0.74022793  1
  Ti  Ti18  1  0.61479532  0.09024795  -0.01484431  1
  Ti  Ti19  1  0.63631153  -0.02088869  0.26482645  1
  Ti  Ti20  1  0.66539122  -0.00246278  0.66063000  1
  Ti  Ti21  1  0.58024296  0.30135163  -0.03014354  1
  Ti  Ti22  1  0.68292563  0.35685914  0.27869069  1
  Ti  Ti23  1  0.69128990  0.35843535  0.69787469  1
  Ti  Ti24  1  0.75457052  0.71278311  0.02911937  1
  Ti  Ti25  1  0.73802119  0.65006806  0.34464802  1
  Ti  Ti26  1  0.66706494  0.65946619  0.65640931  1
  Ti  Ti27  1  0.04164557  0.21151338  0.19051779  1
  Ti  Ti28  1  0.04287977  0.12708598  0.50773311  1
  Ti  Ti29  1  -0.03603795  0.27794149  0.79898448  1
  Ti  Ti30  1  -0.03716229  0.50759545  0.11792265  1
  Ti  Ti31  1  0.01910574  0.51580546  0.45982507  1
  Ti  Ti32  1  -0.02092564  0.49332957  0.81064241  1
  Ti  Ti33  1  -0.07840317  0.82402267  0.15478338  1
  Ti  Ti34  1  -0.03564272  0.86181159  0.47146955  1
  Ti  Ti35  1  0.08041610  0.82621912  0.77287251  1
  Ti  Ti36  1  0.27531305  0.24964445  0.25016284  1
  Ti  Ti37  1  0.33477645  0.15680001  0.43247572  1
  Ti  Ti38  1  0.32781573  0.07256509  0.86190498  1
  Ti  Ti39  1  0.34544164  0.50336558  0.18689065  1
  Ti  Ti40  1  0.31806234  0.50909472  0.57122855  1
  Ti  Ti41  1  0.35780403  0.53191392  0.86278577  1
  Ti  Ti42  1  0.35222553  0.80229936  0.15353429  1
  Ti  Ti43  1  0.45171587  0.81112212  0.48762273  1
  Ti  Ti44  1  0.32881137  0.87799206  0.88626523  1
  Ti  Ti45  1  0.71323316  0.21685742  0.11078462  1
  Ti  Ti46  1  0.63898897  0.18211572  0.42318515  1
  Ti  Ti47  1  0.68859208  0.10722151  0.80896037  1
  Ti  Ti48  1  0.64056002  0.42088533  0.09808206  1
  Ti  Ti49  1  0.61748711  0.46301400  0.54109069  1
  Ti  Ti50  1  0.76214610  0.54076660  0.78328692  1
  Ti  Ti51  1  0.63904412  0.79324240  0.16519124  1
  Ti  Ti52  1  0.65971943  0.82239902  0.54654359  1
  Ti  Ti53  1  0.70376053  0.75173272  0.84280415  1
  Ti  Ti54  1  0.20056147  0.05891510  0.16039571  1
  Ti  Ti55  1  0.19366220  -0.01071572  0.51430760  1
  Ti  Ti56  1  0.15127153  -0.00827240  0.82508924  1
  Ti  Ti57  1  0.18028467  0.38540778  0.12825062  1
  Ti  Ti58  1  0.13575632  0.33794656  0.54478662  1
  Ti  Ti59  1  0.18569086  0.26215699  0.78692432  1
  Ti  Ti60  1  0.14352626  0.58552975  0.11795762  1
  Ti  Ti61  1  0.19950660  0.65154811  0.49094479  1
  Ti  Ti62  1  0.11052262  0.64140565  0.85054927  1
  Ti  Ti63  1  0.51127747  0.07617207  0.15474005  1
  Ti  Ti64  1  0.57769191  -0.02993751  0.44635362  1
  Ti  Ti65  1  0.48815283  -0.05586693  0.78883229  1
  Ti  Ti66  1  0.42233204  0.34241314  0.13226935  1
  Ti  Ti67  1  0.48228426  0.27560121  0.49503632  1
  Ti  Ti68  1  0.45795834  0.33788290  0.81042572  1
  Ti  Ti69  1  0.48697770  0.66924713  0.14607630  1
  Ti  Ti70  1  0.47988785  0.61169161  0.54525604  1
  Ti  Ti71  1  0.44688170  0.71062951  0.86633782  1
  Ti  Ti72  1  0.83035935  0.06514221  0.24503651  1
  Ti  Ti73  1  0.79200969  -0.04927727  0.52661663  1
  Ti  Ti74  1  0.80853764  -0.07177856  0.82074299  1
  Ti  Ti75  1  0.87094791  0.30530846  0.18778874  1
  Ti  Ti76  1  0.75774857  0.32790035  0.47400553  1
  Ti  Ti77  1  0.77496085  0.36572350  0.89381308  1
  Ti  Ti78  1  0.77499641  0.54959107  0.16486933  1
  Ti  Ti79  1  0.86983153  0.70544391  0.57480526  1
  Ti  Ti80  1  0.90469858  0.70650095  0.88636316  1
  Ti  Ti81  1  0.15078034  0.16241300  -0.01603976  1
  Ti  Ti82  1  0.16264265  0.12405954  0.35115298  1
  Ti  Ti83  1  0.23206398  0.09872929  0.67938927  1
  Ti  Ti84  1  0.14490717  0.47369768  -0.06088007  1
  Ti  Ti85  1  0.18902463  0.58624650  0.30639685  1
  Ti  Ti86  1  0.10848696  0.52624026  0.63773735  1
  Ti  Ti87  1  0.18650085  0.85005446  0.06545350  1
  Ti  Ti88  1  0.16401070  0.86929278  0.33555806  1
  Ti  Ti89  1  0.22627796  0.83088379  0.62848575  1
  Ti  Ti90  1  0.43613820  0.18783479  -0.00907986  1
  Ti  Ti91  1  0.47720919  0.23972837  0.29736945  1
  Ti  Ti92  1  0.52977925  0.19651473  0.68539471  1
  Ti  Ti93  1  0.53462965  0.52404323  -0.03948144  1
  Ti  Ti94  1  0.48006780  0.52913904  0.31666417  1
  Ti  Ti95  1  0.54685784  0.50341292  0.72852958  1
  Ti  Ti96  1  0.55397858  0.86037999  -0.02900012  1
  Ti  Ti97  1  0.49770595  0.82559406  0.29640343  1
  Ti  Ti98  1  0.50339178  0.77445003  0.66810110  1
  Ti  Ti99  1  0.81345321  0.08222434  -0.02977465  1
  Ti  Ti100  1  0.85279212  0.16842709  0.42043659  1
  Ti  Ti101  1  0.76523330  0.18399964  0.61640843  1
  Ti  Ti102  1  0.83556581  0.53746468  -0.02785159  1
  Ti  Ti103  1  0.88268266  0.46495382  0.30988386  1
  Ti  Ti104  1  0.79884814  0.49895443  0.57326398  1
  Ti  Ti105  1  0.75331133  0.90759136  0.01145259  1
  Ti  Ti106  1  0.80023916  0.88127351  0.33144040  1
  Ti  Ti107  1  0.91828749  0.89087813  0.66897824  1
  Co  Co108  1  0.73170708  0.05469975  0.11660360  1
  Co  Co109  1  0.82153422  0.05066360  0.70748241  1
  Co  Co110  1  0.72625362  0.62401522  0.50805741  1
  Co  Co111  1  0.10544614  0.95855142  0.65962390  1
  Co  Co112  1  0.28448033  0.94890148  0.72628514  1
  Co  Co113  1  0.30116233  0.23131978  0.91351504  1
  Co  Co114  1  0.53152392  0.92696101  0.60393221  1
  Co  Co115  1  0.41415403  0.61802696  1.01472099  1
  Co  Co116  1  0.19263197  0.74242671  0.22353032  1
  Co  Co117  1  0.59150645  0.70304139  0.48044134  1
  Co  Co118  1  0.38429552  0.14692993  0.58357687  1
  Co  Co119  1  0.90196826  0.66380793  0.07854803  1
  Co  Co120  1  0.29877263  0.10947819  0.03013480  1
  Co  Co121  1  0.74035981  0.48044227  0.39701880  1
  Co  Co122  1  0.87946111  0.60169263  0.43107318  1
  Co  Co123  1  0.97697568  0.96221019  0.80561515  1
  Co  Co124  1  0.63797447  0.60593449  0.10224757  1
  Co  Co125  1  0.41240495  0.06633167  0.71868373  1
  Co  Co126  1  0.05864218  0.86758904  0.93133590  1
  Co  Co127  1  0.60067397  0.55881989  0.41004811  1
  Co  Co128  1  0.47131872  0.68154137  0.37805087  1
  Co  Co129  1  0.26946575  0.26144726  0.07601574  1
  Co  Co130  1  0.25573945  0.91859411  0.21697654  1
  Co  Co131  1  0.13684216  0.42626570  0.40404479  1
  Co  Co132  1  0.08300509  0.85341133  0.19055148  1
  Co  Co133  1  0.29589582  0.37006582  0.82002256  1
  Co  Co134  1  0.76716169  0.90576728  0.17654919  1
  Co  Co135  1  0.45908846  0.46131502  0.48224871  1
  Co  Co136  1  0.52251974  0.38893724  0.24720099  1
  Co  Co137  1  0.13050900  0.30245192  0.28870040  1
  Co  Co138  1  0.23496473  0.42778869  0.28113294  1
  Co  Co139  1  0.17111382  0.32028986  0.95335947  1
  Co  Co140  1  0.19284754  0.50268912  0.78922127  1
  Co  Co141  1  0.63741837  0.51844725  0.24864126  1
  Co  Co142  1  0.21972231  0.28309962  0.41754300  1
  Co  Co143  1  0.58189832  0.37148598  0.40468811  1
  Co  Co144  1  0.89393047  0.98267645  0.09809763  1
  Co  Co145  1  0.68864176  0.58533396  0.92838523  1
  Co  Co146  1  0.62844436  0.28247294  0.56535990  1
  Co  Co147  1  0.93186627  0.39924697  0.93281602  1
  Co  Co148  1  0.02349485  0.66159934  0.53100443  1
  Co  Co149  1  1.03905533  0.80832850  0.60960520  1
  Co  Co150  1  0.37579120  0.46893665  0.71652989  1
  Co  Co151  1  0.84520625  0.40124278  0.73723748  1
  Co  Co152  1  0.82479252  0.68195621  0.73900509  1
  Co  Co153  1  0.89118837  0.40784691  0.46423074  1
  Co  Co154  1  0.36077709  0.21075062  0.76436310  1
  Co  Co155  1  0.92716950  0.23993811  0.54452636  1
  Co  Co156  1  0.03849296  0.54090714  0.27550687  1
  Co  Co157  1  0.50421444  0.50658307  0.12863645  1
  Co  Co158  1  0.29804221  0.64920222  0.15335616  1
  Co  Co159  1  0.00532622  0.57222261  0.96977310  1
  Co  Co160  1  0.59392814  0.67575502  0.27164823  1
  Co  Co161  1  0.41019342  0.79068634  0.00577654  1
  Ni  Ni162  1  0.64585159  0.81671992  0.36873458  1
  Ni  Ni163  1  0.07010313  0.22613346  0.65956962  1
  Ni  Ni164  1  0.80663632  0.39775712  0.06835654  1
  Ni  Ni165  1  0.80144309  0.23533157  0.77457544  1
  Ni  Ni166  1  0.62491311  0.26303766  0.81587276  1
  Ni  Ni167  1  0.62389942  0.43177379  0.85905365  1
  Ni  Ni168  1  0.62473762  0.85217729  0.73979529  1
  Ni  Ni169  1  0.80065043  0.77028046  0.44898574  1
  Ni  Ni170  1  1.01299945  0.38316654  0.21877265  1
  Ni  Ni171  1  0.88631790  0.14852873  0.11217860  1
  Ni  Ni172  1  0.89767857  0.62873217  0.25651917  1
  Ni  Ni173  1  0.76309756  0.21258498  0.29211073  1
  Ni  Ni174  1  0.20509949  0.17728777  0.54137756  1
  Ni  Ni175  1  0.78833337  0.73615377  0.19918983  1
  Ni  Ni176  1  0.38723137  0.17606793  0.15399160  1
  Ni  Ni177  1  0.12182106  0.79600727  0.47609858  1
  Ni  Ni178  1  0.50880733  0.14005859  0.84651687  1
  Ni  Ni179  1  0.47697080  1.00916701  0.94787859  1
  Ni  Ni180  1  0.55325150  0.24319474  0.13289709  1
  Ni  Ni181  1  0.19108284  0.79271234  0.88970099  1
  Ni  Ni182  1  0.76906377  0.82511603  0.67399315  1
  Ni  Ni183  1  0.90329347  0.84110942  0.98170496  1
  Ni  Ni184  1  0.08268339  0.38351532  0.73054146  1
  Ni  Ni185  1  0.64989296  0.95477402  0.86863408  1
  Ni  Ni186  1  0.28426404  0.83087289  0.47204090  1
  Ni  Ni187  1  0.57356100  0.69754191  0.97982208  1
  Ni  Ni188  1  0.03377479  0.36622459  0.05209728  1
  Ni  Ni189  1  0.60328585  0.94923033  0.10232372  1
  Ni  Ni190  1  0.33570739  0.56649168  0.40672556  1
  Ni  Ni191  1  0.73320846  0.21628740  0.93509196  1
  Ni  Ni192  1  0.07341247  0.14288328  0.83087083  1
  Ni  Ni193  1  0.04280789  0.08041173  0.09342912  1
  Ni  Ni194  1  0.42403989  0.95250697  0.22091827  1
  Ni  Ni195  1  0.92813799  0.54163043  0.65464674  1
  Ni  Ni196  1  0.06515112  -0.01108882  0.40587548  1
  Ni  Ni197  1  0.73353583  0.04190773  0.39483269  1
  Ni  Ni198  1  0.27949058  0.52379176  0.03400240  1
  Ni  Ni199  1  0.33820130  0.69874618  0.58723482  1
  Ni  Ni200  1  0.35815758  0.79347629  0.73918460  1
  Ni  Ni201  1  0.55650044  0.10601803  0.55342040  1
  Ni  Ni202  1  0.32640929  0.07948833  0.27600639  1
  Ni  Ni203  1  0.62093716  0.14697285  0.25828937  1
  Ni  Ni204  1  0.22997700  0.40628781  0.66753917  1
  Ni  Ni205  1  0.49457292  0.37560096  0.63604158  1
  Ni  Ni206  1  0.03615637  0.69090755  0.18971437  1
  Ni  Ni207  1  0.14379429  0.68846801  0.64986868  1
  Ni  Ni208  1  0.88808779  0.07566120  0.56119290  1
  Ni  Ni209  1  0.48625358  0.09809553  0.38646197  1
  Ni  Ni210  1  0.18966490  -0.00842621  0.98481199  1
  Ni  Ni211  1  0.58233594  0.64039353  0.80825274  1
  Ni  Ni212  1  0.90058136  1.00619215  0.39817074  1
  Ni  Ni213  1  0.43267642  0.62814893  0.71386808  1
  Ni  Ni214  1  0.99408633  0.12964487  0.33572631  1
  Ni  Ni215  1  0.90904422  0.11754307  0.84012975  1
