# generated using pymatgen
data_Ti2CoNi
_symmetry_space_group_name_H-M   'P 1'
_cell_length_a   14.53880034
_cell_length_b   14.52816344
_cell_length_c   14.50989558
_cell_angle_alpha   90.27004173
_cell_angle_beta   90.36716857
_cell_angle_gamma   89.76142892
_symmetry_Int_Tables_number   1
_chemical_formula_structural   Ti2CoNi
_chemical_formula_sum   'Ti108 Co54 Ni54'
_cell_volume   3064.68698910
_cell_formula_units_Z   54
loop_
 _symmetry_equiv_pos_site_id
 _symmetry_equiv_pos_as_xyz
  1  'x, y, z'
loop_
 _atom_site_type_symbol
 _atom_site_label
 _atom_site_symmetry_multiplicity
 _atom_site_fract_x
 _atom_site_fract_y
 _atom_site_fract_z
 _atom_site_occupancy
  Ti  Ti0  1  -0.02233050  0.02251248  -0.06560974  1
  Ti  Ti1  1  0.03247514  -0.01187010  0.36248573  1
  Ti  Ti2  1  0.01253855  -0.01807513  0.64477479  1
  Ti  Ti3  1  -0.03588929  0.30701079  0.06514554  1
  Ti  Ti4  1  -0.02599711  0.38077757  0.33281840  1
  Ti  Ti5  1  0.05656956  0.35719901  0.61438425  1
  Ti  Ti6  1  0.01410059  0.64608936  -0.06580954  1
  Ti  Ti7  1  0.03139655  0.71324322  0.29815147  1
  Ti  Ti8  1  0.04603001  0.58889243  0.66655772  1
  Ti  Ti9  1  0.30881972  -0.01439915  0.00282521  1
  Ti  Ti10  1  0.32194459  -0.05106301  0.32794734  1
  Ti  Ti11  1  0.28612440  0.00211677  0.67789096  1
  Ti  Ti12  1  0.42930342  0.37380958  -0.02606247  1
  Ti  Ti13  1  0.28130163  0.27416834  0.28595110  1
  Ti  Ti14  1  0.30302298  0.25178665  0.66110050  1
  Ti  Ti15  1  0.33368348  0.68299543  -0.10090672  1
  Ti  Ti16  1  0.27328584  0.67477108  0.28612194  1
  Ti  Ti17  1  0.42923019  0.66626998  0.72738848  1
  Ti  Ti18  1  0.59846638  0.03153199  0.02390737  1
  Ti  Ti19  1  0.59468110  -0.07570774  0.34810922  1
  Ti  Ti20  1  0.66005664  0.03429763  0.68577453  1
  Ti  Ti21  1  0.72738817  0.40362165  -0.00052670  1
  Ti  Ti22  1  0.73672103  0.41426200  0.35532901  1
  Ti  Ti23  1  0.64466854  0.29118544  0.68842438  1
  Ti  Ti24  1  0.72243602  0.59922256  -0.01688341  1
  Ti  Ti25  1  0.72727985  0.61589934  0.33269930  1
  Ti  Ti26  1  0.60836783  0.71681753  0.64675651  1
  Ti  Ti27  1  -0.00978191  0.09145816  0.11398788  1
  Ti  Ti28  1  -0.08871122  0.13488369  0.50597093  1
  Ti  Ti29  1  0.05207980  0.19675624  0.87458252  1
  Ti  Ti30  1  -0.04709886  0.62865244  0.13073926  1
  Ti  Ti31  1  -0.04788101  0.49052671  0.51525709  1
  Ti  Ti32  1  -0.03308800  0.45852185  0.78630461  1
  Ti  Ti33  1  0.03448412  0.87498501  0.13292586  1
  Ti  Ti34  1  -0.00938423  0.80453759  0.62656911  1
  Ti  Ti35  1  0.02571883  0.85338223  0.83038240  1
  Ti  Ti36  1  0.29518775  0.16090434  0.10753166  1
  Ti  Ti37  1  0.38222438  0.16409732  0.40830539  1
  Ti  Ti38  1  0.38266823  0.19761141  0.92606229  1
  Ti  Ti39  1  0.30471540  0.45630430  0.27163615  1
  Ti  Ti40  1  0.31093408  0.49450941  0.49750344  1
  Ti  Ti41  1  0.32546965  0.49522974  0.83523691  1
  Ti  Ti42  1  0.31617779  0.83252665  0.17170096  1
  Ti  Ti43  1  0.35096670  0.76446884  0.45526310  1
  Ti  Ti44  1  0.36454500  0.86659069  0.80206717  1
  Ti  Ti45  1  0.69096875  0.16926716  0.14525822  1
  Ti  Ti46  1  0.69070196  0.16381722  0.55115974  1
  Ti  Ti47  1  0.67866634  0.12216595  0.87546034  1
  Ti  Ti48  1  0.66638512  0.50741503  0.18406996  1
  Ti  Ti49  1  0.65314397  0.52079973  0.50799518  1
  Ti  Ti50  1  0.68294588  0.49853191  0.83199847  1
  Ti  Ti51  1  0.63305891  0.75474344  0.21865094  1
  Ti  Ti52  1  0.66929559  0.85694948  0.54069457  1
  Ti  Ti53  1  0.69709147  0.87370079  0.81106418  1
  Ti  Ti54  1  0.17130517  0.02992886  0.18742404  1
  Ti  Ti55  1  0.20679341  0.03222686  0.45523534  1
  Ti  Ti56  1  0.17558749  0.00555169  0.86199041  1
  Ti  Ti57  1  0.16483319  0.37045052  0.13607565  1
  Ti  Ti58  1  0.15488243  0.37067178  0.45173451  1
  Ti  Ti59  1  0.23905171  0.30709217  0.83992959  1
  Ti  Ti60  1  0.13192786  0.61006581  0.15443857  1
  Ti  Ti61  1  0.05603125  0.65423647  0.48753944  1
  Ti  Ti62  1  0.17211851  0.63513526  0.83203540  1
  Ti  Ti63  1  0.46361990  0.01900565  0.19727452  1
  Ti  Ti64  1  0.41880059  0.01656177  0.51891306  1
  Ti  Ti65  1  0.48935544  0.00747534  0.78622760  1
  Ti  Ti66  1  0.47526911  0.39170188  0.19553889  1
  Ti  Ti67  1  0.54512307  0.36077251  0.49637763  1
  Ti  Ti68  1  0.46308449  0.28977976  0.77618346  1
  Ti  Ti69  1  0.43397533  0.69363951  0.10880558  1
  Ti  Ti70  1  0.48876175  0.62180614  0.52921460  1
  Ti  Ti71  1  0.51791191  0.65062971  0.92259804  1
  Ti  Ti72  1  0.87211059  -0.01531411  0.22522965  1
  Ti  Ti73  1  0.76042752  -0.00811675  0.47422995  1
  Ti  Ti74  1  0.85467520  0.03104156  0.78389056  1
  Ti  Ti75  1  0.78365395  0.33856983  0.17381660  1
  Ti  Ti76  1  0.83847225  0.32393422  0.47938176  1
  Ti  Ti77  1  0.76371814  0.30787197  0.84633315  1
  Ti  Ti78  1  0.85931452  0.78958411  0.17509387  1
  Ti  Ti79  1  0.74444844  0.68163073  0.50597509  1
  Ti  Ti80  1  0.84617607  0.76489499  0.88146017  1
  Ti  Ti81  1  0.12190792  0.21060296  0.04547910  1
  Ti  Ti82  1  0.10288287  0.18447700  0.36900012  1
  Ti  Ti83  1  0.15351619  0.13748197  0.60980103  1
  Ti  Ti84  1  0.21386134  0.50112293  0.00297051  1
  Ti  Ti85  1  0.16235666  0.53649237  0.35165736  1
  Ti  Ti86  1  0.17215924  0.45779160  0.72196253  1
  Ti  Ti87  1  0.20665825  0.81984593  -0.10520849  1
  Ti  Ti88  1  0.17616069  0.82640156  0.40282392  1
  Ti  Ti89  1  0.18364667  0.74763970  0.58694300  1
  Ti  Ti90  1  0.51736048  0.22207024  0.06572339  1
  Ti  Ti91  1  0.55315228  0.20656468  0.32147551  1
  Ti  Ti92  1  0.49471776  0.15596909  0.62203346  1
  Ti  Ti93  1  0.54464757  0.50470480  0.04760726  1
  Ti  Ti94  1  0.49987684  0.49098061  0.35536110  1
  Ti  Ti95  1  0.54505344  0.46607562  0.68594120  1
  Ti  Ti96  1  0.54293335  0.83385073  0.02882905  1
  Ti  Ti97  1  0.46691537  0.72029116  0.32109340  1
  Ti  Ti98  1  0.47558140  0.84511940  0.58809090  1
  Ti  Ti99  1  0.82892026  0.12131044  0.01792427  1
  Ti  Ti100  1  0.79850296  0.12222129  0.33528165  1
  Ti  Ti101  1  0.96540175  0.19133028  0.68202483  1
  Ti  Ti102  1  0.90913716  0.48014326  -0.02369062  1
  Ti  Ti103  1  0.87625379  0.55023049  0.27589766  1
  Ti  Ti104  1  0.83769849  0.55745086  0.68363064  1
  Ti  Ti105  1  0.74495684  0.88478130  0.02266056  1
  Ti  Ti106  1  0.86218267  0.82700085  0.40145421  1
  Ti  Ti107  1  0.79290012  0.76537613  0.66316416  1
  Co  Co108  1  0.33892631  0.66488637  0.58056727  1
  Co  Co109  1  0.75700146  0.41169209  0.71300878  1
  Co  Co110  1  0.75766266  0.17338964  0.74112407  1
  Co  Co111  1  0.43336742  0.07902274  0.05538669  1
  Co  Co112  1  0.24486154  0.38975765  0.59838547  1
  Co  Co113  1  0.98310617  0.85977763  0.29192888  1
  Co  Co114  1  0.22230269  0.65391113  0.44809542  1
  Co  Co115  1  0.27190478  0.73518685  0.74265661  1
  Co  Co116  1  0.04214685  0.23770646  0.50776762  1
  Co  Co117  1  0.25525866  0.31308967  0.99852439  1
  Co  Co118  1  0.05117164  0.49423022  0.05412745  1
  Co  Co119  1  0.55245007  0.60198248  0.22722004  1
  Co  Co120  1  0.16879875  0.76081229  0.18182662  1
  Co  Co121  1  0.62639454  0.06062316  0.23832554  1
  Co  Co122  1  0.81428590  0.52549499  0.45157856  1
  Co  Co123  1  0.36299926  0.47373859  0.10770590  1
  Co  Co124  1  0.56785206  0.16079109  0.76911798  1
  Co  Co125  1  0.80744132  0.50593326  0.11105090  1
  Co  Co126  1  0.19751716  0.89640932  0.08517822  1
  Co  Co127  1  0.77625087  0.64866103  0.17562831  1
  Co  Co128  1  0.72099716  0.23909998  0.28829372  1
  Co  Co129  1  0.05515775  0.05945822  0.50807100  1
  Co  Co130  1  0.85889869  0.66447608  0.01448732  1
  Co  Co131  1  0.37250659  0.59506563  0.39543754  1
  Co  Co132  1  0.14621319  0.36928778  0.29706420  1
  Co  Co133  1  0.13839242  0.51349967  0.53995002  1
  Co  Co134  1  0.77040693  0.98889453  0.91272896  1
  Co  Co135  1  0.71908062  0.74885344  0.06950814  1
  Co  Co136  1  0.40381767  0.51527211  0.62980464  1
  Co  Co137  1  0.14311515  0.91513254  0.57211577  1
  Co  Co138  1  0.40136321  0.57477490  0.23118834  1
  Co  Co139  1  0.87066163  0.58693941  0.85457933  1
  Co  Co140  1  0.15492455  0.89413768  0.26667933  1
  Co  Co141  1  0.49266841  0.05348020  0.35612527  1
  Co  Co142  1  0.93363863  0.32734198  0.91122400  1
  Co  Co143  1  0.35472976  0.39867523  0.72198301  1
  Co  Co144  1  0.94739565  0.80532863  1.00392316  1
  Co  Co145  1  0.59208250  0.66222626  0.07870873  1
  Co  Co146  1  0.70545596  0.37855812  0.55814865  1
  Co  Co147  1  0.68112918  0.56743358  0.65645817  1
  Co  Co148  1  0.81537751  0.26016433  0.62489292  1
  Co  Co149  1  0.89862063  0.30974500  0.75939237  1
  Co  Co150  1  0.31865668  0.12903082  0.56377528  1
  Co  Co151  1  0.88952857  0.95694703  0.05770679  1
  Co  Co152  1  0.74485047  0.01299733  0.12591855  1
  Co  Co153  1  0.64863000  0.08876330  0.40426624  1
  Co  Co154  1  0.38248405  0.14032097  0.76707622  1
  Co  Co155  1  0.26973843  0.57663818  0.69358370  1
  Co  Co156  1  0.50921392  0.11663899  0.91159485  1
  Co  Co157  1  0.89466143  0.39977688  0.63001823  1
  Co  Co158  1  0.60795960  0.91679714  0.15031153  1
  Co  Co159  1  0.07895210  0.90041957  0.97628951  1
  Co  Co160  1  0.09806050  0.35345473  0.95985682  1
  Co  Co161  1  0.55493722  0.77497948  0.46377833  1
  Ni  Ni162  1  0.45895051  0.95407348  0.94043134  1
  Ni  Ni163  1  0.49651802  0.45982197  0.84653160  1
  Ni  Ni164  1  0.61953142  0.34417424  0.10667964  1
  Ni  Ni165  1  0.92689961  0.23329232  0.37445968  1
  Ni  Ni166  1  0.05786377  0.48416645  0.22249754  1
  Ni  Ni167  1  0.35958584  0.31112862  0.11733511  1
  Ni  Ni168  1  0.50685999  0.80342730  0.85180326  1
  Ni  Ni169  1  0.20490256  0.14682608  0.77416770  1
  Ni  Ni170  1  0.10344155  0.73725434  0.73180186  1
  Ni  Ni171  1  0.93395687  0.70038076  0.74716030  1
  Ni  Ni172  1  0.69531970  0.23633473  0.99517186  1
  Ni  Ni173  1  0.03339127  0.05750677  0.77942260  1
  Ni  Ni174  1  0.67012270  0.26849751  0.43557520  1
  Ni  Ni175  1  0.74284137  0.66928391  0.78029609  1
  Ni  Ni176  1  0.37329169  0.81765248  -0.01148408  1
  Ni  Ni177  1  0.91958052  0.95822198  0.50874716  1
  Ni  Ni178  1  0.07356873  0.32444477  0.78094391  1
  Ni  Ni179  1  0.02623072  0.82596356  0.46986476  1
  Ni  Ni180  1  0.59083361  0.63972065  0.39216671  1
  Ni  Ni181  1  0.59496092  0.32587026  0.88514479  1
  Ni  Ni182  1  0.32804010  0.83253686  0.63967267  1
  Ni  Ni183  1  0.58384923  0.62022121  0.77718389  1
  Ni  Ni184  1  0.73964071  0.88969597  0.24058336  1
  Ni  Ni185  1  0.97270572  0.11684983  0.27767550  1
  Ni  Ni186  1  0.17229852  0.88730443  0.73520673  1
  Ni  Ni187  1  0.60950475  0.35686651  0.27393916  1
  Ni  Ni188  1  0.12011129  0.74350346  0.01804901  1
  Ni  Ni189  1  0.92471158  0.42337568  0.16831568  1
  Ni  Ni190  1  0.44835619  0.89473541  0.41507871  1
  Ni  Ni191  1  0.82610298  0.07933594  0.62858176  1
  Ni  Ni192  1  0.79926378  0.92481709  0.62742008  1
  Ni  Ni193  1  0.89982882  0.66732493  0.41772554  1
  Ni  Ni194  1  0.42630965  0.32771710  0.36034330  1
  Ni  Ni195  1  0.87652631  0.17730669  0.86383429  1
  Ni  Ni196  1  0.57501615  0.88438303  0.70746315  1
  Ni  Ni197  1  0.23186952  0.15047878  0.93695945  1
  Ni  Ni198  1  0.87049325  0.19892935  0.18037790  1
  Ni  Ni199  1  0.29577915  0.91023458  0.50950741  1
  Ni  Ni200  1  0.00382118  0.54790498  0.36818035  1
  Ni  Ni201  1  0.57938117  0.01358696  0.53984795  1
  Ni  Ni202  1  0.40705116  0.28368565  0.53365418  1
  Ni  Ni203  1  0.24093796  0.23349414  0.46848143  1
  Ni  Ni204  1  0.46917655  0.85700840  0.23452897  1
  Ni  Ni205  1  0.25433755  0.10786427  0.30811075  1
  Ni  Ni206  1  0.10494303  0.49572302  0.87720924  1
  Ni  Ni207  1  0.13336193  0.04776835  0.01961322  1
  Ni  Ni208  1  0.41657054  0.19393290  0.22126064  1
  Ni  Ni209  1  0.69987418  0.79603732  0.37512630  1
  Ni  Ni210  1  0.88514129  0.87298241  0.75276427  1
  Ni  Ni211  1  0.14886137  0.20218373  0.20906795  1
  Ni  Ni212  1  0.28725585  0.61445158  0.11410533  1
  Ni  Ni213  1  0.39912826  0.54701548  0.97314377  1
  Ni  Ni214  1  0.90633120  0.66729878  0.57923143  1
  Ni  Ni215  1  0.66082933  0.73483817  0.90489193  1
