# generated using pymatgen
data_Ti2CoNi
_symmetry_space_group_name_H-M   'P 1'
_cell_length_a   14.60760639
_cell_length_b   14.67116997
_cell_length_c   14.63414254
_cell_angle_alpha   90.11293235
_cell_angle_beta   90.09754505
_cell_angle_gamma   90.12075204
_symmetry_Int_Tables_number   1
_chemical_formula_structural   Ti2CoNi
_chemical_formula_sum   'Ti108 Co54 Ni54'
_cell_volume   3136.23535645
_cell_formula_units_Z   54
loop_
 _symmetry_equiv_pos_site_id
 _symmetry_equiv_pos_as_xyz
  1  'x, y, z'
loop_
 _atom_site_type_symbol
 _atom_site_label
 _atom_site_symmetry_multiplicity
 _atom_site_fract_x
 _atom_site_fract_y
 _atom_site_fract_z
 _atom_site_occupancy
  Ti  Ti0  1  -0.07016425  0.04324937  0.03305499  1
  Ti  Ti1  1  -0.02372061  0.07055015  0.38731132  1
  Ti  Ti2  1  -0.04838609  -0.03028454  0.74627091  1
  Ti  Ti3  1  0.12189518  0.37845112  0.02730709  1
  Ti  Ti4  1  -0.01605111  0.34892250  0.27131033  1
  Ti  Ti5  1  0.00267595  0.31057045  0.72622802  1
  Ti  Ti6  1  -0.01224992  0.70259380  0.01844906  1
  Ti  Ti7  1  -0.04831225  0.68857850  0.33059074  1
  Ti  Ti8  1  0.02416967  0.61500640  0.66003816  1
  Ti  Ti9  1  0.37338397  -0.06233934  0.08002309  1
  Ti  Ti10  1  0.31469054  -0.01589409  0.38341922  1
  Ti  Ti11  1  0.28335074  0.03636070  0.59213480  1
  Ti  Ti12  1  0.35982867  0.28127896  -0.03762066  1
  Ti  Ti13  1  0.33363540  0.32243414  0.40512613  1
  Ti  Ti14  1  0.23214637  0.38195319  0.57757173  1
  Ti  Ti15  1  0.31615488  0.69884307  0.06470297  1
  Ti  Ti16  1  0.36666144  0.72426355  0.34671941  1
  Ti  Ti17  1  0.34141595  0.65975929  0.61590781  1
  Ti  Ti18  1  0.70411297  -0.00459147  0.06929384  1
  Ti  Ti19  1  0.70888637  0.08920785  0.30573325  1
  Ti  Ti20  1  0.69671639  0.00193358  0.61513166  1
  Ti  Ti21  1  0.70398927  0.20965715  -0.00351648  1
  Ti  Ti22  1  0.62907765  0.35780319  0.27344990  1
  Ti  Ti23  1  0.66943293  0.36766403  0.61096020  1
  Ti  Ti24  1  0.71514363  0.62948593  0.02454281  1
  Ti  Ti25  1  0.55945670  0.72238809  0.33237964  1
  Ti  Ti26  1  0.68989046  0.56235413  0.65779278  1
  Ti  Ti27  1  0.07937493  0.20450949  0.11219781  1
  Ti  Ti28  1  -0.01457472  0.15782240  0.56432812  1
  Ti  Ti29  1  0.05268947  0.13320520  0.84406393  1
  Ti  Ti30  1  -0.02484753  0.49953590  0.07563544  1
  Ti  Ti31  1  0.01153768  0.49664696  0.45330740  1
  Ti  Ti32  1  0.06482756  0.46756999  0.84918089  1
  Ti  Ti33  1  0.06357135  0.82577528  0.21639113  1
  Ti  Ti34  1  -0.03783895  0.82450912  0.51089606  1
  Ti  Ti35  1  -0.04097183  0.78412764  0.83843885  1
  Ti  Ti36  1  0.30364245  0.13940490  0.10239664  1
  Ti  Ti37  1  0.31345009  0.22227654  0.58419672  1
  Ti  Ti38  1  0.29486686  0.09752668  0.83040501  1
  Ti  Ti39  1  0.36779671  0.48601672  0.08333382  1
  Ti  Ti40  1  0.39404192  0.49873078  0.54346174  1
  Ti  Ti41  1  0.30813298  0.48370536  0.80510710  1
  Ti  Ti42  1  0.26371473  0.86367566  0.22727437  1
  Ti  Ti43  1  0.33436033  0.85578453  0.55066696  1
  Ti  Ti44  1  0.31447745  0.81420724  0.85921103  1
  Ti  Ti45  1  0.62060653  0.17201051  0.14833731  1
  Ti  Ti46  1  0.69902211  0.17741170  0.54654915  1
  Ti  Ti47  1  0.59866046  0.20418109  0.83835810  1
  Ti  Ti48  1  0.70600421  0.50258478  0.17724081  1
  Ti  Ti49  1  0.67225052  0.49592586  0.43738820  1
  Ti  Ti50  1  0.70733479  0.51571780  0.86862116  1
  Ti  Ti51  1  0.66538012  0.80606102  0.07452943  1
  Ti  Ti52  1  0.65460561  0.83243061  0.48642738  1
  Ti  Ti53  1  0.66688731  0.75083103  0.81778026  1
  Ti  Ti54  1  0.05437908  0.03051493  0.20381362  1
  Ti  Ti55  1  0.12175455  -0.04185721  0.48308901  1
  Ti  Ti56  1  0.15016931  -0.04294005  0.85429981  1
  Ti  Ti57  1  0.17966988  0.32368191  0.23961012  1
  Ti  Ti58  1  0.14898163  0.25185636  0.43378814  1
  Ti  Ti59  1  0.19836418  0.31943925  0.85153433  1
  Ti  Ti60  1  0.07487420  0.62588945  0.19089138  1
  Ti  Ti61  1  0.15686670  0.73830249  0.55802894  1
  Ti  Ti62  1  0.13455661  0.74384476  0.77002858  1
  Ti  Ti63  1  0.53597474  -0.00753881  0.17656161  1
  Ti  Ti64  1  0.49350765  0.00638662  0.51797492  1
  Ti  Ti65  1  0.51409220  0.02036328  0.79100733  1
  Ti  Ti66  1  0.45968767  0.30206682  0.15218924  1
  Ti  Ti67  1  0.55386868  0.30122712  0.44873576  1
  Ti  Ti68  1  0.48261110  0.36348380  0.84931618  1
  Ti  Ti69  1  0.53704736  0.63754702  0.13475915  1
  Ti  Ti70  1  0.49441282  0.73428507  0.52526494  1
  Ti  Ti71  1  0.43914732  0.67113476  0.79639953  1
  Ti  Ti72  1  0.86064263  -0.02147819  0.21009988  1
  Ti  Ti73  1  0.83164897  -0.04483834  0.45637231  1
  Ti  Ti74  1  0.78270598  -0.00880672  0.87632743  1
  Ti  Ti75  1  0.78749124  0.28592613  0.16657624  1
  Ti  Ti76  1  0.83434112  0.31991709  0.47804177  1
  Ti  Ti77  1  0.75879406  0.31877869  0.84708301  1
  Ti  Ti78  1  0.72783423  0.69241136  0.22060938  1
  Ti  Ti79  1  0.84819867  0.61101359  0.49849657  1
  Ti  Ti80  1  0.90164570  0.58271822  0.83738049  1
  Ti  Ti81  1  0.18309587  0.17614968  -0.03423695  1
  Ti  Ti82  1  0.22025698  0.12756500  0.27091106  1
  Ti  Ti83  1  0.16628776  0.20460139  0.69968274  1
  Ti  Ti84  1  0.16104537  0.57630746  0.00036951  1
  Ti  Ti85  1  0.21096149  0.52940037  0.30825195  1
  Ti  Ti86  1  0.19382452  0.55013444  0.65819396  1
  Ti  Ti87  1  0.18429030  0.88261302  0.02574172  1
  Ti  Ti88  1  0.16254804  0.68857320  0.37480237  1
  Ti  Ti89  1  0.14958362  0.90347366  0.66206049  1
  Ti  Ti90  1  0.46369414  0.08956886  -0.02132863  1
  Ti  Ti91  1  0.42168101  0.15182058  0.32613124  1
  Ti  Ti92  1  0.50212605  0.25716510  0.67150031  1
  Ti  Ti93  1  0.48311449  0.54242129  -0.06518413  1
  Ti  Ti94  1  0.42311085  0.52106054  0.34196861  1
  Ti  Ti95  1  0.50558842  0.47747524  0.70242342  1
  Ti  Ti96  1  0.47981885  0.79734010  -0.01179777  1
  Ti  Ti97  1  0.58212796  0.93175823  0.34690177  1
  Ti  Ti98  1  0.57266789  0.86413087  0.65744390  1
  Ti  Ti99  1  0.89864499  0.22461641  -0.01311080  1
  Ti  Ti100  1  0.86523655  0.20645583  0.32067676  1
  Ti  Ti101  1  0.83527044  0.14532875  0.71193756  1
  Ti  Ti102  1  0.78653933  0.41325341  0.02175438  1
  Ti  Ti103  1  0.83380495  0.52982136  0.32790434  1
  Ti  Ti104  1  0.84133309  0.42198284  0.73081107  1
  Ti  Ti105  1  0.85209251  0.85809390  0.00661511  1
  Ti  Ti106  1  0.80646863  0.81654438  0.33242562  1
  Ti  Ti107  1  0.80448034  0.85052016  0.65851281  1
  Co  Co108  1  0.46096419  0.13618677  0.14039735  1
  Co  Co109  1  0.83407633  0.72018403  0.08116660  1
  Co  Co110  1  0.33128763  0.25935420  0.23947080  1
  Co  Co111  1  0.63262201  0.05152036  0.91654984  1
  Co  Co112  1  0.38990054  0.60589661  0.20763039  1
  Co  Co113  1  0.79827887  0.45918654  0.55267442  1
  Co  Co114  1  0.85632392  0.04047618  0.59028975  1
  Co  Co115  1  0.91031918  0.08991150  0.87216379  1
  Co  Co116  1  0.23636080  0.55830589  0.14378310  1
  Co  Co117  1  0.63535897  0.39888777  0.76888689  1
  Co  Co118  1  0.04421413  0.28773873  0.91356390  1
  Co  Co119  1  0.56672319  0.20513380  0.28764721  1
  Co  Co120  1  0.81204418  0.84471807  0.82273924  1
  Co  Co121  1  0.55699032  0.46514509  0.54036784  1
  Co  Co122  1  0.62944703  0.36590370  0.93301635  1
  Co  Co123  1  0.48537915  0.39621658  0.01651068  1
  Co  Co124  1  0.15330197  0.57178470  0.50445492  1
  Co  Co125  1  0.20926226  1.00253134  0.14989436  1
  Co  Co126  1  0.05307298  0.19256355  0.28844166  1
  Co  Co127  1  0.15568783  0.13292112  0.55215002  1
  Co  Co128  1  0.26477440  0.02452288  0.98202180  1
  Co  Co129  1  0.85735334  0.56529715  0.99069457  1
  Co  Co130  1  0.28591648  0.95503351  0.74968723  1
  Co  Co131  1  0.81545310  0.12199556  0.45036749  1
  Co  Co132  1  0.70253424  0.24037277  0.38599158  1
  Co  Co133  1  0.11303343  0.40804264  0.36512801  1
  Co  Co134  1  -0.00550535  0.51782599  0.27873412  1
  Co  Co135  1  0.29172338  0.13751199  0.44026666  1
  Co  Co136  1  0.90130389  0.25006134  0.82501033  1
  Co  Co137  1  0.66425799  0.91984022  0.77612216  1
  Co  Co138  1  0.76385585  0.15416962  0.86161202  1
  Co  Co139  1  0.08748999  0.29805483  0.58053114  1
  Co  Co140  1  0.43929807  0.78427782  0.68706702  1
  Co  Co141  1  -0.00906986  0.94891668  0.90813560  1
  Co  Co142  1  0.81865923  0.70845994  0.91322114  1
  Co  Co143  1  0.36337603  0.02685282  0.22316072  1
  Co  Co144  1  0.10849403  0.45697890  0.17602788  1
  Co  Co145  1  0.98984782  0.29320781  0.43495917  1
  Co  Co146  1  0.90355653  0.80943587  0.19281554  1
  Co  Co147  1  0.51617105  0.62539671  0.64098848  1
  Co  Co148  1  0.14315258  0.94829115  0.31182485  1
  Co  Co149  1  0.43431954  0.34167164  0.54848458  1
  Co  Co150  1  0.67123727  0.07950087  0.75341397  1
  Co  Co151  1  0.68747629  0.23462986  0.70529914  1
  Co  Co152  1  0.83431781  0.29105349  0.64061652  1
  Co  Co153  1  0.55617305  0.10433299  0.63701297  1
  Co  Co154  1  1.02062827  0.66889536  0.48538187  1
  Co  Co155  1  -0.00781454  0.96670739  0.58514282  1
  Co  Co156  1  0.31014800  0.62205964  0.45572041  1
  Co  Co157  1  0.26156633  0.46333496  0.44223389  1
  Co  Co158  1  0.13536912  0.09024600  0.39578325  1
  Co  Co159  1  0.50868575  0.59539940  0.45338516  1
  Co  Co160  1  0.67838042  1.00372581  0.45563043  1
  Co  Co161  1  0.66998986  0.87203533  0.93265807  1
  Ni  Ni162  1  0.78767142  0.12305742  0.12749783  1
  Ni  Ni163  1  0.70353507  0.91503302  0.22645846  1
  Ni  Ni164  1  0.60881476  0.56649485  0.29872973  1
  Ni  Ni165  1  0.86370801  0.43477134  0.18651297  1
  Ni  Ni166  1  0.78716484  0.37189103  0.32123457  1
  Ni  Ni167  1  0.42462978  0.95210539  0.66371730  1
  Ni  Ni168  1  0.32053349  0.25503884  0.75800880  1
  Ni  Ni169  1  0.91422453  0.40790192  0.90958392  1
  Ni  Ni170  1  0.45323437  0.86007943  0.42691813  1
  Ni  Ni171  1  0.87636504  0.59926379  0.17678441  1
  Ni  Ni172  1  0.14981105  0.73633861  0.09257958  1
  Ni  Ni173  1  0.89877963  0.71354145  0.61847798  1
  Ni  Ni174  1  0.80028914  0.68690646  0.74522753  1
  Ni  Ni175  1  0.26835669  0.44102686  0.95944579  1
  Ni  Ni176  1  0.58711578  0.59629162  0.79556064  1
  Ni  Ni177  1  0.25840854  0.30789589  0.08751223  1
  Ni  Ni178  1  0.72193041  0.66672754  0.38799541  1
  Ni  Ni179  1  0.44678457  0.17208199  0.50785746  1
  Ni  Ni180  1  0.53099624  0.23981538  0.00336229  1
  Ni  Ni181  1  0.51799413  0.47183972  0.18209464  1
  Ni  Ni182  1  0.95847397  0.33197604  0.09331907  1
  Ni  Ni183  1  0.09871509  0.03460280  0.02100405  1
  Ni  Ni184  1  0.87065676  0.55852955  0.65859983  1
  Ni  Ni185  1  0.23131166  0.83859786  0.41867821  1
  Ni  Ni186  1  0.32519936  0.42667800  0.23388803  1
  Ni  Ni187  1  0.43876197  0.19108930  0.84079693  1
  Ni  Ni188  1  0.63357485  0.34678606  0.10197678  1
  Ni  Ni189  1  0.56948459  0.82211460  0.20220850  1
  Ni  Ni190  1  0.38999645  0.95366697  0.89946791  1
  Ni  Ni191  1  0.61646970  0.49654557  0.03150536  1
  Ni  Ni192  1  0.43043944  0.88758558  0.26872978  1
  Ni  Ni193  1  0.24477306  0.69811340  0.22599820  1
  Ni  Ni194  1  0.14795223  0.39758602  0.71675746  1
  Ni  Ni195  1  0.54282608  0.94707253  0.01116621  1
  Ni  Ni196  1  0.36853198  0.38702071  0.68826331  1
  Ni  Ni197  1  0.79928375  0.76937124  0.49993527  1
  Ni  Ni198  1  0.00922126  0.81561751  0.67732718  1
  Ni  Ni199  1  0.32456709  0.60904673  0.92723586  1
  Ni  Ni200  1  0.46349181  0.35347272  0.30866199  1
  Ni  Ni201  1  0.06160094  0.63268694  0.86679983  1
  Ni  Ni202  1  0.66714239  0.72718238  0.62992060  1
  Ni  Ni203  1  0.57994839  0.12467073  0.42710285  1
  Ni  Ni204  1  0.57756734  0.67583987  0.94741193  1
  Ni  Ni205  1  0.42591682  0.76588403  0.16246638  1
  Ni  Ni206  1  0.95832285  0.91259848  0.32777973  1
  Ni  Ni207  1  0.07040247  0.81560532  0.39201543  1
  Ni  Ni208  1  0.39888147  0.11414622  0.69094035  1
  Ni  Ni209  1  0.26815901  0.64833751  0.78007011  1
  Ni  Ni210  1  0.93430846  0.16159631  0.17325469  1
  Ni  Ni211  1  1.00836574  0.89010434  0.07047831  1
  Ni  Ni212  1  0.18635815  0.73127270  0.93121083  1
  Ni  Ni213  1  0.09989279  0.05382594  0.69289430  1
  Ni  Ni214  1  0.27717725  0.79522850  0.69533431  1
  Ni  Ni215  1  0.95431166  0.40084947  0.58463142  1
