# generated using pymatgen
data_Ti2CoNi
_symmetry_space_group_name_H-M   'P 1'
_cell_length_a   14.54902201
_cell_length_b   14.58722131
_cell_length_c   14.52208604
_cell_angle_alpha   90.15458726
_cell_angle_beta   90.00471169
_cell_angle_gamma   90.16404205
_symmetry_Int_Tables_number   1
_chemical_formula_structural   Ti2CoNi
_chemical_formula_sum   'Ti108 Co54 Ni54'
_cell_volume   3081.99561114
_cell_formula_units_Z   54
loop_
 _symmetry_equiv_pos_site_id
 _symmetry_equiv_pos_as_xyz
  1  'x, y, z'
loop_
 _atom_site_type_symbol
 _atom_site_label
 _atom_site_symmetry_multiplicity
 _atom_site_fract_x
 _atom_site_fract_y
 _atom_site_fract_z
 _atom_site_occupancy
  Ti  Ti0  1  -0.07938658  0.04065729  -0.01505512  1
  Ti  Ti1  1  -0.00832545  -0.05048709  0.30765785  1
  Ti  Ti2  1  0.00068372  -0.05807366  0.69699151  1
  Ti  Ti3  1  -0.00980588  0.32691806  0.03883064  1
  Ti  Ti4  1  -0.05673979  0.31714113  0.30764462  1
  Ti  Ti5  1  0.01313230  0.27404776  0.70802543  1
  Ti  Ti6  1  0.05304434  0.67538128  0.03354655  1
  Ti  Ti7  1  0.02608805  0.62986973  0.34645493  1
  Ti  Ti8  1  -0.06558793  0.60357102  0.64812405  1
  Ti  Ti9  1  0.37917404  -0.02215329  0.01857382  1
  Ti  Ti10  1  0.39827806  -0.02997271  0.32070374  1
  Ti  Ti11  1  0.31241921  0.03794676  0.60245622  1
  Ti  Ti12  1  0.27438040  0.32180506  -0.00737712  1
  Ti  Ti13  1  0.31594232  0.28954703  0.31888464  1
  Ti  Ti14  1  0.31045898  0.37634654  0.63032906  1
  Ti  Ti15  1  0.27430462  0.67089100  -0.00472315  1
  Ti  Ti16  1  0.36545668  0.71061747  0.40533641  1
  Ti  Ti17  1  0.31499081  0.67267924  0.59124472  1
  Ti  Ti18  1  0.71614011  0.00897875  0.03204494  1
  Ti  Ti19  1  0.66105347  -0.01024429  0.44838462  1
  Ti  Ti20  1  0.61144216  -0.03222458  0.65409366  1
  Ti  Ti21  1  0.63008213  0.38854621  -0.03089215  1
  Ti  Ti22  1  0.75260698  0.41679744  0.26281188  1
  Ti  Ti23  1  0.63536829  0.30049292  0.59922078  1
  Ti  Ti24  1  0.69827765  0.68507721  0.04801169  1
  Ti  Ti25  1  0.65621102  0.69847725  0.25150281  1
  Ti  Ti26  1  0.71624097  0.57775453  0.63414860  1
  Ti  Ti27  1  0.01883897  0.11081188  0.22093502  1
  Ti  Ti28  1  0.04773811  0.12815058  0.56710022  1
  Ti  Ti29  1  0.00441205  0.20431242  0.87794030  1
  Ti  Ti30  1  -0.09739939  0.53392725  0.15087537  1
  Ti  Ti31  1  0.08078801  0.51416634  0.56326110  1
  Ti  Ti32  1  0.04637933  0.46079549  0.76992974  1
  Ti  Ti33  1  -0.00386617  0.77794324  0.19445775  1
  Ti  Ti34  1  -0.02954402  0.89884533  0.49031779  1
  Ti  Ti35  1  0.02409336  0.87743806  0.86521650  1
  Ti  Ti36  1  0.40836089  0.16194242  0.16193574  1
  Ti  Ti37  1  0.37088244  0.22241287  0.52236651  1
  Ti  Ti38  1  0.34513553  0.15572588  0.90031558  1
  Ti  Ti39  1  0.39120620  0.45267952  0.19951481  1
  Ti  Ti40  1  0.38738634  0.48912999  0.48825018  1
  Ti  Ti41  1  0.35185861  0.45241881  0.85728859  1
  Ti  Ti42  1  0.28524074  0.84395868  0.20167430  1
  Ti  Ti43  1  0.30164945  0.87816126  0.51055562  1
  Ti  Ti44  1  0.30020090  0.76749373  0.80201467  1
  Ti  Ti45  1  0.67787230  0.15615971  0.22375477  1
  Ti  Ti46  1  0.61523163  0.17975657  0.43132982  1
  Ti  Ti47  1  0.72523588  0.11213061  0.85877459  1
  Ti  Ti48  1  0.60857877  0.51587242  0.14208561  1
  Ti  Ti49  1  0.69458690  0.40078131  0.45130013  1
  Ti  Ti50  1  0.64403359  0.50549323  0.79010563  1
  Ti  Ti51  1  0.63974456  0.86098933  0.13841404  1
  Ti  Ti52  1  0.64220519  0.75555339  0.59545979  1
  Ti  Ti53  1  0.69444962  0.81914527  0.76897532  1
  Ti  Ti54  1  0.19513203  0.06305983  0.16163545  1
  Ti  Ti55  1  0.16366681  0.00345651  0.46009762  1
  Ti  Ti56  1  0.20715413  0.01719878  0.79685193  1
  Ti  Ti57  1  0.20297891  0.37918496  0.16020937  1
  Ti  Ti58  1  0.19147313  0.36242917  0.46998147  1
  Ti  Ti59  1  0.21923061  0.33100388  0.80038717  1
  Ti  Ti60  1  0.23494041  0.58071254  0.17959569  1
  Ti  Ti61  1  0.19666002  0.57766559  0.41882145  1
  Ti  Ti62  1  0.12676479  0.65927648  0.83219933  1
  Ti  Ti63  1  0.54955790  0.04353339  0.12663283  1
  Ti  Ti64  1  0.47421708  0.02476900  0.48663777  1
  Ti  Ti65  1  0.47178043  -0.00301482  0.83117396  1
  Ti  Ti66  1  0.59813024  0.31875341  0.14753822  1
  Ti  Ti67  1  0.51021259  0.33811231  0.43675915  1
  Ti  Ti68  1  0.53327829  0.31912412  0.77395434  1
  Ti  Ti69  1  0.45147183  0.61494150  0.10626729  1
  Ti  Ti70  1  0.55000643  0.70529878  0.44253620  1
  Ti  Ti71  1  0.50403630  0.63447499  0.84979471  1
  Ti  Ti72  1  0.83632346  0.02211681  0.21575828  1
  Ti  Ti73  1  0.79375141  0.06960026  0.55007343  1
  Ti  Ti74  1  0.81195722  -0.06213809  0.85978865  1
  Ti  Ti75  1  0.81646763  0.30651903  0.13422304  1
  Ti  Ti76  1  0.90038045  0.28477211  0.51986026  1
  Ti  Ti77  1  0.79824895  0.41268617  0.90125317  1
  Ti  Ti78  1  0.84838680  0.68860069  0.27337200  1
  Ti  Ti79  1  0.86650890  0.71388519  0.48385718  1
  Ti  Ti80  1  0.80694414  0.66883107  0.80380914  1
  Ti  Ti81  1  0.12887062  0.18526385  0.02076565  1
  Ti  Ti82  1  0.14765660  0.21717010  0.32016520  1
  Ti  Ti83  1  0.21336552  0.19757157  0.66765347  1
  Ti  Ti84  1  0.10299052  0.48663795  0.04055145  1
  Ti  Ti85  1  0.09495930  0.45188939  0.29270765  1
  Ti  Ti86  1  0.22837941  0.54058872  0.72675820  1
  Ti  Ti87  1  0.07676252  0.86726009  0.04275191  1
  Ti  Ti88  1  0.13558062  0.82547309  0.34938737  1
  Ti  Ti89  1  0.16645321  0.82628852  0.68588354  1
  Ti  Ti90  1  0.50203128  0.22352333  0.00512590  1
  Ti  Ti91  1  0.45268127  0.16147554  0.34777992  1
  Ti  Ti92  1  0.48963089  0.14417144  0.65148929  1
  Ti  Ti93  1  0.45834028  0.42174652  0.02846430  1
  Ti  Ti94  1  0.48980056  0.57056565  0.32817214  1
  Ti  Ti95  1  0.45905619  0.50512404  0.69067070  1
  Ti  Ti96  1  0.52627205  0.76752567  -0.00511247  1
  Ti  Ti97  1  0.56803086  0.86390291  0.32965412  1
  Ti  Ti98  1  0.49777454  0.81031848  0.75184202  1
  Ti  Ti99  1  0.82731596  0.22965425  -0.03531890  1
  Ti  Ti100  1  0.90505088  0.12612826  0.40094299  1
  Ti  Ti101  1  0.80086417  0.20674615  0.68304227  1
  Ti  Ti102  1  0.86798803  0.59589588  -0.01737361  1
  Ti  Ti103  1  0.79093333  0.56294742  0.39769804  1
  Ti  Ti104  1  0.84607987  0.41707401  0.69771497  1
  Ti  Ti105  1  0.86897012  0.82236367  -0.00170888  1
  Ti  Ti106  1  0.77970575  0.85421493  0.33138763  1
  Ti  Ti107  1  0.82892278  0.89250347  0.62259869  1
  Co  Co108  1  0.69605858  0.84865777  0.97797029  1
  Co  Co109  1  0.78637156  0.26998242  0.35309117  1
  Co  Co110  1  0.72452594  0.56204626  0.91778120  1
  Co  Co111  1  0.47880856  0.61175480  0.55351959  1
  Co  Co112  1  0.43742791  0.85113432  0.43530782  1
  Co  Co113  1  0.07551716  1.04894072  0.90265222  1
  Co  Co114  1  0.06633057  0.10455680  0.74473592  1
  Co  Co115  1  0.86196544  0.18443027  0.23850278  1
  Co  Co116  1  0.15250333  0.39232186  0.66213492  1
  Co  Co117  1  0.57959278  0.57067169  -0.01587463  1
  Co  Co118  1  0.68125353  0.26811366  0.87441699  1
  Co  Co119  1  0.75292734  0.58405261  0.17793360  1
  Co  Co120  1  0.81430323  0.49207036  0.55311167  1
  Co  Co121  1  0.85653519  0.41138907  0.42209864  1
  Co  Co122  1  0.42145087  0.30590625  0.89346575  1
  Co  Co123  1  0.10745253  0.92018836  0.20061812  1
  Co  Co124  1  0.06456741  0.02720108  0.06766672  1
  Co  Co125  1  0.31556560  0.61364072  0.83944522  1
  Co  Co126  1  0.75187973  0.09746554  0.35655044  1
  Co  Co127  1  0.94318454  0.55541609  0.47757820  1
  Co  Co128  1  1.03662316  0.24609106  0.42529525  1
  Co  Co129  1  0.87583420  0.70044781  0.10937191  1
  Co  Co130  1  0.22407177  0.93086234  0.07031141  1
  Co  Co131  1  0.33089404  0.56313418  0.32331807  1
  Co  Co132  1  0.92276739  0.50692563  0.30903741  1
  Co  Co133  1  0.51249578  0.45763269  0.86912472  1
  Co  Co134  1  0.17672610  0.18009371  0.85123250  1
  Co  Co135  1  0.22960091  0.06644968  0.97248595  1
  Co  Co136  1  0.29334020  0.48939229  0.04960771  1
  Co  Co137  1  0.05354036  0.69087536  0.48966704  1
  Co  Co138  1  0.45415072  0.92991613  0.61717230  1
  Co  Co139  1  0.73694048  0.85083196  0.50011947  1
  Co  Co140  1  0.47715819  0.28954458  0.25395471  1
  Co  Co141  1  0.02705166  0.42000643  0.43098229  1
  Co  Co142  1  0.80161169  0.13056682  0.09513905  1
  Co  Co143  1  0.95883140  0.41889283  0.59142328  1
  Co  Co144  1  0.41077244  0.66286156  0.71311534  1
  Co  Co145  1  0.15439259  0.74855072  0.15884459  1
  Co  Co146  1  0.40883112  0.41563077  0.35243141  1
  Co  Co147  1  0.87988041  0.81965370  0.77805527  1
  Co  Co148  1  0.57449666  0.65067339  0.70021141  1
  Co  Co149  1  0.56187859  0.04835207  0.32256424  1
  Co  Co150  1  0.05967957  0.08814270  0.39022462  1
  Co  Co151  1  0.24557812  0.43446544  0.32676191  1
  Co  Co152  1  0.35073398  0.00706172  0.17382219  1
  Co  Co153  1  0.37657054  0.31375663  0.12068213  1
  Co  Co154  1  0.55776866  0.42675612  0.27459129  1
  Co  Co155  1  0.45047307  0.76936465  0.58292791  1
  Co  Co156  1  0.07580979  0.29754088  0.56478474  1
  Co  Co157  1  0.57191405  0.87143101  0.51334924  1
  Co  Co158  1  0.75237892  0.22089746  0.50294804  1
  Co  Co159  1  0.65297412  0.70690620  0.88006881  1
  Co  Co160  1  0.63380107  0.29542727  0.31301862  1
  Co  Co161  1  0.41243951  0.57007056  0.96206169  1
  Ni  Ni162  1  0.11877628  0.85953091  0.53819149  1
  Ni  Ni163  1  0.70397038  0.34978014  0.74184190  1
  Ni  Ni164  1  0.84039215  0.96805932  0.42964908  1
  Ni  Ni165  1  0.91682775  0.08139690  0.65041261  1
  Ni  Ni166  1  0.95748550  0.17209561  0.08272243  1
  Ni  Ni167  1  0.90770846  0.07237484  0.80936699  1
  Ni  Ni168  1  0.95752019  0.71488078  0.89079431  1
  Ni  Ni169  1  0.40147294  0.84783497  0.90667598  1
  Ni  Ni170  1  0.19051675  0.50415115  0.89966788  1
  Ni  Ni171  1  0.96103406  0.78740465  0.36101056  1
  Ni  Ni172  1  0.88994395  0.53075061  0.81596121  1
  Ni  Ni173  1  0.15098464  0.00067056  0.63418597  1
  Ni  Ni174  1  0.63730726  0.96388828  0.83657513  1
  Ni  Ni175  1  0.02465674  0.75010920  0.74684311  1
  Ni  Ni176  1  0.07301380  0.26570582  0.17835450  1
  Ni  Ni177  1  0.70963768  0.71374894  0.40982255  1
  Ni  Ni178  1  0.63643198  0.18635577  0.73786366  1
  Ni  Ni179  1  0.06499770  0.59743852  0.18541882  1
  Ni  Ni180  1  0.01925889  0.55422040  0.91171680  1
  Ni  Ni181  1  0.24049367  0.22355524  0.15004263  1
  Ni  Ni182  1  0.22621406  0.69741548  0.30503204  1
  Ni  Ni183  1  0.85980455  0.27989688  0.80987732  1
  Ni  Ni184  1  0.96026480  0.39419956  0.89197617  1
  Ni  Ni185  1  0.29414527  0.12576167  0.28235981  1
  Ni  Ni186  1  0.75737456  0.45353901  0.07050473  1
  Ni  Ni187  1  0.37501940  0.78249897  0.07374838  1
  Ni  Ni188  1  0.51736100  0.74609457  0.18696324  1
  Ni  Ni189  1  0.34658852  0.91542953  0.74037757  1
  Ni  Ni190  1  0.35792936  0.09802358  0.74629792  1
  Ni  Ni191  1  0.65165274  0.54615735  0.32030427  1
  Ni  Ni192  1  0.22130039  0.97719167  0.30720164  1
  Ni  Ni193  1  0.47330261  0.89862717  0.14842753  1
  Ni  Ni194  1  0.19459276  0.18722021  0.49590322  1
  Ni  Ni195  1  0.54548999  0.93175682  -0.01677553  1
  Ni  Ni196  1  0.80149107  0.84135843  0.15503688  1
  Ni  Ni197  1  -0.01362054  0.40808435  0.17623427  1
  Ni  Ni198  1  0.57607086  0.08835873  0.94814663  1
  Ni  Ni199  1  0.68392355  0.97632910  0.24948588  1
  Ni  Ni200  1  0.64016215  0.12284955  0.58517013  1
  Ni  Ni201  1  0.37209241  0.26465531  0.73630354  1
  Ni  Ni202  1  0.31267957  0.08433549  0.43530536  1
  Ni  Ni203  1  0.46907992  0.33542741  0.61043907  1
  Ni  Ni204  1  0.81079770  0.72872294  0.64307165  1
  Ni  Ni205  1  0.76307817  0.02064979  0.71714516  1
  Ni  Ni206  1  0.11486600  0.33653858  0.92462898  1
  Ni  Ni207  1  0.66914557  0.20464118  0.03699705  1
  Ni  Ni208  1  0.55906161  0.46214042  0.55002699  1
  Ni  Ni209  1  0.24566323  0.51761603  0.56454742  1
  Ni  Ni210  1  0.37384444  0.68882605  0.22941208  1
  Ni  Ni211  1  0.97338703  0.77169317  0.60360643  1
  Ni  Ni212  1  0.14466983  0.66486838  0.63178214  1
  Ni  Ni213  1  0.21033455  0.73879343  0.47900474  1
  Ni  Ni214  1  0.94316533  0.93083070  0.12723717  1
  Ni  Ni215  1  0.17104522  0.79090667  0.92780175  1
