# generated using pymatgen
data_Ti2CoNi
_symmetry_space_group_name_H-M   'P 1'
_cell_length_a   14.64787532
_cell_length_b   14.69110207
_cell_length_c   14.66609385
_cell_angle_alpha   90.04427459
_cell_angle_beta   89.89714737
_cell_angle_gamma   89.89236854
_symmetry_Int_Tables_number   1
_chemical_formula_structural   Ti2CoNi
_chemical_formula_sum   'Ti108 Co54 Ni54'
_cell_volume   3156.03545649
_cell_formula_units_Z   54
loop_
 _symmetry_equiv_pos_site_id
 _symmetry_equiv_pos_as_xyz
  1  'x, y, z'
loop_
 _atom_site_type_symbol
 _atom_site_label
 _atom_site_symmetry_multiplicity
 _atom_site_fract_x
 _atom_site_fract_y
 _atom_site_fract_z
 _atom_site_occupancy
  Ti  Ti0  1  0.03207461  -0.01339883  0.08343217  1
  Ti  Ti1  1  -0.05213235  -0.07127035  0.34320843  1
  Ti  Ti2  1  0.05199600  -0.05236236  0.62982348  1
  Ti  Ti3  1  0.00714176  0.32134651  -0.00402138  1
  Ti  Ti4  1  0.02454596  0.34756868  0.28920663  1
  Ti  Ti5  1  -0.00158725  0.27950541  0.73017847  1
  Ti  Ti6  1  -0.01347783  0.67446818  -0.04539965  1
  Ti  Ti7  1  0.05396490  0.67295897  0.28029911  1
  Ti  Ti8  1  -0.02486495  0.73708830  0.65467190  1
  Ti  Ti9  1  0.40116967  -0.03789469  -0.08113554  1
  Ti  Ti10  1  0.32901477  0.06165658  0.32399959  1
  Ti  Ti11  1  0.34911509  -0.04272632  0.72626087  1
  Ti  Ti12  1  0.35141869  0.27909928  0.04198306  1
  Ti  Ti13  1  0.28653869  0.42253580  0.38710687  1
  Ti  Ti14  1  0.29912864  0.27452962  0.61345941  1
  Ti  Ti15  1  0.32161383  0.74058255  -0.00766248  1
  Ti  Ti16  1  0.33755602  0.62707507  0.43375341  1
  Ti  Ti17  1  0.34922904  0.65977226  0.66340082  1
  Ti  Ti18  1  0.60805857  -0.04876759  0.05137362  1
  Ti  Ti19  1  0.67988873  0.05707514  0.33386259  1
  Ti  Ti20  1  0.70223390  0.03271528  0.55594645  1
  Ti  Ti21  1  0.70022629  0.31870914  -0.05250607  1
  Ti  Ti22  1  0.74389288  0.27903413  0.38309361  1
  Ti  Ti23  1  0.60352164  0.33631310  0.64337910  1
  Ti  Ti24  1  0.65080255  0.63835582  -0.04096582  1
  Ti  Ti25  1  0.61081963  0.73749314  0.35134650  1
  Ti  Ti26  1  0.67692136  0.64277801  0.65138756  1
  Ti  Ti27  1  -0.05456387  0.19099695  0.13108500  1
  Ti  Ti28  1  -0.00749827  0.16728973  0.45808519  1
  Ti  Ti29  1  -0.01716023  0.14048224  0.92099307  1
  Ti  Ti30  1  0.00520748  0.56273434  0.12295701  1
  Ti  Ti31  1  -0.01898621  0.54141062  0.50544606  1
  Ti  Ti32  1  -0.01759666  0.47836068  0.81551857  1
  Ti  Ti33  1  -0.03895447  0.80677662  0.17757264  1
  Ti  Ti34  1  -0.00484912  0.72745600  0.45693301  1
  Ti  Ti35  1  0.03088781  0.82384552  0.82931981  1
  Ti  Ti36  1  0.40365217  0.20971488  0.21923445  1
  Ti  Ti37  1  0.32924918  0.11860363  0.49734782  1
  Ti  Ti38  1  0.27481640  0.23208205  0.82503964  1
  Ti  Ti39  1  0.31928027  0.52806133  0.22341428  1
  Ti  Ti40  1  0.34635414  0.46849977  0.58462510  1
  Ti  Ti41  1  0.36027220  0.50238987  0.79180572  1
  Ti  Ti42  1  0.27396895  0.85328337  0.17112671  1
  Ti  Ti43  1  0.32996978  0.85962413  0.45828383  1
  Ti  Ti44  1  0.37760048  0.78964746  0.80688784  1
  Ti  Ti45  1  0.60762112  0.21410455  0.13669230  1
  Ti  Ti46  1  0.62679294  0.20212643  0.49708106  1
  Ti  Ti47  1  0.69888653  0.13385062  0.84769132  1
  Ti  Ti48  1  0.69997553  0.50274834  0.20737534  1
  Ti  Ti49  1  0.63260864  0.43178488  0.41920227  1
  Ti  Ti50  1  0.79597828  0.52474761  0.85446780  1
  Ti  Ti51  1  0.62540507  0.75975739  0.12192048  1
  Ti  Ti52  1  0.60263043  0.89876762  0.46913265  1
  Ti  Ti53  1  0.69778044  0.89653076  0.82411651  1
  Ti  Ti54  1  0.18736394  0.03140009  0.19294090  1
  Ti  Ti55  1  0.16611789  -0.01163036  0.48043629  1
  Ti  Ti56  1  0.20213474  0.04527251  0.80987856  1
  Ti  Ti57  1  0.17979373  0.27811726  0.14966151  1
  Ti  Ti58  1  0.14699513  0.39984518  0.56758460  1
  Ti  Ti59  1  0.16651119  0.39408737  0.87178569  1
  Ti  Ti60  1  0.14114147  0.72288302  0.09840143  1
  Ti  Ti61  1  0.12993567  0.65387216  0.58245447  1
  Ti  Ti62  1  0.16997878  0.58899285  0.92015539  1
  Ti  Ti63  1  0.43764515  -0.02196363  0.18621607  1
  Ti  Ti64  1  0.50183837  0.03999457  0.56457065  1
  Ti  Ti65  1  0.54036566  0.02906908  0.74895073  1
  Ti  Ti66  1  0.50592322  0.37830513  0.14285852  1
  Ti  Ti67  1  0.45902212  0.33296807  0.47245914  1
  Ti  Ti68  1  0.49492545  0.36019945  0.82440075  1
  Ti  Ti69  1  0.44600746  0.62547242  0.09329497  1
  Ti  Ti70  1  0.50035452  0.72451146  0.52434438  1
  Ti  Ti71  1  0.47101181  0.64222309  0.86173321  1
  Ti  Ti72  1  0.83696451  0.00556415  0.17348656  1
  Ti  Ti73  1  0.90369992  0.01151994  0.51556216  1
  Ti  Ti74  1  0.84856071  0.02995897  0.81766634  1
  Ti  Ti75  1  0.79237608  0.32464596  0.20934142  1
  Ti  Ti76  1  0.89479654  0.29179434  0.55276872  1
  Ti  Ti77  1  0.79945665  0.33877961  0.76553322  1
  Ti  Ti78  1  0.77370046  0.68616063  0.25254484  1
  Ti  Ti79  1  0.78785698  0.62310870  0.46263469  1
  Ti  Ti80  1  0.81219680  0.72055087  0.80797584  1
  Ti  Ti81  1  0.17399221  0.13363794  -0.01460742  1
  Ti  Ti82  1  0.16462105  0.20213264  0.41811671  1
  Ti  Ti83  1  0.15319762  0.12532089  0.61865069  1
  Ti  Ti84  1  0.20857459  0.44780129  0.06142670  1
  Ti  Ti85  1  0.11460443  0.51568903  0.37225050  1
  Ti  Ti86  1  0.19489537  0.54338132  0.71437703  1
  Ti  Ti87  1  0.19429900  0.90776223  -0.00322174  1
  Ti  Ti88  1  0.18059064  0.79609912  0.34100759  1
  Ti  Ti89  1  0.19356280  0.80186774  0.70080140  1
  Ti  Ti90  1  0.52046424  0.14414588  -0.06098808  1
  Ti  Ti91  1  0.48992522  0.15715757  0.38550705  1
  Ti  Ti92  1  0.46290501  0.20599336  0.73273548  1
  Ti  Ti93  1  0.50661426  0.47904324  -0.03998119  1
  Ti  Ti94  1  0.51158704  0.49671116  0.28249433  1
  Ti  Ti95  1  0.53361670  0.51490435  0.70510129  1
  Ti  Ti96  1  0.53609600  0.80260590  -0.05423622  1
  Ti  Ti97  1  0.46305443  0.78077089  0.21083100  1
  Ti  Ti98  1  0.47454811  0.85642005  0.63679612  1
  Ti  Ti99  1  0.78536078  0.12046493  0.02608423  1
  Ti  Ti100  1  0.88121877  0.13993305  0.31312297  1
  Ti  Ti101  1  0.76940451  0.18596834  0.64170263  1
  Ti  Ti102  1  0.82520816  0.47825100  0.05217353  1
  Ti  Ti103  1  0.83273381  0.46402815  0.35072058  1
  Ti  Ti104  1  0.85863640  0.55442106  0.65826425  1
  Ti  Ti105  1  0.77849683  0.78366552  -0.00596630  1
  Ti  Ti106  1  0.75480478  0.87839922  0.31119852  1
  Ti  Ti107  1  0.86710401  0.89054666  0.68102039  1
  Co  Co108  1  0.66771468  0.38072180  0.09159783  1
  Co  Co109  1  0.23218598  0.18832274  0.26956939  1
  Co  Co110  1  0.53531617  0.45121947  0.54898304  1
  Co  Co111  1  0.84200835  0.21963385  0.91057247  1
  Co  Co112  1  0.09750031  0.14751229  0.12550808  1
  Co  Co113  1  0.75946858  0.78015214  0.43397973  1
  Co  Co114  1  0.42944509  0.63487353  0.27971663  1
  Co  Co115  1  0.53050706  0.08248938  0.24809463  1
  Co  Co116  1  0.02863994  0.55988928  0.67278501  1
  Co  Co117  1  0.62822758  0.20546231  0.29846987  1
  Co  Co118  1  0.77364055  0.17009260  0.19389681  1
  Co  Co119  1  0.90556221  0.85105829  0.49746274  1
  Co  Co120  1  0.65345328  0.76754599  0.55250978  1
  Co  Co121  1  0.58863724  0.63956138  0.21908114  1
  Co  Co122  1  0.30618643  0.69841286  0.18467308  1
  Co  Co123  1  0.27868551  0.66168583  0.81775761  1
  Co  Co124  1  0.33174165  0.11716448  0.96156079  1
  Co  Co125  1  0.35622193  0.88663559  0.30300911  1
  Co  Co126  1  0.94842146  0.63968055  0.79896704  1
  Co  Co127  1  0.96449133  0.41650034  0.63117872  1
  Co  Co128  1  0.21185453  0.95149735  0.33315672  1
  Co  Co129  1  0.73076468  0.63116455  0.09950660  1
  Co  Co130  1  0.25878194  0.60051862  0.07321200  1
  Co  Co131  1  0.27048379  0.38479859  0.73127960  1
  Co  Co132  1  0.07170788  0.25961130  0.57116002  1
  Co  Co133  1  0.43055107  0.48977800  0.42478875  1
  Co  Co134  1  0.51392382  0.87677209  0.79871622  1
  Co  Co135  1  0.83570389  0.62603746  0.97147166  1
  Co  Co136  1  0.34825368  0.56939707  0.94424474  1
  Co  Co137  1  0.05896354  0.04464262  0.37367433  1
  Co  Co138  1  0.08748108  0.99317963  0.91600822  1
  Co  Co139  1  0.83116593  0.72302068  0.58396424  1
  Co  Co140  1  0.99198537  0.04669505  0.22509267  1
  Co  Co141  1  0.21872838  0.53729949  0.51408269  1
  Co  Co142  1  0.63074690  0.36097144  0.25867562  1
  Co  Co143  1  0.44499569  -0.00290494  0.42108679  1
  Co  Co144  1  0.28991097  0.13727523  0.12172004  1
  Co  Co145  1  0.73359776  0.79745507  0.69113405  1
  Co  Co146  1  0.62416712  0.91038688  0.65367514  1
  Co  Co147  1  0.46398345  0.58450907  0.57316136  1
  Co  Co148  1  0.10917813  0.67816433  0.77204661  1
  Co  Co149  1  0.10092333  0.41073582  0.72225506  1
  Co  Co150  1  0.51112068  0.69009012  0.70005712  1
  Co  Co151  1  0.72011297  0.02971095  0.71874270  1
  Co  Co152  1  0.38507071  0.09358334  0.81740692  1
  Co  Co153  1  0.16125187  0.25909688  0.71417447  1
  Co  Co154  1  0.89936535  0.30075590  0.37650963  1
  Co  Co155  1  0.67692269  0.57498872  0.35252792  1
  Co  Co156  1  0.87384324  0.86064209  0.87533739  1
  Co  Co157  1  0.53303119  0.60510182  0.41689485  1
  Co  Co158  1  0.41255195  0.24968826  0.89766910  1
  Co  Co159  1  0.43670487  0.36265187  0.66557955  1
  Co  Co160  1  0.16287524  0.66310815  0.42430120  1
  Co  Co161  1  0.76263628  0.88710697  0.55451354  1
  Ni  Ni162  1  0.33248751  0.39960891  0.92444321  1
  Ni  Ni163  1  0.23992138  0.88166776  0.84145408  1
  Ni  Ni164  1  0.46915731  0.20377516  0.57052226  1
  Ni  Ni165  1  0.05956847  0.18678381  0.28119341  1
  Ni  Ni166  1  0.32172422  0.98825574  0.06535730  1
  Ni  Ni167  1  0.88788672  0.88514841  0.05935074  1
  Ni  Ni168  1  0.59263512  0.53993208  0.08527247  1
  Ni  Ni169  1  0.91220318  0.59742296  0.29084393  1
  Ni  Ni170  1  0.43759440  0.75823387  0.37837391  1
  Ni  Ni171  1  0.05816214  0.12027197  0.76273860  1
  Ni  Ni172  1  0.64175972  0.43631301  0.84929529  1
  Ni  Ni173  1  0.03673572  0.48419452  0.97667989  1
  Ni  Ni174  1  0.66804453  0.05839748  0.15583080  1
  Ni  Ni175  1  0.58803986  -0.00353166  0.90013281  1
  Ni  Ni176  1  0.90861137  0.45012103  0.20049914  1
  Ni  Ni177  1  0.08422927  0.90303261  0.24312011  1
  Ni  Ni178  1  0.87609281  0.17766181  0.76241111  1
  Ni  Ni179  1  0.30822505  0.27294591  0.44093300  1
  Ni  Ni180  1  0.10601709  0.24166794  0.87024814  1
  Ni  Ni181  1  0.32965022  0.11402275  0.66608447  1
  Ni  Ni182  1  0.53867304  0.30368475  -0.00261442  1
  Ni  Ni183  1  0.89366336  0.76391118  0.33495798  1
  Ni  Ni184  1  0.80394700  0.14658928  0.47155395  1
  Ni  Ni185  1  0.03405325  0.83509462  0.00025950  1
  Ni  Ni186  1  0.69462929  0.50310323  0.55656189  1
  Ni  Ni187  1  0.76261671  0.96327543  0.97042683  1
  Ni  Ni188  1  0.37762472  0.46574402  0.07288326  1
  Ni  Ni189  1  0.33648007  0.97398616  0.56774976  1
  Ni  Ni190  1  0.18411958  0.41363192  0.25096396  1
  Ni  Ni191  1  0.12296787  0.82434332  0.52992816  1
  Ni  Ni192  1  0.01627886  0.37920719  0.45869120  1
  Ni  Ni193  1  0.16097149  0.75476227  0.91894911  1
  Ni  Ni194  1  0.63782851  0.27098383  0.79169552  1
  Ni  Ni195  1  0.87241050  0.38460644  0.91612281  1
  Ni  Ni196  1  0.64367565  0.59181498  0.80437710  1
  Ni  Ni197  1  0.88562553  0.67207503  0.12323225  1
  Ni  Ni198  1  0.05882058  0.40462296  0.13266406  1
  Ni  Ni199  1  0.74998557  0.86838185  0.13920585  1
  Ni  Ni200  1  0.71727756  0.47250895  0.71020370  1
  Ni  Ni201  1  0.15642806  0.56819845  0.19992060  1
  Ni  Ni202  1  0.33475927  0.36099148  0.20142052  1
  Ni  Ni203  1  0.84570427  0.44473615  0.50995503  1
  Ni  Ni204  1  0.26829592  0.74178033  0.54993411  1
  Ni  Ni205  1  0.96033919  0.12846155  0.62645034  1
  Ni  Ni206  1  0.62150917  0.74810118  0.81091175  1
  Ni  Ni207  1  0.45563611  0.11646669  0.08676140  1
  Ni  Ni208  1  0.83401232  0.29721069  0.05456341  1
  Ni  Ni209  1  0.60949340  0.15445545  0.66282612  1
  Ni  Ni210  1  0.92639088  -0.00534978  0.95655688  1
  Ni  Ni211  1  0.43927421  0.86006367  0.06349995  1
  Ni  Ni212  1  0.73110112  0.33669125  0.54913350  1
  Ni  Ni213  1  0.51905928  0.89213373  0.33195453  1
  Ni  Ni214  1  0.99648196  0.97284331  0.78336211  1
  Ni  Ni215  1  0.61479275  0.91607354  0.21509049  1
