# generated using pymatgen
data_Ti2CoNi
_symmetry_space_group_name_H-M   'P 1'
_cell_length_a   14.58075433
_cell_length_b   14.58760793
_cell_length_c   14.59893358
_cell_angle_alpha   90.19863085
_cell_angle_beta   90.22518682
_cell_angle_gamma   89.75643794
_symmetry_Int_Tables_number   1
_chemical_formula_structural   Ti2CoNi
_chemical_formula_sum   'Ti108 Co54 Ni54'
_cell_volume   3105.09823796
_cell_formula_units_Z   54
loop_
 _symmetry_equiv_pos_site_id
 _symmetry_equiv_pos_as_xyz
  1  'x, y, z'
loop_
 _atom_site_type_symbol
 _atom_site_label
 _atom_site_symmetry_multiplicity
 _atom_site_fract_x
 _atom_site_fract_y
 _atom_site_fract_z
 _atom_site_occupancy
  Ti  Ti0  1  -0.00280810  -0.01014521  -0.04582944  1
  Ti  Ti1  1  0.02448661  0.01847467  0.33523748  1
  Ti  Ti2  1  0.02149837  -0.09726254  0.67135900  1
  Ti  Ti3  1  -0.11151059  0.34841251  -0.03058127  1
  Ti  Ti4  1  0.04045121  0.25674816  0.34536119  1
  Ti  Ti5  1  0.02785982  0.32105758  0.65263109  1
  Ti  Ti6  1  -0.02056221  0.66163863  0.00792616  1
  Ti  Ti7  1  -0.04277878  0.53504294  0.29663703  1
  Ti  Ti8  1  0.10589365  0.69249302  0.61406854  1
  Ti  Ti9  1  0.29453570  -0.03366923  0.01402264  1
  Ti  Ti10  1  0.32793529  -0.00893268  0.34770198  1
  Ti  Ti11  1  0.34827223  -0.03160893  0.66276227  1
  Ti  Ti12  1  0.37672101  0.25358497  0.02693454  1
  Ti  Ti13  1  0.31219683  0.28890250  0.24953366  1
  Ti  Ti14  1  0.34368205  0.35270889  0.72362816  1
  Ti  Ti15  1  0.30578207  0.67762721  0.08242797  1
  Ti  Ti16  1  0.31527028  0.72413188  0.36334757  1
  Ti  Ti17  1  0.34492195  0.68731720  0.59400891  1
  Ti  Ti18  1  0.69385143  0.02689628  -0.07659702  1
  Ti  Ti19  1  0.62930640  0.01238661  0.31837876  1
  Ti  Ti20  1  0.65532482  -0.07976233  0.64971084  1
  Ti  Ti21  1  0.68129317  0.41414575  -0.00935676  1
  Ti  Ti22  1  0.65326268  0.33245323  0.45369587  1
  Ti  Ti23  1  0.56148457  0.33082080  0.63810499  1
  Ti  Ti24  1  0.63503711  0.61842019  0.05096811  1
  Ti  Ti25  1  0.63766565  0.72929372  0.35771568  1
  Ti  Ti26  1  0.67848305  0.69664509  0.58005582  1
  Ti  Ti27  1  0.00093263  0.14590563  0.15954103  1
  Ti  Ti28  1  0.00466239  0.16505271  0.50143322  1
  Ti  Ti29  1  -0.01522041  0.18353314  0.87375503  1
  Ti  Ti30  1  -0.01595064  0.46574471  0.09864964  1
  Ti  Ti31  1  0.04536210  0.51830135  0.52147968  1
  Ti  Ti32  1  -0.02248217  0.50320831  0.89996719  1
  Ti  Ti33  1  0.01663525  0.83741922  0.22649266  1
  Ti  Ti34  1  -0.01792561  0.73197860  0.43860496  1
  Ti  Ti35  1  -0.00406728  0.80043100  0.89999320  1
  Ti  Ti36  1  0.23990476  0.14790870  0.10188609  1
  Ti  Ti37  1  0.30544808  0.16231760  0.47143728  1
  Ti  Ti38  1  0.29268475  0.16235319  0.78255327  1
  Ti  Ti39  1  0.35601348  0.50312116  0.20127518  1
  Ti  Ti40  1  0.34417560  0.52163592  0.47516069  1
  Ti  Ti41  1  0.30964434  0.55299487  0.85131918  1
  Ti  Ti42  1  0.31466673  0.85118810  0.21303514  1
  Ti  Ti43  1  0.39963583  0.86149815  0.48599491  1
  Ti  Ti44  1  0.39549727  0.83043661  0.84237322  1
  Ti  Ti45  1  0.77010097  0.17898612  0.18109426  1
  Ti  Ti46  1  0.66483757  0.11421997  0.49473816  1
  Ti  Ti47  1  0.70760304  0.12081088  0.76169003  1
  Ti  Ti48  1  0.67290970  0.45220147  0.18058279  1
  Ti  Ti49  1  0.75120687  0.52053681  0.54186958  1
  Ti  Ti50  1  0.62196391  0.47041673  0.81994211  1
  Ti  Ti51  1  0.76436462  0.85187998  0.13242613  1
  Ti  Ti52  1  0.72701384  0.86503972  0.48053652  1
  Ti  Ti53  1  0.61107904  0.86359026  0.84826348  1
  Ti  Ti54  1  0.10776656  -0.01557364  0.11198342  1
  Ti  Ti55  1  0.11602073  0.01699353  0.54498623  1
  Ti  Ti56  1  0.16294341  0.03876630  0.87719482  1
  Ti  Ti57  1  0.12854610  0.39585390  0.20602930  1
  Ti  Ti58  1  0.23840853  0.37435487  0.53805920  1
  Ti  Ti59  1  0.17704678  0.40129755  0.82704941  1
  Ti  Ti60  1  0.11386669  0.68393456  0.13182657  1
  Ti  Ti61  1  0.15737929  0.65291541  0.41840786  1
  Ti  Ti62  1  0.11050965  0.63286472  0.82689231  1
  Ti  Ti63  1  0.56802577  -0.03060789  0.12747975  1
  Ti  Ti64  1  0.48189760  0.04308283  0.45677093  1
  Ti  Ti65  1  0.48215886  -0.01690883  0.94249417  1
  Ti  Ti66  1  0.52758683  0.32331699  0.15805941  1
  Ti  Ti67  1  0.44984723  0.35608695  0.44081181  1
  Ti  Ti68  1  0.47652730  0.27749894  0.84581219  1
  Ti  Ti69  1  0.47056205  0.67898513  0.20490676  1
  Ti  Ti70  1  0.50456700  0.62109521  0.49463635  1
  Ti  Ti71  1  0.55291236  0.66172927  0.85167447  1
  Ti  Ti72  1  0.81903157  0.00219510  0.23924293  1
  Ti  Ti73  1  0.85007668  0.03400087  0.45512473  1
  Ti  Ti74  1  0.86632393  0.02315656  0.76523472  1
  Ti  Ti75  1  0.88262926  0.34631281  0.25666825  1
  Ti  Ti76  1  0.78083015  0.34307477  0.59322018  1
  Ti  Ti77  1  0.72886891  0.31447930  0.77830398  1
  Ti  Ti78  1  0.76559935  0.67912972  0.20264339  1
  Ti  Ti79  1  0.89694422  0.63970311  0.59914308  1
  Ti  Ti80  1  0.89120892  0.65358856  0.81860440  1
  Ti  Ti81  1  0.18147999  0.25361759  -0.05779493  1
  Ti  Ti82  1  0.20092657  0.10584049  0.28251759  1
  Ti  Ti83  1  0.10047840  0.14338553  0.69534658  1
  Ti  Ti84  1  0.14647896  0.44930024  -0.00035470  1
  Ti  Ti85  1  0.14299438  0.46395576  0.37343401  1
  Ti  Ti86  1  0.15013754  0.48591383  0.67678728  1
  Ti  Ti87  1  0.17460397  0.80490167  -0.04731843  1
  Ti  Ti88  1  0.15032974  0.86051091  0.38720607  1
  Ti  Ti89  1  0.22761205  0.80720423  0.72019325  1
  Ti  Ti90  1  0.56924966  0.16845736  0.02251161  1
  Ti  Ti91  1  0.56180850  0.20430698  0.32007029  1
  Ti  Ti92  1  0.44221065  0.14614176  0.63216998  1
  Ti  Ti93  1  0.47731921  0.50784311  -0.03295746  1
  Ti  Ti94  1  0.53802472  0.51776707  0.32452494  1
  Ti  Ti95  1  0.48544813  0.55800573  0.67837245  1
  Ti  Ti96  1  0.52388196  0.77840404  0.01131628  1
  Ti  Ti97  1  0.49714744  0.87329048  0.29533850  1
  Ti  Ti98  1  0.51148778  0.77550513  0.68527687  1
  Ti  Ti99  1  0.76642776  0.20919445  -0.02378108  1
  Ti  Ti100  1  0.83088783  0.23324574  0.42325089  1
  Ti  Ti101  1  0.87209470  0.18906489  0.65255800  1
  Ti  Ti102  1  0.81457315  0.55392633  0.01176142  1
  Ti  Ti103  1  0.76245727  0.51595213  0.32891364  1
  Ti  Ti104  1  0.84990804  0.47347140  0.72636686  1
  Ti  Ti105  1  0.83321970  0.89535822  -0.03558375  1
  Ti  Ti106  1  0.85745720  0.85685853  0.34839410  1
  Ti  Ti107  1  0.82049221  0.79945220  0.68399696  1
  Co  Co108  1  0.79736300  0.44277877  0.87371438  1
  Co  Co109  1  0.75283780  0.91170140  0.79057042  1
  Co  Co110  1  0.41655822  0.06878148  0.06886965  1
  Co  Co111  1  0.58891591  0.07487757  0.63165576  1
  Co  Co112  1  0.23173476  0.59034665  0.27756459  1
  Co  Co113  1  0.72320690  0.60038568  0.87648049  1
  Co  Co114  1  0.01609247  0.74395493  0.73693391  1
  Co  Co115  1  0.03764317  0.34209932  0.90575948  1
  Co  Co116  1  0.73488189  0.30554809  0.30111301  1
  Co  Co117  1  0.69223465  0.29656513  0.10579382  1
  Co  Co118  1  0.96947025  0.40683246  0.39288522  1
  Co  Co119  1  0.25803147  0.10722331  0.62342573  1
  Co  Co120  1  0.76386116  0.04773756  0.61081056  1
  Co  Co121  1  0.56798841  0.20251963  0.73608012  1
  Co  Co122  1  0.16950099  0.93844382  0.25216872  1
  Co  Co123  1  0.85022147  0.91317366  0.57358891  1
  Co  Co124  1  0.77600166  0.61860684  0.70369504  1
  Co  Co125  1  0.95281119  0.78861874  0.58252735  1
  Co  Co126  1  0.59296896  0.36740119  0.31017721  1
  Co  Co127  1  0.57949525  0.90797343  0.43233143  1
  Co  Co128  1  0.05472704  0.68546515  0.29387591  1
  Co  Co129  1  0.62350372  0.61031053  0.22197981  1
  Co  Co130  1  0.01789082  0.42961187  0.76617570  1
  Co  Co131  1  0.27309395  0.71318401  0.87273741  1
  Co  Co132  1  0.43416652  0.08603034  0.77756408  1
  Co  Co133  1  0.08103238  0.35120776  0.49147170  1
  Co  Co134  1  0.91363384  0.87213069  0.79568502  1
  Co  Co135  1  0.91375088  0.45753633  0.57730539  1
  Co  Co136  1  0.80402368  0.76767289  0.87206637  1
  Co  Co137  1  0.42641161  0.14197637  0.92334864  1
  Co  Co138  1  0.56944487  0.10255852  0.86173109  1
  Co  Co139  1  0.43854800  0.38498187  0.27982791  1
  Co  Co140  1  0.92954982  0.30854918  0.52245804  1
  Co  Co141  1  0.39063654  0.58317394  0.34051853  1
  Co  Co142  1  0.29882068  0.01173129  0.17302241  1
  Co  Co143  1  0.19110835  0.75738027  0.25732610  1
  Co  Co144  1  0.14909514  0.11725510  0.42478443  1
  Co  Co145  1  0.81582587  0.40219241  0.42993437  1
  Co  Co146  1  0.23300531  0.64458271  0.71957149  1
  Co  Co147  1  0.29619746  0.42664255  0.34913904  1
  Co  Co148  1  0.67225128  0.45745237  0.66926193  1
  Co  Co149  1  0.69641167  0.20935927  0.62098152  1
  Co  Co150  1  0.67347757  0.74195725  0.95206828  1
  Co  Co151  1  0.27897387  0.11767911  0.94828343  1
  Co  Co152  1  0.37180831  0.27855442  0.57474028  1
  Co  Co153  1  0.63633391  0.25830791  0.88835737  1
  Co  Co154  1  0.08526138  0.54995632  0.21325707  1
  Co  Co155  1  0.50216771  0.94267206  0.58406503  1
  Co  Co156  1  0.52132836  0.50715570  0.12652345  1
  Co  Co157  1  0.62246058  0.61247031  0.71031544  1
  Co  Co158  1  0.68183810  0.75076268  0.76199276  1
  Co  Co159  1  0.38850964  0.68690852  0.75662732  1
  Co  Co160  1  0.81264307  0.71387929  0.03468023  1
  Co  Co161  1  0.02954012  0.83502920  0.05767689  1
  Ni  Ni162  1  0.94750097  0.04555621  0.60553304  1
  Ni  Ni163  1  0.90121562  0.30864688  0.79045864  1
  Ni  Ni164  1  0.50433250  0.94561588  0.74837827  1
  Ni  Ni165  1  0.34740052  0.81299537  1.00256257  1
  Ni  Ni166  1  0.92179972  0.62717005  0.15536710  1
  Ni  Ni167  1  0.60221923  0.12841499  0.17818898  1
  Ni  Ni168  1  0.17193841  0.61876643  0.97895950  1
  Ni  Ni169  1  0.32090335  0.51642375  0.67870437  1
  Ni  Ni170  1  0.14151500  0.23665246  0.20537744  1
  Ni  Ni171  1  0.60695912  0.78014732  0.17735252  1
  Ni  Ni172  1  0.85460146  0.07882236  0.92669460  1
  Ni  Ni173  1  0.32402696  0.38129509  0.91601652  1
  Ni  Ni174  1  0.69600642  0.86602313  0.29122980  1
  Ni  Ni175  1  0.73077279  0.03696268  0.08767642  1
  Ni  Ni176  1  0.89481452  0.26449804  0.10770250  1
  Ni  Ni177  1  0.65533208  0.58570825  0.42768009  1
  Ni  Ni178  1  0.40036032  0.16206925  0.33915643  1
  Ni  Ni179  1  0.19367022  0.28710433  0.69926368  1
  Ni  Ni180  1  0.90845154  0.13404552  0.30886257  1
  Ni  Ni181  1  0.43390918  0.18822841  0.17815150  1
  Ni  Ni182  1  0.39015077  0.41263283  0.07102957  1
  Ni  Ni183  1  0.21623712  0.53518869  0.11764413  1
  Ni  Ni184  1  0.20113181  0.28435070  0.38029447  1
  Ni  Ni185  1  0.26855125  0.97222976  0.50238211  1
  Ni  Ni186  1  0.53241590  0.34628273  0.99261563  1
  Ni  Ni187  1  0.18370083  0.98497553  0.70839099  1
  Ni  Ni188  1  0.21366423  0.56901004  0.55438528  1
  Ni  Ni189  1  0.47300131  0.73809518  0.38542184  1
  Ni  Ni190  1  0.41292976  0.66602042  0.94208693  1
  Ni  Ni191  1  0.23782119  0.33485820  0.09024845  1
  Ni  Ni192  1  0.50928828  0.20884628  0.48832735  1
  Ni  Ni193  1  0.16122635  0.22155044  0.54984515  1
  Ni  Ni194  1  0.73963326  0.12955078  0.33682904  1
  Ni  Ni195  1  0.89289033  0.70090622  0.30325722  1
  Ni  Ni196  1  0.19268641  0.83757834  0.11048932  1
  Ni  Ni197  1  0.42740234  0.42960761  0.59233104  1
  Ni  Ni198  1  0.06187425  0.29644800  0.06848997  1
  Ni  Ni199  1  0.92437541  0.95038248  0.11825672  1
  Ni  Ni200  1  0.25161861  0.78762223  0.50959606  1
  Ni  Ni201  1  0.55276826  0.78621602  0.52717083  1
  Ni  Ni202  1  0.11178827  0.88297213  0.81826049  1
  Ni  Ni203  1  0.46034552  1.03843015  0.24315834  1
  Ni  Ni204  1  0.02681318  0.02580642  0.78351493  1
  Ni  Ni205  1  0.11082136  0.84026259  0.54507335  1
  Ni  Ni206  1  0.57790297  0.47196416  0.52888924  1
  Ni  Ni207  1  1.00426962  0.57401945  0.70233338  1
  Ni  Ni208  1  0.79085703  0.69453941  0.44433565  1
  Ni  Ni209  1  0.82264572  0.41834747  0.11892974  1
  Ni  Ni210  1  0.44961799  0.45394908  0.80190592  1
  Ni  Ni211  1  0.65316965  0.89463836  0.01302684  1
  Ni  Ni212  1  0.08734513  0.12815435  0.01034683  1
  Ni  Ni213  1  0.45096582  0.84572969  0.13358419  1
  Ni  Ni214  1  0.98383043  0.91655892  0.46602761  1
  Ni  Ni215  1  0.89376194  0.56250693  0.44697842  1
