# generated using pymatgen
data_Ti2CoNi
_symmetry_space_group_name_H-M   'P 1'
_cell_length_a   14.50576023
_cell_length_b   14.61148500
_cell_length_c   14.55212441
_cell_angle_alpha   90.08434439
_cell_angle_beta   89.96974362
_cell_angle_gamma   90.42333656
_symmetry_Int_Tables_number   1
_chemical_formula_structural   Ti2CoNi
_chemical_formula_sum   'Ti108 Co54 Ni54'
_cell_volume   3084.24498488
_cell_formula_units_Z   54
loop_
 _symmetry_equiv_pos_site_id
 _symmetry_equiv_pos_as_xyz
  1  'x, y, z'
loop_
 _atom_site_type_symbol
 _atom_site_label
 _atom_site_symmetry_multiplicity
 _atom_site_fract_x
 _atom_site_fract_y
 _atom_site_fract_z
 _atom_site_occupancy
  Ti  Ti0  1  -0.04364990  -0.09817398  0.04543579  1
  Ti  Ti1  1  0.01086880  0.05658372  0.25505572  1
  Ti  Ti2  1  0.04666808  -0.06509725  0.68133703  1
  Ti  Ti3  1  0.01592415  0.38476749  -0.00439143  1
  Ti  Ti4  1  -0.05168136  0.35519246  0.31060591  1
  Ti  Ti5  1  0.11072475  0.36335636  0.68605235  1
  Ti  Ti6  1  0.04209813  0.73163191  0.00455969  1
  Ti  Ti7  1  -0.06477327  0.68370872  0.29692901  1
  Ti  Ti8  1  -0.01739593  0.64626177  0.62958937  1
  Ti  Ti9  1  0.24939390  -0.00395979  0.03022884  1
  Ti  Ti10  1  0.35919663  -0.00243885  0.42148447  1
  Ti  Ti11  1  0.33530850  0.03799965  0.63174206  1
  Ti  Ti12  1  0.32820086  0.31433552  -0.06565482  1
  Ti  Ti13  1  0.37724932  0.33932016  0.41792900  1
  Ti  Ti14  1  0.32342952  0.36254186  0.61345561  1
  Ti  Ti15  1  0.34503251  0.63898713  0.04981110  1
  Ti  Ti16  1  0.36993585  0.69803286  0.28206115  1
  Ti  Ti17  1  0.32680753  0.67072075  0.69669227  1
  Ti  Ti18  1  0.67183661  0.01890282  -0.03377943  1
  Ti  Ti19  1  0.66141867  0.09534228  0.26427237  1
  Ti  Ti20  1  0.68526147  -0.01346536  0.76571835  1
  Ti  Ti21  1  0.64364242  0.33238466  0.00424186  1
  Ti  Ti22  1  0.61180875  0.29530803  0.30574299  1
  Ti  Ti23  1  0.63811049  0.42689420  0.74505478  1
  Ti  Ti24  1  0.72706200  0.66118195  -0.03451934  1
  Ti  Ti25  1  0.68297861  0.62066552  0.32160598  1
  Ti  Ti26  1  0.64240897  0.68055775  0.75007237  1
  Ti  Ti27  1  -0.03759263  0.22852693  0.18633479  1
  Ti  Ti28  1  0.03991891  0.10567518  0.51323431  1
  Ti  Ti29  1  0.02182037  0.11929870  0.75091098  1
  Ti  Ti30  1  -0.07959570  0.46100166  0.15354594  1
  Ti  Ti31  1  -0.02910225  0.39481356  0.48568313  1
  Ti  Ti32  1  0.03590417  0.60385422  0.85981124  1
  Ti  Ti33  1  0.04114694  0.82444218  0.21079084  1
  Ti  Ti34  1  -0.04086349  0.87232875  0.38248007  1
  Ti  Ti35  1  -0.02236490  0.85962167  0.85044811  1
  Ti  Ti36  1  0.36682893  0.20231312  0.11905132  1
  Ti  Ti37  1  0.34139024  0.18221901  0.49652901  1
  Ti  Ti38  1  0.24206093  0.11620814  0.80931740  1
  Ti  Ti39  1  0.31845353  0.38915346  0.24234216  1
  Ti  Ti40  1  0.30624965  0.52822374  0.41628031  1
  Ti  Ti41  1  0.41582491  0.45854775  0.81998594  1
  Ti  Ti42  1  0.33946457  0.84722312  0.12796936  1
  Ti  Ti43  1  0.28866252  0.80764954  0.43338852  1
  Ti  Ti44  1  0.38498367  0.85907959  0.77448034  1
  Ti  Ti45  1  0.67736917  0.18122135  0.11069501  1
  Ti  Ti46  1  0.67018141  0.19513380  0.59292849  1
  Ti  Ti47  1  0.73021392  0.26418880  0.78267942  1
  Ti  Ti48  1  0.68478441  0.51424108  0.11532940  1
  Ti  Ti49  1  0.59836333  0.55953177  0.49095793  1
  Ti  Ti50  1  0.79174984  0.54757059  0.79973252  1
  Ti  Ti51  1  0.64263971  0.80630744  0.19512026  1
  Ti  Ti52  1  0.71585372  0.84876755  0.51536443  1
  Ti  Ti53  1  0.72180154  0.82739198  0.85540963  1
  Ti  Ti54  1  0.16746048  0.14267534  0.13214187  1
  Ti  Ti55  1  0.18035016  -0.06694602  0.52496990  1
  Ti  Ti56  1  0.19102564  -0.06910605  0.82865709  1
  Ti  Ti57  1  0.14521905  0.35019908  0.16001937  1
  Ti  Ti58  1  0.17968530  0.37766154  0.49424140  1
  Ti  Ti59  1  0.11843741  0.26590962  0.86253977  1
  Ti  Ti60  1  0.20508115  0.56642260  0.23495081  1
  Ti  Ti61  1  0.08268258  0.70097825  0.46011686  1
  Ti  Ti62  1  0.17848986  0.73540455  0.81371110  1
  Ti  Ti63  1  0.44373639  0.01048818  0.10859921  1
  Ti  Ti64  1  0.54288318  -0.05081784  0.47120815  1
  Ti  Ti65  1  0.51310374  -0.01486831  0.88253746  1
  Ti  Ti66  1  0.50962616  0.41744901  0.17796327  1
  Ti  Ti67  1  0.49799349  0.26753738  0.56062727  1
  Ti  Ti68  1  0.52639343  0.31001664  0.86370558  1
  Ti  Ti69  1  0.53764407  0.61423052  0.20882866  1
  Ti  Ti70  1  0.44879159  0.71208142  0.53307713  1
  Ti  Ti71  1  0.43640071  0.64419968  0.86298045  1
  Ti  Ti72  1  0.79412762  -0.04888449  0.29284158  1
  Ti  Ti73  1  0.79264661  0.04990275  0.50921697  1
  Ti  Ti74  1  0.83914946  0.11298138  0.82802613  1
  Ti  Ti75  1  0.82482249  0.29989517  0.09152001  1
  Ti  Ti76  1  0.79230361  0.31557025  0.46146161  1
  Ti  Ti77  1  0.85783231  0.30636397  0.91283378  1
  Ti  Ti78  1  0.88189216  0.68855557  0.09517403  1
  Ti  Ti79  1  0.77125917  0.65208222  0.51997680  1
  Ti  Ti80  1  0.86783011  0.71119156  0.77531854  1
  Ti  Ti81  1  0.09639387  0.08356928  -0.04216561  1
  Ti  Ti82  1  0.20742732  0.12438898  0.33210758  1
  Ti  Ti83  1  0.19226885  0.20241905  0.60529633  1
  Ti  Ti84  1  0.18021278  0.47945793  -0.03595016  1
  Ti  Ti85  1  0.09707167  0.52858776  0.40559112  1
  Ti  Ti86  1  0.15649930  0.55427498  0.72406635  1
  Ti  Ti87  1  0.21809552  0.80134189  -0.01342845  1
  Ti  Ti88  1  0.20291934  0.94469618  0.25867898  1
  Ti  Ti89  1  0.16482527  0.76470348  0.62256388  1
  Ti  Ti90  1  0.53130743  0.15674523  -0.00917125  1
  Ti  Ti91  1  0.51178193  0.14789846  0.38641483  1
  Ti  Ti92  1  0.52572661  0.08867982  0.70515164  1
  Ti  Ti93  1  0.51968710  0.49484964  -0.00849725  1
  Ti  Ti94  1  0.48029921  0.48204781  0.35239020  1
  Ti  Ti95  1  0.50386978  0.55853117  0.66370144  1
  Ti  Ti96  1  0.52755498  0.82465492  0.00050486  1
  Ti  Ti97  1  0.52415843  0.95396582  0.27525982  1
  Ti  Ti98  1  0.57191203  0.87447255  0.65073182  1
  Ti  Ti99  1  0.83913747  0.08976122  0.02037902  1
  Ti  Ti100  1  0.83229539  0.14995942  0.34881254  1
  Ti  Ti101  1  0.88695321  0.21176335  0.61569674  1
  Ti  Ti102  1  0.82383273  0.48662619  -0.00308758  1
  Ti  Ti103  1  0.85969451  0.52842200  0.36736375  1
  Ti  Ti104  1  0.83738499  0.48439996  0.60317486  1
  Ti  Ti105  1  0.76527929  0.86421278  0.06649630  1
  Ti  Ti106  1  0.78086005  0.76839923  0.35157700  1
  Ti  Ti107  1  0.89261177  0.83630637  0.61996055  1
  Co  Co108  1  0.67917412  0.17457996  0.42221199  1
  Co  Co109  1  0.61819594  0.73201199  0.43363311  1
  Co  Co110  1  0.21377810  0.08354343  0.49130611  1
  Co  Co111  1  0.48678240  0.64247103  0.38643432  1
  Co  Co112  1  -0.02059932  0.09664151  0.08022906  1
  Co  Co113  1  0.77171269  0.10232043  0.68076964  1
  Co  Co114  1  0.31236299  0.05032045  0.20124582  1
  Co  Co115  1  0.45040908  0.83386856  0.41753808  1
  Co  Co116  1  0.75720130  0.33691973  0.63099863  1
  Co  Co117  1  0.23893525  0.27242822  0.37548237  1
  Co  Co118  1  0.93259362  0.36246596  0.64843095  1
  Co  Co119  1  0.32650682  0.74964149  0.88602041  1
  Co  Co120  1  0.76792677  0.94395567  0.63875899  1
  Co  Co121  1  0.61368449  0.70477700  0.59151917  1
  Co  Co122  1  0.83193178  0.39663877  0.77119086  1
  Co  Co123  1  0.04090519  0.26656215  0.56621984  1
  Co  Co124  1  0.22933324  0.78016593  0.25251390  1
  Co  Co125  1  0.10442816  0.23266960  0.26430998  1
  Co  Co126  1  0.50868708  0.13317359  0.21247532  1
  Co  Co127  1  0.96291373  0.51314357  0.72845696  1
  Co  Co128  1  0.89819070  0.97593433  0.16893360  1
  Co  Co129  1  0.16383762  0.85944468  0.11845030  1
  Co  Co130  1  0.97008306  0.27911696  0.78395096  1
  Co  Co131  1  0.83297366  0.12586327  0.18606686  1
  Co  Co132  1  0.37080186  0.55496538  0.56368397  1
  Co  Co133  1  0.09500229  0.68719435  0.28965341  1
  Co  Co134  1  -0.03327450  0.18358553  0.91910913  1
  Co  Co135  1  0.67802424  1.01435725  0.40060211  1
  Co  Co136  1  0.96680772  0.01784543  0.89005893  1
  Co  Co137  1  1.04105722  0.23889035  0.04922412  1
  Co  Co138  1  0.35574038  0.49116913  0.96416965  1
  Co  Co139  1  0.44926352  0.28073017  0.27887486  1
  Co  Co140  1  0.18278964  0.63734995  0.97274823  1
  Co  Co141  1  0.93239378  0.47800577  0.88344516  1
  Co  Co142  1  0.08720359  0.99190562  0.11952450  1
  Co  Co143  1  0.87269292  0.82314591  0.21338773  1
  Co  Co144  1  0.27603493  0.58310192  0.84784998  1
  Co  Co145  1  0.26518300  0.48215443  0.10192801  1
  Co  Co146  1  0.88696895  0.63134162  0.92511954  1
  Co  Co147  1  0.99260724  0.56252316  0.02188040  1
  Co  Co148  1  0.22671256  0.66507381  0.37621068  1
  Co  Co149  1  0.52370828  0.77139260  0.29599153  1
  Co  Co150  1  0.93556125  0.22397592  0.44231195  1
  Co  Co151  1  0.07859212  0.28424317  0.40673267  1
  Co  Co152  1  0.72255134  0.19952813  0.95091961  1
  Co  Co153  1  0.64676885  0.86761889  0.35298487  1
  Co  Co154  1  0.64038066  0.02358764  0.58188283  1
  Co  Co155  1  0.03482013  0.83862084  0.53305762  1
  Co  Co156  1  0.07370288  0.42685273  0.83082878  1
  Co  Co157  1  0.09619050  0.91309998  0.96340194  1
  Co  Co158  1  0.87975805  0.96349810  0.75921094  1
  Co  Co159  1  0.52693497  0.26703475  0.12673646  1
  Co  Co160  1  0.16662904  0.40499127  0.32035566  1
  Co  Co161  1  0.74183410  0.79005189  0.68020792  1
  Ni  Ni162  1  0.37184461  0.89977652  0.94817141  1
  Ni  Ni163  1  0.92021468  0.03216602  0.61706316  1
  Ni  Ni164  1  0.78157987  0.26784222  0.25440893  1
  Ni  Ni165  1  0.62672705  0.13586344  0.83090497  1
  Ni  Ni166  1  0.40127918  0.20941585  0.69220980  1
  Ni  Ni167  1  0.16438788  0.69412885  0.12764610  1
  Ni  Ni168  1  0.25957008  0.66889229  0.53094813  1
  Ni  Ni169  1  0.81815934  0.58384193  0.20899540  1
  Ni  Ni170  1  0.90753387  0.73489418  0.47201628  1
  Ni  Ni171  1  0.38401897  0.03845788  0.79366024  1
  Ni  Ni172  1  0.93210295  1.03235577  0.41339913  1
  Ni  Ni173  1  0.25071563  0.89652568  0.67938397  1
  Ni  Ni174  1  0.18522322  0.29472099  0.01155563  1
  Ni  Ni175  1  0.61946099  0.42198834  0.58711794  1
  Ni  Ni176  1  0.03520238  0.76114847  0.73192499  1
  Ni  Ni177  1  0.58496736  0.70383798  0.90254530  1
  Ni  Ni178  1  0.73379150  0.01002414  0.13261576  1
  Ni  Ni179  1  0.16499201  0.04653246  0.66543795  1
  Ni  Ni180  1  0.86031038  0.78510394  0.94732376  1
  Ni  Ni181  1  0.47676551  0.08835919  0.54517735  1
  Ni  Ni182  1  0.81949143  0.94619812  0.91775519  1
  Ni  Ni183  1  0.25942895  0.26719889  0.74778970  1
  Ni  Ni184  1  0.69487605  0.56216379  0.64606502  1
  Ni  Ni185  1  0.63152896  0.47106976  0.28564407  1
  Ni  Ni186  1  0.72303576  0.46319765  0.43139504  1
  Ni  Ni187  1  0.57909298  0.54375772  0.84305909  1
  Ni  Ni188  1  0.24155639  0.41267254  0.82073934  1
  Ni  Ni189  1  0.46973301  0.43539990  0.52011344  1
  Ni  Ni190  1  0.59387052  0.94370274  0.10349036  1
  Ni  Ni191  1  0.05892616  0.49447656  0.58980398  1
  Ni  Ni192  1  0.36835112  0.89333568  0.28471951  1
  Ni  Ni193  1  0.25562225  0.15977128  0.97232549  1
  Ni  Ni194  1  0.38507058  0.54500310  0.19510253  1
  Ni  Ni195  1  0.95258344  0.57677921  0.48667927  1
  Ni  Ni196  1  0.39116343  0.37109772  0.07609745  1
  Ni  Ni197  1  0.46979822  0.75117569  0.13883979  1
  Ni  Ni198  1  0.67617524  0.35594647  0.16396042  1
  Ni  Ni199  1  0.47238167  0.38532028  0.68415146  1
  Ni  Ni200  1  0.55555276  0.83992541  0.81567319  1
  Ni  Ni201  1  0.56996632  0.25797605  0.71560732  1
  Ni  Ni202  1  0.09527087  -0.00112392  0.39292420  1
  Ni  Ni203  1  0.41245185  0.18805620  0.86220214  1
  Ni  Ni204  1  0.78575060  0.42844254  0.25996889  1
  Ni  Ni205  1  0.62174765  0.32209622  0.46596721  1
  Ni  Ni206  1  0.69776250  0.43478160  0.89788875  1
  Ni  Ni207  1  0.38658097  0.06704555  -0.03559596  1
  Ni  Ni208  1  0.71236195  0.67769112  0.13190428  1
  Ni  Ni209  1  0.55972732  0.64570767  0.05033987  1
  Ni  Ni210  1  0.12914840  0.83773290  0.37699175  1
  Ni  Ni211  1  0.31268614  0.49977737  0.70128760  1
  Ni  Ni212  1  0.01376813  0.53055277  0.26963237  1
  Ni  Ni213  1  0.48400493  0.73837339  0.70276651  1
  Ni  Ni214  1  0.09262520  0.49710833  0.12476423  1
  Ni  Ni215  1  0.39272864  0.88283312  0.57520189  1
