# generated using pymatgen
data_Ti2CoNi
_symmetry_space_group_name_H-M   'P 1'
_cell_length_a   14.61874417
_cell_length_b   14.65239921
_cell_length_c   14.65828237
_cell_angle_alpha   89.99524609
_cell_angle_beta   90.06395493
_cell_angle_gamma   90.21813530
_symmetry_Int_Tables_number   1
_chemical_formula_structural   Ti2CoNi
_chemical_formula_sum   'Ti108 Co54 Ni54'
_cell_volume   3139.77460622
_cell_formula_units_Z   54
loop_
 _symmetry_equiv_pos_site_id
 _symmetry_equiv_pos_as_xyz
  1  'x, y, z'
loop_
 _atom_site_type_symbol
 _atom_site_label
 _atom_site_symmetry_multiplicity
 _atom_site_fract_x
 _atom_site_fract_y
 _atom_site_fract_z
 _atom_site_occupancy
  Ti  Ti0  1  -0.03261168  -0.04067761  0.09827913  1
  Ti  Ti1  1  0.04394409  -0.01729737  0.30494456  1
  Ti  Ti2  1  -0.04273343  0.03171102  0.66567887  1
  Ti  Ti3  1  0.04606962  0.26609404  0.01090968  1
  Ti  Ti4  1  0.02271194  0.31321514  0.37460813  1
  Ti  Ti5  1  0.02265409  0.35602865  0.62020231  1
  Ti  Ti6  1  0.02901845  0.67010691  -0.03210618  1
  Ti  Ti7  1  -0.03946530  0.67272231  0.38608287  1
  Ti  Ti8  1  -0.05188934  0.76869417  0.65619289  1
  Ti  Ti9  1  0.30555339  -0.12766961  0.00526658  1
  Ti  Ti10  1  0.30795611  0.00936105  0.30068057  1
  Ti  Ti11  1  0.40891175  0.03428579  0.67122836  1
  Ti  Ti12  1  0.31114578  0.36728347  0.01222472  1
  Ti  Ti13  1  0.39993526  0.29159803  0.33588942  1
  Ti  Ti14  1  0.32270207  0.44382794  0.70523009  1
  Ti  Ti15  1  0.32968819  0.64885015  -0.02271032  1
  Ti  Ti16  1  0.29504155  0.70050147  0.28287293  1
  Ti  Ti17  1  0.25838390  0.68965028  0.66352412  1
  Ti  Ti18  1  0.70151259  0.02217285  0.02158586  1
  Ti  Ti19  1  0.65814122  0.03383459  0.27741637  1
  Ti  Ti20  1  0.74039821  -0.02103723  0.70678027  1
  Ti  Ti21  1  0.69698000  0.31837725  0.03839532  1
  Ti  Ti22  1  0.56689744  0.39936125  0.34857472  1
  Ti  Ti23  1  0.67941987  0.40168557  0.63226072  1
  Ti  Ti24  1  0.63903205  0.71232993  0.05203775  1
  Ti  Ti25  1  0.60394379  0.62405448  0.34572503  1
  Ti  Ti26  1  0.56014004  0.68025328  0.71136410  1
  Ti  Ti27  1  -0.05352810  0.13872122  0.20034726  1
  Ti  Ti28  1  -0.08906257  0.16526517  0.49973001  1
  Ti  Ti29  1  0.02279609  0.13154514  0.84353799  1
  Ti  Ti30  1  0.00485077  0.56745538  0.17863297  1
  Ti  Ti31  1  -0.00539620  0.49924967  0.44920004  1
  Ti  Ti32  1  0.03316611  0.49181758  0.81601192  1
  Ti  Ti33  1  -0.07544077  0.78977563  0.20148067  1
  Ti  Ti34  1  0.04115287  0.84001752  0.48860707  1
  Ti  Ti35  1  -0.00743338  0.82140607  0.84578848  1
  Ti  Ti36  1  0.44978613  0.17143944  0.18525647  1
  Ti  Ti37  1  0.33776322  0.10138845  0.49213315  1
  Ti  Ti38  1  0.27149602  0.11271616  0.82075923  1
  Ti  Ti39  1  0.34304707  0.42103221  0.18708627  1
  Ti  Ti40  1  0.33217067  0.53329132  0.53893601  1
  Ti  Ti41  1  0.44135771  0.38243331  0.84649176  1
  Ti  Ti42  1  0.37250316  0.83997788  0.18009243  1
  Ti  Ti43  1  0.34844600  0.75397746  0.48983810  1
  Ti  Ti44  1  0.35833964  0.81130477  0.83979050  1
  Ti  Ti45  1  0.72523437  0.17843218  0.15172722  1
  Ti  Ti46  1  0.66579943  0.13552135  0.48111022  1
  Ti  Ti47  1  0.67141479  0.12330366  0.80764285  1
  Ti  Ti48  1  0.69058434  0.43654898  0.19482759  1
  Ti  Ti49  1  0.67787551  0.50833518  0.47746725  1
  Ti  Ti50  1  0.63751225  0.50816184  0.79468464  1
  Ti  Ti51  1  0.64277042  0.87937649  0.15053000  1
  Ti  Ti52  1  0.71282839  0.78007682  0.43759012  1
  Ti  Ti53  1  0.67908342  0.79203004  0.81169981  1
  Ti  Ti54  1  0.12424173  0.05597802  0.10803907  1
  Ti  Ti55  1  0.15409914  0.04839753  0.46708587  1
  Ti  Ti56  1  0.16789626  -0.05728084  0.83871590  1
  Ti  Ti57  1  0.14349069  0.38122423  0.15947108  1
  Ti  Ti58  1  0.20960258  0.26427080  0.45528357  1
  Ti  Ti59  1  0.20025160  0.40381481  0.87356401  1
  Ti  Ti60  1  0.17613102  0.63885224  0.10678690  1
  Ti  Ti61  1  0.15785568  0.64654053  0.43319468  1
  Ti  Ti62  1  0.10865638  0.67270024  0.77767435  1
  Ti  Ti63  1  0.48771102  -0.02873266  0.24748463  1
  Ti  Ti64  1  0.53766415  -0.00638798  0.54576162  1
  Ti  Ti65  1  0.54024664  -0.05260297  0.81101125  1
  Ti  Ti66  1  0.49477046  0.35347730  0.04307106  1
  Ti  Ti67  1  0.40753542  0.32447474  0.52933126  1
  Ti  Ti68  1  0.54961177  0.23539246  0.89674703  1
  Ti  Ti69  1  0.48392842  0.68308126  0.16808749  1
  Ti  Ti70  1  0.54250012  0.67869297  0.51972592  1
  Ti  Ti71  1  0.51860010  0.69398701  0.89163721  1
  Ti  Ti72  1  0.82224008  -0.02453594  0.22339332  1
  Ti  Ti73  1  0.85453878  -0.09105955  0.55741919  1
  Ti  Ti74  1  0.87394619  -0.01086037  0.90384351  1
  Ti  Ti75  1  0.86156380  0.33034536  0.21791039  1
  Ti  Ti76  1  0.85301356  0.38056670  0.55382003  1
  Ti  Ti77  1  0.91706035  0.30071194  0.80457793  1
  Ti  Ti78  1  0.79094965  0.61364381  0.14650422  1
  Ti  Ti79  1  0.84340972  0.59746679  0.57505452  1
  Ti  Ti80  1  0.85368317  0.61889561  0.88666776  1
  Ti  Ti81  1  0.23313020  0.20052785  0.02632347  1
  Ti  Ti82  1  0.15194529  0.18961620  0.25838780  1
  Ti  Ti83  1  0.17009983  0.21673439  0.66426466  1
  Ti  Ti84  1  0.08344581  0.48145631  0.00384808  1
  Ti  Ti85  1  0.20286355  0.51906462  0.28372873  1
  Ti  Ti86  1  0.14549347  0.52486124  0.60636819  1
  Ti  Ti87  1  0.12318341  0.85118997  0.02250881  1
  Ti  Ti88  1  0.19944880  0.85059749  0.32640992  1
  Ti  Ti89  1  0.25528712  0.89639791  0.64051653  1
  Ti  Ti90  1  0.41646252  0.12602417  -0.00198133  1
  Ti  Ti91  1  0.48134868  0.10629802  0.37806374  1
  Ti  Ti92  1  0.48756046  0.21507812  0.70279776  1
  Ti  Ti93  1  0.62325177  0.51627806  0.02102527  1
  Ti  Ti94  1  0.42697187  0.53939353  0.28697965  1
  Ti  Ti95  1  0.52214842  0.51727927  0.60707848  1
  Ti  Ti96  1  0.49764139  0.92532664  0.02651923  1
  Ti  Ti97  1  0.53951327  0.81484083  0.33691337  1
  Ti  Ti98  1  0.44385788  0.82041769  0.66898511  1
  Ti  Ti99  1  0.83666469  0.17776368  -0.05443162  1
  Ti  Ti100  1  0.78491579  0.16407757  0.33441203  1
  Ti  Ti101  1  0.77137736  0.22027903  0.65916202  1
  Ti  Ti102  1  0.79164730  0.43565859  -0.08532798  1
  Ti  Ti103  1  0.81794976  0.44582979  0.37189264  1
  Ti  Ti104  1  0.85467506  0.48420299  0.73023204  1
  Ti  Ti105  1  0.79994602  0.79386610  -0.03756880  1
  Ti  Ti106  1  0.88134972  0.87292378  0.37471372  1
  Ti  Ti107  1  0.72424693  0.76799365  0.62931657  1
  Co  Co108  1  0.48871545  0.15387772  0.54858996  1
  Co  Co109  1  0.26281972  0.93277603  0.45527502  1
  Co  Co110  1  0.80467460  0.71693223  0.30162459  1
  Co  Co111  1  0.72490724  0.86516161  0.29755927  1
  Co  Co112  1  0.21403572  0.78708101  0.15593243  1
  Co  Co113  1  0.09217295  0.89105743  0.18598934  1
  Co  Co114  1  0.41198558  0.64985959  0.63324941  1
  Co  Co115  1  0.69348821  0.93203429  0.54994948  1
  Co  Co116  1  0.77571730  0.78233292  0.14576546  1
  Co  Co117  1  0.60990061  0.39426505  0.90584233  1
  Co  Co118  1  0.94548604  0.38884258  0.94018094  1
  Co  Co119  1  0.37850647  0.85218337  0.34695089  1
  Co  Co120  1  0.88387746  0.26208663  0.07093523  1
  Co  Co121  1  0.56461022  0.82614236  0.52847429  1
  Co  Co122  1  0.98984326  0.43372048  0.27588456  1
  Co  Co123  1  0.81520955  0.91428032  0.06839931  1
  Co  Co124  1  0.65134639  0.73049973  0.23195730  1
  Co  Co125  1  0.61321853  0.58611323  0.17180719  1
  Co  Co126  1  0.32834944  0.50841749  0.88878325  1
  Co  Co127  1  0.72666731  0.55812419  0.29060640  1
  Co  Co128  1  0.84190911  0.08257613  0.08210758  1
  Co  Co129  1  0.33245204  0.60569556  0.15476359  1
  Co  Co130  1  0.23989497  0.94530503  0.14946880  1
  Co  Co131  1  0.95105433  0.82531495  1.00626950  1
  Co  Co132  1  0.27340717  0.03192471  1.00127529  1
  Co  Co133  1  0.33064276  0.42305423  0.40303446  1
  Co  Co134  1  0.24312556  0.50138495  0.05830663  1
  Co  Co135  1  0.30911987  0.58776915  0.39956244  1
  Co  Co136  1  0.29884792  0.16849446  0.33308587  1
  Co  Co137  1  0.32413596  0.95735857  0.77962091  1
  Co  Co138  1  0.76943157  -0.00821282  0.41290206  1
  Co  Co139  1  0.55820141  0.38378724  0.51424029  1
  Co  Co140  1  0.37886794  0.66192962  0.79610728  1
  Co  Co141  1  0.86029250  0.29118151  0.39814586  1
  Co  Co142  1  0.40481653  0.98220429  0.91246250  1
  Co  Co143  1  0.04705540  0.74094976  0.12160150  1
  Co  Co144  1  0.23999335  0.05710863  0.62265590  1
  Co  Co145  1  0.98190945  0.11516879  1.01197222  1
  Co  Co146  1  0.41186658  0.50747350  0.05079628  1
  Co  Co147  1  0.61431110  0.24984038  0.59424491  1
  Co  Co148  1  0.79920462  0.61305800  0.42425917  1
  Co  Co149  1  0.55329297  0.25186127  0.42939012  1
  Co  Co150  1  0.13793843  0.09067681  -0.05273113  1
  Co  Co151  1  0.62489013  0.08716882  0.64920408  1
  Co  Co152  1  0.39396046  0.00745925  0.12002681  1
  Co  Co153  1  0.21439790  0.54695359  0.76364459  1
  Co  Co154  1  0.77008981  0.36013793  0.75869205  1
  Co  Co155  1  0.11206379  0.66733560  0.26624136  1
  Co  Co156  1  0.88751708  0.56688620  0.28739847  1
  Co  Co157  1  0.60165307  0.87191052  0.67922728  1
  Co  Co158  1  0.61899397  0.30165187  0.75785047  1
  Co  Co159  1  0.17504081  0.58931246  0.92092834  1
  Co  Co160  1  0.02133998  0.27864541  0.19293236  1
  Co  Co161  1  0.71513899  0.31827088  0.47985483  1
  Ni  Ni162  1  0.98096434  0.19859624  0.67921807  1
  Ni  Ni163  1  0.57538790  0.19470188  0.05752664  1
  Ni  Ni164  1  0.85776037  0.12489810  0.77718959  1
  Ni  Ni165  1  0.79131472  0.06922865  0.57247784  1
  Ni  Ni166  1  0.45682630  0.53108685  0.75922175  1
  Ni  Ni167  1  0.27797127  0.10733837  0.16383718  1
  Ni  Ni168  1  0.29896536  0.26534334  0.17515653  1
  Ni  Ni169  1  0.62274253  0.84901255  0.95930336  1
  Ni  Ni170  1  0.23679166  0.38021624  0.56783881  1
  Ni  Ni171  1  0.04397741  0.14071439  0.37976935  1
  Ni  Ni172  1  0.39768515  0.91202596  0.53459109  1
  Ni  Ni173  1  0.28886282  0.28912827  0.76297840  1
  Ni  Ni174  1  0.49597819  0.52823619  0.91540493  1
  Ni  Ni175  1  0.49356398  0.37988096  0.68248842  1
  Ni  Ni176  1  0.09749029  0.95623986  0.59933903  1
  Ni  Ni177  1  0.68424248  0.58375586  0.63597196  1
  Ni  Ni178  1  0.87100540  0.74900109  0.50395023  1
  Ni  Ni179  1  0.44277789  0.68569406  0.37013364  1
  Ni  Ni180  1  0.45910682  0.76722464  0.02533523  1
  Ni  Ni181  1  0.45792583  0.10369114  0.82057910  1
  Ni  Ni182  1  0.11445715  0.80001548  0.66864472  1
  Ni  Ni183  1  0.92269066  0.54342799  0.01913548  1
  Ni  Ni184  1  0.58403798  0.30499687  0.18154749  1
  Ni  Ni185  1  0.33488625  0.19424963  0.63002128  1
  Ni  Ni186  1  0.04210854  0.80466954  0.32356642  1
  Ni  Ni187  1  0.83647661  0.74530008  0.78215837  1
  Ni  Ni188  1  0.71837540  0.94845153  0.87155792  1
  Ni  Ni189  1  0.35843923  0.24574911  0.90208873  1
  Ni  Ni190  1  0.56733162  0.06628324  0.93625003  1
  Ni  Ni191  1  0.56605441  1.05075990  0.12137139  1
  Ni  Ni192  1  0.70764772  0.30996717  0.30879241  1
  Ni  Ni193  1  0.94881273  0.62888354  0.74792362  1
  Ni  Ni194  1  0.06491375  0.22010143  0.52737424  1
  Ni  Ni195  1  0.59649328  0.18527144  0.28627889  1
  Ni  Ni196  1  0.68919051  0.62906345  0.91047472  1
  Ni  Ni197  1  0.98206288  1.00239172  0.48530439  1
  Ni  Ni198  1  0.72258089  0.27158809  0.88100968  1
  Ni  Ni199  1  0.90500380  0.05653612  0.35301307  1
  Ni  Ni200  1  0.03064316  0.96754564  0.93736949  1
  Ni  Ni201  1  0.18993050  0.78907934  0.52232659  1
  Ni  Ni202  1  0.98208995  0.52046236  0.62397962  1
  Ni  Ni203  1  0.05530217  0.66884714  0.56550947  1
  Ni  Ni204  1  0.81314499  0.43776920  0.08133587  1
  Ni  Ni205  1  0.16393720  0.23650168  0.86755078  1
  Ni  Ni206  1  0.60978950  0.94516903  0.40450808  1
  Ni  Ni207  1  0.87860712  0.89852221  0.74389631  1
  Ni  Ni208  1  0.15858415  0.44871131  0.43441575  1
  Ni  Ni209  1  -0.02638322  0.40669690  0.10707736  1
  Ni  Ni210  1  0.51820216  0.45500945  0.17336707  1
  Ni  Ni211  1  0.19389844  0.76871632  0.89311760  1
  Ni  Ni212  1  0.48293516  0.52025316  0.44138389  1
  Ni  Ni213  1  0.15568092  0.38604393  0.71489930  1
  Ni  Ni214  1  0.11206270  0.06856393  0.72268241  1
  Ni  Ni215  1  0.22205748  0.34201164  0.30731629  1
