# generated using pymatgen
data_Ti2CoNi
_symmetry_space_group_name_H-M   'P 1'
_cell_length_a   14.62560559
_cell_length_b   14.59595558
_cell_length_c   14.60366735
_cell_angle_alpha   89.61891491
_cell_angle_beta   89.81779344
_cell_angle_gamma   89.75082026
_symmetry_Int_Tables_number   1
_chemical_formula_structural   Ti2CoNi
_chemical_formula_sum   'Ti108 Co54 Ni54'
_cell_volume   3117.39943721
_cell_formula_units_Z   54
loop_
 _symmetry_equiv_pos_site_id
 _symmetry_equiv_pos_as_xyz
  1  'x, y, z'
loop_
 _atom_site_type_symbol
 _atom_site_label
 _atom_site_symmetry_multiplicity
 _atom_site_fract_x
 _atom_site_fract_y
 _atom_site_fract_z
 _atom_site_occupancy
  Ti  Ti0  1  0.01774600  -0.00385156  -0.02898564  1
  Ti  Ti1  1  -0.01242652  -0.00218687  0.27146842  1
  Ti  Ti2  1  0.03282863  0.06364080  0.68922130  1
  Ti  Ti3  1  0.00222621  0.38381559  -0.01565986  1
  Ti  Ti4  1  0.04474408  0.33173957  0.33287715  1
  Ti  Ti5  1  0.03017278  0.32683272  0.71928908  1
  Ti  Ti6  1  -0.01702507  0.70207531  0.01673911  1
  Ti  Ti7  1  0.07637253  0.74220686  0.32083807  1
  Ti  Ti8  1  0.03548172  0.72051503  0.62084495  1
  Ti  Ti9  1  0.33101656  -0.07567352  -0.02820988  1
  Ti  Ti10  1  0.31900558  0.04305945  0.33315749  1
  Ti  Ti11  1  0.30547374  0.02288342  0.65833683  1
  Ti  Ti12  1  0.32370707  0.34695013  0.08849782  1
  Ti  Ti13  1  0.31021491  0.31103441  0.38076418  1
  Ti  Ti14  1  0.36500460  0.38208134  0.70609780  1
  Ti  Ti15  1  0.31964430  0.66546916  0.06143244  1
  Ti  Ti16  1  0.31096966  0.63051971  0.36496768  1
  Ti  Ti17  1  0.31132546  0.67495177  0.70583866  1
  Ti  Ti18  1  0.61860686  0.07151091  0.08474295  1
  Ti  Ti19  1  0.68398731  -0.02112673  0.32809737  1
  Ti  Ti20  1  0.70480173  0.00410167  0.61594543  1
  Ti  Ti21  1  0.73432798  0.35620077  0.05877833  1
  Ti  Ti22  1  0.72105559  0.38386918  0.29506512  1
  Ti  Ti23  1  0.63660186  0.30332934  0.61787648  1
  Ti  Ti24  1  0.67948361  0.67013343  -0.08549153  1
  Ti  Ti25  1  0.61682808  0.68538752  0.32311115  1
  Ti  Ti26  1  0.69932214  0.65212963  0.61062829  1
  Ti  Ti27  1  -0.03650730  0.13158881  0.10424476  1
  Ti  Ti28  1  -0.05383914  0.17463216  0.42314710  1
  Ti  Ti29  1  0.08474999  0.17128090  0.85402157  1
  Ti  Ti30  1  0.06323878  0.45682547  0.18405060  1
  Ti  Ti31  1  0.03232087  0.52326788  0.56686479  1
  Ti  Ti32  1  -0.03109014  0.48068600  0.80476875  1
  Ti  Ti33  1  -0.05757140  0.81634699  0.16740999  1
  Ti  Ti34  1  -0.05282091  0.82602686  0.49042385  1
  Ti  Ti35  1  0.01861044  0.78641838  0.81760972  1
  Ti  Ti36  1  0.33626301  0.10117811  0.11358818  1
  Ti  Ti37  1  0.37155755  0.15698819  0.48392508  1
  Ti  Ti38  1  0.35325038  0.20392444  0.79348734  1
  Ti  Ti39  1  0.38947000  0.41099063  0.23589898  1
  Ti  Ti40  1  0.32328656  0.52958786  0.54019831  1
  Ti  Ti41  1  0.24478988  0.54812367  0.87187578  1
  Ti  Ti42  1  0.29949597  0.90821061  0.17265107  1
  Ti  Ti43  1  0.37006459  0.91727886  0.48738667  1
  Ti  Ti44  1  0.24702608  0.76212058  0.87993585  1
  Ti  Ti45  1  0.62055840  0.24206288  0.17898115  1
  Ti  Ti46  1  0.59434128  0.15069546  0.46871360  1
  Ti  Ti47  1  0.62178599  0.18603865  0.84255558  1
  Ti  Ti48  1  0.63798953  0.52009571  0.19499658  1
  Ti  Ti49  1  0.65873525  0.53376923  0.44358310  1
  Ti  Ti50  1  0.70633164  0.45942949  0.88923176  1
  Ti  Ti51  1  0.71060693  0.88301603  0.14873299  1
  Ti  Ti52  1  0.73476760  0.83515330  0.50033487  1
  Ti  Ti53  1  0.66674769  0.87616241  0.86891213  1
  Ti  Ti54  1  0.14537360  0.03476276  0.16670930  1
  Ti  Ti55  1  0.07806836  0.04144597  0.46640881  1
  Ti  Ti56  1  0.16086858  -0.04959565  0.83071540  1
  Ti  Ti57  1  0.08703672  0.24992004  0.16260728  1
  Ti  Ti58  1  0.03456157  0.33618547  0.51420201  1
  Ti  Ti59  1  0.21202720  0.33480904  0.91618611  1
  Ti  Ti60  1  0.19686593  0.63179705  0.20408393  1
  Ti  Ti61  1  0.25283220  0.73693208  0.52275404  1
  Ti  Ti62  1  0.10575294  0.60696702  0.75528825  1
  Ti  Ti63  1  0.50608326  -0.02756519  0.22224550  1
  Ti  Ti64  1  0.50211357  0.02715573  0.57498486  1
  Ti  Ti65  1  0.46902735  -0.07725299  0.82916593  1
  Ti  Ti66  1  0.52988229  0.38943053  0.06949351  1
  Ti  Ti67  1  0.50005307  0.37881262  0.46209207  1
  Ti  Ti68  1  0.40557702  0.40103516  0.90740343  1
  Ti  Ti69  1  0.47964097  0.65991166  0.17372007  1
  Ti  Ti70  1  0.44573224  0.72752976  0.56465296  1
  Ti  Ti71  1  0.52501542  0.64805590  0.73965260  1
  Ti  Ti72  1  0.79615303  0.08667891  0.18472533  1
  Ti  Ti73  1  0.87069129  -0.01832105  0.41973844  1
  Ti  Ti74  1  0.83061849  -0.05195565  0.79978560  1
  Ti  Ti75  1  0.89863939  0.36508400  0.19311865  1
  Ti  Ti76  1  0.83704571  0.31815650  0.54914543  1
  Ti  Ti77  1  0.83231222  0.31831889  0.75690566  1
  Ti  Ti78  1  0.77583076  0.66964237  0.14406608  1
  Ti  Ti79  1  0.95043028  0.64143319  0.42313455  1
  Ti  Ti80  1  0.81636440  0.60841168  0.80324769  1
  Ti  Ti81  1  0.24980325  0.11214203  -0.06822649  1
  Ti  Ti82  1  0.17233912  0.18168306  0.38134682  1
  Ti  Ti83  1  0.13155516  0.19059158  0.61607187  1
  Ti  Ti84  1  0.11051330  0.54934458  0.02673365  1
  Ti  Ti85  1  0.19919318  0.47660834  0.32619647  1
  Ti  Ti86  1  0.19409436  0.38776685  0.63096909  1
  Ti  Ti87  1  0.17018104  0.78709295  0.08001550  1
  Ti  Ti88  1  0.24213306  0.83539183  0.34377905  1
  Ti  Ti89  1  0.13198007  0.89198422  0.63269610  1
  Ti  Ti90  1  0.45932126  0.11493926  -0.04460988  1
  Ti  Ti91  1  0.45428126  0.19917803  0.28426866  1
  Ti  Ti92  1  0.46838921  0.22988622  0.62459594  1
  Ti  Ti93  1  0.53056478  0.54240156  -0.08153858  1
  Ti  Ti94  1  0.49421444  0.53681571  0.32630749  1
  Ti  Ti95  1  0.54847466  0.44016723  0.74572827  1
  Ti  Ti96  1  0.54470490  0.74731908  0.01765602  1
  Ti  Ti97  1  0.54452787  0.85017587  0.39000743  1
  Ti  Ti98  1  0.59412736  0.83125859  0.65818052  1
  Ti  Ti99  1  0.87426481  0.17939160  -0.08309919  1
  Ti  Ti100  1  0.75750970  0.19647958  0.35844511  1
  Ti  Ti101  1  0.80824093  0.13864577  0.70744236  1
  Ti  Ti102  1  0.86464418  0.52533906  0.00502683  1
  Ti  Ti103  1  0.85486450  0.47347075  0.42002854  1
  Ti  Ti104  1  0.74294923  0.46797342  0.66326979  1
  Ti  Ti105  1  0.86658635  0.86965631  -0.01319389  1
  Ti  Ti106  1  0.78802004  0.77641506  0.32090037  1
  Ti  Ti107  1  0.84703929  0.77964298  0.69423438  1
  Co  Co108  1  0.70371818  0.04436933  0.80085848  1
  Co  Co109  1  0.48753707  0.58522704  0.47339585  1
  Co  Co110  1  0.44010552  0.90539061  0.65437622  1
  Co  Co111  1  0.59313240  0.22269646  0.00821165  1
  Co  Co112  1  0.50157145  0.28288355  0.77779299  1
  Co  Co113  1  0.05374699  0.58301094  0.28657319  1
  Co  Co114  1  0.75680593  0.66514702  0.43894591  1
  Co  Co115  1  0.05359408  0.68751404  0.15913711  1
  Co  Co116  1  0.91732077  0.19977612  0.25781737  1
  Co  Co117  1  0.34184836  0.03065084  0.83127543  1
  Co  Co118  1  0.23046344  0.47823187  0.15708370  1
  Co  Co119  1  0.39746123  0.89347499  0.31542894  1
  Co  Co120  1  0.69231722  0.73492193  0.75565173  1
  Co  Co121  1  0.71949825  0.80345766  0.01103344  1
  Co  Co122  1  0.82652050  0.54796710  0.55082434  1
  Co  Co123  1  0.57785703  0.36285555  0.91147027  1
  Co  Co124  1  0.06048271  0.13760296  0.28232546  1
  Co  Co125  1  0.14466515  0.61441253  0.42357051  1
  Co  Co126  1  0.36356475  0.46480235  0.40066722  1
  Co  Co127  1  0.61872481  0.95709564  0.48161345  1
  Co  Co128  1  0.28505975  0.48989833  1.00987677  1
  Co  Co129  1  0.74761914  0.17516868  0.04195399  1
  Co  Co130  1  0.55020657  0.76395131  0.84689056  1
  Co  Co131  1  0.15207286  0.37922200  0.05797334  1
  Co  Co132  1  0.95249802  0.19433224  0.76361345  1
  Co  Co133  1  1.03627575  0.48167337  0.40669888  1
  Co  Co134  1  0.35113337  0.34777063  0.53890626  1
  Co  Co135  1  0.91686278  0.50119810  0.28139955  1
  Co  Co136  1  0.91418146  0.67745945  0.26171818  1
  Co  Co137  1  0.32679697  0.74171091  0.22382582  1
  Co  Co138  1  0.78277686  0.24951783  0.18712194  1
  Co  Co139  1  0.95036553  0.56633645  0.13222494  1
  Co  Co140  1  0.20385786  0.10391943  0.75638233  1
  Co  Co141  1  0.29918432  0.21158899  0.63370430  1
  Co  Co142  1  0.20635476  0.27796193  0.50294680  1
  Co  Co143  1  0.30238533  0.88072064  0.78279607  1
  Co  Co144  1  0.57995421  0.98190409  0.72837190  1
  Co  Co145  1  0.43753260  0.51899081  0.07063625  1
  Co  Co146  1  0.87234850  0.31839989  0.37229387  1
  Co  Co147  1  0.29800018  0.83891184  0.62900897  1
  Co  Co148  1  0.73584487  0.28095799  0.91344317  1
  Co  Co149  1  0.42442970  0.77856904  0.74632138  1
  Co  Co150  1  0.06324062  0.24214740  0.99644398  1
  Co  Co151  1  -0.04750541  0.22201744  0.60592957  1
  Co  Co152  1  0.12288423  0.09974083  0.02696678  1
  Co  Co153  1  0.17473950  0.76634550  0.72768647  1
  Co  Co154  1  0.23147253  0.08857640  0.52169412  1
  Co  Co155  1  0.35068752  0.56784959  0.21588771  1
  Co  Co156  1  0.45560985  0.08744727  0.72525203  1
  Co  Co157  1  0.66067306  0.56911702  0.77057654  1
  Co  Co158  1  0.19028047  0.44581882  0.47945243  1
  Co  Co159  1  0.79823702  0.49359583  0.15793011  1
  Co  Co160  1  0.74247800  0.05666294  0.46138902  1
  Co  Co161  1  0.67161912  0.32767326  0.77010366  1
  Ni  Ni162  1  0.15876925  -0.00834265  0.33263471  1
  Ni  Ni163  1  -0.03571701  0.63524049  0.86569841  1
  Ni  Ni164  1  0.24086311  0.16534399  0.23097082  1
  Ni  Ni165  1  0.38864782  0.61603119  0.92588210  1
  Ni  Ni166  1  0.91183783  0.43575405  0.64344088  1
  Ni  Ni167  1  0.85847437  0.38815476  0.90240205  1
  Ni  Ni168  1  0.95251988  0.04584688  0.83106966  1
  Ni  Ni169  1  0.73914258  0.18519206  0.55422944  1
  Ni  Ni170  1  -0.01304600  0.95937363  0.56601439  1
  Ni  Ni171  1  0.17423772  0.60385238  0.59115270  1
  Ni  Ni172  1  0.40592743  0.78187362  0.92162983  1
  Ni  Ni173  1  0.76496958  0.58493419  0.29757075  1
  Ni  Ni174  1  0.55148123  0.38147313  0.24828987  1
  Ni  Ni175  1  0.59690771  0.71459886  0.49366499  1
  Ni  Ni176  1  0.59916602  0.27394618  0.36026684  1
  Ni  Ni177  1  0.06881077  0.84074737  0.96156018  1
  Ni  Ni178  1  0.12032787  0.67628382  0.92078318  1
  Ni  Ni179  1  0.13712590  0.43297761  0.79957611  1
  Ni  Ni180  1  0.22104801  0.22206556  0.06334892  1
  Ni  Ni181  1  0.18040711  0.94701571  0.01897475  1
  Ni  Ni182  1  0.36074291  0.24537001  0.96428490  1
  Ni  Ni183  1  0.25680715  0.51803951  0.70765679  1
  Ni  Ni184  1  0.97517824  0.90801113  0.72080107  1
  Ni  Ni185  1  0.88951413  0.27171157  0.05150241  1
  Ni  Ni186  1  0.58607152  0.90722894  0.03729128  1
  Ni  Ni187  1  0.20655748  0.92387386  0.48850508  1
  Ni  Ni188  1  0.21510845  0.32926994  0.23463592  1
  Ni  Ni189  1  0.90874299  0.97469372  0.10977435  1
  Ni  Ni190  1  0.58692938  0.47110051  0.57653222  1
  Ni  Ni191  1  0.40271076  0.52944811  0.78954887  1
  Ni  Ni192  1  0.44719133  -0.01631221  0.06938041  1
  Ni  Ni193  1  0.87856047  0.08446874  0.55906051  1
  Ni  Ni194  1  0.92487514  0.60488426  0.67747093  1
  Ni  Ni195  1  0.61119746  0.58327824  0.05111097  1
  Ni  Ni196  1  0.73897131  0.98680110  0.98941976  1
  Ni  Ni197  1  0.82105733  0.77851764  0.85761493  1
  Ni  Ni198  1  0.82623707  0.68149448  0.98516516  1
  Ni  Ni199  1  0.69596222  0.36758121  0.46732506  1
  Ni  Ni200  1  0.94005006  0.83953306  0.33016235  1
  Ni  Ni201  1  0.56952433  0.81226599  0.21028949  1
  Ni  Ni202  1  0.85958721  0.70347895  0.55483978  1
  Ni  Ni203  1  0.84141907  0.92206964  0.61464517  1
  Ni  Ni204  1  0.59012171  0.02434059  0.91698087  1
  Ni  Ni205  1  0.60087447  0.11214822  0.27900900  1
  Ni  Ni206  1  0.11427201  0.87000408  0.21821566  1
  Ni  Ni207  1  0.44870997  0.54582085  0.63424641  1
  Ni  Ni208  1  0.41307128  0.81264089  0.09637305  1
  Ni  Ni209  1  0.45841104  0.22447698  0.10943077  1
  Ni  Ni210  1  0.19987028  0.27438399  0.75950867  1
  Ni  Ni211  1  0.40710357  0.75175025  0.40405844  1
  Ni  Ni212  1  0.61361349  0.13632138  0.67010739  1
  Ni  Ni213  1  0.83079438  0.93468869  0.25339817  1
  Ni  Ni214  1  0.48620596  0.03501490  0.38711738  1
  Ni  Ni215  1  0.10618881  0.77754724  0.47663673  1
