# generated using pymatgen
data_Ti2CoNi
_symmetry_space_group_name_H-M   'P 1'
_cell_length_a   14.62376078
_cell_length_b   14.66735654
_cell_length_c   14.65094345
_cell_angle_alpha   89.66538312
_cell_angle_beta   90.13635605
_cell_angle_gamma   89.86847465
_symmetry_Int_Tables_number   1
_chemical_formula_structural   Ti2CoNi
_chemical_formula_sum   'Ti108 Co54 Ni54'
_cell_volume   3142.43802143
_cell_formula_units_Z   54
loop_
 _symmetry_equiv_pos_site_id
 _symmetry_equiv_pos_as_xyz
  1  'x, y, z'
loop_
 _atom_site_type_symbol
 _atom_site_label
 _atom_site_symmetry_multiplicity
 _atom_site_fract_x
 _atom_site_fract_y
 _atom_site_fract_z
 _atom_site_occupancy
  Ti  Ti0  1  -0.01860864  0.02902216  -0.00988987  1
  Ti  Ti1  1  -0.02673013  0.07867834  0.28681792  1
  Ti  Ti2  1  0.02214115  -0.02039025  0.66654428  1
  Ti  Ti3  1  -0.01298328  0.38072301  -0.08844850  1
  Ti  Ti4  1  0.00304521  0.31940862  0.30108257  1
  Ti  Ti5  1  -0.05332340  0.35818624  0.66239731  1
  Ti  Ti6  1  -0.04162670  0.67085076  -0.08016203  1
  Ti  Ti7  1  -0.07795997  0.70788892  0.36357713  1
  Ti  Ti8  1  -0.02117837  0.68060119  0.58519466  1
  Ti  Ti9  1  0.29708183  0.03309148  -0.00211118  1
  Ti  Ti10  1  0.28535924  -0.00418900  0.39553877  1
  Ti  Ti11  1  0.34170724  -0.00153341  0.70142852  1
  Ti  Ti12  1  0.43665576  0.34248699  0.02956097  1
  Ti  Ti13  1  0.35237801  0.28379004  0.42489465  1
  Ti  Ti14  1  0.35474687  0.29013094  0.62818750  1
  Ti  Ti15  1  0.31551798  0.65967144  0.02337839  1
  Ti  Ti16  1  0.32660379  0.71343310  0.36049869  1
  Ti  Ti17  1  0.26851301  0.68823839  0.65466366  1
  Ti  Ti18  1  0.66615026  -0.04742642  -0.04809313  1
  Ti  Ti19  1  0.66888306  0.01060737  0.28567206  1
  Ti  Ti20  1  0.63249268  0.02085628  0.71322461  1
  Ti  Ti21  1  0.70045130  0.40888935  0.03436667  1
  Ti  Ti22  1  0.69139827  0.25883543  0.34171239  1
  Ti  Ti23  1  0.74564027  0.29288002  0.67560000  1
  Ti  Ti24  1  0.64731197  0.69358642  0.03006446  1
  Ti  Ti25  1  0.64077900  0.62204271  0.27657020  1
  Ti  Ti26  1  0.77272590  0.67478045  0.65847036  1
  Ti  Ti27  1  -0.02857437  0.23513299  0.10860482  1
  Ti  Ti28  1  0.05744914  0.21909290  0.45327191  1
  Ti  Ti29  1  0.05810321  0.10098581  0.80910643  1
  Ti  Ti30  1  -0.01399066  0.45048195  0.13662195  1
  Ti  Ti31  1  -0.03835371  0.43941807  0.46865410  1
  Ti  Ti32  1  0.03369871  0.52861491  0.77929050  1
  Ti  Ti33  1  0.04091730  0.77596729  0.20623723  1
  Ti  Ti34  1  -0.00013961  0.87225281  0.50795288  1
  Ti  Ti35  1  0.01409133  0.86425995  0.86729125  1
  Ti  Ti36  1  0.34852278  0.18316130  0.13219867  1
  Ti  Ti37  1  0.37364295  0.10056174  0.55019241  1
  Ti  Ti38  1  0.28232338  0.14458516  0.82018488  1
  Ti  Ti39  1  0.36024700  0.46479596  0.20584831  1
  Ti  Ti40  1  0.34223271  0.55776295  0.51519076  1
  Ti  Ti41  1  0.36685500  0.57431167  0.84868275  1
  Ti  Ti42  1  0.38187926  0.78680982  0.16725636  1
  Ti  Ti43  1  0.25217794  0.82262824  0.48771688  1
  Ti  Ti44  1  0.41700161  0.79735091  0.86014489  1
  Ti  Ti45  1  0.62581569  0.24001026  0.11180902  1
  Ti  Ti46  1  0.71317599  0.07817010  0.45587069  1
  Ti  Ti47  1  0.62931564  0.22506105  0.82317685  1
  Ti  Ti48  1  0.66624817  0.42687413  0.23193893  1
  Ti  Ti49  1  0.63848909  0.55005857  0.58194815  1
  Ti  Ti50  1  0.62975419  0.50598744  0.78064368  1
  Ti  Ti51  1  0.69136720  0.82618185  0.23133299  1
  Ti  Ti52  1  0.65161032  0.77847503  0.52471395  1
  Ti  Ti53  1  0.70854507  0.81390789  0.82964919  1
  Ti  Ti54  1  0.22749920  0.03098515  0.19745237  1
  Ti  Ti55  1  0.15944029  0.06447805  0.53483713  1
  Ti  Ti56  1  0.19154076  -0.04101929  0.83758097  1
  Ti  Ti57  1  0.17028376  0.34668991  0.18395007  1
  Ti  Ti58  1  0.15451665  0.43400372  0.44808563  1
  Ti  Ti59  1  0.16240706  0.28113388  0.88380397  1
  Ti  Ti60  1  0.08851869  0.61533440  0.08600908  1
  Ti  Ti61  1  0.16184319  0.62535349  0.48870053  1
  Ti  Ti62  1  0.13823250  0.66693548  0.89381650  1
  Ti  Ti63  1  0.51217426  -0.04845895  0.21625228  1
  Ti  Ti64  1  0.49740224  -0.04212953  0.44751927  1
  Ti  Ti65  1  0.47679192  0.08241325  0.85615199  1
  Ti  Ti66  1  0.49859555  0.29728527  0.24950813  1
  Ti  Ti67  1  0.55064180  0.37308247  0.43231031  1
  Ti  Ti68  1  0.43718535  0.29254459  0.81673948  1
  Ti  Ti69  1  0.48763047  0.60668090  0.14764345  1
  Ti  Ti70  1  0.47821934  0.67598123  0.56896393  1
  Ti  Ti71  1  0.56378971  0.67604300  0.84153699  1
  Ti  Ti72  1  0.79334062  -0.03361285  0.12095650  1
  Ti  Ti73  1  0.84020746  0.00524020  0.58487277  1
  Ti  Ti74  1  0.85256147  -0.03079580  0.79205417  1
  Ti  Ti75  1  0.83011637  0.33394781  0.20949213  1
  Ti  Ti76  1  0.84014824  0.22910341  0.50994993  1
  Ti  Ti77  1  0.84062082  0.27736957  0.85917575  1
  Ti  Ti78  1  0.80424170  0.66936055  0.17045025  1
  Ti  Ti79  1  0.79087774  0.60445881  0.47945814  1
  Ti  Ti80  1  0.77006529  0.63317357  0.84927593  1
  Ti  Ti81  1  0.15851550  0.18465479  0.07012688  1
  Ti  Ti82  1  0.23781922  0.18821401  0.32442576  1
  Ti  Ti83  1  0.11831558  0.21845908  0.66551106  1
  Ti  Ti84  1  0.20206839  0.47572036  -0.03481386  1
  Ti  Ti85  1  0.15460612  0.61681307  0.28208212  1
  Ti  Ti86  1  0.21160230  0.45618705  0.65151183  1
  Ti  Ti87  1  0.23993197  0.82996531  -0.03526915  1
  Ti  Ti88  1  0.20853711  0.83488741  0.27990933  1
  Ti  Ti89  1  0.13800922  0.81963071  0.71807600  1
  Ti  Ti90  1  0.49760005  0.08549998  0.05522811  1
  Ti  Ti91  1  0.55180202  0.14393432  0.37848877  1
  Ti  Ti92  1  0.56064569  0.22724588  0.64310748  1
  Ti  Ti93  1  0.51898371  0.52611169  -0.02896451  1
  Ti  Ti94  1  0.46523562  0.58851251  0.36969277  1
  Ti  Ti95  1  0.47382443  0.43771502  0.62111421  1
  Ti  Ti96  1  0.44913294  0.89408215  0.01817630  1
  Ti  Ti97  1  0.51856012  0.78003305  0.33483451  1
  Ti  Ti98  1  0.51012299  0.85435403  0.66235501  1
  Ti  Ti99  1  0.79442481  0.10124448  -0.02366198  1
  Ti  Ti100  1  0.78617338  0.13696382  0.23916197  1
  Ti  Ti101  1  0.89925646  0.15744769  0.68667249  1
  Ti  Ti102  1  0.84560890  0.54734041  0.02379287  1
  Ti  Ti103  1  0.78237722  0.41386285  0.39462190  1
  Ti  Ti104  1  0.80584366  0.47401833  0.72079194  1
  Ti  Ti105  1  0.93803800  0.84154615  0.04703047  1
  Ti  Ti106  1  0.80669555  0.89049666  0.42003974  1
  Ti  Ti107  1  0.75806777  0.85708328  0.65729712  1
  Co  Co108  1  0.35661430  0.55114848  0.68254363  1
  Co  Co109  1  0.06473509  0.06365153  0.13299298  1
  Co  Co110  1  0.32854439  0.39335312  0.89328623  1
  Co  Co111  1  0.21167855  0.24174656  0.51330671  1
  Co  Co112  1  0.86061626  0.47781682  0.87834614  1
  Co  Co113  1  0.30578207  0.40610755  0.51698324  1
  Co  Co114  1  0.28296180  0.55338652  0.36390535  1
  Co  Co115  1  0.21292726  0.72349384  0.14648340  1
  Co  Co116  1  0.72266332  0.38317354  0.84548011  1
  Co  Co117  1  0.83380290  0.91089776  0.93785087  1
  Co  Co118  1  0.84308973  0.77041256  0.52857451  1
  Co  Co119  1  0.16736111  0.04385375  0.70145297  1
  Co  Co120  1  0.37566869  -0.01638407  0.13356408  1
  Co  Co121  1  0.86746516  0.78279341  0.81517498  1
  Co  Co122  1  0.83887018  0.96760790  0.27968282  1
  Co  Co123  1  0.44261294  0.14044412  0.70796919  1
  Co  Co124  1  0.38692107  0.08883583  0.24825750  1
  Co  Co125  1  0.92270990  0.46859272  0.30271405  1
  Co  Co126  1  0.13077464  0.91617564  0.42330766  1
  Co  Co127  1  0.99459774  0.25447758  0.78999902  1
  Co  Co128  1  0.64781224  0.50043789  0.39643804  1
  Co  Co129  1  0.54689678  0.76121199  0.17159166  1
  Co  Co130  1  0.46995508  0.71209141  0.01282468  1
  Co  Co131  1  0.53292137  0.43461834  0.11980782  1
  Co  Co132  1  -0.01817166  0.60570252  0.23699109  1
  Co  Co133  1  0.33892480  0.63334116  0.22056121  1
  Co  Co134  1  0.81207426  0.48996210  0.17420527  1
  Co  Co135  1  0.66627092  0.55335835  0.10832672  1
  Co  Co136  1  0.67979872  0.53626738  0.93601445  1
  Co  Co137  1  0.94356663  0.68791640  0.09545910  1
  Co  Co138  1  0.26983764  0.15905357  0.66006125  1
  Co  Co139  1  1.02897028  0.57983538  0.40449692  1
  Co  Co140  1  0.52564071  0.22825786  -0.03876263  1
  Co  Co141  1  0.25548426  0.30963309  0.75607714  1
  Co  Co142  1  0.46195002  0.45410653  0.79815989  1
  Co  Co143  1  0.09264888  0.77321946  0.01952925  1
  Co  Co144  1  0.08290965  0.46500636  0.28404229  1
  Co  Co145  1  0.59093933  0.36210888  0.73060629  1
  Co  Co146  1  0.90140285  0.08848051  0.12654581  1
  Co  Co147  1  0.36368015  0.49773554  1.02932376  1
  Co  Co148  1  0.60734665  0.89732899  0.09496310  1
  Co  Co149  1  0.86714025  0.81215689  0.21207698  1
  Co  Co150  1  0.81606223  0.72484423  0.97027900  1
  Co  Co151  1  0.11876970  0.76988022  0.56445679  1
  Co  Co152  1  0.61503777  0.71943308  0.68854090  1
  Co  Co153  1  0.42074113  0.71383457  0.72352266  1
  Co  Co154  1  0.03254128  0.52465395  0.96128560  1
  Co  Co155  1  0.19700831  0.91903342  0.60170269  1
  Co  Co156  1  0.86572701  0.05900034  0.41660921  1
  Co  Co157  1  0.86287891  0.36649048  0.03070661  1
  Co  Co158  1  0.25588607  0.88314048  0.11632051  1
  Co  Co159  1  0.57212325  0.38033222  0.90454410  1
  Co  Co160  1  0.65824486  0.23127338  0.50145232  1
  Co  Co161  1  0.96304470  0.94110122  0.17208203  1
  Ni  Ni162  1  0.26346208  0.31896880  0.02994676  1
  Ni  Ni163  1  0.64525732  0.38707128  0.56880670  1
  Ni  Ni164  1  0.74007913  0.73509815  0.37202445  1
  Ni  Ni165  1  0.87195409  0.22633894  0.35277656  1
  Ni  Ni166  1  0.36296222  0.19331305  0.96008949  1
  Ni  Ni167  1  0.65425421  0.94727084  0.55311016  1
  Ni  Ni168  1  0.43065011  0.80092308  0.47431871  1
  Ni  Ni169  1  0.14964120  0.09129041  0.94042995  1
  Ni  Ni170  1  0.48547855  0.22828201  0.50346287  1
  Ni  Ni171  1  0.09670891  0.95300051  0.26104219  1
  Ni  Ni172  1  0.52032569  0.46751754  0.28012561  1
  Ni  Ni173  1  0.72455169  0.13139798  0.62132530  1
  Ni  Ni174  1  0.75233903  0.82127247  0.07060594  1
  Ni  Ni175  1  0.90032059  0.53411833  0.59786195  1
  Ni  Ni176  1  0.70363786  0.25975146  0.96272322  1
  Ni  Ni177  1  0.09940353  0.18997543  0.23615422  1
  Ni  Ni178  1  0.09726207  0.34774754  0.03198786  1
  Ni  Ni179  1  0.97742969  0.09821908  0.54047889  1
  Ni  Ni180  1  0.36222383  0.95387472  0.86606669  1
  Ni  Ni181  1  0.08065833  0.34597739  0.56579704  1
  Ni  Ni182  1  0.33808319  0.30014029  0.24139365  1
  Ni  Ni183  1  0.01872792  0.20495950  0.95143149  1
  Ni  Ni184  1  0.39559234  0.43205591  0.37783550  1
  Ni  Ni185  1  0.63101242  0.10918806  0.94746878  1
  Ni  Ni186  1  0.80989510  0.40374675  0.55834847  1
  Ni  Ni187  1  0.80280387  0.58102933  0.31616421  1
  Ni  Ni188  1  0.55691517  0.07971768  0.56035009  1
  Ni  Ni189  1  0.24106339  0.39738552  0.32197239  1
  Ni  Ni190  1  0.02220850  0.71792877  0.76763244  1
  Ni  Ni191  1  0.21153024  0.56746914  0.77576177  1
  Ni  Ni192  1  0.65496103  0.05968366  0.11287497  1
  Ni  Ni193  1  0.23478906  0.54625474  0.12448675  1
  Ni  Ni194  1  0.57330357  0.81651881  0.93698894  1
  Ni  Ni195  1  0.09402311  0.75004429  0.38968161  1
  Ni  Ni196  1  0.12559728  0.07539280  0.36555226  1
  Ni  Ni197  1  0.75511939  0.12057135  0.78567868  1
  Ni  Ni198  1  0.51260248  0.58529655  0.70441822  1
  Ni  Ni199  1  0.60415498  0.64882804  0.44392645  1
  Ni  Ni200  1  0.36931307  0.92660901  0.55699697  1
  Ni  Ni201  1  0.36865160  0.90489042  0.29144674  1
  Ni  Ni202  1  0.12432390  0.94440145  1.02226696  1
  Ni  Ni203  1  0.27392055  0.71745846  0.82468467  1
  Ni  Ni204  1  0.54977404  0.13620410  0.21468022  1
  Ni  Ni205  1  0.39379348  0.12435854  0.39548292  1
  Ni  Ni206  1  0.97430089  0.87254989  0.33703023  1
  Ni  Ni207  1  0.90556804  0.11974762  0.85424863  1
  Ni  Ni208  1  0.53018840  0.92698404  0.81593924  1
  Ni  Ni209  1  0.93402145  0.83428914  0.67114944  1
  Ni  Ni210  1  0.63781707  0.88370769  0.38945650  1
  Ni  Ni211  1  0.06286946  0.51414242  0.59064295  1
  Ni  Ni212  1  0.31072096  0.84227945  0.72577772  1
  Ni  Ni213  1  0.79972780  0.21996045  0.08898296  1
  Ni  Ni214  1  0.90048098  0.61769858  0.74736128  1
  Ni  Ni215  1  0.09681420  0.37501751  0.74587512  1
