# generated using pymatgen
data_Ti2CoNi
_symmetry_space_group_name_H-M   'P 1'
_cell_length_a   14.54742301
_cell_length_b   14.54944360
_cell_length_c   14.53062970
_cell_angle_alpha   90.08466589
_cell_angle_beta   90.11431690
_cell_angle_gamma   90.09435123
_symmetry_Int_Tables_number   1
_chemical_formula_structural   Ti2CoNi
_chemical_formula_sum   'Ti108 Co54 Ni54'
_cell_volume   3075.49452667
_cell_formula_units_Z   54
loop_
 _symmetry_equiv_pos_site_id
 _symmetry_equiv_pos_as_xyz
  1  'x, y, z'
loop_
 _atom_site_type_symbol
 _atom_site_label
 _atom_site_symmetry_multiplicity
 _atom_site_fract_x
 _atom_site_fract_y
 _atom_site_fract_z
 _atom_site_occupancy
  Ti  Ti0  1  0.03279893  0.00886442  -0.04379472  1
  Ti  Ti1  1  -0.02349332  -0.05028463  0.28027678  1
  Ti  Ti2  1  -0.00677990  -0.03032310  0.66360878  1
  Ti  Ti3  1  -0.00244388  0.32282253  -0.08507919  1
  Ti  Ti4  1  -0.07540939  0.31601123  0.29032553  1
  Ti  Ti5  1  -0.04786373  0.27569863  0.62562861  1
  Ti  Ti6  1  0.02687100  0.66743282  0.01721422  1
  Ti  Ti7  1  0.02488126  0.74336985  0.31736391  1
  Ti  Ti8  1  0.01857356  0.64752892  0.59501051  1
  Ti  Ti9  1  0.34888832  0.02094484  -0.01660154  1
  Ti  Ti10  1  0.27733251  0.03557411  0.31141058  1
  Ti  Ti11  1  0.34177667  -0.04573615  0.62105578  1
  Ti  Ti12  1  0.31648481  0.37344549  0.01053766  1
  Ti  Ti13  1  0.36115945  0.26116579  0.36336412  1
  Ti  Ti14  1  0.37455557  0.31802996  0.69142345  1
  Ti  Ti15  1  0.40065249  0.73457152  -0.06366543  1
  Ti  Ti16  1  0.32556042  0.57750178  0.40914726  1
  Ti  Ti17  1  0.33552294  0.68390187  0.61333829  1
  Ti  Ti18  1  0.71964861  0.04598487  0.03502923  1
  Ti  Ti19  1  0.68054332  0.04824795  0.23690282  1
  Ti  Ti20  1  0.65446198  0.05643329  0.70894895  1
  Ti  Ti21  1  0.63757878  0.32614430  0.01014902  1
  Ti  Ti22  1  0.65422507  0.32176435  0.40821368  1
  Ti  Ti23  1  0.66393957  0.25752924  0.70502972  1
  Ti  Ti24  1  0.70152506  0.67775749  -0.07026802  1
  Ti  Ti25  1  0.64323884  0.72674015  0.41458350  1
  Ti  Ti26  1  0.67649171  0.64270507  0.66755708  1
  Ti  Ti27  1  0.03688020  0.16599123  0.23348666  1
  Ti  Ti28  1  0.00377532  0.19059814  0.42093683  1
  Ti  Ti29  1  0.09966022  0.16395026  0.84915508  1
  Ti  Ti30  1  0.06866789  0.51402906  0.15087432  1
  Ti  Ti31  1  -0.03726546  0.52694647  0.45433551  1
  Ti  Ti32  1  -0.02747863  0.54122429  0.87023072  1
  Ti  Ti33  1  0.05050367  0.85197709  0.11634599  1
  Ti  Ti34  1  -0.02473232  0.87178951  0.49014761  1
  Ti  Ti35  1  -0.05299236  0.76582640  0.80376442  1
  Ti  Ti36  1  0.37293024  0.16154178  0.14835200  1
  Ti  Ti37  1  0.38421863  0.09419015  0.48675356  1
  Ti  Ti38  1  0.29189596  0.17981887  0.83279877  1
  Ti  Ti39  1  0.36363354  0.51981426  0.13458547  1
  Ti  Ti40  1  0.30075457  0.49283403  0.58541910  1
  Ti  Ti41  1  0.30788155  0.55575114  0.92035960  1
  Ti  Ti42  1  0.28723814  0.86582519  0.16835756  1
  Ti  Ti43  1  0.27635536  0.79998300  0.47975909  1
  Ti  Ti44  1  0.36657931  0.88922479  0.82182080  1
  Ti  Ti45  1  0.64310508  0.26460698  0.20068329  1
  Ti  Ti46  1  0.68538992  0.16309181  0.53236582  1
  Ti  Ti47  1  0.62660143  0.16798814  0.86273864  1
  Ti  Ti48  1  0.66275845  0.49352152  0.20678705  1
  Ti  Ti49  1  0.64284268  0.45793137  0.58906876  1
  Ti  Ti50  1  0.71144921  0.47417963  0.91666367  1
  Ti  Ti51  1  0.66714351  0.86366965  0.17467499  1
  Ti  Ti52  1  0.66729833  0.92035794  0.45171331  1
  Ti  Ti53  1  0.66876114  0.90094221  0.87077240  1
  Ti  Ti54  1  0.19974048  0.09268321  0.12762349  1
  Ti  Ti55  1  0.09898502  0.02982000  0.48822296  1
  Ti  Ti56  1  0.15587806  -0.11963419  0.88463872  1
  Ti  Ti57  1  0.19434819  0.30149819  0.13119928  1
  Ti  Ti58  1  0.08904308  0.36973356  0.51143942  1
  Ti  Ti59  1  0.11154376  0.33692956  0.74845606  1
  Ti  Ti60  1  0.23074629  0.65734452  0.22280715  1
  Ti  Ti61  1  0.14734855  0.61258255  0.43339751  1
  Ti  Ti62  1  0.24112610  0.71025088  0.79373669  1
  Ti  Ti63  1  0.48109793  -0.02091502  0.21129614  1
  Ti  Ti64  1  0.46841469  -0.08101390  0.43503711  1
  Ti  Ti65  1  0.44222158  0.06172147  0.79762252  1
  Ti  Ti66  1  0.47185083  0.31785974  0.15065266  1
  Ti  Ti67  1  0.45796357  0.39824134  0.50054627  1
  Ti  Ti68  1  0.54834024  0.36703367  0.83250605  1
  Ti  Ti69  1  0.52509451  0.65349913  0.11191180  1
  Ti  Ti70  1  0.51173800  0.59236282  0.50719813  1
  Ti  Ti71  1  0.56432441  0.75046054  0.79543585  1
  Ti  Ti72  1  0.86523611  0.09138075  0.15937867  1
  Ti  Ti73  1  0.81606220  0.00377391  0.54107652  1
  Ti  Ti74  1  0.85729434  -0.05742235  0.90572597  1
  Ti  Ti75  1  0.91194345  0.40005760  0.10938728  1
  Ti  Ti76  1  0.88951799  0.34806970  0.46581601  1
  Ti  Ti77  1  0.79546814  0.29583978  0.83017879  1
  Ti  Ti78  1  0.76596598  0.65453421  0.18215867  1
  Ti  Ti79  1  0.87133713  0.70459575  0.47072754  1
  Ti  Ti80  1  0.85939548  0.65692756  0.68255787  1
  Ti  Ti81  1  0.07221553  0.19271566  0.03570367  1
  Ti  Ti82  1  0.16646544  0.29063783  0.35281427  1
  Ti  Ti83  1  0.08103749  0.13158344  0.67513472  1
  Ti  Ti84  1  0.13429547  0.46580871  -0.04737769  1
  Ti  Ti85  1  0.20809544  0.46971485  0.26953018  1
  Ti  Ti86  1  0.17249571  0.52422790  0.74184204  1
  Ti  Ti87  1  0.20355712  0.74266245  0.01937011  1
  Ti  Ti88  1  0.15964914  0.88505503  0.36482888  1
  Ti  Ti89  1  0.09203675  0.81468521  0.67914302  1
  Ti  Ti90  1  0.46153247  0.19680290  -0.03096297  1
  Ti  Ti91  1  0.57037995  0.08818109  0.38217678  1
  Ti  Ti92  1  0.50332011  0.16554850  0.62410346  1
  Ti  Ti93  1  0.52059125  0.53292769  -0.03989109  1
  Ti  Ti94  1  0.51620664  0.55990806  0.31240378  1
  Ti  Ti95  1  0.49002655  0.50833482  0.69388806  1
  Ti  Ti96  1  0.46929510  0.84075772  0.08093280  1
  Ti  Ti97  1  0.46111713  0.78440057  0.27501555  1
  Ti  Ti98  1  0.51453849  0.87661502  0.64043712  1
  Ti  Ti99  1  0.89895456  0.15280106  -0.04154827  1
  Ti  Ti100  1  0.78329895  0.20151120  0.31537681  1
  Ti  Ti101  1  0.83659679  0.13508044  0.67861136  1
  Ti  Ti102  1  0.85341325  0.56559525  0.03524824  1
  Ti  Ti103  1  0.79648406  0.49010851  0.35165544  1
  Ti  Ti104  1  0.82882241  0.46155443  0.66042362  1
  Ti  Ti105  1  0.85652086  0.77160223  0.05680401  1
  Ti  Ti106  1  0.79252412  0.79668982  0.31514411  1
  Ti  Ti107  1  0.81413849  0.92180393  0.72335273  1
  Co  Co108  1  0.47737927  0.91501394  0.92867450  1
  Co  Co109  1  0.73744837  0.06912434  0.40478264  1
  Co  Co110  1  0.99850600  0.91112811  0.81591799  1
  Co  Co111  1  0.31379668  0.86350950  0.99582868  1
  Co  Co112  1  0.22688694  0.08152735  0.57964110  1
  Co  Co113  1  0.24442032  0.18724892  0.25998261  1
  Co  Co114  1  0.28117135  0.96686352  0.46684209  1
  Co  Co115  1  0.66019376  0.73466225  0.08010864  1
  Co  Co116  1  0.40862587  0.45576227  0.83579937  1
  Co  Co117  1  0.06024277  0.42818931  0.35108829  1
  Co  Co118  1  0.35507761  0.12445331  0.66921197  1
  Co  Co119  1  0.60666413  0.16756304  0.05163396  1
  Co  Co120  1  0.06032439  0.33417986  0.21778594  1
  Co  Co121  1  0.35609992  0.90334975  0.32427451  1
  Co  Co122  1  0.91429598  0.78808401  0.20632239  1
  Co  Co123  1  0.31804997  0.24389957  0.53787968  1
  Co  Co124  1  0.38988121  0.63645148  0.25101457  1
  Co  Co125  1  0.13177927  0.00207330  0.78129798  1
  Co  Co126  1  0.98060051  0.43751204  0.60315442  1
  Co  Co127  1  0.33957278  0.56768402  0.73336238  1
  Co  Co128  1  0.59811889  0.31033063  0.56600634  1
  Co  Co129  1  0.77550005  0.30578238  0.60118725  1
  Co  Co130  1  0.53300126  0.13598347  0.18872885  1
  Co  Co131  1  0.56878379  0.78128036  0.95832009  1
  Co  Co132  1  0.12102930  0.21315322  0.54063128  1
  Co  Co133  1  0.22256659  0.21522501  0.68699120  1
  Co  Co134  1  0.47696351  0.37855288  0.98961289  1
  Co  Co135  1  0.21631784  0.35916921  0.61633698  1
  Co  Co136  1  0.74578657  0.19431557  0.95551708  1
  Co  Co137  1  0.16460429  0.91148599  0.57124492  1
  Co  Co138  1  0.93387747  0.48046211  0.25711279  1
  Co  Co139  1  0.94233824  0.63106661  0.16207157  1
  Co  Co140  1  0.17372960  0.29633658  0.94056399  1
  Co  Co141  1  0.66692109  0.56672536  0.05521593  1
  Co  Co142  1  0.99115293  0.53504040  0.71812710  1
  Co  Co143  1  0.05309229  0.58717431  0.29785341  1
  Co  Co144  1  0.06393590  0.36656097  0.05816453  1
  Co  Co145  1  0.20893909  0.45236387  0.43614601  1
  Co  Co146  1  0.96511761  0.06417583  0.80378132  1
  Co  Co147  1  0.57842495  0.03920058  0.91970118  1
  Co  Co148  1  0.61590855  0.48341338  0.41590581  1
  Co  Co149  1  0.38076843  0.30504160  0.87327571  1
  Co  Co150  1  0.70343403  0.61117743  0.33060634  1
  Co  Co151  1  0.88389019  0.07786350  0.32801879  1
  Co  Co152  1  0.59854007  0.88128532  0.31481511  1
  Co  Co153  1  0.12808981  0.51627384  0.58184004  1
  Co  Co154  1  0.48589125  0.04532870  0.05530031  1
  Co  Co155  1  0.09323021  0.70113695  0.16555842  1
  Co  Co156  1  0.76451323  0.43419881  0.49537371  1
  Co  Co157  1  0.29211399  0.20308903  0.00905830  1
  Co  Co158  1  0.22336019  0.15056025  0.42978302  1
  Co  Co159  1  0.27951768  0.76140032  0.32231717  1
  Co  Co160  1  0.17938448  0.68063709  0.60394388  1
  Co  Co161  1  0.59648485  0.93191008  0.04550357  1
  Ni  Ni162  1  0.80193797  0.56590753  0.81149986  1
  Ni  Ni163  1  0.77118105  0.22689912  0.10961047  1
  Ni  Ni164  1  0.07789796  0.66766831  0.76097285  1
  Ni  Ni165  1  0.79166210  0.08425380  0.83086108  1
  Ni  Ni166  1  0.14801976  0.62561964  0.90604367  1
  Ni  Ni167  1  0.32506005  0.34599162  0.21262895  1
  Ni  Ni168  1  0.68131550  0.91437801  0.62748116  1
  Ni  Ni169  1  0.39973593  0.74698608  0.75018963  1
  Ni  Ni170  1  0.52195863  0.23718410  0.31443576  1
  Ni  Ni171  1  0.15229040  0.95424632  0.21549172  1
  Ni  Ni172  1  -0.01341591  0.82927531  0.96257719  1
  Ni  Ni173  1  0.52578827  0.47372439  0.12178569  1
  Ni  Ni174  1  0.93818640  0.23996876  0.11783812  1
  Ni  Ni175  1  0.77397846  0.36810639  0.23286853  1
  Ni  Ni176  1  0.50645353  0.67664197  0.64928769  1
  Ni  Ni177  1  0.45435489  0.61723632  0.83554903  1
  Ni  Ni178  1  0.55038929  0.39402843  0.28728248  1
  Ni  Ni179  1  -0.06518574  0.38793232  0.77384484  1
  Ni  Ni180  1  0.75387494  0.42791253  0.07873442  1
  Ni  Ni181  1  0.74272021  0.87175929  1.01423582  1
  Ni  Ni182  1  0.10120588  0.77137306  0.48103369  1
  Ni  Ni183  1  0.68386442  0.43033435  0.75506066  1
  Ni  Ni184  1  0.84326276  0.18852688  0.48913331  1
  Ni  Ni185  1  0.90604558  0.95195056  0.05971116  1
  Ni  Ni186  1  0.56737081  0.02650553  0.54832262  1
  Ni  Ni187  1  0.94641790  0.22285186  0.78591427  1
  Ni  Ni188  1  0.42141334  0.10467206  0.30942633  1
  Ni  Ni189  1  0.88324020  0.63819055  0.31409326  1
  Ni  Ni190  1  0.20784145  0.57795936  0.06738322  1
  Ni  Ni191  1  0.87461288  0.67938449  0.91555284  1
  Ni  Ni192  1  0.48950250  0.21911301  0.77808351  1
  Ni  Ni193  1  0.76657243  0.75907576  0.79776398  1
  Ni  Ni194  1  0.42230339  0.69824821  0.40590941  1
  Ni  Ni195  1  0.48978605  0.23715356  0.47259674  1
  Ni  Ni196  1  0.03593040  0.03178455  0.12831662  1
  Ni  Ni197  1  0.61205973  0.71777756  0.24308173  1
  Ni  Ni198  1  0.54569573  0.94232822  0.77769618  1
  Ni  Ni199  1  0.25000719  0.40107101  0.83914051  1
  Ni  Ni200  1  0.35355233  0.69612281  0.09519939  1
  Ni  Ni201  1  0.35550879  0.42706670  0.35389230  1
  Ni  Ni202  1  0.44749094  0.78402872  0.53187110  1
  Ni  Ni203  1  0.96071974  0.09839852  0.55597010  1
  Ni  Ni204  1  0.78536541  0.83030324  0.52687141  1
  Ni  Ni205  1  0.61971116  0.57428173  0.81110067  1
  Ni  Ni206  1  0.91272396  0.81084603  0.63398979  1
  Ni  Ni207  1  0.17624893  0.94261995  0.05007015  1
  Ni  Ni208  1  0.11506389  0.07070342  0.32861600  1
  Ni  Ni209  1  0.78190676  0.58751969  0.54143528  1
  Ni  Ni210  1  0.86504306  0.41807140  0.93745333  1
  Ni  Ni211  1  0.62052311  0.76450934  0.56615376  1
  Ni  Ni212  1  0.19420609  0.07429790  0.95057900  1
  Ni  Ni213  1  0.81705495  0.93146028  0.19477098  1
  Ni  Ni214  1  0.84478719  0.92974992  0.39192094  1
  Ni  Ni215  1  0.24420048  0.86305718  0.71489067  1
