# generated using pymatgen
data_Ti2CoNi
_symmetry_space_group_name_H-M   'P 1'
_cell_length_a   14.61968571
_cell_length_b   14.66204554
_cell_length_c   14.66081550
_cell_angle_alpha   89.85822068
_cell_angle_beta   90.30125730
_cell_angle_gamma   90.16391288
_symmetry_Int_Tables_number   1
_chemical_formula_structural   Ti2CoNi
_chemical_formula_sum   'Ti108 Co54 Ni54'
_cell_volume   3142.54593810
_cell_formula_units_Z   54
loop_
 _symmetry_equiv_pos_site_id
 _symmetry_equiv_pos_as_xyz
  1  'x, y, z'
loop_
 _atom_site_type_symbol
 _atom_site_label
 _atom_site_symmetry_multiplicity
 _atom_site_fract_x
 _atom_site_fract_y
 _atom_site_fract_z
 _atom_site_occupancy
  Ti  Ti0  1  0.01501306  -0.00848661  -0.00405344  1
  Ti  Ti1  1  -0.02489276  -0.00090533  0.40240133  1
  Ti  Ti2  1  -0.03229202  0.04397947  0.70227703  1
  Ti  Ti3  1  -0.04101506  0.24531126  0.06437258  1
  Ti  Ti4  1  -0.06501454  0.28769427  0.25072815  1
  Ti  Ti5  1  0.11766984  0.36997157  0.72541989  1
  Ti  Ti6  1  0.01026390  0.69718490  0.06200421  1
  Ti  Ti7  1  -0.03511177  0.66130145  0.25434291  1
  Ti  Ti8  1  0.02800115  0.66038559  0.64997683  1
  Ti  Ti9  1  0.27878498  -0.03370023  -0.01902213  1
  Ti  Ti10  1  0.30400553  0.04080467  0.39893458  1
  Ti  Ti11  1  0.27377888  -0.09710482  0.57720850  1
  Ti  Ti12  1  0.40214370  0.37475660  -0.02240213  1
  Ti  Ti13  1  0.29766422  0.33214224  0.36328645  1
  Ti  Ti14  1  0.34258729  0.24511342  0.67623777  1
  Ti  Ti15  1  0.30331326  0.70329973  -0.04543107  1
  Ti  Ti16  1  0.39618878  0.65855748  0.38502831  1
  Ti  Ti17  1  0.34471994  0.71037271  0.61342390  1
  Ti  Ti18  1  0.67618984  -0.03155872  0.00282385  1
  Ti  Ti19  1  0.69855686  0.04743703  0.32489031  1
  Ti  Ti20  1  0.66975267  -0.03741339  0.67584470  1
  Ti  Ti21  1  0.70117627  0.39063241  -0.02909085  1
  Ti  Ti22  1  0.74371246  0.24981092  0.30992657  1
  Ti  Ti23  1  0.65041604  0.38597932  0.72660682  1
  Ti  Ti24  1  0.65988446  0.67611220  -0.01235768  1
  Ti  Ti25  1  0.61223786  0.67919192  0.31688306  1
  Ti  Ti26  1  0.72668371  0.64781504  0.66588897  1
  Ti  Ti27  1  -0.00289604  0.09545797  0.20966269  1
  Ti  Ti28  1  0.07154280  0.22934004  0.38883486  1
  Ti  Ti29  1  0.04495525  0.19740296  0.86934655  1
  Ti  Ti30  1  0.06657152  0.40656015  0.14652990  1
  Ti  Ti31  1  0.01608839  0.52085844  0.51647469  1
  Ti  Ti32  1  0.00545599  0.50084880  0.79433197  1
  Ti  Ti33  1  0.00556842  0.86758929  0.18714844  1
  Ti  Ti34  1  -0.03424658  0.82175561  0.52697707  1
  Ti  Ti35  1  -0.07275145  0.87473157  0.85123556  1
  Ti  Ti36  1  0.34859266  0.06656232  0.14148393  1
  Ti  Ti37  1  0.38520421  0.07585526  0.57647816  1
  Ti  Ti38  1  0.31287866  0.11944688  0.84548084  1
  Ti  Ti39  1  0.34178641  0.55255624  0.24169390  1
  Ti  Ti40  1  0.32961263  0.47188232  0.53442068  1
  Ti  Ti41  1  0.33796832  0.43510958  0.78865806  1
  Ti  Ti42  1  0.30381702  0.74869797  0.18239967  1
  Ti  Ti43  1  0.29951047  0.83380527  0.39174289  1
  Ti  Ti44  1  0.38051158  0.85938079  0.85798504  1
  Ti  Ti45  1  0.69887049  0.24014463  0.10833094  1
  Ti  Ti46  1  0.65448626  0.20701914  0.51320236  1
  Ti  Ti47  1  0.68061366  0.07350338  0.83059942  1
  Ti  Ti48  1  0.68722377  0.45925389  0.21170274  1
  Ti  Ti49  1  0.67396102  0.44656746  0.54272847  1
  Ti  Ti50  1  0.66423389  0.54414536  0.85097826  1
  Ti  Ti51  1  0.59459033  0.75515663  0.15232693  1
  Ti  Ti52  1  0.60361353  0.83248573  0.53982763  1
  Ti  Ti53  1  0.71466694  0.84932372  0.84582479  1
  Ti  Ti54  1  0.15985131  0.00818689  0.14157806  1
  Ti  Ti55  1  0.15878036  0.05887020  0.53079607  1
  Ti  Ti56  1  0.23721081  -0.03937254  0.77275383  1
  Ti  Ti57  1  0.25180248  0.33095783  0.12266200  1
  Ti  Ti58  1  0.14655308  0.37994631  0.50720394  1
  Ti  Ti59  1  0.22494609  0.32208770  0.89633737  1
  Ti  Ti60  1  0.14386955  0.58553504  0.18548739  1
  Ti  Ti61  1  0.19348257  0.63910895  0.48661933  1
  Ti  Ti62  1  0.16496342  0.68726531  0.81222767  1
  Ti  Ti63  1  0.52975059  0.00356914  0.17685890  1
  Ti  Ti64  1  0.54090831  0.03257328  0.49055916  1
  Ti  Ti65  1  0.50762285  -0.00307058  0.86910794  1
  Ti  Ti66  1  0.44154779  0.37284106  0.20168805  1
  Ti  Ti67  1  0.49824299  0.34346389  0.46502059  1
  Ti  Ti68  1  0.55464591  0.29524708  0.88429526  1
  Ti  Ti69  1  0.43927256  0.63723045  0.08199273  1
  Ti  Ti70  1  0.59295767  0.62266764  0.51814381  1
  Ti  Ti71  1  0.47953868  0.62522084  0.88117557  1
  Ti  Ti72  1  0.82781581  -0.02780168  0.15031867  1
  Ti  Ti73  1  0.84631892  -0.03040247  0.57690531  1
  Ti  Ti74  1  0.82643108  0.18944490  0.80157821  1
  Ti  Ti75  1  0.84469565  0.41288785  0.12124784  1
  Ti  Ti76  1  0.83988612  0.35425480  0.52335929  1
  Ti  Ti77  1  0.86952466  0.37291241  0.87517846  1
  Ti  Ti78  1  0.78878897  0.63654810  0.15089631  1
  Ti  Ti79  1  0.86057110  0.70512382  0.42647878  1
  Ti  Ti80  1  0.90113729  0.66078745  0.79804179  1
  Ti  Ti81  1  0.22552877  0.16675599  0.02289140  1
  Ti  Ti82  1  0.21693418  0.16472598  0.25545404  1
  Ti  Ti83  1  0.12342397  0.21670103  0.61576008  1
  Ti  Ti84  1  0.09761678  0.52387123  -0.01027971  1
  Ti  Ti85  1  0.09598466  0.44628377  0.33357283  1
  Ti  Ti86  1  0.20466617  0.54167320  0.67040893  1
  Ti  Ti87  1  0.15812059  0.83079690  0.05761705  1
  Ti  Ti88  1  0.09710617  0.79487045  0.35424929  1
  Ti  Ti89  1  0.10605315  0.86760011  0.67983990  1
  Ti  Ti90  1  0.50228616  0.19321668  0.10653768  1
  Ti  Ti91  1  0.45347835  0.13757437  0.30501654  1
  Ti  Ti92  1  0.50059860  0.15170297  0.75204760  1
  Ti  Ti93  1  0.54324699  0.49560358  0.02284323  1
  Ti  Ti94  1  0.53807240  0.50828090  0.31284752  1
  Ti  Ti95  1  0.44306029  0.56443847  0.69902480  1
  Ti  Ti96  1  0.54131578  0.80236128  -0.06523655  1
  Ti  Ti97  1  0.51989304  0.85929860  0.34958604  1
  Ti  Ti98  1  0.44724195  0.88287278  0.65331016  1
  Ti  Ti99  1  0.81837234  0.11428000  -0.00282820  1
  Ti  Ti100  1  0.83454316  0.13613489  0.47806550  1
  Ti  Ti101  1  0.91171836  0.22452966  0.64120963  1
  Ti  Ti102  1  0.86656495  0.55387093  -0.03410442  1
  Ti  Ti103  1  0.81490695  0.44416812  0.35752853  1
  Ti  Ti104  1  0.86592888  0.51410732  0.64880969  1
  Ti  Ti105  1  0.83971846  0.75373767  -0.01995556  1
  Ti  Ti106  1  0.76536981  0.81344052  0.28200250  1
  Ti  Ti107  1  0.85561161  0.81236349  0.69473885  1
  Co  Co108  1  0.74094881  0.26409941  0.62764687  1
  Co  Co109  1  0.36394265  0.53374657  0.94332036  1
  Co  Co110  1  0.45670831  0.83541426  0.19866086  1
  Co  Co111  1  0.67551188  0.54002688  0.39356875  1
  Co  Co112  1  0.64957685  0.22147627  0.75647093  1
  Co  Co113  1  0.77800627  0.10780237  0.65667233  1
  Co  Co114  1  0.09481034  0.60597728  0.35111258  1
  Co  Co115  1  0.55628659  0.07068781  1.01595544  1
  Co  Co116  1  0.69833718  0.06854711  0.13170927  1
  Co  Co117  1  0.00016501  0.28673277  0.52066707  1
  Co  Co118  1  0.43863722  0.95079023  1.01216305  1
  Co  Co119  1  0.75622652  0.69242461  0.84132421  1
  Co  Co120  1  0.65600874  0.91063861  0.22054506  1
  Co  Co121  1  0.60462958  0.54429825  0.69261599  1
  Co  Co122  1  0.03151000  0.63669894  0.89359546  1
  Co  Co123  1  1.04889147  0.79173656  0.93374834  1
  Co  Co124  1  0.31879389  0.90491075  0.13219450  1
  Co  Co125  1  0.94781124  0.85795829  0.03824984  1
  Co  Co126  1  0.78299234  0.61982253  0.30876570  1
  Co  Co127  1  0.96857017  0.30507509  0.76910744  1
  Co  Co128  1  0.35819313  0.23434855  0.21767399  1
  Co  Co129  1  0.68202449  0.79753905  0.68627837  1
  Co  Co130  1  0.41545150  0.92522738  0.48338215  1
  Co  Co131  1  0.98664600  0.40146992  0.63111558  1
  Co  Co132  1  0.02898791  0.77004867  0.77364377  1
  Co  Co133  1  0.26171433  0.59972822  0.07534775  1
  Co  Co134  1  0.46569156  0.67520554  0.24170247  1
  Co  Co135  1  0.42643815  0.73200920  0.76733130  1
  Co  Co136  1  0.28446728  0.80662189  0.73282872  1
  Co  Co137  1  0.60008868  0.69463945  0.79746225  1
  Co  Co138  1  0.88927189  0.25422973  0.39623706  1
  Co  Co139  1  0.36448888  0.24037859  0.04844336  1
  Co  Co140  1  0.02189076  0.68166654  0.47074438  1
  Co  Co141  1  0.81121496  0.51504204  0.80332191  1
  Co  Co142  1  0.16362610  0.93215156  0.42500217  1
  Co  Co143  1  0.61626489  0.10898225  0.64236332  1
  Co  Co144  1  0.83877379  0.17373684  0.15823396  1
  Co  Co145  1  0.39870569  0.09973930  -0.02213817  1
  Co  Co146  1  0.31229227  0.61302148  0.79832020  1
  Co  Co147  1  0.56449655  0.88542342  0.07354323  1
  Co  Co148  1  0.06217289  0.37798934  0.88413070  1
  Co  Co149  1  0.93690885  0.56055441  0.38034894  1
  Co  Co150  1  0.88169568  0.67169493  0.58861918  1
  Co  Co151  1  0.23452559  0.44411831  1.00423752  1
  Co  Co152  1  0.36507685  0.47746720  0.10011558  1
  Co  Co153  1  0.82414844  0.28586226  0.00633974  1
  Co  Co154  1  0.41294917  0.79423949  0.03755432  1
  Co  Co155  1  0.13571625  0.08106134  0.35988617  1
  Co  Co156  1  0.23588995  -0.05626297  0.27173394  1
  Co  Co157  1  0.53600628  0.71150822  0.64803618  1
  Co  Co158  1  0.07750856  0.95878927  0.28379733  1
  Co  Co159  1  0.12438132  0.74401110  0.19811480  1
  Co  Co160  1  0.96224577  0.41388258  1.00583301  1
  Co  Co161  1  -0.02993720  0.39521148  0.40747838  1
  Ni  Ni162  1  0.82499524  0.36962869  0.71065180  1
  Ni  Ni163  1  0.84307001  0.89067668  0.41368246  1
  Ni  Ni164  1  0.23530238  0.68294386  0.32198125  1
  Ni  Ni165  1  0.72894551  0.82761320  0.08316050  1
  Ni  Ni166  1  0.69723133  0.74302990  0.43197307  1
  Ni  Ni167  1  0.15294048  0.06163140  0.91493409  1
  Ni  Ni168  1  0.43332884  0.59665616  0.53059753  1
  Ni  Ni169  1  0.51210298  0.45525231  0.59004149  1
  Ni  Ni170  1  0.11392967  0.07745331  0.75576154  1
  Ni  Ni171  1  0.92977267  0.05794261  0.86655684  1
  Ni  Ni172  1  0.38974920  0.01477226  0.73236794  1
  Ni  Ni173  1  0.50581163  0.22721175  0.60161078  1
  Ni  Ni174  1  0.70413540  0.03264364  0.51258462  1
  Ni  Ni175  1  0.19525524  0.21762007  0.76977283  1
  Ni  Ni176  1  0.43454188  0.18264322  0.45945368  1
  Ni  Ni177  1  0.96778656  0.54591746  0.11272037  1
  Ni  Ni178  1  0.78184332  0.81289024  0.54891557  1
  Ni  Ni179  1  0.25015683  0.09599771  0.66822420  1
  Ni  Ni180  1  0.40202924  0.46568279  0.38589052  1
  Ni  Ni181  1  0.67352523  0.90690853  0.40378485  1
  Ni  Ni182  1  0.23084082  0.43321460  0.23760528  1
  Ni  Ni183  1  0.57754483  0.22632114  0.37123677  1
  Ni  Ni184  1  0.59647184  0.32148192  0.23417394  1
  Ni  Ni185  1  0.14354836  0.80278870  0.51695537  1
  Ni  Ni186  1  0.20584043  0.83360560  0.88708056  1
  Ni  Ni187  1  0.39830907  0.96528491  0.28517961  1
  Ni  Ni188  1  0.24568056  0.51753701  0.38523254  1
  Ni  Ni189  1  0.45594046  0.76626420  0.49756615  1
  Ni  Ni190  1  0.02931603  0.96198013  0.56546058  1
  Ni  Ni191  1  0.18395449  0.49772476  0.84011877  1
  Ni  Ni192  1  0.94324268  0.46596912  0.25096666  1
  Ni  Ni193  1  0.80728349  0.55030962  0.49478325  1
  Ni  Ni194  1  0.71261369  0.53140166  0.05054664  1
  Ni  Ni195  1  0.07714039  0.93572737  0.83848103  1
  Ni  Ni196  1  0.59351022  0.58739261  0.15777134  1
  Ni  Ni197  1  0.38895057  0.26697005  0.84430913  1
  Ni  Ni198  1  0.47953921  0.34110407  0.72414100  1
  Ni  Ni199  1  0.07175085  0.13257946  0.05127601  1
  Ni  Ni200  1  0.51036867  0.45675859  0.84133650  1
  Ni  Ni201  1  0.81647754  0.98483596  0.76453346  1
  Ni  Ni202  1  0.65203290  0.37534083  0.38747715  1
  Ni  Ni203  1  0.83274609  0.95030686  0.96065063  1
  Ni  Ni204  1  0.25223712  0.36983252  0.63564520  1
  Ni  Ni205  1  0.61020524  0.15587527  0.23398007  1
  Ni  Ni206  1  0.23219599  0.19771420  0.44619112  1
  Ni  Ni207  1  0.86897484  0.78016976  0.15641365  1
  Ni  Ni208  1  0.09485774  0.24204779  0.17901793  1
  Ni  Ni209  1  0.70408807  0.22157144  0.91623550  1
  Ni  Ni210  1  0.18323855  0.71411023  0.64391804  1
  Ni  Ni211  1  0.85808839  0.10129217  0.30646659  1
  Ni  Ni212  1  0.55376477  0.85511894  0.77139577  1
  Ni  Ni213  1  0.99297917  0.11748202  0.53254015  1
  Ni  Ni214  1  0.56490427  0.34198137  0.06855005  1
  Ni  Ni215  1  0.11119904  0.30711717  0.02091452  1
