# generated using pymatgen
data_Ti2CoNi
_symmetry_space_group_name_H-M   'P 1'
_cell_length_a   14.70075217
_cell_length_b   14.58786238
_cell_length_c   14.64813352
_cell_angle_alpha   89.97209847
_cell_angle_beta   89.82695635
_cell_angle_gamma   89.69852136
_symmetry_Int_Tables_number   1
_chemical_formula_structural   Ti2CoNi
_chemical_formula_sum   'Ti108 Co54 Ni54'
_cell_volume   3141.27141717
_cell_formula_units_Z   54
loop_
 _symmetry_equiv_pos_site_id
 _symmetry_equiv_pos_as_xyz
  1  'x, y, z'
loop_
 _atom_site_type_symbol
 _atom_site_label
 _atom_site_symmetry_multiplicity
 _atom_site_fract_x
 _atom_site_fract_y
 _atom_site_fract_z
 _atom_site_occupancy
  Ti  Ti0  1  -0.00942917  0.05277842  0.01814209  1
  Ti  Ti1  1  -0.03166013  -0.07824042  0.34077381  1
  Ti  Ti2  1  -0.02120028  -0.02397255  0.66364448  1
  Ti  Ti3  1  0.00991146  0.30861097  0.04876288  1
  Ti  Ti4  1  0.07242611  0.35484436  0.34910390  1
  Ti  Ti5  1  -0.04106274  0.32706244  0.64393797  1
  Ti  Ti6  1  0.05488679  0.73849446  -0.01164815  1
  Ti  Ti7  1  -0.00754434  0.72030001  0.38516646  1
  Ti  Ti8  1  -0.10769802  0.66559083  0.66066548  1
  Ti  Ti9  1  0.31802774  -0.01025701  0.05150433  1
  Ti  Ti10  1  0.33299983  0.08913161  0.33244064  1
  Ti  Ti11  1  0.39132146  0.01793032  0.61285083  1
  Ti  Ti12  1  0.35225250  0.30165886  -0.05824782  1
  Ti  Ti13  1  0.28222626  0.38167883  0.36428872  1
  Ti  Ti14  1  0.41522196  0.35485019  0.64728792  1
  Ti  Ti15  1  0.38737610  0.71619236  0.01204937  1
  Ti  Ti16  1  0.38435071  0.65503389  0.27094965  1
  Ti  Ti17  1  0.29110583  0.55805506  0.66789798  1
  Ti  Ti18  1  0.66235882  -0.02643313  0.07604850  1
  Ti  Ti19  1  0.71322448  -0.03691771  0.27198689  1
  Ti  Ti20  1  0.67267571  -0.00690475  0.65380707  1
  Ti  Ti21  1  0.65047477  0.30222762  0.02148701  1
  Ti  Ti22  1  0.60676001  0.38409985  0.37270101  1
  Ti  Ti23  1  0.64483892  0.36824013  0.69229934  1
  Ti  Ti24  1  0.59075269  0.62197246  -0.01107953  1
  Ti  Ti25  1  0.67438479  0.59564892  0.36692576  1
  Ti  Ti26  1  0.62246811  0.66593114  0.79676899  1
  Ti  Ti27  1  -0.12340365  0.20406455  0.14694572  1
  Ti  Ti28  1  0.02541564  0.20389120  0.48496267  1
  Ti  Ti29  1  0.08693441  0.17263833  0.84259454  1
  Ti  Ti30  1  0.02590277  0.46605580  0.18669608  1
  Ti  Ti31  1  -0.03274196  0.43031471  0.48730861  1
  Ti  Ti32  1  -0.02037363  0.50756908  0.74630002  1
  Ti  Ti33  1  -0.02513844  0.76839011  0.16830085  1
  Ti  Ti34  1  0.01808890  0.79579325  0.57886543  1
  Ti  Ti35  1  -0.00462485  0.77346187  0.79551406  1
  Ti  Ti36  1  0.32476301  0.18083071  0.11144467  1
  Ti  Ti37  1  0.31804030  0.22835641  0.49540139  1
  Ti  Ti38  1  0.28016867  0.13036534  0.89417043  1
  Ti  Ti39  1  0.35680377  0.48965721  0.20331086  1
  Ti  Ti40  1  0.29381900  0.56718994  0.45106238  1
  Ti  Ti41  1  0.31706860  0.55308672  0.86243627  1
  Ti  Ti42  1  0.43980782  0.81691387  0.16306615  1
  Ti  Ti43  1  0.27177258  0.86556617  0.51325832  1
  Ti  Ti44  1  0.36692026  0.88229786  0.80967321  1
  Ti  Ti45  1  0.61937644  0.18902255  0.23460372  1
  Ti  Ti46  1  0.63084670  0.06395378  0.44819638  1
  Ti  Ti47  1  0.71368723  0.08130945  0.81701835  1
  Ti  Ti48  1  0.56572093  0.46892547  0.13743374  1
  Ti  Ti49  1  0.72420032  0.45838460  0.52596517  1
  Ti  Ti50  1  0.74353075  0.40137700  0.88665245  1
  Ti  Ti51  1  0.73164306  0.80380084  0.13427787  1
  Ti  Ti52  1  0.64674065  0.86659464  0.48730102  1
  Ti  Ti53  1  0.65581908  0.83063682  0.92556323  1
  Ti  Ti54  1  0.16085875  -0.01335665  0.14339690  1
  Ti  Ti55  1  0.11037717  -0.00060542  0.46810303  1
  Ti  Ti56  1  0.15092993  -0.02702988  0.79617676  1
  Ti  Ti57  1  0.17493234  0.29161311  0.18753998  1
  Ti  Ti58  1  0.15591662  0.32324882  0.53509705  1
  Ti  Ti59  1  0.22846267  0.37280433  0.72985609  1
  Ti  Ti60  1  0.22723181  0.69434760  0.16137637  1
  Ti  Ti61  1  0.15078960  0.66836511  0.51532986  1
  Ti  Ti62  1  0.17501836  0.69281556  0.82489993  1
  Ti  Ti63  1  0.50526651  0.03025972  0.17924299  1
  Ti  Ti64  1  0.44126256  -0.05748017  0.44671208  1
  Ti  Ti65  1  0.51831906  0.01087773  0.77340234  1
  Ti  Ti66  1  0.48067568  0.28619071  0.12712706  1
  Ti  Ti67  1  0.53218320  0.24262978  0.51947318  1
  Ti  Ti68  1  0.52720650  0.36935235  0.85768034  1
  Ti  Ti69  1  0.59978878  0.68255941  0.18974895  1
  Ti  Ti70  1  0.49013819  0.74703584  0.54088260  1
  Ti  Ti71  1  0.42300993  0.69434134  0.72835277  1
  Ti  Ti72  1  0.86094760  -0.03229596  0.13107906  1
  Ti  Ti73  1  0.81733942  0.09050812  0.53355100  1
  Ti  Ti74  1  0.91671186  0.05643742  0.84402096  1
  Ti  Ti75  1  0.73995068  0.39373877  0.17285987  1
  Ti  Ti76  1  0.83538068  0.28170168  0.48025414  1
  Ti  Ti77  1  0.93448269  0.33593099  0.85960942  1
  Ti  Ti78  1  0.84266045  0.61449526  0.12191794  1
  Ti  Ti79  1  0.84416951  0.61206605  0.46704406  1
  Ti  Ti80  1  0.78960015  0.74062742  0.82580084  1
  Ti  Ti81  1  0.15202505  0.16033062  0.03569862  1
  Ti  Ti82  1  0.06186840  0.11988763  0.30628287  1
  Ti  Ti83  1  0.22220856  0.12322717  0.65532467  1
  Ti  Ti84  1  0.16143102  0.56800700  -0.01962626  1
  Ti  Ti85  1  0.14546653  0.58226038  0.30699543  1
  Ti  Ti86  1  0.11641215  0.49396520  0.61834242  1
  Ti  Ti87  1  0.21441702  0.84582192  -0.03668351  1
  Ti  Ti88  1  0.14978600  0.84446776  0.28226904  1
  Ti  Ti89  1  0.20244059  0.79840741  0.67840825  1
  Ti  Ti90  1  0.52856442  0.14800800  -0.08764684  1
  Ti  Ti91  1  0.46577462  0.23608817  0.34578879  1
  Ti  Ti92  1  0.57730130  0.19156596  0.70644524  1
  Ti  Ti93  1  0.42829526  0.47576030  0.00634773  1
  Ti  Ti94  1  0.47370445  0.53140023  0.42321667  1
  Ti  Ti95  1  0.51556245  0.51939689  0.68423643  1
  Ti  Ti96  1  0.49005468  0.90707742  -0.01326566  1
  Ti  Ti97  1  0.52117398  0.77001996  0.34910986  1
  Ti  Ti98  1  0.57068517  0.83353751  0.73575915  1
  Ti  Ti99  1  0.76245963  0.13221264  -0.00452182  1
  Ti  Ti100  1  0.79717848  0.13154881  0.34378598  1
  Ti  Ti101  1  0.78494617  0.22066817  0.68564102  1
  Ti  Ti102  1  0.91528101  0.49827654  -0.02028449  1
  Ti  Ti103  1  0.86399214  0.49601440  0.30558107  1
  Ti  Ti104  1  0.76097350  0.53159508  0.73063247  1
  Ti  Ti105  1  0.87155372  0.83032749  -0.01327360  1
  Ti  Ti106  1  0.81142944  0.80790163  0.40034815  1
  Ti  Ti107  1  0.83830330  0.86126270  0.67803322  1
  Co  Co108  1  0.90653320  0.07110830  0.24719811  1
  Co  Co109  1  0.74155330  0.62252360  0.59551924  1
  Co  Co110  1  0.06721939  0.09188896  0.70224237  1
  Co  Co111  1  0.03487496  0.61659595  0.87605475  1
  Co  Co112  1  0.36576841  0.08239257  0.76321997  1
  Co  Co113  1  0.01993109  0.27310294  0.21552413  1
  Co  Co114  1  0.73918071  0.48716834  0.04442813  1
  Co  Co115  1  0.33812440  0.35624919  0.11962585  1
  Co  Co116  1  0.12896839  0.81874683  0.12275040  1
  Co  Co117  1  0.66902172  0.71129969  0.48176827  1
  Co  Co118  1  1.01247868  0.59223024  0.07189971  1
  Co  Co119  1  0.13674627  0.94638110  0.61456461  1
  Co  Co120  1  0.77675137  0.93355763  0.54921565  1
  Co  Co121  1  0.10864373  0.30649820  0.91566109  1
  Co  Co122  1  0.46200716  0.61523457  0.12435778  1
  Co  Co123  1  1.05081911  0.45542733  0.90282471  1
  Co  Co124  1  0.90440833  0.67194350  0.97188177  1
  Co  Co125  1  0.89565763  0.36768663  0.19948948  1
  Co  Co126  1  0.43177733  0.59443170  0.56922819  1
  Co  Co127  1  0.27314666  0.95260734  0.69260332  1
  Co  Co128  1  0.93695105  0.19546689  0.76563998  1
  Co  Co129  1  0.01654121  0.95937175  0.19512060  1
  Co  Co130  1  0.15307670  0.52947820  0.78751319  1
  Co  Co131  1  0.28930881  0.23389049  0.76222999  1
  Co  Co132  1  0.27374175  0.04539239  0.49707242  1
  Co  Co133  1  0.82658790  0.37567965  0.73433333  1
  Co  Co134  1  0.80936569  -0.02237032  0.39952643  1
  Co  Co135  1  0.56076294  0.41146597  0.54975533  1
  Co  Co136  1  0.10175850  0.24207943  0.66452767  1
  Co  Co137  1  0.71775821  0.91288342  0.79554852  1
  Co  Co138  1  0.65732720  0.22259231  0.39548541  1
  Co  Co139  1  0.04203357  0.13045613  0.14861038  1
  Co  Co140  1  0.59680237  0.45862299  0.97447548  1
  Co  Co141  1  0.57786389  0.92591644  0.34429513  1
  Co  Co142  1  0.22395715  0.42076928  0.90251484  1
  Co  Co143  1  0.59654977  0.56763629  0.51895710  1
  Co  Co144  1  0.28722729  0.84005283  0.11467280  1
  Co  Co145  1  0.21573183  0.30835761  0.02690613  1
  Co  Co146  1  0.51747799  0.08080196  0.33414187  1
  Co  Co147  1  0.70506968  0.77986334  0.66358378  1
  Co  Co148  1  0.11280067  0.43304478  0.05259193  1
  Co  Co149  1  -0.05562807  0.07526295  0.41895499  1
  Co  Co150  1  0.58552402  0.66970212  0.64022138  1
  Co  Co151  1  0.67808595  0.78128974  0.31029245  1
  Co  Co152  1  0.50136990  0.76086841  0.88405880  1
  Co  Co153  1  0.58669080  0.86928927  0.19069802  1
  Co  Co154  1  0.56355046  0.77184520  0.05072246  1
  Co  Co155  1  0.33174377  0.26086838  0.26334412  1
  Co  Co156  1  0.94197649  0.16078017  0.60960050  1
  Co  Co157  1  0.42997992  0.11284603  0.47401962  1
  Co  Co158  1  0.61943127  0.00025149  0.91986181  1
  Co  Co159  1  0.82973777  0.76412983  0.54541696  1
  Co  Co160  1  0.83228976  0.04640904  0.69690807  1
  Co  Co161  1  0.76859506  0.39144649  0.37515452  1
  Ni  Ni162  1  0.84702363  0.83355594  0.24345583  1
  Ni  Ni163  1  0.19623877  0.44890448  0.22533475  1
  Ni  Ni164  1  0.68537305  0.28727410  0.55115114  1
  Ni  Ni165  1  0.37305326  0.40512511  0.80804162  1
  Ni  Ni166  1  0.41035464  0.18643516  0.64043748  1
  Ni  Ni167  1  0.53179099  0.55234595  0.27240866  1
  Ni  Ni168  1  0.60246330  0.14087316  0.06979570  1
  Ni  Ni169  1  -0.00085575  0.60098067  0.54457988  1
  Ni  Ni170  1  0.78285772  0.97058176  0.95006623  1
  Ni  Ni171  1  0.19283167  0.22679332  0.37452096  1
  Ni  Ni172  1  0.74386136  0.10298213  0.16682702  1
  Ni  Ni173  1  0.03436394  0.90514794  0.89014395  1
  Ni  Ni174  1  0.80054421  0.23371129  0.85938188  1
  Ni  Ni175  1  0.32939312  0.73049213  0.86219896  1
  Ni  Ni176  1  0.30923178  0.70361698  0.58145797  1
  Ni  Ni177  1  0.62055517  0.49991934  0.81724395  1
  Ni  Ni178  1  0.88249030  0.60819660  0.82684758  1
  Ni  Ni179  1  0.92357933  0.19395120  0.95744018  1
  Ni  Ni180  1  0.25594695  0.94664774  0.36599796  1
  Ni  Ni181  1  0.14584865  0.48075066  0.45200012  1
  Ni  Ni182  1  0.22107405  0.71317339  0.36591159  1
  Ni  Ni183  1  0.30844568  0.57774957  0.06087764  1
  Ni  Ni184  1  0.38857296  0.84113583  0.64295107  1
  Ni  Ni185  1  1.01209784  0.89450975  0.04746740  1
  Ni  Ni186  1  0.07219837  0.36814582  0.76376077  1
  Ni  Ni187  1  0.45677054  0.39316961  0.28921566  1
  Ni  Ni188  1  0.28444331  0.42577524  0.55418897  1
  Ni  Ni189  1  0.08456473  0.65710830  0.68097838  1
  Ni  Ni190  1  0.74296335  0.70088586  0.00584599  1
  Ni  Ni191  1  0.11723773  0.82877283  0.44605226  1
  Ni  Ni192  1  0.91935145  0.25491408  0.33871068  1
  Ni  Ni193  1  0.54421036  0.08155008  0.58986560  1
  Ni  Ni194  1  0.81641833  0.66896939  0.28549139  1
  Ni  Ni195  1  0.74353667  0.57476776  0.90309543  1
  Ni  Ni196  1  0.88110772  0.89824006  0.83152906  1
  Ni  Ni197  1  0.64502431  0.25184383  0.84605583  1
  Ni  Ni198  1  1.00610869  0.54951503  0.38432284  1
  Ni  Ni199  1  -0.02055793  0.62064912  0.23895251  1
  Ni  Ni200  1  0.48176681  0.58407741  0.86172084  1
  Ni  Ni201  1  0.70960670  0.55450543  0.20698211  1
  Ni  Ni202  1  0.44259448  0.23815086  0.79749651  1
  Ni  Ni203  1  0.93280897  0.91734099  0.50427290  1
  Ni  Ni204  1  0.15620917  0.00862465  0.96103805  1
  Ni  Ni205  1  0.76220296  0.26936459  0.27002923  1
  Ni  Ni206  1  0.37370650  0.72037395  0.42815785  1
  Ni  Ni207  1  0.87171422  0.49601517  0.60562100  1
  Ni  Ni208  1  0.42333985  0.36972002  0.46244503  1
  Ni  Ni209  1  0.44527327  0.10048986  0.03955556  1
  Ni  Ni210  1  0.32034235  0.81252513  0.28684860  1
  Ni  Ni211  1  0.40012477  1.01564758  0.90373006  1
  Ni  Ni212  1  0.42478008  0.93683233  0.28618646  1
  Ni  Ni213  1  0.82902918  0.33077280  0.02025218  1
  Ni  Ni214  1  0.52822433  0.91673585  0.59881707  1
  Ni  Ni215  1  0.21297042  0.12787521  0.22310853  1
