# generated using pymatgen
data_Ti2CoNi
_symmetry_space_group_name_H-M   'P 1'
_cell_length_a   14.61465033
_cell_length_b   14.61582141
_cell_length_c   14.63096826
_cell_angle_alpha   90.02406268
_cell_angle_beta   89.90603412
_cell_angle_gamma   89.78699639
_symmetry_Int_Tables_number   1
_chemical_formula_structural   Ti2CoNi
_chemical_formula_sum   'Ti108 Co54 Ni54'
_cell_volume   3125.22363455
_cell_formula_units_Z   54
loop_
 _symmetry_equiv_pos_site_id
 _symmetry_equiv_pos_as_xyz
  1  'x, y, z'
loop_
 _atom_site_type_symbol
 _atom_site_label
 _atom_site_symmetry_multiplicity
 _atom_site_fract_x
 _atom_site_fract_y
 _atom_site_fract_z
 _atom_site_occupancy
  Ti  Ti0  1  -0.07445691  -0.00514224  -0.03446969  1
  Ti  Ti1  1  0.00103641  0.03706772  0.27321970  1
  Ti  Ti2  1  0.00380624  -0.02810580  0.72455173  1
  Ti  Ti3  1  -0.01886229  0.38228893  0.00523799  1
  Ti  Ti4  1  0.02936580  0.25802591  0.33535185  1
  Ti  Ti5  1  0.04718889  0.28561450  0.66593354  1
  Ti  Ti6  1  -0.02557654  0.67304612  0.03441085  1
  Ti  Ti7  1  -0.01044472  0.66676803  0.23901006  1
  Ti  Ti8  1  -0.02763081  0.72317892  0.68885995  1
  Ti  Ti9  1  0.27893234  -0.01136950  -0.01437771  1
  Ti  Ti10  1  0.37226232  -0.02406188  0.42896692  1
  Ti  Ti11  1  0.33293194  -0.06594178  0.61903064  1
  Ti  Ti12  1  0.33251076  0.26377288  0.00475638  1
  Ti  Ti13  1  0.29865880  0.28150470  0.30286955  1
  Ti  Ti14  1  0.31604191  0.34770660  0.70135976  1
  Ti  Ti15  1  0.38193476  0.69628439  0.01495490  1
  Ti  Ti16  1  0.29939261  0.67501522  0.32637660  1
  Ti  Ti17  1  0.39614288  0.67313372  0.66230535  1
  Ti  Ti18  1  0.70325730  0.04223988  0.02831640  1
  Ti  Ti19  1  0.67944598  -0.07266097  0.36432790  1
  Ti  Ti20  1  0.73357495  0.07904440  0.67677192  1
  Ti  Ti21  1  0.62221465  0.36595843  0.02486707  1
  Ti  Ti22  1  0.68579194  0.39789058  0.31764701  1
  Ti  Ti23  1  0.59863323  0.33858623  0.59504334  1
  Ti  Ti24  1  0.64675974  0.75184561  0.04370734  1
  Ti  Ti25  1  0.64418674  0.60383036  0.30889108  1
  Ti  Ti26  1  0.70454882  0.73863515  0.66429078  1
  Ti  Ti27  1  -0.00295486  0.12271931  0.09132896  1
  Ti  Ti28  1  0.08019120  0.16239564  0.52230342  1
  Ti  Ti29  1  0.04199919  0.14648411  0.82265114  1
  Ti  Ti30  1  -0.01646042  0.45554800  0.22391823  1
  Ti  Ti31  1  -0.04350180  0.44754113  0.42046727  1
  Ti  Ti32  1  0.01433234  0.50824498  0.84187874  1
  Ti  Ti33  1  0.04432848  0.85361104  0.14890646  1
  Ti  Ti34  1  -0.02277402  0.91096708  0.43685818  1
  Ti  Ti35  1  -0.00925086  0.80044525  0.86261823  1
  Ti  Ti36  1  0.37846491  0.12628366  0.18945299  1
  Ti  Ti37  1  0.30856238  0.17260631  0.50504062  1
  Ti  Ti38  1  0.40458039  0.14552992  0.84538411  1
  Ti  Ti39  1  0.36867205  0.50467505  0.09472762  1
  Ti  Ti40  1  0.35121982  0.49943128  0.50789256  1
  Ti  Ti41  1  0.28144875  0.52359238  0.80282917  1
  Ti  Ti42  1  0.32028996  0.83456985  0.21518892  1
  Ti  Ti43  1  0.27914069  0.77700160  0.52355729  1
  Ti  Ti44  1  0.29268495  0.88581123  0.79331542  1
  Ti  Ti45  1  0.70440684  0.07288443  0.22306982  1
  Ti  Ti46  1  0.68116007  0.17925591  0.49115605  1
  Ti  Ti47  1  0.60764583  0.16477654  0.86386217  1
  Ti  Ti48  1  0.74343777  0.48276943  0.14465254  1
  Ti  Ti49  1  0.65012747  0.48440208  0.48868864  1
  Ti  Ti50  1  0.68294371  0.51748709  0.87547775  1
  Ti  Ti51  1  0.64886045  0.77282985  0.22824417  1
  Ti  Ti52  1  0.64994482  0.85977104  0.54205202  1
  Ti  Ti53  1  0.62039099  0.77996153  0.82990947  1
  Ti  Ti54  1  0.19242758  0.03588222  0.16393434  1
  Ti  Ti55  1  0.18786948  -0.04305192  0.45947132  1
  Ti  Ti56  1  0.11581553  -0.03712091  0.88106446  1
  Ti  Ti57  1  0.12785100  0.33972766  0.14873519  1
  Ti  Ti58  1  0.09342772  0.38142121  0.50507017  1
  Ti  Ti59  1  0.14831219  0.34066005  0.86379166  1
  Ti  Ti60  1  0.24621741  0.63369283  0.14813265  1
  Ti  Ti61  1  0.12363809  0.65516735  0.57288145  1
  Ti  Ti62  1  0.13245289  0.63989889  0.77089864  1
  Ti  Ti63  1  0.51798469  0.00793657  0.14382518  1
  Ti  Ti64  1  0.50832536  0.12027273  0.47122535  1
  Ti  Ti65  1  0.54333645  -0.00060089  0.78121175  1
  Ti  Ti66  1  0.45525400  0.31034779  0.14088381  1
  Ti  Ti67  1  0.43640449  0.32102375  0.46307241  1
  Ti  Ti68  1  0.50756887  0.30591848  0.76696476  1
  Ti  Ti69  1  0.48800828  0.66146200  0.16461407  1
  Ti  Ti70  1  0.43458377  0.66625257  0.47583092  1
  Ti  Ti71  1  0.48789807  0.64652044  0.83326165  1
  Ti  Ti72  1  0.87137138  -0.02762515  0.15767518  1
  Ti  Ti73  1  0.78571110  0.00866089  0.50329070  1
  Ti  Ti74  1  0.74080385  -0.01327617  0.85162507  1
  Ti  Ti75  1  0.76695319  0.26944577  0.16258508  1
  Ti  Ti76  1  0.79153049  0.36991685  0.48492469  1
  Ti  Ti77  1  0.73111416  0.32496454  0.86106696  1
  Ti  Ti78  1  0.84362808  0.78271556  0.15615729  1
  Ti  Ti79  1  0.84951175  0.67695562  0.55257544  1
  Ti  Ti80  1  0.80113439  0.63574208  0.79116343  1
  Ti  Ti81  1  0.17025554  0.15676471  -0.00719340  1
  Ti  Ti82  1  0.19669836  0.11878844  0.33310143  1
  Ti  Ti83  1  0.21280479  0.17140774  0.71832144  1
  Ti  Ti84  1  0.13697744  0.51202534  -0.00890529  1
  Ti  Ti85  1  0.25393119  0.47724192  0.28136879  1
  Ti  Ti86  1  0.09211287  0.47707207  0.67209485  1
  Ti  Ti87  1  0.23179157  0.78224430  -0.03524686  1
  Ti  Ti88  1  0.09582672  0.74356161  0.38677402  1
  Ti  Ti89  1  0.13601544  0.85175579  0.63947856  1
  Ti  Ti90  1  0.54983831  0.17536531  0.04266844  1
  Ti  Ti91  1  0.51393219  0.24501093  0.31584035  1
  Ti  Ti92  1  0.56127223  0.15866742  0.66820593  1
  Ti  Ti93  1  0.55356341  0.55517690  0.01317104  1
  Ti  Ti94  1  0.50306024  0.48777409  0.37190721  1
  Ti  Ti95  1  0.48247311  0.48892932  0.74109360  1
  Ti  Ti96  1  0.46576889  0.89588243  -0.01859272  1
  Ti  Ti97  1  0.50288515  0.87345487  0.28711980  1
  Ti  Ti98  1  0.50342076  0.84378215  0.68752592  1
  Ti  Ti99  1  0.86887028  0.18963283  -0.05223684  1
  Ti  Ti100  1  0.84313088  0.23446338  0.37293241  1
  Ti  Ti101  1  0.90789347  0.16059000  0.65558398  1
  Ti  Ti102  1  0.86376196  0.52493784  -0.02605487  1
  Ti  Ti103  1  0.82199904  0.54581047  0.34395118  1
  Ti  Ti104  1  0.78323762  0.48159130  0.67194783  1
  Ti  Ti105  1  0.80994778  0.76529242  -0.05213378  1
  Ti  Ti106  1  0.83271953  0.76888735  0.35643240  1
  Ti  Ti107  1  0.83392123  0.90144807  0.66529880  1
  Co  Co108  1  0.61857905  0.90397202  0.10118339  1
  Co  Co109  1  0.48403804  0.27018090  0.93252870  1
  Co  Co110  1  0.06552420  0.05246390  0.41213399  1
  Co  Co111  1  0.68478948  0.22619991  0.31002745  1
  Co  Co112  1  0.44694425  0.40444017  0.00686105  1
  Co  Co113  1  0.40959423  0.53547534  0.91342896  1
  Co  Co114  1  0.86009433  0.41148716  0.86106118  1
  Co  Co115  1  -0.00816933  0.56807191  0.55006959  1
  Co  Co116  1  0.83339413  0.52363727  0.51231196  1
  Co  Co117  1  -0.01169546  0.74192915  0.50419292  1
  Co  Co118  1  0.33182170  1.05167834  0.73200832  1
  Co  Co119  1  0.93842945  0.42168402  0.60026379  1
  Co  Co120  1  0.55186046  0.42247132  0.88414469  1
  Co  Co121  1  0.40172558  0.98237213  0.86162193  1
  Co  Co122  1  0.58930079  0.63338774  0.45377867  1
  Co  Co123  1  0.84391742  0.95166689  0.32533770  1
  Co  Co124  1  0.82517605  0.84459755  0.50432232  1
  Co  Co125  1  0.52046707  0.73614526  0.96659243  1
  Co  Co126  1  0.25734934  0.57663344  0.63946063  1
  Co  Co127  1  0.23598574  0.06314053  0.58240472  1
  Co  Co128  1  0.30756666  -0.00860895  0.28653652  1
  Co  Co129  1  0.23161510  0.08762469  0.85903047  1
  Co  Co130  1  0.64897043  0.61609668  0.14161909  1
  Co  Co131  1  0.40916244  0.08312350  0.01524822  1
  Co  Co132  1  0.44329342  0.82478305  0.54284983  1
  Co  Co133  1  0.77133016  0.89401378  0.04068439  1
  Co  Co134  1  0.57072795  0.16155083  0.19733440  1
  Co  Co135  1  0.38007046  0.14020660  0.35950559  1
  Co  Co136  1  0.08408655  1.00025994  0.57483098  1
  Co  Co137  1  0.64173342  0.89017782  0.93589702  1
  Co  Co138  1  0.89661222  0.24064182  0.79753698  1
  Co  Co139  1  0.87408209  0.13575264  0.25010368  1
  Co  Co140  1  0.27810790  0.26053422  0.85251726  1
  Co  Co141  1  0.27508512  0.42506825  0.95607017  1
  Co  Co142  1  0.95220650  0.62207386  0.39823264  1
  Co  Co143  1  0.44469966  0.40510129  0.60691995  1
  Co  Co144  1  0.89419934  0.07257393  0.79834649  1
  Co  Co145  1  0.08009331  0.83142490  0.98817155  1
  Co  Co146  1  0.76360339  0.09040698  0.37074861  1
  Co  Co147  1  0.35625956  0.96470044  0.12645290  1
  Co  Co148  1  0.97689670  0.86539754  0.59589081  1
  Co  Co149  1  0.92554132  0.85004360  0.02894395  1
  Co  Co150  1  0.96841045  0.84573078  0.28542850  1
  Co  Co151  1  0.60713415  0.31666394  0.43398867  1
  Co  Co152  1  0.55603379  0.02867391  0.95053037  1
  Co  Co153  1  0.93376136  0.56418035  0.69976494  1
  Co  Co154  1  0.71459172  0.21862720  0.99841855  1
  Co  Co155  1  0.12202972  0.70103641  0.08754127  1
  Co  Co156  1  0.38646449  0.38436686  0.84887897  1
  Co  Co157  1  0.71171412  0.73098312  0.46312290  1
  Co  Co158  1  0.69513849  0.60379169  0.57746621  1
  Co  Co159  1  0.73033926  0.90660638  0.20986532  1
  Co  Co160  1  0.55789869  0.71379775  0.59351127  1
  Co  Co161  1  0.26515943  0.59918642  -0.03714818  1
  Ni  Ni162  1  0.23867073  0.83338923  0.36558503  1
  Ni  Ni163  1  0.63029472  0.59765732  0.73222957  1
  Ni  Ni164  1  0.64154091  0.41779486  0.74058981  1
  Ni  Ni165  1  0.73403684  0.61306161  1.00509081  1
  Ni  Ni166  1  0.40124631  0.55925754  0.25944050  1
  Ni  Ni167  1  0.61092306  0.33110751  0.19022391  1
  Ni  Ni168  1  0.23095545  0.42859701  0.58552280  1
  Ni  Ni169  1  0.94573714  0.27746153  0.14180352  1
  Ni  Ni170  1  0.24815482  0.61964126  0.46940832  1
  Ni  Ni171  1  0.92937954  0.02421391  0.57070666  1
  Ni  Ni172  1  0.54760821  0.48860061  0.18766738  1
  Ni  Ni173  1  0.68966800  0.25622481  0.71461628  1
  Ni  Ni174  1  0.51164652  0.04140897  0.31456163  1
  Ni  Ni175  1  0.39491122  0.80763050  0.38921058  1
  Ni  Ni176  1  0.78194584  0.80674928  0.79349403  1
  Ni  Ni177  1  -0.00059379  0.35462465  0.80057816  1
  Ni  Ni178  1  0.41093147  0.39613376  0.27115439  1
  Ni  Ni179  1  0.78542568  0.65240205  0.22594732  1
  Ni  Ni180  1  0.88871959  0.91597564  0.83276630  1
  Ni  Ni181  1  0.09200439  0.18476925  0.20477739  1
  Ni  Ni182  1  0.11273678  0.40601415  0.33021741  1
  Ni  Ni183  1  0.94544955  0.64703810  0.86492295  1
  Ni  Ni184  1  0.82628837  0.12758085  0.09803165  1
  Ni  Ni185  1  0.14751771  0.80142849  0.81164201  1
  Ni  Ni186  1  0.53054081  0.93948499  0.45334905  1
  Ni  Ni187  1  0.16315677  0.75789367  0.23476852  1
  Ni  Ni188  1  0.89252814  0.56425746  0.13922756  1
  Ni  Ni189  1  0.17063917  0.00553153  0.72336597  1
  Ni  Ni190  1  0.49414343  0.69245614  0.32084533  1
  Ni  Ni191  1  0.78832101  0.24905672  0.58984679  1
  Ni  Ni192  1  0.30937854  0.69475721  0.83719201  1
  Ni  Ni193  1  0.81570385  0.35621627  0.02385792  1
  Ni  Ni194  1  0.20135150  0.27133326  0.58554029  1
  Ni  Ni195  1  0.43446068  0.80746239  0.84023776  1
  Ni  Ni196  1  0.51850772  0.55405126  0.58756122  1
  Ni  Ni197  1  0.76107081  0.15592591  0.82361223  1
  Ni  Ni198  1  0.66758941  0.91111555  0.70891853  1
  Ni  Ni199  1  0.94480936  0.27890573  0.51108892  1
  Ni  Ni200  1  0.13575877  0.92992735  0.28899885  1
  Ni  Ni201  1  0.18157856  0.27034073  0.41791571  1
  Ni  Ni202  1  0.08885031  -0.01188219  0.04222995  1
  Ni  Ni203  1  0.43232080  0.06815218  0.60775141  1
  Ni  Ni204  1  0.11623319  0.51907427  0.15092683  1
  Ni  Ni205  1  0.24280186  0.20936375  0.14917609  1
  Ni  Ni206  1  0.85390340  0.37725320  0.28278703  1
  Ni  Ni207  1  0.12747342  0.59155651  0.30013123  1
  Ni  Ni208  1  0.10785421  0.67066945  0.92755373  1
  Ni  Ni209  1  0.29061832  0.36918827  0.14446703  1
  Ni  Ni210  1  0.42461275  0.24041703  0.61528251  1
  Ni  Ni211  1  0.20347637  0.86857536  0.10513486  1
  Ni  Ni212  1  0.60660981  0.02038401  0.58118584  1
  Ni  Ni213  1  0.47098848  0.82033602  0.12804149  1
  Ni  Ni214  1  0.24616861  0.73784408  0.69000953  1
  Ni  Ni215  1  0.03082190  0.23714027  0.96220177  1
