# generated using pymatgen
data_Ti2CoNi
_symmetry_space_group_name_H-M   'P 1'
_cell_length_a   14.63702099
_cell_length_b   14.58778282
_cell_length_c   14.56192991
_cell_angle_alpha   89.70719107
_cell_angle_beta   90.06200312
_cell_angle_gamma   89.99173670
_symmetry_Int_Tables_number   1
_chemical_formula_structural   Ti2CoNi
_chemical_formula_sum   'Ti108 Co54 Ni54'
_cell_volume   3109.24532912
_cell_formula_units_Z   54
loop_
 _symmetry_equiv_pos_site_id
 _symmetry_equiv_pos_as_xyz
  1  'x, y, z'
loop_
 _atom_site_type_symbol
 _atom_site_label
 _atom_site_symmetry_multiplicity
 _atom_site_fract_x
 _atom_site_fract_y
 _atom_site_fract_z
 _atom_site_occupancy
  Ti  Ti0  1  -0.03267889  0.00828536  -0.06924139  1
  Ti  Ti1  1  0.11662666  -0.02635874  0.39116927  1
  Ti  Ti2  1  0.05218319  -0.00141219  0.60313538  1
  Ti  Ti3  1  0.01945927  0.26777041  0.00384292  1
  Ti  Ti4  1  0.00081821  0.38685734  0.36559893  1
  Ti  Ti5  1  0.01116947  0.29229437  0.61258500  1
  Ti  Ti6  1  0.03900654  0.70378100  0.03664566  1
  Ti  Ti7  1  -0.04360434  0.74969772  0.37355893  1
  Ti  Ti8  1  -0.00145288  0.67628527  0.74497701  1
  Ti  Ti9  1  0.37800829  -0.01676037  -0.03920354  1
  Ti  Ti10  1  0.31947145  0.00415456  0.27939036  1
  Ti  Ti11  1  0.33159796  -0.00878759  0.66909565  1
  Ti  Ti12  1  0.35104486  0.33146464  0.06683435  1
  Ti  Ti13  1  0.29216074  0.30271124  0.29666370  1
  Ti  Ti14  1  0.36498681  0.28506165  0.59473385  1
  Ti  Ti15  1  0.36264839  0.62151618  0.05925532  1
  Ti  Ti16  1  0.38847777  0.64283180  0.36807995  1
  Ti  Ti17  1  0.32557808  0.66781355  0.73822595  1
  Ti  Ti18  1  0.66934541  0.05815843  0.00353285  1
  Ti  Ti19  1  0.68845049  -0.08564823  0.27378053  1
  Ti  Ti20  1  0.68104526  -0.02823885  0.63173763  1
  Ti  Ti21  1  0.64745026  0.27670871  -0.04927915  1
  Ti  Ti22  1  0.64343964  0.34837816  0.30591750  1
  Ti  Ti23  1  0.63079421  0.36518944  0.67513090  1
  Ti  Ti24  1  0.65034487  0.61438339  0.00383000  1
  Ti  Ti25  1  0.68571656  0.69403604  0.36009404  1
  Ti  Ti26  1  0.61817462  0.70221519  0.65976051  1
  Ti  Ti27  1  -0.05536916  0.17587706  0.15766069  1
  Ti  Ti28  1  -0.07176679  0.20140456  0.48324306  1
  Ti  Ti29  1  -0.01117189  0.27295159  0.81395467  1
  Ti  Ti30  1  0.07416515  0.49602993  0.16562250  1
  Ti  Ti31  1  -0.06678547  0.57030760  0.47706401  1
  Ti  Ti32  1  0.03504001  0.47596089  0.82524807  1
  Ti  Ti33  1  -0.08022465  0.79552482  0.17112593  1
  Ti  Ti34  1  0.10538457  0.80453610  0.51606831  1
  Ti  Ti35  1  -0.09505065  0.84058391  0.84022367  1
  Ti  Ti36  1  0.31294827  0.15891155  0.15471097  1
  Ti  Ti37  1  0.42829505  0.12360957  0.50888351  1
  Ti  Ti38  1  0.33581935  0.13732779  0.83608089  1
  Ti  Ti39  1  0.29314167  0.47591324  0.19163288  1
  Ti  Ti40  1  0.28593842  0.54766699  0.52517273  1
  Ti  Ti41  1  0.37904792  0.47549010  0.76763163  1
  Ti  Ti42  1  0.29219900  0.82840245  0.14491339  1
  Ti  Ti43  1  0.29789853  0.81528550  0.52835772  1
  Ti  Ti44  1  0.32283406  0.84289519  0.83892596  1
  Ti  Ti45  1  0.68670423  0.20689039  0.14260936  1
  Ti  Ti46  1  0.74374282  0.15736522  0.50561644  1
  Ti  Ti47  1  0.67010593  0.15486096  0.69046466  1
  Ti  Ti48  1  0.69958932  0.52161070  0.18121591  1
  Ti  Ti49  1  0.62040162  0.55009659  0.50085780  1
  Ti  Ti50  1  0.70049210  0.52600748  0.81496119  1
  Ti  Ti51  1  0.67486146  0.74139163  0.16626268  1
  Ti  Ti52  1  0.70372045  0.86951545  0.45787016  1
  Ti  Ti53  1  0.63528374  0.76005719  0.86464228  1
  Ti  Ti54  1  0.14993007  0.00985622  0.17105380  1
  Ti  Ti55  1  0.23621593  0.09349887  0.48598734  1
  Ti  Ti56  1  0.09524044  -0.06719058  0.80917982  1
  Ti  Ti57  1  0.16479479  0.32991036  0.12336126  1
  Ti  Ti58  1  0.17796792  0.33033129  0.52176727  1
  Ti  Ti59  1  0.20731094  0.38051334  0.84162312  1
  Ti  Ti60  1  0.10463039  0.73272049  0.20572945  1
  Ti  Ti61  1  0.10853636  0.60959498  0.50825084  1
  Ti  Ti62  1  0.14347111  0.72121324  0.85063449  1
  Ti  Ti63  1  0.50209789  0.05606088  0.20261618  1
  Ti  Ti64  1  0.44334163  -0.06628602  0.51595498  1
  Ti  Ti65  1  0.59403848  -0.00892666  0.82343735  1
  Ti  Ti66  1  0.47539003  0.29119156  0.21439192  1
  Ti  Ti67  1  0.45813265  0.29096655  0.42338456  1
  Ti  Ti68  1  0.44107699  0.30890194  0.88411766  1
  Ti  Ti69  1  0.46883261  0.71994229  0.16896013  1
  Ti  Ti70  1  0.52709143  0.73101585  0.47515350  1
  Ti  Ti71  1  0.52195490  0.61219583  0.80930064  1
  Ti  Ti72  1  0.93440798  -0.01516016  0.14356719  1
  Ti  Ti73  1  0.85037319  0.00006450  0.51189625  1
  Ti  Ti74  1  0.79130267  -0.00066412  0.80887453  1
  Ti  Ti75  1  0.82845766  0.31609596  0.21717030  1
  Ti  Ti76  1  0.85700874  0.40116075  0.53703812  1
  Ti  Ti77  1  0.80769211  0.35075502  0.85390868  1
  Ti  Ti78  1  0.90637776  0.61567682  0.21004978  1
  Ti  Ti79  1  0.78606436  0.67409197  0.54255902  1
  Ti  Ti80  1  0.79321892  0.70193861  0.75720950  1
  Ti  Ti81  1  0.16826573  0.08362432  -0.06033140  1
  Ti  Ti82  1  0.10130933  0.20792082  0.36596652  1
  Ti  Ti83  1  0.16085484  0.21270404  0.70923417  1
  Ti  Ti84  1  0.21046947  0.51749167  0.00311428  1
  Ti  Ti85  1  0.19416780  0.58051616  0.31170850  1
  Ti  Ti86  1  0.17852172  0.55017366  0.70015926  1
  Ti  Ti87  1  0.19817764  0.87975365  -0.01749762  1
  Ti  Ti88  1  0.21266327  0.81906651  0.32697522  1
  Ti  Ti89  1  0.19919047  0.83469135  0.69272450  1
  Ti  Ti90  1  0.47173573  0.17600663  0.03463708  1
  Ti  Ti91  1  0.57515579  0.14018926  0.35506324  1
  Ti  Ti92  1  0.47091560  0.15159676  0.70468279  1
  Ti  Ti93  1  0.49845450  0.48985659  -0.03330574  1
  Ti  Ti94  1  0.47044804  0.46635572  0.36358694  1
  Ti  Ti95  1  0.44708200  0.45992965  0.57556864  1
  Ti  Ti96  1  0.55937178  0.83601826  0.02734079  1
  Ti  Ti97  1  0.40464400  0.83481800  0.33288767  1
  Ti  Ti98  1  0.43588463  0.80521162  0.67497733  1
  Ti  Ti99  1  0.84137409  0.15289203  -0.01873964  1
  Ti  Ti100  1  0.84382864  0.10696106  0.30558671  1
  Ti  Ti101  1  0.83773504  0.24520831  0.68206709  1
  Ti  Ti102  1  0.81005981  0.48287309  0.01349399  1
  Ti  Ti103  1  0.82636626  0.47376874  0.33556199  1
  Ti  Ti104  1  0.86981502  0.54829236  0.67808208  1
  Ti  Ti105  1  0.78801140  0.78134816  0.00569615  1
  Ti  Ti106  1  0.88980552  0.92514174  0.33229113  1
  Ti  Ti107  1  0.87450102  0.86308881  0.64151899  1
  Co  Co108  1  0.38723234  0.81463231  0.01329404  1
  Co  Co109  1  0.09879978  0.70465029  0.36876195  1
  Co  Co110  1  0.91869224  0.86536635  0.01700214  1
  Co  Co111  1  0.56914986  0.85042897  0.73905333  1
  Co  Co112  1  0.67153593  0.07499789  0.23593079  1
  Co  Co113  1  0.82325182  0.07605706  0.65258030  1
  Co  Co114  1  0.53643154  0.25137436  0.59048403  1
  Co  Co115  1  0.83189784  0.63405852  0.36415805  1
  Co  Co116  1  0.54837581  0.45806314  0.22317785  1
  Co  Co117  1  0.49470159  0.87863311  0.88782654  1
  Co  Co118  1  0.37872598  0.68310917  0.53272546  1
  Co  Co119  1  0.62550928  0.25518851  0.45422094  1
  Co  Co120  1  0.54799419  0.62029385  0.31090703  1
  Co  Co121  1  0.29609123  0.14843356  0.64157707  1
  Co  Co122  1  0.04563288  0.83220686  0.93105185  1
  Co  Co123  1  0.27567320  0.71018301  0.94030259  1
  Co  Co124  1  0.43875185  0.73798558  0.85355744  1
  Co  Co125  1  0.93629747  0.40562633  0.93762270  1
  Co  Co126  1  0.73028656  0.85337538  0.76938769  1
  Co  Co127  1  0.24381674  0.69403689  0.43440330  1
  Co  Co128  1  0.79388347  0.06606568  0.12966999  1
  Co  Co129  1  0.72505983  0.20616542  0.32578235  1
  Co  Co130  1  0.84277471  0.80538459  0.47070845  1
  Co  Co131  1  0.37823970  0.59149865  0.89546636  1
  Co  Co132  1  0.94461819  0.98520565  0.74275058  1
  Co  Co133  1  0.21818599  0.69076218  0.60964385  1
  Co  Co134  1  0.79734869  0.64382492  0.09766304  1
  Co  Co135  1  0.56957641  0.39702130  0.49376251  1
  Co  Co136  1  0.20482156  0.95083299  0.56592896  1
  Co  Co137  1  0.72696931  0.81568647  0.61179142  1
  Co  Co138  1  0.66137388  0.51360088  0.34450902  1
  Co  Co139  1  0.22555826  0.56196102  0.84784660  1
  Co  Co140  1  0.73000905  0.30213806  0.56922996  1
  Co  Co141  1  0.46294761  0.34804280  0.71620784  1
  Co  Co142  1  0.80587612  0.78434786  0.28834906  1
  Co  Co143  1  0.94020426  0.39774981  0.71369327  1
  Co  Co144  1  0.22040240  0.12901737  0.29794810  1
  Co  Co145  1  0.97670205  0.89371972  0.48856213  1
  Co  Co146  1  0.43569695  0.45728670  0.10967904  1
  Co  Co147  1  0.42782027  -0.00191893  0.79925540  1
  Co  Co148  1  0.54627727  0.58359155  0.12154276  1
  Co  Co149  1  0.07336711  0.58833872  0.92027333  1
  Co  Co150  1  0.08147681  0.42555883  0.00236607  1
  Co  Co151  1  0.50346886  0.67933861  0.98883677  1
  Co  Co152  1  0.78243684  0.41130860  0.70269728  1
  Co  Co153  1  0.79088052  0.89210864  0.14714488  1
  Co  Co154  1  0.28872536  0.23361286  0.44262772  1
  Co  Co155  1  0.41876598  0.56701803  0.22502519  1
  Co  Co156  1  0.71826337  0.40202600  0.44382283  1
  Co  Co157  1  0.30416131  0.69416222  0.23490229  1
  Co  Co158  1  0.33631873  0.43590954  0.93384779  1
  Co  Co159  1  0.57387349  0.85353553  0.57198075  1
  Co  Co160  1  0.10248093  0.16519448  0.53855920  1
  Co  Co161  1  0.87886120  0.53137180  0.83828620  1
  Ni  Ni162  1  0.29162142  0.94159947  0.42440814  1
  Ni  Ni163  1  0.01656105  0.56008155  0.32759243  1
  Ni  Ni164  1  0.15364791  0.39166871  0.28471372  1
  Ni  Ni165  1  0.02093957  0.31528571  0.21409258  1
  Ni  Ni166  1  0.28017931  0.24537791  0.94983653  1
  Ni  Ni167  1  0.95866073  0.71242885  0.57725469  1
  Ni  Ni168  1  0.02816968  0.83347969  0.68583125  1
  Ni  Ni169  1  0.84832040  0.30426394  0.04151596  1
  Ni  Ni170  1  0.51128933  0.01144287  0.04165147  1
  Ni  Ni171  1  0.70461640  0.37063333  0.09304278  1
  Ni  Ni172  1  0.57937619  0.24991664  0.79552664  1
  Ni  Ni173  1  1.02421877  0.06329042  0.27697092  1
  Ni  Ni174  1  0.55969498  0.78799688  0.28716160  1
  Ni  Ni175  1  0.39575728  0.16411722  0.31776736  1
  Ni  Ni176  1  0.52211306  0.12544585  0.88919136  1
  Ni  Ni177  1  0.25604888  -0.01191706  0.83736792  1
  Ni  Ni178  1  0.17668885  1.04761994  0.70464645  1
  Ni  Ni179  1  0.51429124  0.99325520  0.65659834  1
  Ni  Ni180  1  0.32132962  0.39998903  0.45323616  1
  Ni  Ni181  1  0.78455750  0.63877945  0.91367996  1
  Ni  Ni182  1  0.97652680  0.13629198  0.66220266  1
  Ni  Ni183  1  0.54079278  0.33212106  0.06469222  1
  Ni  Ni184  1  0.55538767  0.89708234  0.40144602  1
  Ni  Ni185  1  0.46388019  0.89441175  0.16586473  1
  Ni  Ni186  1  0.04847501  0.88853886  0.26101126  1
  Ni  Ni187  1  0.96269258  0.54762295  0.04116593  1
  Ni  Ni188  1  0.27617588  0.41467038  0.64657350  1
  Ni  Ni189  1  0.45564444  0.01972271  0.37382911  1
  Ni  Ni190  1  0.70928261  0.55857441  0.64514774  1
  Ni  Ni191  1  0.47150150  0.62490938  0.63636622  1
  Ni  Ni192  1  0.70772593  0.15012939  0.85800408  1
  Ni  Ni193  1  0.58872596  0.08917719  0.53535571  1
  Ni  Ni194  1  0.15178308  0.46703771  0.42663533  1
  Ni  Ni195  1  0.91159244  0.45221866  0.17787220  1
  Ni  Ni196  1  0.04991346  0.10587733  0.80725990  1
  Ni  Ni197  1  -0.00973437  0.06073187  0.44030996  1
  Ni  Ni198  1  0.04274261  0.08260781  0.05664949  1
  Ni  Ni199  1  0.71182059  0.90688992  0.93357073  1
  Ni  Ni200  1  0.55786996  0.50602252  0.69119463  1
  Ni  Ni201  1  0.02494608  0.53933731  0.64229603  1
  Ni  Ni202  1  0.07108911  0.87640855  0.09339430  1
  Ni  Ni203  1  0.31520413  0.28214850  0.76072962  1
  Ni  Ni204  1  0.83867455  0.30154291  0.39105494  1
  Ni  Ni205  1  0.57088565  0.41453457  0.83553685  1
  Ni  Ni206  1  0.88029278  0.13816331  0.81024542  1
  Ni  Ni207  1  0.13609478  0.23306776  0.88063790  1
  Ni  Ni208  1  0.19846774  0.62017930  0.13285736  1
  Ni  Ni209  1  0.33622404  0.99736376  0.11503864  1
  Ni  Ni210  1  1.02835384  0.43077900  0.52767534  1
  Ni  Ni211  1  0.11384985  0.39140109  0.69129180  1
  Ni  Ni212  1  0.93930641  0.68643673  0.90203222  1
  Ni  Ni213  1  0.17052340  0.17681750  0.07592860  1
  Ni  Ni214  1  0.71182014  0.03270074  0.39921510  1
  Ni  Ni215  1  0.63583638  0.94572373  0.12534065  1
