# generated using pymatgen
data_Ti2CoNi
_symmetry_space_group_name_H-M   'P 1'
_cell_length_a   14.66336561
_cell_length_b   14.67582939
_cell_length_c   14.68304699
_cell_angle_alpha   90.31821384
_cell_angle_beta   90.07786019
_cell_angle_gamma   89.87284174
_symmetry_Int_Tables_number   1
_chemical_formula_structural   Ti2CoNi
_chemical_formula_sum   'Ti108 Co54 Ni54'
_cell_volume   3159.68904721
_cell_formula_units_Z   54
loop_
 _symmetry_equiv_pos_site_id
 _symmetry_equiv_pos_as_xyz
  1  'x, y, z'
loop_
 _atom_site_type_symbol
 _atom_site_label
 _atom_site_symmetry_multiplicity
 _atom_site_fract_x
 _atom_site_fract_y
 _atom_site_fract_z
 _atom_site_occupancy
  Ti  Ti0  1  -0.06547419  0.02107670  0.01053132  1
  Ti  Ti1  1  0.00741266  -0.01114000  0.30798209  1
  Ti  Ti2  1  -0.04409922  0.05543996  0.63547097  1
  Ti  Ti3  1  -0.01797243  0.32717268  -0.03720260  1
  Ti  Ti4  1  0.04944527  0.28258862  0.28881191  1
  Ti  Ti5  1  0.03480662  0.33882177  0.69685027  1
  Ti  Ti6  1  -0.00981213  0.63183016  -0.01836868  1
  Ti  Ti7  1  0.00312115  0.66021308  0.28393711  1
  Ti  Ti8  1  -0.01367912  0.63662705  0.72045877  1
  Ti  Ti9  1  0.34175936  -0.11475030  -0.03468335  1
  Ti  Ti10  1  0.32949914  -0.03516398  0.38322663  1
  Ti  Ti11  1  0.36471470  -0.04351214  0.59870529  1
  Ti  Ti12  1  0.35706623  0.37709580  -0.00568657  1
  Ti  Ti13  1  0.32721447  0.33968205  0.35818949  1
  Ti  Ti14  1  0.25424008  0.35401324  0.64288252  1
  Ti  Ti15  1  0.29075592  0.70217066  -0.06142868  1
  Ti  Ti16  1  0.36074099  0.65507518  0.36301116  1
  Ti  Ti17  1  0.31285504  0.68297138  0.71907263  1
  Ti  Ti18  1  0.65146818  0.06938391  -0.06336306  1
  Ti  Ti19  1  0.63615839  -0.01540866  0.29254416  1
  Ti  Ti20  1  0.72062318  0.01888491  0.69538702  1
  Ti  Ti21  1  0.66916820  0.27235517  -0.03945180  1
  Ti  Ti22  1  0.65962772  0.24498369  0.32138712  1
  Ti  Ti23  1  0.68707321  0.37653035  0.66043921  1
  Ti  Ti24  1  0.67287719  0.61395729  -0.08081839  1
  Ti  Ti25  1  0.70390506  0.67122256  0.38307510  1
  Ti  Ti26  1  0.69315382  0.71113973  0.66586787  1
  Ti  Ti27  1  -0.01470611  0.16142748  0.15423931  1
  Ti  Ti28  1  0.01166177  0.11098997  0.45014572  1
  Ti  Ti29  1  -0.03956653  0.14962786  0.86477926  1
  Ti  Ti30  1  0.01580184  0.44601056  0.17723339  1
  Ti  Ti31  1  0.01020415  0.54757173  0.45681153  1
  Ti  Ti32  1  -0.05944863  0.47665343  0.83259323  1
  Ti  Ti33  1  0.05216597  0.89080753  0.12199917  1
  Ti  Ti34  1  -0.00148742  0.74661308  0.54740581  1
  Ti  Ti35  1  -0.03239292  0.85209162  0.93641025  1
  Ti  Ti36  1  0.27060636  0.11033702  0.11272790  1
  Ti  Ti37  1  0.32907171  0.13529414  0.55506462  1
  Ti  Ti38  1  0.25117714  0.15070752  0.84219142  1
  Ti  Ti39  1  0.31709886  0.56759015  0.07232452  1
  Ti  Ti40  1  0.34381018  0.55814991  0.57331638  1
  Ti  Ti41  1  0.40222113  0.54698701  0.86927974  1
  Ti  Ti42  1  0.31832845  0.87128795  0.17971148  1
  Ti  Ti43  1  0.40875672  0.79766820  0.47873310  1
  Ti  Ti44  1  0.38314671  0.86628500  0.77758884  1
  Ti  Ti45  1  0.69877894  0.14379269  0.14805571  1
  Ti  Ti46  1  0.66849792  0.17857412  0.58478965  1
  Ti  Ti47  1  0.71592363  0.19169688  0.78464300  1
  Ti  Ti48  1  0.66993627  0.43504423  0.19819452  1
  Ti  Ti49  1  0.69410353  0.50210990  0.49857959  1
  Ti  Ti50  1  0.58464426  0.51039418  0.77081829  1
  Ti  Ti51  1  0.70125983  0.87599327  0.13108580  1
  Ti  Ti52  1  0.65530556  0.85412298  0.44620276  1
  Ti  Ti53  1  0.67594431  0.85559078  0.84895622  1
  Ti  Ti54  1  0.18130766  -0.00626164  0.24571443  1
  Ti  Ti55  1  0.13712742  -0.02168765  0.58208320  1
  Ti  Ti56  1  0.22138184  -0.02368892  0.78386900  1
  Ti  Ti57  1  0.24930009  0.33008105  0.16810217  1
  Ti  Ti58  1  0.09979734  0.33253870  0.47984652  1
  Ti  Ti59  1  0.23016891  0.34628449  0.84471292  1
  Ti  Ti60  1  0.14972811  0.69201242  0.15389121  1
  Ti  Ti61  1  0.18486101  0.62142240  0.47224152  1
  Ti  Ti62  1  0.15998838  0.60528619  0.81713388  1
  Ti  Ti63  1  0.54372737  0.03302763  0.09447828  1
  Ti  Ti64  1  0.50086367  0.04364804  0.45278929  1
  Ti  Ti65  1  0.43823374  0.03454451  0.88591795  1
  Ti  Ti66  1  0.46991786  0.28248296  0.17142939  1
  Ti  Ti67  1  0.55475607  0.35997270  0.46981625  1
  Ti  Ti68  1  0.50913918  0.35508566  0.87827563  1
  Ti  Ti69  1  0.54924285  0.65903669  0.12391497  1
  Ti  Ti70  1  0.51996848  0.60019217  0.48390995  1
  Ti  Ti71  1  0.50907633  0.70772680  0.80404270  1
  Ti  Ti72  1  0.84644364  0.00780261  0.20061590  1
  Ti  Ti73  1  0.81350211  0.00373696  0.40715282  1
  Ti  Ti74  1  0.87950259  -0.03199294  0.79976657  1
  Ti  Ti75  1  0.84799045  0.31003647  0.26643848  1
  Ti  Ti76  1  0.85755803  0.40574343  0.45249173  1
  Ti  Ti77  1  0.79869058  0.40951244  0.97545823  1
  Ti  Ti78  1  0.82116235  0.72326611  0.21789340  1
  Ti  Ti79  1  0.84696866  0.60621250  0.56025136  1
  Ti  Ti80  1  0.83835793  0.73500728  0.82491569  1
  Ti  Ti81  1  0.12087873  0.18538622  -0.00458456  1
  Ti  Ti82  1  0.19223558  0.14629158  0.36524068  1
  Ti  Ti83  1  0.09043290  0.14688754  0.72680399  1
  Ti  Ti84  1  0.16087353  0.42378855  0.03252621  1
  Ti  Ti85  1  0.14902505  0.45488185  0.32783630  1
  Ti  Ti86  1  0.12248232  0.50375312  0.62437468  1
  Ti  Ti87  1  0.15251959  0.89766112  -0.06256779  1
  Ti  Ti88  1  0.21899361  0.79747730  0.35076226  1
  Ti  Ti89  1  0.11031594  0.80686483  0.71643818  1
  Ti  Ti90  1  0.41882360  0.17414104  0.00571336  1
  Ti  Ti91  1  0.47823807  0.21187337  0.35207475  1
  Ti  Ti92  1  0.48398925  0.17764091  0.69750569  1
  Ti  Ti93  1  0.50112221  0.49357960  0.03617288  1
  Ti  Ti94  1  0.44956432  0.49251399  0.31336974  1
  Ti  Ti95  1  0.45707899  0.37372204  0.66315155  1
  Ti  Ti96  1  0.49895491  0.84484791  0.06563899  1
  Ti  Ti97  1  0.46318049  0.77656733  0.25753397  1
  Ti  Ti98  1  0.56450215  0.87932070  0.68523802  1
  Ti  Ti99  1  0.83847572  0.18540836  0.03336500  1
  Ti  Ti100  1  0.81351390  0.19914299  0.43609297  1
  Ti  Ti101  1  0.87415554  0.25353007  0.60749298  1
  Ti  Ti102  1  0.80286033  0.57980972  0.07195238  1
  Ti  Ti103  1  0.83296421  0.53152371  0.29772037  1
  Ti  Ti104  1  0.85998479  0.45001913  0.65746331  1
  Ti  Ti105  1  0.81195258  0.75882063  0.00543432  1
  Ti  Ti106  1  0.91165002  0.82433172  0.39135658  1
  Ti  Ti107  1  0.83612377  0.90104524  0.57120427  1
  Co  Co108  1  0.34921645  0.13831648  0.39585838  1
  Co  Co109  1  0.29584939  0.70006204  0.22314446  1
  Co  Co110  1  0.85810545  0.13894827  0.73690427  1
  Co  Co111  1  0.84045398  0.44746012  0.15731440  1
  Co  Co112  1  0.38772323  -0.00000842  0.07302621  1
  Co  Co113  1  0.12226878  0.44559982  0.77741147  1
  Co  Co114  1  0.84171345  0.58617957  0.90684294  1
  Co  Co115  1  0.63294003  0.92097304  -0.00502385  1
  Co  Co116  1  0.69520397  0.71021915  0.10211046  1
  Co  Co117  1  0.23571206  0.79832720  0.82532084  1
  Co  Co118  1  0.07434192  0.72489663  0.40753424  1
  Co  Co119  1  0.94255625  0.47614888  1.02047946  1
  Co  Co120  1  0.76005210  0.01711714  0.05914178  1
  Co  Co121  1  0.64176150  0.10770498  0.40517653  1
  Co  Co122  1  0.75346361  0.47116667  0.80304324  1
  Co  Co123  1  0.22813002  0.09152912  0.67112541  1
  Co  Co124  1  0.27019522  0.24490902  -0.00757591  1
  Co  Co125  1  0.26806165  0.50814535  0.72925206  1
  Co  Co126  1  0.55990120  0.11978001  0.24160503  1
  Co  Co127  1  0.82453705  0.25354461  0.89316385  1
  Co  Co128  1  0.42957641  0.78180070  0.64268282  1
  Co  Co129  1  0.26995847  0.04764711  0.95924700  1
  Co  Co130  1  0.54317757  0.63975895  0.65792295  1
  Co  Co131  1  0.79724149  0.91416865  0.93911241  1
  Co  Co132  1  0.07645143  0.49296436  0.91980104  1
  Co  Co133  1  0.52845178  0.18894338  0.51889060  1
  Co  Co134  1  0.54289375  0.73477673  0.39223327  1
  Co  Co135  1  0.34828555  0.04799472  0.24855500  1
  Co  Co136  1  0.57696861  0.75236654  0.55234659  1
  Co  Co137  1  0.82748575  0.59861627  0.73800774  1
  Co  Co138  1  0.69705481  0.60429052  0.22507348  1
  Co  Co139  1  0.32618581  0.23151019  0.70744662  1
  Co  Co140  1  0.65033572  0.53655347  0.07263106  1
  Co  Co141  1  0.97695701  0.95502308  0.48081628  1
  Co  Co142  1  0.86941457  0.74249036  0.65381997  1
  Co  Co143  1  0.92149994  0.31575103  0.11473021  1
  Co  Co144  1  0.98099658  0.41479059  0.55395556  1
  Co  Co145  1  0.08136502  1.03818064  0.91872813  1
  Co  Co146  1  -0.01582808  0.42353472  0.34771152  1
  Co  Co147  1  0.95580653  0.27557383  0.42789497  1
  Co  Co148  1  0.80357908  0.08453656  0.89420236  1
  Co  Co149  1  0.22096157  0.94379859  0.07918271  1
  Co  Co150  1  0.87445237  0.88459165  0.08284135  1
  Co  Co151  1  0.69695809  0.54568574  0.65664536  1
  Co  Co152  1  0.95650672  0.82366615  0.76543086  1
  Co  Co153  1  0.42885601  0.54250530  0.71128674  1
  Co  Co154  1  -0.01022593  0.89468368  0.63021236  1
  Co  Co155  1  0.25270780  0.50050815  0.90780730  1
  Co  Co156  1  0.37060050  0.40187897  0.79702032  1
  Co  Co157  1  0.41986412  0.60008438  0.19707229  1
  Co  Co158  1  0.14681511  -0.01039771  0.41245444  1
  Co  Co159  1  0.51604248  0.90348494  0.53613272  1
  Co  Co160  1  0.54690503  0.48713937  0.59670838  1
  Co  Co161  1  0.08437472  0.30055108  0.11538160  1
  Ni  Ni162  1  0.88070149  0.31878933  0.76534678  1
  Ni  Ni163  1  0.22649781  0.43747740  0.50165318  1
  Ni  Ni164  1  0.40774158  0.43779387  0.48184256  1
  Ni  Ni165  1  0.05127795  -0.02958242  0.76928852  1
  Ni  Ni166  1  0.24141770  0.87811426  0.49816858  1
  Ni  Ni167  1  0.76623676  0.86978821  0.30435285  1
  Ni  Ni168  1  0.09709911  0.04962857  0.09723647  1
  Ni  Ni169  1  0.15129001  0.17541297  0.20465643  1
  Ni  Ni170  1  0.67560208  0.99816843  0.53003347  1
  Ni  Ni171  1  0.76806569  0.12125429  0.29413085  1
  Ni  Ni172  1  0.28071224  0.72512902  0.55572485  1
  Ni  Ni173  1  0.25934081  0.84900326  0.66185055  1
  Ni  Ni174  1  0.54383780  0.18130995  0.87109556  1
  Ni  Ni175  1  0.50337424  0.89778127  0.36873811  1
  Ni  Ni176  1  0.71483508  0.39646330  0.36088401  1
  Ni  Ni177  1  0.61399604  0.52454560  0.34856753  1
  Ni  Ni178  1  0.10551240  0.76214209  0.01223669  1
  Ni  Ni179  1  0.88713363  0.65804142  0.40577305  1
  Ni  Ni180  1  0.40232667  0.28213337  0.53729538  1
  Ni  Ni181  1  0.38680477  0.24488007  0.85688227  1
  Ni  Ni182  1  0.46796588  0.66126437  0.97306038  1
  Ni  Ni183  1  0.63778558  0.77010509  0.25537081  1
  Ni  Ni184  1  0.08297088  0.27293396  0.84405672  1
  Ni  Ni185  1  0.16408587  0.60735216  0.00135215  1
  Ni  Ni186  1  0.54049456  0.04189618  0.62330101  1
  Ni  Ni187  1  0.74941896  0.30734856  0.11915552  1
  Ni  Ni188  1  0.72123990  0.32159516  0.50839127  1
  Ni  Ni189  1  0.29529576  0.51255657  0.38559687  1
  Ni  Ni190  1  0.63804382  0.44743318  0.93273543  1
  Ni  Ni191  1  0.54898219  0.36662202  0.29688875  1
  Ni  Ni192  1  0.81437355  0.08561965  0.56108741  1
  Ni  Ni193  1  0.39557929  0.43309963  0.15748895  1
  Ni  Ni194  1  0.56919027  0.20116840  0.06395988  1
  Ni  Ni195  1  0.96830180  0.74413155  1.11676401  1
  Ni  Ni196  1  0.92787119  0.14910746  0.30921034  1
  Ni  Ni197  1  0.79241584  0.75575620  0.50495535  1
  Ni  Ni198  1  0.03292147  0.21332129  0.57829629  1
  Ni  Ni199  1  0.37433199  0.73584545  0.08765112  1
  Ni  Ni200  1  0.26959121  0.51510594  0.22207390  1
  Ni  Ni201  1  0.57940275  1.03355337  0.78550297  1
  Ni  Ni202  1  0.25154592  0.26661794  0.47840492  1
  Ni  Ni203  1  0.60671360  0.75850174  0.96465998  1
  Ni  Ni204  1  0.13386960  0.66633330  0.62743705  1
  Ni  Ni205  1  0.05887078  0.73348755  0.85912732  1
  Ni  Ni206  1  0.17353162  0.62240297  0.30696321  1
  Ni  Ni207  1  0.91976676  0.85841720  0.23257636  1
  Ni  Ni208  1  0.58946981  0.29284725  0.75241232  1
  Ni  Ni209  1  0.47154803  0.94670302  0.21641004  1
  Ni  Ni210  1  0.32824981  0.20838102  0.24580626  1
  Ni  Ni211  1  0.37614281  0.05673146  0.73113927  1
  Ni  Ni212  1  0.76728243  0.85815482  0.71536760  1
  Ni  Ni213  1  0.51158083  0.87654638  0.88370235  1
  Ni  Ni214  1  0.07676899  0.82378803  0.27131886  1
  Ni  Ni215  1  0.94458071  0.58798483  0.14900312  1
