# generated using pymatgen
data_Ti2CoNi
_symmetry_space_group_name_H-M   'P 1'
_cell_length_a   14.57404455
_cell_length_b   14.44799996
_cell_length_c   14.52727741
_cell_angle_alpha   89.85158155
_cell_angle_beta   89.81715149
_cell_angle_gamma   90.38213435
_symmetry_Int_Tables_number   1
_chemical_formula_structural   Ti2CoNi
_chemical_formula_sum   'Ti108 Co54 Ni54'
_cell_volume   3058.85367397
_cell_formula_units_Z   54
loop_
 _symmetry_equiv_pos_site_id
 _symmetry_equiv_pos_as_xyz
  1  'x, y, z'
loop_
 _atom_site_type_symbol
 _atom_site_label
 _atom_site_symmetry_multiplicity
 _atom_site_fract_x
 _atom_site_fract_y
 _atom_site_fract_z
 _atom_site_occupancy
  Ti  Ti0  1  0.04287393  0.07600518  0.00618975  1
  Ti  Ti1  1  0.05428521  0.03010352  0.36687782  1
  Ti  Ti2  1  0.00104811  0.02600961  0.58425690  1
  Ti  Ti3  1  -0.08681159  0.34859773  0.06816288  1
  Ti  Ti4  1  -0.01495491  0.37146092  0.37889587  1
  Ti  Ti5  1  0.03525777  0.27455293  0.67772224  1
  Ti  Ti6  1  0.00874322  0.63232262  0.01245768  1
  Ti  Ti7  1  0.05652410  0.65919986  0.31725181  1
  Ti  Ti8  1  -0.02059060  0.70018270  0.62244231  1
  Ti  Ti9  1  0.32921215  -0.00030633  0.08531884  1
  Ti  Ti10  1  0.36472952  -0.02701655  0.39604005  1
  Ti  Ti11  1  0.30210776  -0.03628030  0.69417276  1
  Ti  Ti12  1  0.43378184  0.28856308  0.01776078  1
  Ti  Ti13  1  0.37679310  0.25834120  0.36934068  1
  Ti  Ti14  1  0.27356950  0.30456245  0.63372192  1
  Ti  Ti15  1  0.40248226  0.67765077  -0.04393358  1
  Ti  Ti16  1  0.34875391  0.62844713  0.29688313  1
  Ti  Ti17  1  0.25288669  0.64687461  0.66124209  1
  Ti  Ti18  1  0.66405226  0.03293125  0.01915148  1
  Ti  Ti19  1  0.55973073  -0.04326075  0.33680237  1
  Ti  Ti20  1  0.64173412  0.01915114  0.69317695  1
  Ti  Ti21  1  0.68490227  0.32693675  -0.05409050  1
  Ti  Ti22  1  0.71646608  0.39952991  0.30331214  1
  Ti  Ti23  1  0.59287774  0.32110998  0.67999675  1
  Ti  Ti24  1  0.65453462  0.72222030  0.06099262  1
  Ti  Ti25  1  0.70862430  0.62625884  0.24418899  1
  Ti  Ti26  1  0.66525912  0.76237119  0.66920040  1
  Ti  Ti27  1  0.02427766  0.11556273  0.19431076  1
  Ti  Ti28  1  0.02087649  0.19682647  0.48396245  1
  Ti  Ti29  1  -0.00555862  0.20277571  0.87994471  1
  Ti  Ti30  1  0.02951233  0.48725927  0.20936686  1
  Ti  Ti31  1  -0.07475561  0.52221432  0.50294343  1
  Ti  Ti32  1  -0.00161830  0.51576282  0.77034266  1
  Ti  Ti33  1  -0.01234384  0.82289639  0.09517267  1
  Ti  Ti34  1  0.00393750  0.82969175  0.47187843  1
  Ti  Ti35  1  -0.03548142  0.78907250  0.81464222  1
  Ti  Ti36  1  0.28336411  0.18023689  0.17633477  1
  Ti  Ti37  1  0.39123529  0.14960414  0.58198593  1
  Ti  Ti38  1  0.35478708  0.08119938  0.91719154  1
  Ti  Ti39  1  0.31183087  0.47588056  0.18127188  1
  Ti  Ti40  1  0.39174803  0.50880003  0.57268332  1
  Ti  Ti41  1  0.29342006  0.46015770  0.76533767  1
  Ti  Ti42  1  0.35098058  0.77805280  0.15159239  1
  Ti  Ti43  1  0.30035502  0.81639212  0.52931633  1
  Ti  Ti44  1  0.33299454  0.80429429  0.84110167  1
  Ti  Ti45  1  0.65826819  0.16461961  0.17503430  1
  Ti  Ti46  1  0.63922309  0.22638902  0.48190494  1
  Ti  Ti47  1  0.69332795  0.15949876  0.82564466  1
  Ti  Ti48  1  0.63879621  0.48852592  0.10774638  1
  Ti  Ti49  1  0.70976156  0.54615420  0.45013224  1
  Ti  Ti50  1  0.63826466  0.47822523  0.80886375  1
  Ti  Ti51  1  0.68072155  0.83332044  0.23796609  1
  Ti  Ti52  1  0.65183324  0.82857333  0.45826809  1
  Ti  Ti53  1  0.72707994  0.76689175  0.87989638  1
  Ti  Ti54  1  0.21422736  0.01449126  0.25301448  1
  Ti  Ti55  1  0.16320039  -0.05720410  0.55369190  1
  Ti  Ti56  1  0.10096762  -0.02222087  0.81415700  1
  Ti  Ti57  1  0.15125251  0.34837059  0.14370689  1
  Ti  Ti58  1  0.13344210  0.35642502  0.51248149  1
  Ti  Ti59  1  0.11436408  0.37926280  0.89110177  1
  Ti  Ti60  1  0.15112689  0.69779357  0.12366162  1
  Ti  Ti61  1  0.21775742  0.62677725  0.45424975  1
  Ti  Ti62  1  0.21278665  0.66023337  0.87692923  1
  Ti  Ti63  1  0.51274702  -0.07504864  0.12705666  1
  Ti  Ti64  1  0.57345439  0.03173434  0.50783869  1
  Ti  Ti65  1  0.44696568  -0.04563047  0.81185674  1
  Ti  Ti66  1  0.46971400  0.27793616  0.20675057  1
  Ti  Ti67  1  0.46639056  0.32582685  0.53353214  1
  Ti  Ti68  1  0.44600594  0.39462600  0.84619526  1
  Ti  Ti69  1  0.47463280  0.58028166  0.17545271  1
  Ti  Ti70  1  0.46341022  0.69442084  0.48708886  1
  Ti  Ti71  1  0.49900113  0.73896068  0.77111897  1
  Ti  Ti72  1  0.79945181  0.00838913  0.15475090  1
  Ti  Ti73  1  0.78779027  0.02714403  0.51388685  1
  Ti  Ti74  1  0.83706135  0.04773390  0.74336887  1
  Ti  Ti75  1  0.84071752  0.24011466  0.22150911  1
  Ti  Ti76  1  0.83006865  0.24344867  0.42280181  1
  Ti  Ti77  1  0.82130642  0.43549191  0.80380457  1
  Ti  Ti78  1  0.82039539  0.64999044  0.06700956  1
  Ti  Ti79  1  0.80228439  0.69096583  0.54110473  1
  Ti  Ti80  1  0.84137942  0.61524835  0.85535137  1
  Ti  Ti81  1  0.22278938  0.22603982  -0.01376282  1
  Ti  Ti82  1  0.14827725  0.23787061  0.33665753  1
  Ti  Ti83  1  0.17755224  0.14892814  0.77152592  1
  Ti  Ti84  1  0.20388394  0.50820396  0.01667162  1
  Ti  Ti85  1  0.23002428  0.43788745  0.35960225  1
  Ti  Ti86  1  0.08923012  0.53571862  0.59754503  1
  Ti  Ti87  1  0.16780337  0.89866925  -0.00012515  1
  Ti  Ti88  1  0.07379559  0.85197195  0.27774589  1
  Ti  Ti89  1  0.17040456  0.81521969  0.73330187  1
  Ti  Ti90  1  0.55156542  0.16084698  -0.02814233  1
  Ti  Ti91  1  0.54149052  0.14044332  0.32042023  1
  Ti  Ti92  1  0.50737148  0.14157604  0.77531900  1
  Ti  Ti93  1  0.39132538  0.49276898  -0.00708103  1
  Ti  Ti94  1  0.52172712  0.50551351  0.40365910  1
  Ti  Ti95  1  0.57600743  0.57853592  0.63912900  1
  Ti  Ti96  1  0.56175399  0.86756495  -0.05233563  1
  Ti  Ti97  1  0.47744718  0.79402487  0.30060088  1
  Ti  Ti98  1  0.50211796  0.86374439  0.61372640  1
  Ti  Ti99  1  0.82728870  0.11148442  -0.04660312  1
  Ti  Ti100  1  0.84809788  0.07229228  0.32205046  1
  Ti  Ti101  1  0.85082263  0.24456522  0.70790332  1
  Ti  Ti102  1  0.78573895  0.47638605  -0.01207566  1
  Ti  Ti103  1  0.87128759  0.55654419  0.32152142  1
  Ti  Ti104  1  0.77161085  0.44595602  0.62253428  1
  Ti  Ti105  1  0.82446798  0.91631519  -0.04026404  1
  Ti  Ti106  1  0.87115228  0.80320838  0.29302599  1
  Ti  Ti107  1  0.86787457  0.86526299  0.64206239  1
  Co  Co108  1  0.35864650  0.53746270  0.42094116  1
  Co  Co109  1  0.68551047  0.59312342  0.94772892  1
  Co  Co110  1  0.56513460  0.29156822  0.84923607  1
  Co  Co111  1  0.65314952  0.64189069  0.79323425  1
  Co  Co112  1  0.48784328  0.75441323  0.07049719  1
  Co  Co113  1  0.58668510  0.02250206  0.87435129  1
  Co  Co114  1  0.74577963  0.71567267  0.37669639  1
  Co  Co115  1  0.79659706  0.51152816  0.17660174  1
  Co  Co116  1  0.94264636  0.48063075  0.92597270  1
  Co  Co117  1  0.90572308  0.69001244  0.41250772  1
  Co  Co118  1  0.26343978  0.22565265  0.49011629  1
  Co  Co119  1  0.91906227  0.95835779  0.41807767  1
  Co  Co120  1  0.00278743  0.89698917  0.94001382  1
  Co  Co121  1  0.04603449  0.85847850  0.64115128  1
  Co  Co122  1  0.94579621  0.03379642  0.87741610  1
  Co  Co123  1  0.26679348  0.12500651  0.35663964  1
  Co  Co124  1  0.71878096  0.31904626  0.76328065  1
  Co  Co125  1  0.56145848  0.43692088  0.96395137  1
  Co  Co126  1  0.15834931  0.09281753  0.47069063  1
  Co  Co127  1  0.08895930  0.75715745  -0.05852376  1
  Co  Co128  1  0.82981525  0.84162839  0.47662835  1
  Co  Co129  1  0.13839448  0.19392508  0.59762751  1
  Co  Co130  1  0.28435838  0.38034871  0.92820835  1
  Co  Co131  1  0.96465361  0.94443543  0.74303160  1
  Co  Co132  1  0.43163117  0.11170861  0.43092170  1
  Co  Co133  1  0.30527629  0.34913278  0.08387704  1
  Co  Co134  1  0.47191597  0.42145783  0.11857673  1
  Co  Co135  1  0.25448289  0.75741196  1.00664642  1
  Co  Co136  1  0.24535158  0.08667194  0.61302328  1
  Co  Co137  1  0.72857614  0.59525003  0.65907704  1
  Co  Co138  1  0.92473764  0.51625836  0.09108962  1
  Co  Co139  1  0.63035285  0.66770602  0.51465365  1
  Co  Co140  1  0.72739516  0.14215088  0.62708522  1
  Co  Co141  1  0.88319437  0.39722868  0.24926596  1
  Co  Co142  1  0.93286446  -0.05379781  0.24129156  1
  Co  Co143  1  0.07273497  0.95897702  0.15260614  1
  Co  Co144  1  0.39503130  0.09504729  0.25770722  1
  Co  Co145  1  0.56709136  0.70798454  0.91498683  1
  Co  Co146  1  0.75739821  0.92458201  0.34824939  1
  Co  Co147  1  0.92896800  0.98446828  0.07111712  1
  Co  Co148  1  0.23167594  0.48104221  0.56835695  1
  Co  Co149  1  0.32790080  0.38106208  0.47845246  1
  Co  Co150  1  0.08759298  0.55902541  0.90587281  1
  Co  Co151  1  0.14930405  0.73918501  0.58165451  1
  Co  Co152  1  0.47434592  0.86639899  0.45630097  1
  Co  Co153  1  0.04677585  0.65013564  0.48041400  1
  Co  Co154  1  0.05918106  0.44230539  0.03728859  1
  Co  Co155  1  0.96919173  0.19156414  0.33392907  1
  Co  Co156  1  0.69310417  0.23822234  0.32010853  1
  Co  Co157  1  0.41034912  0.43065682  0.30444239  1
  Co  Co158  1  0.68668896  0.88618392  0.07454348  1
  Co  Co159  1  0.34287911  0.12641908  0.74567321  1
  Co  Co160  1  0.53450422  0.58879440  0.01947902  1
  Co  Co161  1  0.64107176  0.00194900  0.20374294  1
  Ni  Ni162  1  0.26983409  0.28401618  0.80286448  1
  Ni  Ni163  1  0.75293582  0.36047400  0.13462712  1
  Ni  Ni164  1  0.60108754  0.43066066  0.54749250  1
  Ni  Ni165  1  0.55699391  0.16874816  0.61700605  1
  Ni  Ni166  1  0.35400383  0.79640943  0.68072022  1
  Ni  Ni167  1  0.42271713  0.28434126  0.70791748  1
  Ni  Ni168  1  0.89018715  0.76230687  0.96289842  1
  Ni  Ni169  1  0.39099282  0.87333988  0.98934724  1
  Ni  Ni170  1  0.26514848  0.94864356  0.86298853  1
  Ni  Ni171  1  0.00101657  0.11212905  0.73145552  1
  Ni  Ni172  1  0.28670660  0.32361640  0.24948533  1
  Ni  Ni173  1  0.81837851  0.72303965  0.72603466  1
  Ni  Ni174  1  0.37595376  0.92678697  0.23326058  1
  Ni  Ni175  1  0.91382728  0.16878570  0.08364095  1
  Ni  Ni176  1  0.20034884  0.92751568  0.39203563  1
  Ni  Ni177  1  0.18856766  0.07048510  0.93151250  1
  Ni  Ni178  1  0.21430472  0.72828678  0.27495605  1
  Ni  Ni179  1  0.73678467  0.93757181  0.81623230  1
  Ni  Ni180  1  0.46544961  1.02282268  0.65179187  1
  Ni  Ni181  1  0.83154510  0.26604822  0.88130117  1
  Ni  Ni182  1  0.93636242  0.34198107  0.55043282  1
  Ni  Ni183  1  0.47325432  0.45367395  0.69826623  1
  Ni  Ni184  1  0.42130817  0.65167514  0.65552525  1
  Ni  Ni185  1  0.59904501  0.30802302  0.09486053  1
  Ni  Ni186  1  0.15462535  0.77820618  0.42221434  1
  Ni  Ni187  1  0.88537060  0.15665835  0.57382139  1
  Ni  Ni188  1  0.56701385  0.70761417  0.19952980  1
  Ni  Ni189  1  0.33260632  0.77677365  0.37766266  1
  Ni  Ni190  1  0.16138496  0.54385069  0.76134383  1
  Ni  Ni191  1  0.95100877  0.66222533  0.18771768  1
  Ni  Ni192  1  0.71213635  0.90563109  0.60163694  1
  Ni  Ni193  1  0.14239101  0.39241047  0.70302525  1
  Ni  Ni194  1  0.74844618  0.21733032  0.04963645  1
  Ni  Ni195  1  0.43987209  0.12878993  0.09535317  1
  Ni  Ni196  1  0.08050297  0.68079981  0.75599583  1
  Ni  Ni197  1  0.81714880  0.41024902  0.44753551  1
  Ni  Ni198  1  0.76337528  0.29379551  0.56877382  1
  Ni  Ni199  1  0.82108654  0.81090048  0.12720801  1
  Ni  Ni200  1  0.05523868  0.25895619  1.03443141  1
  Ni  Ni201  1  0.01686270  0.29678448  0.22001084  1
  Ni  Ni202  1  0.58038023  0.65931245  0.35580602  1
  Ni  Ni203  1  0.40321110  0.23113270  0.86686667  1
  Ni  Ni204  1  0.08463776  0.50644950  0.40065748  1
  Ni  Ni205  1  0.54547172  0.32097205  0.37284039  1
  Ni  Ni206  1  0.88471753  0.56709791  0.66599129  1
  Ni  Ni207  1  0.68862762  0.07832981  0.37802740  1
  Ni  Ni208  1  0.17967592  0.07365598  0.09730275  1
  Ni  Ni209  1  0.21052031  0.86702606  0.16563236  1
  Ni  Ni210  1  0.56562463  0.43459568  0.25131609  1
  Ni  Ni211  1  0.59274844  0.87918653  0.77667011  1
  Ni  Ni212  1  0.49622642  0.56730811  0.84293137  1
  Ni  Ni213  1  0.31022443  0.62313522  0.09489775  1
  Ni  Ni214  1  0.17876381  0.56096717  0.24561182  1
  Ni  Ni215  1  0.96485650  0.35142174  0.80593042  1
