# generated using pymatgen
data_Ti2CoNi
_symmetry_space_group_name_H-M   'P 1'
_cell_length_a   14.59696239
_cell_length_b   14.55170508
_cell_length_c   14.54333551
_cell_angle_alpha   89.84454051
_cell_angle_beta   89.98735676
_cell_angle_gamma   89.95968062
_symmetry_Int_Tables_number   1
_chemical_formula_structural   Ti2CoNi
_chemical_formula_sum   'Ti108 Co54 Ni54'
_cell_volume   3089.14774686
_cell_formula_units_Z   54
loop_
 _symmetry_equiv_pos_site_id
 _symmetry_equiv_pos_as_xyz
  1  'x, y, z'
loop_
 _atom_site_type_symbol
 _atom_site_label
 _atom_site_symmetry_multiplicity
 _atom_site_fract_x
 _atom_site_fract_y
 _atom_site_fract_z
 _atom_site_occupancy
  Ti  Ti0  1  -0.07390733  0.04382135  0.06951362  1
  Ti  Ti1  1  -0.03185792  0.00755375  0.26745026  1
  Ti  Ti2  1  -0.02616789  -0.08034598  0.61995812  1
  Ti  Ti3  1  0.04794672  0.23985632  0.02925835  1
  Ti  Ti4  1  -0.01296246  0.44684826  0.29515150  1
  Ti  Ti5  1  0.04616022  0.33262658  0.71334865  1
  Ti  Ti6  1  -0.01051133  0.65066118  -0.00396876  1
  Ti  Ti7  1  -0.02291809  0.65238178  0.38191328  1
  Ti  Ti8  1  0.02296190  0.67711632  0.66055561  1
  Ti  Ti9  1  0.32245928  0.02640923  0.03245116  1
  Ti  Ti10  1  0.29844239  -0.00517819  0.31417093  1
  Ti  Ti11  1  0.34581928  -0.00172084  0.55138517  1
  Ti  Ti12  1  0.32162106  0.32077540  0.03851689  1
  Ti  Ti13  1  0.34894323  0.38992056  0.27452207  1
  Ti  Ti14  1  0.34406598  0.34156241  0.67011365  1
  Ti  Ti15  1  0.22387010  0.59785631  -0.00978528  1
  Ti  Ti16  1  0.37727642  0.71103489  0.37426686  1
  Ti  Ti17  1  0.34470624  0.64896200  0.68605155  1
  Ti  Ti18  1  0.63530032  0.01263526  0.00499836  1
  Ti  Ti19  1  0.65486317  -0.04478812  0.33434687  1
  Ti  Ti20  1  0.68360013  0.03161078  0.66902457  1
  Ti  Ti21  1  0.61144633  0.33740934  -0.07022316  1
  Ti  Ti22  1  0.60862377  0.27498546  0.28075034  1
  Ti  Ti23  1  0.74384709  0.24760248  0.64091073  1
  Ti  Ti24  1  0.65597320  0.76756530  -0.03770929  1
  Ti  Ti25  1  0.69825874  0.69660164  0.25774366  1
  Ti  Ti26  1  0.63866129  0.73998363  0.72257896  1
  Ti  Ti27  1  0.04276225  0.19227605  0.22045330  1
  Ti  Ti28  1  0.00211456  0.17017198  0.41069167  1
  Ti  Ti29  1  0.00633452  0.17514389  0.84173406  1
  Ti  Ti30  1  0.06040230  0.51601023  0.12090503  1
  Ti  Ti31  1  0.01010951  0.45546221  0.57479572  1
  Ti  Ti32  1  -0.07415279  0.53192642  0.86949766  1
  Ti  Ti33  1  0.02598768  0.85910812  0.16216591  1
  Ti  Ti34  1  0.05631506  0.81862405  0.45677077  1
  Ti  Ti35  1  0.04465224  0.81567041  0.89306005  1
  Ti  Ti36  1  0.33371552  0.17383994  0.17658637  1
  Ti  Ti37  1  0.35312919  0.23466934  0.51044716  1
  Ti  Ti38  1  0.29266401  0.05442326  0.82429088  1
  Ti  Ti39  1  0.37360588  0.53204263  0.12365002  1
  Ti  Ti40  1  0.28262388  0.51439787  0.52131311  1
  Ti  Ti41  1  0.40307571  0.49894859  0.79671344  1
  Ti  Ti42  1  0.37181272  0.85710928  0.18183719  1
  Ti  Ti43  1  0.31114012  0.79046792  0.53458125  1
  Ti  Ti44  1  0.28385486  0.86247581  0.76261026  1
  Ti  Ti45  1  0.62198292  0.12696341  0.16471298  1
  Ti  Ti46  1  0.67235725  0.11680155  0.49203587  1
  Ti  Ti47  1  0.72947187  0.19405694  0.82534001  1
  Ti  Ti48  1  0.62657339  0.50429465  0.24458702  1
  Ti  Ti49  1  0.66624051  0.49627155  0.49227780  1
  Ti  Ti50  1  0.70889937  0.50800056  0.84485232  1
  Ti  Ti51  1  0.69625256  0.83955165  0.13171384  1
  Ti  Ti52  1  0.69017069  0.76877351  0.48241995  1
  Ti  Ti53  1  0.66919314  0.92997952  0.83326819  1
  Ti  Ti54  1  0.18483849  -0.04634210  0.16403456  1
  Ti  Ti55  1  0.17530291  0.11665691  0.53276611  1
  Ti  Ti56  1  0.09063230  -0.02003825  0.78984190  1
  Ti  Ti57  1  0.18897793  0.31677130  0.18052120  1
  Ti  Ti58  1  0.15001393  0.30712304  0.51640294  1
  Ti  Ti59  1  0.23220222  0.38204512  0.81918488  1
  Ti  Ti60  1  0.21402503  0.64074992  0.19810481  1
  Ti  Ti61  1  0.18568609  0.66613995  0.41886175  1
  Ti  Ti62  1  0.18474315  0.70543047  0.79833162  1
  Ti  Ti63  1  0.46612397  0.05739987  0.24192332  1
  Ti  Ti64  1  0.48603619  0.04170608  0.42491194  1
  Ti  Ti65  1  0.47476034  0.00499581  0.87049348  1
  Ti  Ti66  1  0.51196795  0.38710695  0.12745071  1
  Ti  Ti67  1  0.54813023  0.34995631  0.46253509  1
  Ti  Ti68  1  0.43424563  0.31326135  0.85575211  1
  Ti  Ti69  1  0.46941960  0.69408007  0.05667584  1
  Ti  Ti70  1  0.55472485  0.65398075  0.56203702  1
  Ti  Ti71  1  0.53519456  0.65042192  0.84693573  1
  Ti  Ti72  1  0.76779626  0.02299895  0.17649422  1
  Ti  Ti73  1  0.83698705  0.04067932  0.50640774  1
  Ti  Ti74  1  0.88241039  -0.09124183  0.82824692  1
  Ti  Ti75  1  0.76596028  0.34724453  0.19772584  1
  Ti  Ti76  1  0.80971132  0.36202419  0.47390780  1
  Ti  Ti77  1  0.86574685  0.35027401  0.80814729  1
  Ti  Ti78  1  0.88006422  0.72972899  0.21486349  1
  Ti  Ti79  1  0.86171298  0.60400445  0.54407119  1
  Ti  Ti80  1  0.82135618  0.64664274  0.74229342  1
  Ti  Ti81  1  0.14342952  0.08058556  -0.04856580  1
  Ti  Ti82  1  0.21979834  0.21674555  0.35032914  1
  Ti  Ti83  1  0.16925415  0.19614729  0.72335052  1
  Ti  Ti84  1  0.12599345  0.41229997  -0.02438124  1
  Ti  Ti85  1  0.12063172  0.47844462  0.41464334  1
  Ti  Ti86  1  0.14860515  0.53636113  0.71209947  1
  Ti  Ti87  1  0.14889010  0.77636079  0.05121154  1
  Ti  Ti88  1  0.23397102  0.81622388  0.31832187  1
  Ti  Ti89  1  0.16769457  0.87020945  0.61382728  1
  Ti  Ti90  1  0.49588527  0.19275702  0.00354238  1
  Ti  Ti91  1  0.43592474  0.22325410  0.34446992  1
  Ti  Ti92  1  0.47095629  0.14024056  0.71343845  1
  Ti  Ti93  1  0.60582715  0.54970646  0.01844974  1
  Ti  Ti94  1  0.46954301  0.54308083  0.39911632  1
  Ti  Ti95  1  0.48249996  0.47816528  0.60721632  1
  Ti  Ti96  1  0.48259049  0.87810362  0.02570870  1
  Ti  Ti97  1  0.54613800  0.76299380  0.35870355  1
  Ti  Ti98  1  0.45840132  0.82115442  0.68423330  1
  Ti  Ti99  1  0.85545867  0.19969923  -0.02623207  1
  Ti  Ti100  1  0.78241528  0.20014077  0.35114992  1
  Ti  Ti101  1  0.87518698  0.07053344  0.69921996  1
  Ti  Ti102  1  0.81696421  0.49167063  0.01924890  1
  Ti  Ti103  1  0.80295254  0.52605301  0.32215197  1
  Ti  Ti104  1  0.76411801  0.46385310  0.65789853  1
  Ti  Ti105  1  0.87478340  0.80818850  0.02009097  1
  Ti  Ti106  1  0.84994490  0.86192627  0.44098673  1
  Ti  Ti107  1  0.78204379  0.85623741  0.64365615  1
  Co  Co108  1  0.61234129  0.12480928  0.34030972  1
  Co  Co109  1  0.89215916  0.35189684  0.62201488  1
  Co  Co110  1  0.95245937  0.83702540  0.31794195  1
  Co  Co111  1  0.02679411  0.23252043  0.58235507  1
  Co  Co112  1  0.09547549  0.97942277  0.52085629  1
  Co  Co113  1  0.62096297  0.66922776  0.12048647  1
  Co  Co114  1  0.52471250  0.39268263  0.74035871  1
  Co  Co115  1  0.29450857  0.56022997  0.34799065  1
  Co  Co116  1  0.10447109  0.91582826  0.31992955  1
  Co  Co117  1  0.77275549  0.18611459  0.11984357  1
  Co  Co118  1  0.98206894  0.08434615  0.54792760  1
  Co  Co119  1  0.09142892  0.31976700  0.33687109  1
  Co  Co120  1  0.13213484  0.06452775  0.37264920  1
  Co  Co121  1  0.08791934  0.74985168  0.28916427  1
  Co  Co122  1  0.38421875  0.88852007  0.42190365  1
  Co  Co123  1  0.63421923  0.27456725  0.09593255  1
  Co  Co124  1  0.05474145  0.09409703  0.68414640  1
  Co  Co125  1  0.04093785  0.35975379  0.15220834  1
  Co  Co126  1  0.63569463  0.37281813  0.61241518  1
  Co  Co127  1  0.38823976  -0.01446131  0.70729762  1
  Co  Co128  1  0.75158279  0.55061120  0.16189610  1
  Co  Co129  1  0.86786126  0.90002433  0.15347567  1
  Co  Co130  1  0.91520430  0.21884873  0.71097635  1
  Co  Co131  1  0.08014606  0.82205006  0.73534465  1
  Co  Co132  1  0.69756573  0.36073941  0.78187447  1
  Co  Co133  1  0.30592416  0.45389903  0.95003507  1
  Co  Co134  1  0.08860595  0.58600619  0.28466296  1
  Co  Co135  1  0.54754234  0.95223353  0.72886179  1
  Co  Co136  1  0.89022157  0.44148010  0.16857991  1
  Co  Co137  1  0.45906509  0.41476113  -0.01527519  1
  Co  Co138  1  0.28334930  0.87313654  0.04852832  1
  Co  Co139  1  0.76969350  0.33788808  0.95360560  1
  Co  Co140  1  0.31954308  0.10556148  0.41340957  1
  Co  Co141  1  0.59675310  0.55405041  0.71231139  1
  Co  Co142  1  0.47465935  0.78244214  0.51589430  1
  Co  Co143  1  0.80211738  0.03123703  0.34729535  1
  Co  Co144  1  0.68398698  0.16749959  -0.01557800  1
  Co  Co145  1  0.60978232  0.85415229  0.60877227  1
  Co  Co146  1  0.31046753  0.71247261  0.07124623  1
  Co  Co147  1  0.38868933  0.39192760  0.48363432  1
  Co  Co148  1  0.48281519  0.29660434  0.61331608  1
  Co  Co149  1  0.22858107  0.93127998  0.45209324  1
  Co  Co150  1  0.36789264  0.89049917  0.90274019  1
  Co  Co151  1  -0.02062091  0.33357354  0.45686078  1
  Co  Co152  1  0.69477181  0.38825664  0.36044971  1
  Co  Co153  1  0.24959578  0.37826267  0.39932963  1
  Co  Co154  1  0.25846102  0.56180455  0.83290657  1
  Co  Co155  1  0.22856695  0.46328638  0.10275231  1
  Co  Co156  1  0.97128653  0.97319934  0.42238063  1
  Co  Co157  1  0.70570254  0.94395511  0.50699983  1
  Co  Co158  1  0.55683612  0.90267925  0.46043429  1
  Co  Co159  1  0.67860831  0.42530326  0.08186228  1
  Co  Co160  1  0.55041852  0.48319249  0.86753244  1
  Co  Co161  1  0.77321581  0.68983614  0.07639017  1
  Ni  Ni162  1  0.53259414  0.03719681  0.58938486  1
  Ni  Ni163  1  0.20529695  -0.07476118  0.90811596  1
  Ni  Ni164  1  0.59266790  0.24562134  0.73350269  1
  Ni  Ni165  1  0.92170020  0.29562489  0.29305984  1
  Ni  Ni166  1  0.19327635  0.69794577  0.62132562  1
  Ni  Ni167  1  0.47711228  0.04763835  0.07669685  1
  Ni  Ni168  1  0.76061893  0.78905610  0.82562415  1
  Ni  Ni169  1  0.53130578  0.78701029  0.18914825  1
  Ni  Ni170  1  0.71447893  0.63153171  0.60996378  1
  Ni  Ni171  1  0.81305086  0.69407401  0.38512265  1
  Ni  Ni172  1  0.78072889  0.93705729  0.98132580  1
  Ni  Ni173  1  0.20571829  0.18349812  0.06956824  1
  Ni  Ni174  1  0.78179169  0.85827397  0.28697558  1
  Ni  Ni175  1  0.05487151  0.44167912  0.82768817  1
  Ni  Ni176  1  0.92018010  0.48992007  0.43944995  1
  Ni  Ni177  1  0.09321910  0.59090457  0.88116678  1
  Ni  Ni178  1  0.92171880  0.50344739  0.70572718  1
  Ni  Ni179  1  0.57237935  0.13964554  0.86276687  1
  Ni  Ni180  1  0.07268877  0.93358395  1.01254307  1
  Ni  Ni181  1  0.51495489  0.62244644  0.24649942  1
  Ni  Ni182  1  0.90423892  0.59462350  0.12831147  1
  Ni  Ni183  1  0.86623964  0.20841320  0.52938807  1
  Ni  Ni184  1  0.94446395  0.36995902  0.97124674  1
  Ni  Ni185  1  0.57674232  0.94974016  0.16495842  1
  Ni  Ni186  1  0.25868516  0.76763989  0.92494354  1
  Ni  Ni187  1  0.76693219  0.64396189  0.91803124  1
  Ni  Ni188  1  0.41957692  0.57274460  0.95394470  1
  Ni  Ni189  1  0.19284682  0.40465935  0.63485256  1
  Ni  Ni190  1  0.32917031  0.17244869  0.95511965  1
  Ni  Ni191  1  0.50627161  0.40862473  0.30603710  1
  Ni  Ni192  1  0.17308138  0.24768477  0.90572662  1
  Ni  Ni193  1  0.48240047  0.23126530  0.17023618  1
  Ni  Ni194  1  0.04129801  0.68471108  0.14972778  1
  Ni  Ni195  1  0.08013826  0.07129379  0.10915528  1
  Ni  Ni196  1  0.79347176  0.04714460  0.84947111  1
  Ni  Ni197  1  0.38450418  0.72436816  0.82847141  1
  Ni  Ni198  1  0.52437863  0.82706353  0.85735126  1
  Ni  Ni199  1  0.19009596  0.46189647  0.26070557  1
  Ni  Ni200  1  0.18967628  0.11139397  0.22166225  1
  Ni  Ni201  1  0.88121509  0.14709797  0.23090686  1
  Ni  Ni202  1  0.64091066  0.62301574  0.39479290  1
  Ni  Ni203  1  0.91177460  0.75988002  0.55642741  1
  Ni  Ni204  1  0.39359684  0.63600985  0.52716046  1
  Ni  Ni205  1  0.48291852  0.90401278  0.30050816  1
  Ni  Ni206  1  0.90385700  0.72311458  0.87175963  1
  Ni  Ni207  1  0.31428870  0.15034172  0.65075498  1
  Ni  Ni208  1  0.90577853  0.28161813  0.11770688  1
  Ni  Ni209  1  0.31360521  0.22167830  0.80034669  1
  Ni  Ni210  1  0.52704281  0.18858640  0.49515807  1
  Ni  Ni211  1  0.21612688  1.02013425  0.67545489  1
  Ni  Ni212  1  0.91615762  0.78805809  0.72297982  1
  Ni  Ni213  1  0.96289134  0.02980850  0.91070848  1
  Ni  Ni214  1  0.37256698  0.68732638  0.21540091  1
  Ni  Ni215  1  0.10908287  0.58584019  0.54331975  1
