# generated using pymatgen
data_Ti2CoNi
_symmetry_space_group_name_H-M   'P 1'
_cell_length_a   14.58507304
_cell_length_b   14.61344617
_cell_length_c   14.55656335
_cell_angle_alpha   90.34969015
_cell_angle_beta   89.93919216
_cell_angle_gamma   90.19394432
_symmetry_Int_Tables_number   1
_chemical_formula_structural   Ti2CoNi
_chemical_formula_sum   'Ti108 Co54 Ni54'
_cell_volume   3102.48217715
_cell_formula_units_Z   54
loop_
 _symmetry_equiv_pos_site_id
 _symmetry_equiv_pos_as_xyz
  1  'x, y, z'
loop_
 _atom_site_type_symbol
 _atom_site_label
 _atom_site_symmetry_multiplicity
 _atom_site_fract_x
 _atom_site_fract_y
 _atom_site_fract_z
 _atom_site_occupancy
  Ti  Ti0  1  0.00780670  0.03731380  -0.02341341  1
  Ti  Ti1  1  -0.03420437  0.04962872  0.39046335  1
  Ti  Ti2  1  0.00739537  0.00605669  0.62050845  1
  Ti  Ti3  1  0.05613183  0.39425406  0.06113975  1
  Ti  Ti4  1  -0.03292121  0.27872390  0.32460789  1
  Ti  Ti5  1  0.00112362  0.31682073  0.64284296  1
  Ti  Ti6  1  -0.02701401  0.65207981  -0.09097580  1
  Ti  Ti7  1  0.01724804  0.69222631  0.36726386  1
  Ti  Ti8  1  0.01690558  0.65215941  0.62778877  1
  Ti  Ti9  1  0.30994686  -0.01117224  -0.01557124  1
  Ti  Ti10  1  0.29653465  -0.02549753  0.30902261  1
  Ti  Ti11  1  0.33854179  -0.01836771  0.67161326  1
  Ti  Ti12  1  0.31733845  0.38046461  -0.02193160  1
  Ti  Ti13  1  0.28647865  0.28685680  0.37893886  1
  Ti  Ti14  1  0.32468430  0.31515332  0.69596988  1
  Ti  Ti15  1  0.33519148  0.68395717  -0.01696409  1
  Ti  Ti16  1  0.29440865  0.72221121  0.23180733  1
  Ti  Ti17  1  0.31816784  0.62398574  0.66255812  1
  Ti  Ti18  1  0.66424777  -0.06468977  0.02935818  1
  Ti  Ti19  1  0.59586547  -0.03505465  0.34635846  1
  Ti  Ti20  1  0.68868266  -0.04133581  0.67702272  1
  Ti  Ti21  1  0.69089728  0.34458609  -0.05305065  1
  Ti  Ti22  1  0.76219362  0.30167227  0.32502894  1
  Ti  Ti23  1  0.64955682  0.37111519  0.60225434  1
  Ti  Ti24  1  0.66761899  0.65340456  0.03704580  1
  Ti  Ti25  1  0.66025072  0.69402766  0.31541176  1
  Ti  Ti26  1  0.64606044  0.66515854  0.71020486  1
  Ti  Ti27  1  0.00489876  0.07371545  0.20519654  1
  Ti  Ti28  1  0.04061219  0.18674121  0.51700165  1
  Ti  Ti29  1  -0.07200935  0.11637329  0.79934051  1
  Ti  Ti30  1  -0.01344948  0.48434204  0.22321583  1
  Ti  Ti31  1  -0.00455499  0.53162064  0.45686568  1
  Ti  Ti32  1  -0.08852954  0.49993702  0.78952489  1
  Ti  Ti33  1  0.07370388  0.88181196  0.11494662  1
  Ti  Ti34  1  -0.01320646  0.87271845  0.45830033  1
  Ti  Ti35  1  -0.02296635  0.87018065  0.92612886  1
  Ti  Ti36  1  0.32383883  0.24564980  0.17508295  1
  Ti  Ti37  1  0.37353817  0.16353816  0.56834787  1
  Ti  Ti38  1  0.39644141  0.08195363  0.85621829  1
  Ti  Ti39  1  0.32510105  0.53737470  0.14861340  1
  Ti  Ti40  1  0.33433681  0.47828422  0.55380661  1
  Ti  Ti41  1  0.41136556  0.50139624  0.88587494  1
  Ti  Ti42  1  0.37264245  0.89477442  0.13273918  1
  Ti  Ti43  1  0.31996712  0.78018120  0.55819147  1
  Ti  Ti44  1  0.41370355  0.88527009  0.83392320  1
  Ti  Ti45  1  0.71019749  0.21259392  0.15794573  1
  Ti  Ti46  1  0.60629608  0.14854030  0.43557447  1
  Ti  Ti47  1  0.69944544  0.12762236  0.88190214  1
  Ti  Ti48  1  0.62338883  0.54474683  0.18752333  1
  Ti  Ti49  1  0.64132315  0.56487658  0.54828398  1
  Ti  Ti50  1  0.70933829  0.45523444  0.76918584  1
  Ti  Ti51  1  0.72170940  0.82668011  0.18070289  1
  Ti  Ti52  1  0.54939470  0.80494870  0.46837272  1
  Ti  Ti53  1  0.70224392  0.82815119  0.87965831  1
  Ti  Ti54  1  0.19874526  0.04223773  0.14491706  1
  Ti  Ti55  1  0.17669871  -0.08760839  0.53815837  1
  Ti  Ti56  1  0.16613459  -0.03009006  0.81872480  1
  Ti  Ti57  1  0.15521824  0.36366046  0.25767456  1
  Ti  Ti58  1  0.14117733  0.36934330  0.51538348  1
  Ti  Ti59  1  0.13714215  0.26754500  0.80773703  1
  Ti  Ti60  1  0.15538785  0.67970839  0.09976899  1
  Ti  Ti61  1  0.23241521  0.64770749  0.45379682  1
  Ti  Ti62  1  0.21052368  0.70659619  0.79169160  1
  Ti  Ti63  1  0.53253866  0.05789725  0.11565285  1
  Ti  Ti64  1  0.51681631  0.02989803  0.54257163  1
  Ti  Ti65  1  0.57940736  -0.02302657  0.84274513  1
  Ti  Ti66  1  0.53000324  0.28199573  0.15982107  1
  Ti  Ti67  1  0.49189435  0.30641019  0.47361622  1
  Ti  Ti68  1  0.45242087  0.28939094  0.84119453  1
  Ti  Ti69  1  0.46834230  0.62583914  0.27709085  1
  Ti  Ti70  1  0.44640386  0.62395755  0.47929394  1
  Ti  Ti71  1  0.44590855  0.67453206  0.80889272  1
  Ti  Ti72  1  0.82090978  0.03841286  0.12394122  1
  Ti  Ti73  1  0.84031643  0.00232307  0.54346704  1
  Ti  Ti74  1  0.83120566  -0.04488303  0.80565529  1
  Ti  Ti75  1  0.84500594  0.35917336  0.12558339  1
  Ti  Ti76  1  0.81426119  0.40051657  0.49970836  1
  Ti  Ti77  1  0.88866895  0.33555182  0.92580815  1
  Ti  Ti78  1  0.91639317  0.72431431  0.18019437  1
  Ti  Ti79  1  0.81516254  0.60447715  0.44572175  1
  Ti  Ti80  1  0.78094194  0.63924822  0.84194391  1
  Ti  Ti81  1  0.18222787  0.24843988  0.00805716  1
  Ti  Ti82  1  0.12871491  0.16143049  0.34518977  1
  Ti  Ti83  1  0.18655935  0.09218555  0.63695799  1
  Ti  Ti84  1  0.13111025  0.46714824  -0.09465139  1
  Ti  Ti85  1  0.16725233  0.56087111  0.29906989  1
  Ti  Ti86  1  0.17729123  0.46688224  0.69742598  1
  Ti  Ti87  1  0.12930401  0.77539366  -0.06322032  1
  Ti  Ti88  1  0.16528918  0.81093307  0.36026906  1
  Ti  Ti89  1  0.09255513  0.83969560  0.68039104  1
  Ti  Ti90  1  0.40621210  0.19395885  0.01559655  1
  Ti  Ti91  1  0.46985105  0.14119169  0.29017874  1
  Ti  Ti92  1  0.60703078  0.16120102  0.67537986  1
  Ti  Ti93  1  0.53899109  0.44838320  0.03248466  1
  Ti  Ti94  1  0.51578185  0.43449558  0.30674590  1
  Ti  Ti95  1  0.51061745  0.43240154  0.70700042  1
  Ti  Ti96  1  0.51609486  0.79047785  -0.01743922  1
  Ti  Ti97  1  0.49289533  0.80640823  0.27050267  1
  Ti  Ti98  1  0.52432810  0.88905178  0.65367110  1
  Ti  Ti99  1  0.92620237  0.20021313  0.05771144  1
  Ti  Ti100  1  0.83766058  0.18691106  0.45581507  1
  Ti  Ti101  1  0.78594001  0.25016179  0.66764652  1
  Ti  Ti102  1  0.84826338  0.55390302  0.03165202  1
  Ti  Ti103  1  0.72872053  0.49167767  0.33183362  1
  Ti  Ti104  1  0.83507532  0.55379767  0.62578097  1
  Ti  Ti105  1  0.82385153  0.77110023  0.01582517  1
  Ti  Ti106  1  0.83599492  0.77558827  0.34466449  1
  Ti  Ti107  1  0.78702451  0.83059216  0.52804163  1
  Co  Co108  1  0.81921419  0.93575025  0.97128694  1
  Co  Co109  1  0.40221472  0.91567734  0.54233862  1
  Co  Co110  1  0.84582256  0.93063727  0.37552447  1
  Co  Co111  1  0.08497063  0.13867431  0.07138641  1
  Co  Co112  1  0.02813007  0.76071812  0.79202612  1
  Co  Co113  1  0.44157050  0.89967835  0.39125240  1
  Co  Co114  1  0.42911013  0.29765744  0.30337494  1
  Co  Co115  1  0.68313837  0.09243123  0.04199691  1
  Co  Co116  1  0.87278211  0.20966970  0.21322654  1
  Co  Co117  1  0.14486872  0.51674934  0.14271086  1
  Co  Co118  1  0.83985087  0.08672070  0.29351893  1
  Co  Co119  1  0.47427378  0.95031316  0.98467567  1
  Co  Co120  1  0.64014111  0.40576753  0.43495528  1
  Co  Co121  1  0.21116224  0.19201687  0.49992152  1
  Co  Co122  1  0.33095929  0.57028927  0.33585514  1
  Co  Co123  1  0.41809969  0.73163208  0.12100973  1
  Co  Co124  1  0.73448047  0.96984625  0.25051071  1
  Co  Co125  1  0.26756948  0.38703983  0.82709455  1
  Co  Co126  1  0.77818619  0.69534046  0.61703709  1
  Co  Co127  1  0.96052730  0.47544844  0.94388129  1
  Co  Co128  1  0.06413126  0.41751338  0.37119951  1
  Co  Co129  1  0.77180953  0.22047338  1.00724982  1
  Co  Co130  1  0.42646936  0.05615595  0.41404468  1
  Co  Co131  1  1.02363835  0.57311937  0.05685637  1
  Co  Co132  1  0.56088177  0.40339691  0.87486844  1
  Co  Co133  1  0.84958328  0.09273834  0.94540199  1
  Co  Co134  1  0.15221575  0.94432569  0.98185599  1
  Co  Co135  1  0.08398223  0.75816504  0.50921414  1
  Co  Co136  1  0.74974387  0.81005818  0.72410041  1
  Co  Co137  1  0.59709640  0.27525086  0.32361790  1
  Co  Co138  1  0.28966175  0.88047929  0.43315483  1
  Co  Co139  1  0.04647883  0.63948707  0.21181187  1
  Co  Co140  1  0.88912103  0.60168748  0.30498450  1
  Co  Co141  1  0.73817707  0.04517149  0.40528893  1
  Co  Co142  1  0.89793261  0.67425616  0.73354919  1
  Co  Co143  1  0.45826219  0.97780222  0.24874666  1
  Co  Co144  1  0.17374618  0.26657740  0.64210852  1
  Co  Co145  1  0.91830258  0.70822958  0.50845873  1
  Co  Co146  1  0.88845343  0.43564746  0.35206882  1
  Co  Co147  1  0.58464257  0.71471674  0.15919280  1
  Co  Co148  1  0.47982884  0.58008087  0.11608693  1
  Co  Co149  1  0.04082091  0.41550056  0.77826591  1
  Co  Co150  1  0.38661505  0.42589439  0.40873700  1
  Co  Co151  1  1.00376216  0.94969679  0.77940812  1
  Co  Co152  1  -0.00155587  0.74079413  0.04591326  1
  Co  Co153  1  0.54224978  0.08978498  0.95070225  1
  Co  Co154  1  0.49850507  0.61716537  0.96625981  1
  Co  Co155  1  0.35886100  0.48324538  0.72860132  1
  Co  Co156  1  0.58890889  0.56836525  0.39094584  1
  Co  Co157  1  0.31552440  0.41815147  0.26448962  1
  Co  Co158  1  0.22767137  0.45962980  0.41201508  1
  Co  Co159  1  0.29148181  0.03867333  0.50129314  1
  Co  Co160  1  0.69866919  0.26549127  0.49272215  1
  Co  Co161  1  0.31055391  0.32164675  0.53378516  1
  Ni  Ni162  1  0.71238552  0.46126524  0.07150800  1
  Ni  Ni163  1  0.20509764  0.86849485  0.20897097  1
  Ni  Ni164  1  -0.07380643  0.82462564  0.63715583  1
  Ni  Ni165  1  0.36414252  0.07728931  0.14570704  1
  Ni  Ni166  1  0.68395410  0.52534195  0.92457739  1
  Ni  Ni167  1  0.28783796  0.13478466  0.29455424  1
  Ni  Ni168  1  1.02032362  0.27491403  0.17033248  1
  Ni  Ni169  1  0.25472228  0.85086046  0.72481245  1
  Ni  Ni170  1  0.56662819  0.55111718  0.81207730  1
  Ni  Ni171  1  0.12260464  0.04720813  0.46791063  1
  Ni  Ni172  1  0.66489180  0.37817228  0.20442900  1
  Ni  Ni173  1  0.17973835  0.70151999  0.62264970  1
  Ni  Ni174  1  0.31241788  0.14971556  0.73193318  1
  Ni  Ni175  1  0.93788841  0.28068832  0.78463341  1
  Ni  Ni176  1  0.90208058  0.14508989  0.61526464  1
  Ni  Ni177  1  0.07582247  0.58850385  0.78571237  1
  Ni  Ni178  1  0.71869134  0.11242915  0.56133499  1
  Ni  Ni179  1  0.36626125  0.73910076  0.38307469  1
  Ni  Ni180  1  0.47848280  0.57842443  0.64878181  1
  Ni  Ni181  1  0.40828759  0.38890527  0.12506963  1
  Ni  Ni182  1  0.76263479  0.65543937  0.18541395  1
  Ni  Ni183  1  0.23147512  0.37850615  0.11451302  1
  Ni  Ni184  1  0.59006299  0.22968511  0.01538978  1
  Ni  Ni185  1  1.00344045  0.47978885  0.61641493  1
  Ni  Ni186  1  0.02633257  0.20461291  0.91936532  1
  Ni  Ni187  1  0.61837269  0.68580827  0.88254158  1
  Ni  Ni188  1  0.54276923  0.87706933  0.13138064  1
  Ni  Ni189  1  0.63287485  0.30113108  0.76618887  1
  Ni  Ni190  1  0.40400966  0.78584717  0.69934808  1
  Ni  Ni191  1  0.52815035  0.72421371  0.60819504  1
  Ni  Ni192  1  0.18752519  0.10249250  0.92871309  1
  Ni  Ni193  1  0.84888156  0.39777383  0.67314593  1
  Ni  Ni194  1  0.27754478  0.83300092  0.89880106  1
  Ni  Ni195  1  0.90935862  0.89269635  0.10672530  1
  Ni  Ni196  1  0.29946271  0.22788476  0.88028469  1
  Ni  Ni197  1  0.77382455  0.09473693  0.72252328  1
  Ni  Ni198  1  0.96675661  0.34509900  0.47923242  1
  Ni  Ni199  1  1.01246013  0.84428934  0.27631856  1
  Ni  Ni200  1  0.04883797  0.16182165  0.69461937  1
  Ni  Ni201  1  0.68592051  0.70780265  0.47691909  1
  Ni  Ni202  1  0.16491141  0.20362062  0.19301893  1
  Ni  Ni203  1  0.65803142  0.94680164  0.51085757  1
  Ni  Ni204  1  0.56400160  0.80161246  0.78179134  1
  Ni  Ni205  1  0.26002557  0.55842184  0.83656813  1
  Ni  Ni206  1  0.22869195  0.55442107  0.00361296  1
  Ni  Ni207  1  0.81814883  0.50286937  0.19361833  1
  Ni  Ni208  1  0.15396177  0.54207014  0.54991306  1
  Ni  Ni209  1  0.11201211  0.98319029  0.30034239  1
  Ni  Ni210  1  0.50928539  0.46721929  0.51956202  1
  Ni  Ni211  1  0.64458644  0.11392655  0.27054100  1
  Ni  Ni212  1  0.49303984  0.27734032  0.65442390  1
  Ni  Ni213  1  0.48785212  0.05508891  0.71588833  1
  Ni  Ni214  1  0.24839706  0.81842514  0.05952078  1
  Ni  Ni215  1  0.86581451  0.79079153  0.84212622  1
