# generated using pymatgen
data_Ti2CoNi
_symmetry_space_group_name_H-M   'P 1'
_cell_length_a   14.58667412
_cell_length_b   14.61065847
_cell_length_c   14.59568644
_cell_angle_alpha   90.13765415
_cell_angle_beta   89.86457521
_cell_angle_gamma   89.73542274
_symmetry_Int_Tables_number   1
_chemical_formula_structural   Ti2CoNi
_chemical_formula_sum   'Ti108 Co54 Ni54'
_cell_volume   3110.59511869
_cell_formula_units_Z   54
loop_
 _symmetry_equiv_pos_site_id
 _symmetry_equiv_pos_as_xyz
  1  'x, y, z'
loop_
 _atom_site_type_symbol
 _atom_site_label
 _atom_site_symmetry_multiplicity
 _atom_site_fract_x
 _atom_site_fract_y
 _atom_site_fract_z
 _atom_site_occupancy
  Ti  Ti0  1  0.01736676  -0.04374699  0.01565170  1
  Ti  Ti1  1  -0.01741844  -0.00379481  0.33711608  1
  Ti  Ti2  1  -0.01723061  0.02933065  0.61849519  1
  Ti  Ti3  1  0.00894814  0.29655907  -0.05256908  1
  Ti  Ti4  1  -0.10806618  0.33199746  0.37013854  1
  Ti  Ti5  1  0.03344312  0.25624171  0.67046005  1
  Ti  Ti6  1  0.02302939  0.71261072  -0.07160195  1
  Ti  Ti7  1  -0.07109222  0.68070383  0.37789591  1
  Ti  Ti8  1  -0.01888551  0.72152890  0.71029669  1
  Ti  Ti9  1  0.24148343  -0.00050652  0.05241919  1
  Ti  Ti10  1  0.31655853  -0.02679681  0.36409152  1
  Ti  Ti11  1  0.39822189  0.02439510  0.62146586  1
  Ti  Ti12  1  0.35894946  0.30740890  -0.02002137  1
  Ti  Ti13  1  0.37138327  0.31207756  0.38516546  1
  Ti  Ti14  1  0.38118333  0.29840438  0.58155287  1
  Ti  Ti15  1  0.35839855  0.67210639  -0.01299028  1
  Ti  Ti16  1  0.38661274  0.68466724  0.35857490  1
  Ti  Ti17  1  0.32510524  0.65563694  0.64260038  1
  Ti  Ti18  1  0.63087075  -0.03019317  0.04420482  1
  Ti  Ti19  1  0.68165775  0.07004198  0.38248650  1
  Ti  Ti20  1  0.72621622  0.02786357  0.73751106  1
  Ti  Ti21  1  0.70282165  0.35844826  0.06788994  1
  Ti  Ti22  1  0.70445063  0.35556142  0.29135049  1
  Ti  Ti23  1  0.71923535  0.32077068  0.71873655  1
  Ti  Ti24  1  0.63039655  0.61019406  0.04263454  1
  Ti  Ti25  1  0.64345266  0.61490462  0.28094051  1
  Ti  Ti26  1  0.65479033  0.73278286  0.71846298  1
  Ti  Ti27  1  0.00748922  0.23520454  0.14139656  1
  Ti  Ti28  1  0.04750933  0.21635662  0.45116337  1
  Ti  Ti29  1  -0.05291805  0.14432608  0.83103366  1
  Ti  Ti30  1  -0.01954351  0.55711269  0.19009515  1
  Ti  Ti31  1  -0.01893018  0.51470130  0.50417553  1
  Ti  Ti32  1  0.02622250  0.45072738  0.79374601  1
  Ti  Ti33  1  0.05455754  0.83400692  0.25796812  1
  Ti  Ti34  1  -0.01443353  0.83820053  0.53856154  1
  Ti  Ti35  1  -0.03765321  0.87549987  0.82221115  1
  Ti  Ti36  1  0.37030766  0.14451579  0.11681199  1
  Ti  Ti37  1  0.38583615  0.13169915  0.43913706  1
  Ti  Ti38  1  0.29465930  0.19007569  0.83409310  1
  Ti  Ti39  1  0.29145399  0.52240483  0.13888925  1
  Ti  Ti40  1  0.27024134  0.52825525  0.48282345  1
  Ti  Ti41  1  0.33063963  0.49142298  0.92113713  1
  Ti  Ti42  1  0.34737067  0.82575251  0.10469396  1
  Ti  Ti43  1  0.32703261  0.84544405  0.57473423  1
  Ti  Ti44  1  0.23992513  0.89623732  0.76102800  1
  Ti  Ti45  1  0.66098964  0.16139928  0.09256590  1
  Ti  Ti46  1  0.65011835  0.14992047  0.60502561  1
  Ti  Ti47  1  0.60092227  0.15798137  0.79671089  1
  Ti  Ti48  1  0.55964913  0.46013964  0.16727942  1
  Ti  Ti49  1  0.65394763  0.55041757  0.47736778  1
  Ti  Ti50  1  0.59920292  0.53703538  0.79451803  1
  Ti  Ti51  1  0.70222448  0.81836308  0.12024415  1
  Ti  Ti52  1  0.63328182  0.82405502  0.52056459  1
  Ti  Ti53  1  0.62447352  0.91248570  0.84959881  1
  Ti  Ti54  1  0.09449659  0.02754679  0.18655860  1
  Ti  Ti55  1  0.14442069  0.04261465  0.47719190  1
  Ti  Ti56  1  0.16079131  0.06685360  0.88967663  1
  Ti  Ti57  1  0.13779276  0.37873802  0.15619249  1
  Ti  Ti58  1  0.19295733  0.35158967  0.42040566  1
  Ti  Ti59  1  0.18298342  0.34412646  0.83952623  1
  Ti  Ti60  1  0.14928328  0.67053613  0.15545372  1
  Ti  Ti61  1  0.11734075  0.65017638  0.47049179  1
  Ti  Ti62  1  0.21984407  0.67117634  0.83911828  1
  Ti  Ti63  1  0.45030281  -0.02735820  0.19306291  1
  Ti  Ti64  1  0.55018029  0.01867307  0.50089844  1
  Ti  Ti65  1  0.43986168  0.01972447  0.82589490  1
  Ti  Ti66  1  0.43741700  0.29626207  0.21059829  1
  Ti  Ti67  1  0.58663482  0.32298197  0.49163567  1
  Ti  Ti68  1  0.54309484  0.34984369  0.80894627  1
  Ti  Ti69  1  0.49412994  0.70934792  0.19475219  1
  Ti  Ti70  1  0.45688680  0.58996859  0.50974327  1
  Ti  Ti71  1  0.52186382  0.70091134  0.85425553  1
  Ti  Ti72  1  0.77618196  0.00781543  0.22391848  1
  Ti  Ti73  1  0.82398503  -0.05409868  0.45685707  1
  Ti  Ti74  1  0.82806637  -0.00282267  0.90288419  1
  Ti  Ti75  1  0.82737367  0.22876976  0.17672195  1
  Ti  Ti76  1  0.87331276  0.35320654  0.57828636  1
  Ti  Ti77  1  0.80344296  0.36356780  0.88462410  1
  Ti  Ti78  1  0.79783594  0.65634553  0.17226610  1
  Ti  Ti79  1  0.78448188  0.71265064  0.56162955  1
  Ti  Ti80  1  0.81400683  0.66238213  0.76603867  1
  Ti  Ti81  1  0.19004464  0.22904563  0.00992984  1
  Ti  Ti82  1  0.23985840  0.20387613  0.25635821  1
  Ti  Ti83  1  0.15354962  0.11290546  0.68324317  1
  Ti  Ti84  1  0.07592334  0.52656066  -0.00998487  1
  Ti  Ti85  1  0.13788696  0.49989612  0.29880405  1
  Ti  Ti86  1  0.23272551  0.50453124  0.72510766  1
  Ti  Ti87  1  0.18114172  0.79560200  0.01035047  1
  Ti  Ti88  1  0.22446270  0.78526317  0.32694939  1
  Ti  Ti89  1  0.15451078  0.74893782  0.62407291  1
  Ti  Ti90  1  0.51510291  0.10560597  -0.01723346  1
  Ti  Ti91  1  0.55050916  0.20652774  0.34691181  1
  Ti  Ti92  1  0.43796244  0.18974178  0.71437535  1
  Ti  Ti93  1  0.51957028  0.41936339  -0.01819772  1
  Ti  Ti94  1  0.52753264  0.44475403  0.35151663  1
  Ti  Ti95  1  0.53098758  0.45831311  0.63119034  1
  Ti  Ti96  1  0.46759977  0.86067657  -0.05530273  1
  Ti  Ti97  1  0.49980842  0.85812565  0.37806415  1
  Ti  Ti98  1  0.48454677  0.80128946  0.69258501  1
  Ti  Ti99  1  0.80545001  0.19076501  -0.02496247  1
  Ti  Ti100  1  0.86467321  0.14747432  0.34561681  1
  Ti  Ti101  1  0.84609039  0.16454415  0.65431764  1
  Ti  Ti102  1  0.82315976  0.52185653  0.03341962  1
  Ti  Ti103  1  0.83434285  0.50705153  0.31165889  1
  Ti  Ti104  1  0.81918169  0.52249454  0.61368535  1
  Ti  Ti105  1  0.88663528  0.81963199  0.04551308  1
  Ti  Ti106  1  0.78326245  0.82096432  0.29351444  1
  Ti  Ti107  1  0.82035394  0.87292134  0.64688277  1
  Co  Co108  1  0.33667256  0.11512951  0.96419872  1
  Co  Co109  1  0.86930030  0.32653112  0.03400601  1
  Co  Co110  1  0.07491515  0.60568479  0.81082494  1
  Co  Co111  1  0.09878006  0.57503391  0.64377051  1
  Co  Co112  1  0.99792214  0.42557475  0.63867687  1
  Co  Co113  1  0.10263369  0.20405748  0.82710841  1
  Co  Co114  1  0.66502244  0.91078553  0.38355626  1
  Co  Co115  1  0.29914400  0.97410068  0.89714148  1
  Co  Co116  1  0.27797479  0.70254679  0.49007953  1
  Co  Co117  1  0.29686698  0.05819135  0.74248097  1
  Co  Co118  1  0.45047701  0.56868665  0.09395269  1
  Co  Co119  1  0.48679221  0.89798787  0.56665575  1
  Co  Co120  1  0.41852408  -0.01738703  0.02976926  1
  Co  Co121  1  0.62012318  0.78821158  0.27414794  1
  Co  Co122  1  0.26134077  0.03511362  0.22138690  1
  Co  Co123  1  0.56525466  0.29107146  0.65525597  1
  Co  Co124  1  0.12032469  0.11009227  0.32537248  1
  Co  Co125  1  0.40594361  0.41303288  0.10030607  1
  Co  Co126  1  0.94269079  0.64964499  0.06194821  1
  Co  Co127  1  0.78097366  0.69374014  0.01192647  1
  Co  Co128  1  0.53675651  0.85342104  0.11079207  1
  Co  Co129  1  0.23064924  0.18827782  0.42147526  1
  Co  Co130  1  0.87081895  0.75334206  0.88315719  1
  Co  Co131  1  0.39676773  0.12764986  0.27911546  1
  Co  Co132  1  0.62695274  0.78436829  0.97066406  1
  Co  Co133  1  0.26073332  0.39416831  0.56810337  1
  Co  Co134  1  0.78865431  0.10634871  0.50228678  1
  Co  Co135  1  0.59967465  0.28413469  0.19696114  1
  Co  Co136  1  0.76020503  0.86532590  0.95811493  1
  Co  Co137  1  0.67440594  0.58075025  0.65554519  1
  Co  Co138  1  0.68680137  0.41977222  0.59820117  1
  Co  Co139  1  0.14482617  0.37950311  0.67305360  1
  Co  Co140  1  0.95174986  0.06767408  0.47297265  1
  Co  Co141  1  0.25380950  0.25954010  0.69436190  1
  Co  Co142  1  0.07825386  0.79810173  0.41715962  1
  Co  Co143  1  0.77576976  0.85403622  0.79107740  1
  Co  Co144  1  0.94446139  0.56284155  0.70316651  1
  Co  Co145  1  0.72950981  0.23909671  0.40299953  1
  Co  Co146  1  0.16648954  0.25300222  0.55965504  1
  Co  Co147  1  0.37128070  0.49622342  0.63467832  1
  Co  Co148  1  0.43504156  0.46834138  0.78801573  1
  Co  Co149  1  0.73901748  0.27090809  0.55447909  1
  Co  Co150  1  0.89742389  0.21654979  0.50364944  1
  Co  Co151  1  0.70080174  0.16841855  0.25490218  1
  Co  Co152  1  0.32386657  0.67817208  0.18685208  1
  Co  Co153  1  0.49270312  0.62081330  0.68802624  1
  Co  Co154  1  0.88396510  1.00258069  0.74632810  1
  Co  Co155  1  0.54719721  0.03099004  0.69745996  1
  Co  Co156  1  0.50236952  0.71418861  0.03403194  1
  Co  Co157  1  0.37466512  0.61022171  0.81003082  1
  Co  Co158  1  0.59134501  0.67719982  0.56511646  1
  Co  Co159  1  0.15552925  0.94745150  0.32999685  1
  Co  Co160  1  0.48633293  0.56513187  0.93169504  1
  Co  Co161  1  0.62605298  0.94865301  0.22686265  1
  Ni  Ni162  1  0.49849403  0.17562814  0.55065490  1
  Ni  Ni163  1  0.81969873  0.58293936  0.45613435  1
  Ni  Ni164  1  0.19281898  0.87510455  0.16804172  1
  Ni  Ni165  1  0.04241964  0.79894718  0.09693376  1
  Ni  Ni166  1  0.75859168  0.41445909  0.44669526  1
  Ni  Ni167  1  0.98652329  0.39480701  0.24396360  1
  Ni  Ni168  1  0.04815855  0.01475170  0.78274037  1
  Ni  Ni169  1  0.08871316  0.11057683  0.04386465  1
  Ni  Ni170  1  0.92285113  0.91111613  0.18010541  1
  Ni  Ni171  1  0.07378747  0.66363021  0.30038394  1
  Ni  Ni172  1  0.37019886  0.83373952  0.26765594  1
  Ni  Ni173  1  0.28369266  0.13814717  0.57569199  1
  Ni  Ni174  1  0.08908436  0.90244890  0.66069604  1
  Ni  Ni175  1  -0.01140627  0.41632659  0.08441036  1
  Ni  Ni176  1  0.44694318  0.55556295  0.25929044  1
  Ni  Ni177  1  0.83953656  0.39821308  0.17888973  1
  Ni  Ni178  1  0.28159970  0.39893966  0.26788738  1
  Ni  Ni179  1  0.70345612  0.62436445  0.88795848  1
  Ni  Ni180  1  0.94424186  0.66655632  0.55954516  1
  Ni  Ni181  1  0.42471394  0.43054635  0.48594240  1
  Ni  Ni182  1  0.20000183  0.87844351  0.47771312  1
  Ni  Ni183  1  0.51677952  0.26456043  0.05690898  1
  Ni  Ni184  1  0.71297071  0.71672459  0.40535246  1
  Ni  Ni185  1  0.08468792  0.27483233  0.29482508  1
  Ni  Ni186  1  0.22899360  0.97955174  0.60661884  1
  Ni  Ni187  1  0.93077892  0.73841526  0.21093997  1
  Ni  Ni188  1  0.46438984  0.22592928  0.88603249  1
  Ni  Ni189  1  0.28344952  0.31017167  0.12764898  1
  Ni  Ni190  1  0.44751581  0.75220174  0.51595876  1
  Ni  Ni191  1  0.20853184  0.61570466  0.00883879  1
  Ni  Ni192  1  0.64439948  0.26701308  0.93141940  1
  Ni  Ni193  1  0.03765514  0.40670058  0.39755750  1
  Ni  Ni194  1  0.54746737  0.11098738  0.19864664  1
  Ni  Ni195  1  0.93541549  0.10703409  1.00825423  1
  Ni  Ni196  1  0.63371799  0.89374570  0.67920971  1
  Ni  Ni197  1  0.81105342  0.00805387  0.06679370  1
  Ni  Ni198  1  0.12931809  0.90321703  0.89763306  1
  Ni  Ni199  1  0.67523655  0.46231207  0.92963604  1
  Ni  Ni200  1  0.20519909  0.40929673  1.00221781  1
  Ni  Ni201  1  0.92740918  0.08138083  0.17405339  1
  Ni  Ni202  1  0.35060633  0.76685021  0.77352670  1
  Ni  Ni203  1  0.68099310  0.08458861  0.91986169  1
  Ni  Ni204  1  0.76316332  0.48978908  0.77655565  1
  Ni  Ni205  1  0.70290325  0.98451482  0.56434742  1
  Ni  Ni206  1  0.92390634  0.84343712  0.37130667  1
  Ni  Ni207  1  0.23755414  0.61992143  0.33555811  1
  Ni  Ni208  1  0.54949594  0.68275848  0.39708388  1
  Ni  Ni209  1  0.51440933  0.02565043  0.34144127  1
  Ni  Ni210  1  0.11078723  0.78403149  0.78962007  1
  Ni  Ni211  1  0.71880889  0.50614582  0.17579295  1
  Ni  Ni212  1  0.30941893  0.82156958  0.91819694  1
  Ni  Ni213  1  0.89474008  0.30566613  0.75645431  1
  Ni  Ni214  1  0.93429603  0.45744900  0.93451750  1
  Ni  Ni215  1  0.77096765  0.18632874  0.81188970  1
