# generated using pymatgen
data_Ti2CoNi
_symmetry_space_group_name_H-M   'P 1'
_cell_length_a   14.56590698
_cell_length_b   14.60846617
_cell_length_c   14.64444471
_cell_angle_alpha   90.28507308
_cell_angle_beta   90.24062506
_cell_angle_gamma   90.29279156
_symmetry_Int_Tables_number   1
_chemical_formula_structural   Ti2CoNi
_chemical_formula_sum   'Ti108 Co54 Ni54'
_cell_volume   3116.01928617
_cell_formula_units_Z   54
loop_
 _symmetry_equiv_pos_site_id
 _symmetry_equiv_pos_as_xyz
  1  'x, y, z'
loop_
 _atom_site_type_symbol
 _atom_site_label
 _atom_site_symmetry_multiplicity
 _atom_site_fract_x
 _atom_site_fract_y
 _atom_site_fract_z
 _atom_site_occupancy
  Ti  Ti0  1  0.02843164  -0.03550108  0.00373829  1
  Ti  Ti1  1  0.04019215  0.04743037  0.32536836  1
  Ti  Ti2  1  -0.08088657  0.00514508  0.64597064  1
  Ti  Ti3  1  0.03509377  0.31377674  -0.04341831  1
  Ti  Ti4  1  0.01315589  0.26889387  0.38325180  1
  Ti  Ti5  1  -0.04143424  0.38010245  0.70198624  1
  Ti  Ti6  1  -0.00329571  0.64424246  0.03704191  1
  Ti  Ti7  1  0.08720155  0.63295550  0.32382212  1
  Ti  Ti8  1  -0.07612729  0.67960450  0.71399693  1
  Ti  Ti9  1  0.29165134  0.00168767  -0.01846915  1
  Ti  Ti10  1  0.33252151  0.04045585  0.41882624  1
  Ti  Ti11  1  0.27514959  -0.03391415  0.69565454  1
  Ti  Ti12  1  0.29237459  0.27202095  -0.00154663  1
  Ti  Ti13  1  0.32256173  0.29642134  0.28688444  1
  Ti  Ti14  1  0.29447223  0.23935549  0.65999794  1
  Ti  Ti15  1  0.34166554  0.60124675  0.06130590  1
  Ti  Ti16  1  0.39020712  0.66150013  0.41823230  1
  Ti  Ti17  1  0.27458657  0.65112125  0.60372019  1
  Ti  Ti18  1  0.64618356  -0.01179015  0.03808295  1
  Ti  Ti19  1  0.70173103  0.05662268  0.28062619  1
  Ti  Ti20  1  0.70568018  0.05137416  0.63973060  1
  Ti  Ti21  1  0.63915316  0.32831861  -0.04815528  1
  Ti  Ti22  1  0.66408613  0.30941988  0.25230940  1
  Ti  Ti23  1  0.69679286  0.31741446  0.61792493  1
  Ti  Ti24  1  0.67365273  0.66909228  0.05822204  1
  Ti  Ti25  1  0.64700642  0.63999871  0.28551737  1
  Ti  Ti26  1  0.67761801  0.68824846  0.73309524  1
  Ti  Ti27  1  -0.04006527  0.20042382  0.21183301  1
  Ti  Ti28  1  0.00504660  0.12359134  0.50931989  1
  Ti  Ti29  1  -0.09415805  0.19422275  0.84543486  1
  Ti  Ti30  1  -0.06218699  0.50784505  0.16389482  1
  Ti  Ti31  1  -0.02803398  0.53116925  0.57135489  1
  Ti  Ti32  1  0.03767517  0.56021092  0.86487864  1
  Ti  Ti33  1  -0.09167230  0.82868597  0.12200551  1
  Ti  Ti34  1  -0.01285513  0.83808193  0.55933849  1
  Ti  Ti35  1  0.03421286  0.78124779  0.86045385  1
  Ti  Ti36  1  0.37110481  0.11927603  0.13347223  1
  Ti  Ti37  1  0.29076571  0.24079667  0.46672546  1
  Ti  Ti38  1  0.37279301  0.13687270  0.88496666  1
  Ti  Ti39  1  0.37318183  0.46846771  0.20942775  1
  Ti  Ti40  1  0.31622151  0.42933292  0.54991418  1
  Ti  Ti41  1  0.38440747  0.50280430  0.88453627  1
  Ti  Ti42  1  0.36081754  0.86324625  0.13030563  1
  Ti  Ti43  1  0.36292336  0.83987451  0.51794247  1
  Ti  Ti44  1  0.34718687  0.80944000  0.83244037  1
  Ti  Ti45  1  0.69395218  0.16564542  0.10131746  1
  Ti  Ti46  1  0.57560671  0.15627765  0.51486265  1
  Ti  Ti47  1  0.67822292  0.20229164  0.77589179  1
  Ti  Ti48  1  0.72162788  0.50358868  0.17184387  1
  Ti  Ti49  1  0.61430033  0.58801256  0.57127060  1
  Ti  Ti50  1  0.57327250  0.48160752  0.84738790  1
  Ti  Ti51  1  0.62836103  0.83850691  0.25383426  1
  Ti  Ti52  1  0.67288499  0.77089157  0.46980436  1
  Ti  Ti53  1  0.67248603  0.87654817  0.78861159  1
  Ti  Ti54  1  0.20567014  -0.02022906  0.23805622  1
  Ti  Ti55  1  0.14497622  -0.01634967  0.48849930  1
  Ti  Ti56  1  0.14877392  0.01734448  0.83703532  1
  Ti  Ti57  1  0.16942986  0.37291105  0.16683233  1
  Ti  Ti58  1  0.09758046  0.38422176  0.52275002  1
  Ti  Ti59  1  0.10268042  0.23333222  0.78501445  1
  Ti  Ti60  1  0.15709877  0.65137398  0.13266445  1
  Ti  Ti61  1  0.09369916  0.65760679  0.51566143  1
  Ti  Ti62  1  0.19687745  0.67721645  0.79547259  1
  Ti  Ti63  1  0.53325423  0.01384163  0.20059999  1
  Ti  Ti64  1  0.54269058  -0.04871535  0.51341452  1
  Ti  Ti65  1  0.50707546  0.00240200  0.87841645  1
  Ti  Ti66  1  0.43591058  0.29832997  0.13291460  1
  Ti  Ti67  1  0.57778487  0.32837069  0.44123706  1
  Ti  Ti68  1  0.40587693  0.32165771  0.82726911  1
  Ti  Ti69  1  0.51019202  0.67418030  0.14251639  1
  Ti  Ti70  1  0.47900251  0.71312873  0.60899961  1
  Ti  Ti71  1  0.49431614  0.68162075  0.81694693  1
  Ti  Ti72  1  0.87247396  0.03462714  0.14362531  1
  Ti  Ti73  1  0.80498028  -0.08217769  0.41336227  1
  Ti  Ti74  1  0.88894361  -0.04513587  0.84467375  1
  Ti  Ti75  1  0.84612364  0.35412988  0.24024893  1
  Ti  Ti76  1  0.76739060  0.33088727  0.42770610  1
  Ti  Ti77  1  0.77522787  0.37730504  0.79947151  1
  Ti  Ti78  1  0.88381261  0.67024873  0.25950940  1
  Ti  Ti79  1  0.77886432  0.59166687  0.45624116  1
  Ti  Ti80  1  0.84194130  0.65973490  0.88929750  1
  Ti  Ti81  1  0.15910167  0.11657015  0.05664840  1
  Ti  Ti82  1  0.14276491  0.19535214  0.25625622  1
  Ti  Ti83  1  0.12412196  0.09301090  0.65231746  1
  Ti  Ti84  1  0.19767185  0.44250037  -0.05498430  1
  Ti  Ti85  1  0.23404027  0.47409536  0.34400833  1
  Ti  Ti86  1  0.22372295  0.49400519  0.75192327  1
  Ti  Ti87  1  0.24257972  0.76660292  -0.00125508  1
  Ti  Ti88  1  0.12147549  0.82582089  0.34920655  1
  Ti  Ti89  1  0.18231849  0.82753604  0.57552075  1
  Ti  Ti90  1  0.52251345  0.16771927  0.02117955  1
  Ti  Ti91  1  0.47059068  0.17868682  0.34234853  1
  Ti  Ti92  1  0.49138302  0.19410937  0.69681307  1
  Ti  Ti93  1  0.49032812  0.48015732  0.06024407  1
  Ti  Ti94  1  0.49983637  0.49801420  0.40298668  1
  Ti  Ti95  1  0.51273003  0.41015774  0.61907899  1
  Ti  Ti96  1  0.55283012  0.81206602  -0.05489526  1
  Ti  Ti97  1  0.44121556  0.88584083  0.33952360  1
  Ti  Ti98  1  0.48551430  0.89352264  0.70673668  1
  Ti  Ti99  1  0.85936163  0.24278229  0.05536395  1
  Ti  Ti100  1  0.84393460  0.17002395  0.40170561  1
  Ti  Ti101  1  0.85167651  0.19114096  0.64531448  1
  Ti  Ti102  1  0.78786419  0.50782131  -0.03231326  1
  Ti  Ti103  1  0.91710440  0.43514618  0.40520432  1
  Ti  Ti104  1  0.79429247  0.54056582  0.66898185  1
  Ti  Ti105  1  0.75175810  0.82836380  -0.01624539  1
  Ti  Ti106  1  0.94069751  0.85861155  0.30107696  1
  Ti  Ti107  1  0.80823074  0.83694703  0.64922822  1
  Co  Co108  1  0.76880682  0.24309545  0.91820165  1
  Co  Co109  1  0.85858487  0.95115787  0.00442184  1
  Co  Co110  1  0.49984677  0.74420655  0.29623131  1
  Co  Co111  1  0.47400959  0.33357134  0.97141440  1
  Co  Co112  1  0.65326713  0.12384836  0.92818297  1
  Co  Co113  1  0.61373383  1.04646354  0.77982541  1
  Co  Co114  1  0.07692366  0.25202521  0.10159414  1
  Co  Co115  1  0.79713438  0.18897297  0.23477555  1
  Co  Co116  1  0.96765217  0.12764554  1.04505859  1
  Co  Co117  1  0.62279898  0.92696169  0.37579059  1
  Co  Co118  1  0.40809293  0.05431413  0.74065810  1
  Co  Co119  1  0.26185348  0.08964342  0.56700294  1
  Co  Co120  1  1.03198443  0.74045930  0.19893639  1
  Co  Co121  1  0.51263128  0.79352059  0.45349432  1
  Co  Co122  1  0.53378901  0.05051489  0.64365984  1
  Co  Co123  1  0.90899678  0.68398000  0.55178296  1
  Co  Co124  1  0.84352295  0.04506840  0.51190792  1
  Co  Co125  1  0.66768945  0.19765266  0.37050993  1
  Co  Co126  1  0.71501466  0.55119769  0.81933644  1
  Co  Co127  1  0.25751398  0.23053193  0.14771507  1
  Co  Co128  1  0.08520772  0.93846161  0.66766309  1
  Co  Co129  1  0.43658912  0.60085071  0.27331777  1
  Co  Co130  1  0.22473880  0.50453382  0.10304160  1
  Co  Co131  1  0.09931361  0.51589365  0.21351864  1
  Co  Co132  1  0.17552022  0.94234210  0.07427065  1
  Co  Co133  1  0.26595448  0.59366149  0.24358558  1
  Co  Co134  1  0.71857490  0.97577003  0.89825869  1
  Co  Co135  1  0.06973384  0.47580511  0.38432601  1
  Co  Co136  1  0.51541194  0.61853827  0.96417621  1
  Co  Co137  1  0.05487750  0.06327010  0.16465826  1
  Co  Co138  1  0.96497962  0.85140621  0.72986528  1
  Co  Co139  1  0.07555682  0.48953952  0.04451360  1
  Co  Co140  1  0.94780891  0.59771015  0.41240683  1
  Co  Co141  1  0.42482087  0.55832353  0.55976055  1
  Co  Co142  1  0.94117830  0.47194260  0.96952564  1
  Co  Co143  1  0.39216683  0.98091688  0.58397588  1
  Co  Co144  1  0.73752399  0.18768047  0.52652556  1
  Co  Co145  1  1.02453149  0.36658902  0.25164947  1
  Co  Co146  1  0.32891882  0.64942928  0.89273759  1
  Co  Co147  1  0.34162921  0.42056386  0.03164014  1
  Co  Co148  1  0.26099040  0.12416612  0.76561089  1
  Co  Co149  1  0.80691468  0.09610184  -0.02139166  1
  Co  Co150  1  -0.01481514  0.75676449  0.41679335  1
  Co  Co151  1  0.56209151  0.50687012  0.21526141  1
  Co  Co152  1  0.69272734  0.05239332  0.44371429  1
  Co  Co153  1  0.65800381  0.46036603  0.69391585  1
  Co  Co154  1  0.82766356  0.80183732  0.81280502  1
  Co  Co155  1  0.52870856  0.20150367  0.86126033  1
  Co  Co156  1  0.17580206  0.60701177  0.95916241  1
  Co  Co157  1  0.75718600  0.69171558  0.59369805  1
  Co  Co158  1  0.56742580  0.64493283  0.42491108  1
  Co  Co159  1  0.41805960  0.12637984  0.52819472  1
  Co  Co160  1  0.14776700  0.22817702  0.55184043  1
  Co  Co161  1  0.95666977  0.36468614  0.09674891  1
  Ni  Ni162  1  0.40731068  0.36193913  0.41240951  1
  Ni  Ni163  1  0.36341120  0.61064324  0.73279065  1
  Ni  Ni164  1  0.05803583  0.90248226  0.18884509  1
  Ni  Ni165  1  0.88313200  0.50787203  0.81478878  1
  Ni  Ni166  1  0.71250636  0.92414205  0.54382448  1
  Ni  Ni167  1  0.23925008  0.32406015  0.81572466  1
  Ni  Ni168  1  0.93245512  0.29746072  0.52691442  1
  Ni  Ni169  1  0.68123911  0.45051283  0.51790015  1
  Ni  Ni170  1  0.32886484  0.79174708  0.67530822  1
  Ni  Ni171  1  0.52124075  0.56074001  0.70743754  1
  Ni  Ni172  1  0.07949335  0.73467536  0.67636346  1
  Ni  Ni173  1  0.75756433  0.76570626  0.16758055  1
  Ni  Ni174  1  0.54963506  0.18854106  0.19938597  1
  Ni  Ni175  1  0.77131422  0.76701736  0.33154126  1
  Ni  Ni176  1  0.78916021  0.08337338  0.79434779  1
  Ni  Ni177  1  0.17309617  0.35675286  0.66630376  1
  Ni  Ni178  1  0.16593909  0.87682901  0.91816830  1
  Ni  Ni179  1  0.23500509  0.72661388  0.44004675  1
  Ni  Ni180  1  0.66551051  0.46071208  0.35045652  1
  Ni  Ni181  1  0.76923522  0.38073719  0.07079252  1
  Ni  Ni182  1  0.19767329  0.81406421  0.16744124  1
  Ni  Ni183  1  0.91614142  0.79037141  0.96571314  1
  Ni  Ni184  1  0.20351270  0.17450783  0.90554494  1
  Ni  Ni185  1  0.57749039  0.33339875  0.76395925  1
  Ni  Ni186  1  0.29338960  0.13101153  0.28693384  1
  Ni  Ni187  1  0.04787690  0.12705800  0.91654722  1
  Ni  Ni188  1  0.66742672  0.70119517  0.89197476  1
  Ni  Ni189  1  0.60030089  0.36147976  0.11335376  1
  Ni  Ni190  1  0.26440240  0.88884517  0.39370269  1
  Ni  Ni191  1  0.16694911  0.13568266  0.41608388  1
  Ni  Ni192  1  0.87544534  0.03643765  0.31609494  1
  Ni  Ni193  1  0.61717418  0.81645261  0.62750463  1
  Ni  Ni194  1  0.50395642  0.35745353  0.27687887  1
  Ni  Ni195  1  0.60998723  0.83312818  0.09518531  1
  Ni  Ni196  1  0.43883916  0.28179034  0.54992451  1
  Ni  Ni197  1  0.07499223  0.80118063  0.04164929  1
  Ni  Ni198  1  1.01008789  0.22598910  0.65315047  1
  Ni  Ni199  1  0.08420263  0.40485585  0.80595191  1
  Ni  Ni200  1  0.40071839  0.88661732  0.96130905  1
  Ni  Ni201  1  0.84045053  0.41977356  0.57334030  1
  Ni  Ni202  1  0.46049199  0.00451306  0.04875690  1
  Ni  Ni203  1  0.37881012  0.44100399  0.71416359  1
  Ni  Ni204  1  0.23284997  0.56037062  0.47692883  1
  Ni  Ni205  1  0.79111363  0.91346865  0.23820225  1
  Ni  Ni206  1  0.81600640  0.52434486  0.30752515  1
  Ni  Ni207  1  0.16655733  0.32454103  0.36913782  1
  Ni  Ni208  1  0.63742680  0.50953476  0.02322912  1
  Ni  Ni209  1  0.41328216  0.73680170  0.00766989  1
  Ni  Ni210  1  0.37364471  0.99538535  0.24206603  1
  Ni  Ni211  1  0.17962367  0.84160768  0.76190967  1
  Ni  Ni212  1  0.07809792  0.56883184  0.70025784  1
  Ni  Ni213  1  0.83941086  0.64577082  0.08475804  1
  Ni  Ni214  1  0.97391517  0.95066869  0.44244009  1
  Ni  Ni215  1  0.00046146  0.07343366  0.77014022  1
