# generated using pymatgen
data_Ti2CoNi
_symmetry_space_group_name_H-M   'P 1'
_cell_length_a   14.52937338
_cell_length_b   14.53714466
_cell_length_c   14.49149754
_cell_angle_alpha   89.48006509
_cell_angle_beta   90.27156312
_cell_angle_gamma   89.64761184
_symmetry_Int_Tables_number   1
_chemical_formula_structural   Ti2CoNi
_chemical_formula_sum   'Ti108 Co54 Ni54'
_cell_volume   3060.61127774
_cell_formula_units_Z   54
loop_
 _symmetry_equiv_pos_site_id
 _symmetry_equiv_pos_as_xyz
  1  'x, y, z'
loop_
 _atom_site_type_symbol
 _atom_site_label
 _atom_site_symmetry_multiplicity
 _atom_site_fract_x
 _atom_site_fract_y
 _atom_site_fract_z
 _atom_site_occupancy
  Ti  Ti0  1  -0.01661975  0.06038375  -0.04079654  1
  Ti  Ti1  1  0.03669717  -0.00544090  0.27033848  1
  Ti  Ti2  1  0.01082241  -0.05812228  0.77707409  1
  Ti  Ti3  1  0.01524094  0.32546155  0.09969008  1
  Ti  Ti4  1  0.01009068  0.29988083  0.31824544  1
  Ti  Ti5  1  0.07791398  0.29973148  0.66013511  1
  Ti  Ti6  1  0.05598807  0.60711854  -0.01326736  1
  Ti  Ti7  1  -0.04829333  0.72413496  0.38445449  1
  Ti  Ti8  1  0.01350772  0.64886283  0.69526018  1
  Ti  Ti9  1  0.43316433  -0.03115302  -0.01576699  1
  Ti  Ti10  1  0.32034066  -0.02500652  0.34362848  1
  Ti  Ti11  1  0.29324446  0.04150711  0.70155560  1
  Ti  Ti12  1  0.41502099  0.32794830  0.08181208  1
  Ti  Ti13  1  0.38634645  0.29361140  0.28909151  1
  Ti  Ti14  1  0.27857608  0.34999242  0.67029999  1
  Ti  Ti15  1  0.26397853  0.61152923  0.04885685  1
  Ti  Ti16  1  0.37135158  0.65217347  0.33549036  1
  Ti  Ti17  1  0.42991060  0.65391793  0.70739151  1
  Ti  Ti18  1  0.66920593  -0.12954205  0.04681351  1
  Ti  Ti19  1  0.66875927  0.00928703  0.27594580  1
  Ti  Ti20  1  0.71225210  0.02644115  0.60528407  1
  Ti  Ti21  1  0.60839792  0.38363464  0.00014819  1
  Ti  Ti22  1  0.75427025  0.38308057  0.30287138  1
  Ti  Ti23  1  0.57217145  0.29642413  0.63531598  1
  Ti  Ti24  1  0.73496798  0.66889915  0.00057473  1
  Ti  Ti25  1  0.66534413  0.64504714  0.34560613  1
  Ti  Ti26  1  0.61010804  0.71910768  0.66509508  1
  Ti  Ti27  1  -0.02195424  0.15905789  0.16462016  1
  Ti  Ti28  1  -0.02598733  0.21469699  0.48970729  1
  Ti  Ti29  1  0.02176130  0.17192314  0.81015103  1
  Ti  Ti30  1  -0.00401068  0.50820402  0.16360077  1
  Ti  Ti31  1  -0.03338286  0.41746787  0.49617538  1
  Ti  Ti32  1  -0.00069336  0.44135881  0.84557324  1
  Ti  Ti33  1  -0.02756498  0.82989894  0.20774487  1
  Ti  Ti34  1  0.03159782  0.88580775  0.44829743  1
  Ti  Ti35  1  0.01485647  0.74950342  0.84458064  1
  Ti  Ti36  1  0.29756119  0.15883039  0.12864996  1
  Ti  Ti37  1  0.39072277  0.13511018  0.44567215  1
  Ti  Ti38  1  0.31946175  0.12029071  0.90955925  1
  Ti  Ti39  1  0.32908369  0.48404016  0.19336488  1
  Ti  Ti40  1  0.35703398  0.54829447  0.52229119  1
  Ti  Ti41  1  0.34681631  0.45753247  0.81267859  1
  Ti  Ti42  1  0.29347408  0.77237272  0.12802466  1
  Ti  Ti43  1  0.26102498  0.84768898  0.49475060  1
  Ti  Ti44  1  0.30978761  0.76228937  0.82952221  1
  Ti  Ti45  1  0.72713695  0.18189742  0.16200288  1
  Ti  Ti46  1  0.58921781  0.17694169  0.50344259  1
  Ti  Ti47  1  0.66525162  0.09192310  0.85904070  1
  Ti  Ti48  1  0.67152771  0.49828769  0.18951160  1
  Ti  Ti49  1  0.66402592  0.58462912  0.51568968  1
  Ti  Ti50  1  0.73093460  0.47218663  0.78496629  1
  Ti  Ti51  1  0.66275878  0.79620900  0.21235808  1
  Ti  Ti52  1  0.61560907  0.87105805  0.50886240  1
  Ti  Ti53  1  0.71150233  0.85321837  0.77045840  1
  Ti  Ti54  1  0.27832638  -0.03503848  0.11804978  1
  Ti  Ti55  1  0.17249714  0.00330472  0.55565966  1
  Ti  Ti56  1  0.15998194  0.02536361  0.84889360  1
  Ti  Ti57  1  0.15493055  0.41922378  0.21103637  1
  Ti  Ti58  1  0.26455002  0.29754353  0.48308491  1
  Ti  Ti59  1  0.15200022  0.29864757  0.86990006  1
  Ti  Ti60  1  0.11010823  0.70917011  0.14350687  1
  Ti  Ti61  1  0.20358119  0.63451915  0.51687200  1
  Ti  Ti62  1  0.17221522  0.63042146  0.82212601  1
  Ti  Ti63  1  0.43565348  0.03796454  0.19373260  1
  Ti  Ti64  1  0.48756396  0.04410158  0.58463291  1
  Ti  Ti65  1  0.55031724  -0.06512694  0.85751017  1
  Ti  Ti66  1  0.57424756  0.33361531  0.21454524  1
  Ti  Ti67  1  0.47943556  0.35840455  0.44045980  1
  Ti  Ti68  1  0.54116472  0.43219063  0.82149556  1
  Ti  Ti69  1  0.55830125  0.66663314  0.10433398  1
  Ti  Ti70  1  0.51196261  0.72413357  0.42316522  1
  Ti  Ti71  1  0.51696027  0.64451201  0.87209171  1
  Ti  Ti72  1  0.84285620  0.05027066  0.27562091  1
  Ti  Ti73  1  0.89555031  0.03998237  0.47637315  1
  Ti  Ti74  1  0.83925768  0.00927241  0.79226175  1
  Ti  Ti75  1  0.78958789  0.34514317  0.10150897  1
  Ti  Ti76  1  0.69486738  0.34423746  0.48331463  1
  Ti  Ti77  1  0.81750741  0.34511192  0.90553469  1
  Ti  Ti78  1  0.90561923  0.66063765  0.12540629  1
  Ti  Ti79  1  0.86821221  0.66315631  0.55531537  1
  Ti  Ti80  1  0.83117434  0.70642223  0.76756463  1
  Ti  Ti81  1  0.12743445  0.18794776  0.04457916  1
  Ti  Ti82  1  0.17152319  0.13702333  0.37195779  1
  Ti  Ti83  1  0.21372849  0.20068762  0.72893950  1
  Ti  Ti84  1  0.22525363  0.42934736  0.00620065  1
  Ti  Ti85  1  0.09141892  0.50040708  0.38130016  1
  Ti  Ti86  1  0.16127039  0.48284093  0.68066153  1
  Ti  Ti87  1  0.14515138  0.87810224  0.00740879  1
  Ti  Ti88  1  0.20150016  0.77959369  0.31475890  1
  Ti  Ti89  1  0.12436327  0.81564451  0.66841604  1
  Ti  Ti90  1  0.52871627  0.24721031  -0.07115094  1
  Ti  Ti91  1  0.53971117  0.15258647  0.31956094  1
  Ti  Ti92  1  0.41803467  0.15805653  0.72386016  1
  Ti  Ti93  1  0.43550144  0.52558771  -0.00339364  1
  Ti  Ti94  1  0.50950167  0.55585566  0.26512393  1
  Ti  Ti95  1  0.43902496  0.45054416  0.65081478  1
  Ti  Ti96  1  0.47360566  0.83016509  0.08191012  1
  Ti  Ti97  1  0.52657126  0.90366294  0.33106470  1
  Ti  Ti98  1  0.38147795  0.87052834  0.64741360  1
  Ti  Ti99  1  0.78810789  0.06719475  0.00599312  1
  Ti  Ti100  1  0.74115168  0.17889367  0.37128002  1
  Ti  Ti101  1  0.87523357  0.18203005  0.68687347  1
  Ti  Ti102  1  0.86099605  0.56613116  -0.08638941  1
  Ti  Ti103  1  0.86524187  0.54747621  0.29235833  1
  Ti  Ti104  1  0.82349575  0.45145339  0.59908549  1
  Ti  Ti105  1  0.87681252  0.88161942  0.00666718  1
  Ti  Ti106  1  0.74292355  0.86074956  0.36245500  1
  Ti  Ti107  1  0.90687698  0.84861674  0.65333339  1
  Co  Co108  1  0.29391099  0.90019034  -0.06799003  1
  Co  Co109  1  0.96600899  0.14023426  0.34721743  1
  Co  Co110  1  0.50304395  0.78189058  0.76946422  1
  Co  Co111  1  0.89879495  0.90903885  0.35547333  1
  Co  Co112  1  0.75130777  0.47085133  -0.00847742  1
  Co  Co113  1  0.90735437  0.40177365  0.23241344  1
  Co  Co114  1  0.74155390  0.21293666  0.58435504  1
  Co  Co115  1  0.73402107  0.14923615  0.74325462  1
  Co  Co116  1  0.93202413  0.32770623  0.75911443  1
  Co  Co117  1  0.05907878  0.05935988  0.46402442  1
  Co  Co118  1  0.42061328  0.37296432  0.92393901  1
  Co  Co119  1  0.30491823  0.27860688  0.83581958  1
  Co  Co120  1  0.60309808  0.77817260  0.93389387  1
  Co  Co121  1  0.43367027  0.32635346  0.75847404  1
  Co  Co122  1  0.10949755  0.31341192  0.44961755  1
  Co  Co123  1  0.86476523  0.19426682  0.04868304  1
  Co  Co124  1  1.01553570  0.74658422  0.55547262  1
  Co  Co125  1  0.62977237  0.54032897  0.89580895  1
  Co  Co126  1  0.50426372  0.56519444  0.42610957  1
  Co  Co127  1  0.58440404  0.10925072  0.16430795  1
  Co  Co128  1  0.81718020  0.51203898  0.12869384  1
  Co  Co129  1  0.69132864  0.00094403  0.12478143  1
  Co  Co130  1  0.39189142  0.66542750  0.16263103  1
  Co  Co131  1  0.92787085  0.45741499  1.02397469  1
  Co  Co132  1  0.86586658  0.31924486  0.41266320  1
  Co  Co133  1  0.57587393  0.54429334  0.70775605  1
  Co  Co134  1  0.61572727  0.54378957  0.04466649  1
  Co  Co135  1  0.50584313  0.61618356  0.58003382  1
  Co  Co136  1  0.46743804  0.21378396  0.17578569  1
  Co  Co137  1  0.28906671  0.26498242  0.99318680  1
  Co  Co138  1  0.30453863  0.15455038  0.58842814  1
  Co  Co139  1  0.87889036  0.71542626  0.93485812  1
  Co  Co140  1  0.60148402  0.13624969  0.68131697  1
  Co  Co141  1  0.80635415  0.77736249  0.10453010  1
  Co  Co142  1  0.12508840  0.73666016  0.43868377  1
  Co  Co143  1  0.60882365  0.25867067  0.79919689  1
  Co  Co144  1  0.23382032  0.63057741  0.22109128  1
  Co  Co145  1  0.39841558  0.68307590  -0.00327997  1
  Co  Co146  1  0.60309926  0.24536821  0.07995968  1
  Co  Co147  1  0.14965707  0.53768220  0.12676041  1
  Co  Co148  1  0.20698953  0.73393911  0.96832129  1
  Co  Co149  1  0.81137529  0.90602837  0.18549596  1
  Co  Co150  1  0.86394883  0.24777745  0.25266972  1
  Co  Co151  1  0.08451311  0.03151916  0.10406658  1
  Co  Co152  1  0.91462073  1.00847884  0.12695566  1
  Co  Co153  1  0.67993800  0.67559139  0.81622463  1
  Co  Co154  1  0.43461929  0.81250364  0.91744872  1
  Co  Co155  1  0.07104588  0.43777606  0.00297129  1
  Co  Co156  1  0.16422684  0.96114715  0.36086244  1
  Co  Co157  1  0.70332856  0.22207011  0.96701478  1
  Co  Co158  1  -0.01027592  0.24193015  0.95794760  1
  Co  Co159  1  0.13456546  0.83285773  0.84444460  1
  Co  Co160  1  0.91328461  0.31902273  0.59463472  1
  Co  Co161  1  0.55145382  0.94015549  0.16588868  1
  Ni  Ni162  1  0.13932029  0.17241128  0.56036151  1
  Ni  Ni163  1  0.83422987  0.76084123  0.26761312  1
  Ni  Ni164  1  0.56378752  1.02771055  0.43495073  1
  Ni  Ni165  1  0.03103536  0.90762410  0.92374123  1
  Ni  Ni166  1  0.32278229  1.00260066  0.52433684  1
  Ni  Ni167  1  0.23188722  0.56909720  0.36834506  1
  Ni  Ni168  1  0.85396217  0.84238011  0.85314449  1
  Ni  Ni169  1  0.23303465  0.89401230  0.75670994  1
  Ni  Ni170  1  0.72182561  0.94178291  0.91414548  1
  Ni  Ni171  1  0.24780030  0.40935101  0.36700205  1
  Ni  Ni172  1  0.21760648  0.05046325  0.99901995  1
  Ni  Ni173  1  0.57880545  0.05262800  1.00600279  1
  Ni  Ni174  1  0.58603228  0.44196668  0.55402536  1
  Ni  Ni175  1  0.33302393  0.60195957  0.87898296  1
  Ni  Ni176  1  0.83923377  0.16889863  0.87610522  1
  Ni  Ni177  1  0.72060129  0.01158266  0.45096941  1
  Ni  Ni178  1  0.05115322  0.62854133  0.27446341  1
  Ni  Ni179  1  0.19602084  0.07272664  0.20878467  1
  Ni  Ni180  1  0.50665066  0.74505383  0.25849975  1
  Ni  Ni181  1  0.27515581  0.74603004  0.63970104  1
  Ni  Ni182  1  0.56821713  0.90434440  0.66952675  1
  Ni  Ni183  1  0.82686895  0.87344486  0.51696525  1
  Ni  Ni184  1  0.24314927  0.31450104  0.14478850  1
  Ni  Ni185  1  0.71737721  0.74306965  0.47424023  1
  Ni  Ni186  1  0.06845290  0.56036257  0.53881967  1
  Ni  Ni187  1  0.02622678  0.95540088  0.60765596  1
  Ni  Ni188  1  0.13044076  0.22844542  0.21030390  1
  Ni  Ni189  1  0.33120070  0.14021122  0.28109619  1
  Ni  Ni190  1  0.43756009  0.14217521  0.03092685  1
  Ni  Ni191  1  0.13633198  0.87130929  0.18027559  1
  Ni  Ni192  1  0.38925485  0.88186813  0.21438767  1
  Ni  Ni193  1  0.48373459  0.78112594  0.57644350  1
  Ni  Ni194  1  0.99451546  0.10977113  0.62373298  1
  Ni  Ni195  1  0.00074338  0.46033877  0.66872155  1
  Ni  Ni196  1  0.63118880  0.46136385  0.38632654  1
  Ni  Ni197  1  0.74881682  0.60074100  0.65798177  1
  Ni  Ni198  1  0.11486200  0.07054899  0.70680255  1
  Ni  Ni199  1  0.50348223  0.48072489  0.12863253  1
  Ni  Ni200  1  0.16308465  0.47285492  0.86046952  1
  Ni  Ni201  1  0.40487678  0.28345604  0.58162621  1
  Ni  Ni202  1  0.37463428  0.81105368  0.35354031  1
  Ni  Ni203  1  0.44887867  -0.10450430  0.47445255  1
  Ni  Ni204  1  0.18190721  0.43719967  0.52725958  1
  Ni  Ni205  1  0.75454965  0.76767918  0.62651236  1
  Ni  Ni206  1  0.88705361  0.53476607  0.73415725  1
  Ni  Ni207  1  0.00306411  0.76037027  0.03120324  1
  Ni  Ni208  1  0.95079365  0.57595586  0.42949397  1
  Ni  Ni209  1  0.76181093  0.32138723  0.73857459  1
  Ni  Ni210  1  0.39740249  0.46100111  0.34839122  1
  Ni  Ni211  1  0.61709863  0.29435013  0.35787384  1
  Ni  Ni212  1  0.81688801  0.48293931  0.44641313  1
  Ni  Ni213  1  0.74556444  0.64775037  0.16838227  1
  Ni  Ni214  1  0.48976827  0.09429710  0.87247480  1
  Ni  Ni215  1  0.28335132  0.58575321  0.71547667  1
