# generated using pymatgen
data_Ti2CoNi
_symmetry_space_group_name_H-M   'P 1'
_cell_length_a   14.62095047
_cell_length_b   14.56434929
_cell_length_c   14.60179692
_cell_angle_alpha   89.95261390
_cell_angle_beta   90.06522297
_cell_angle_gamma   90.25452172
_symmetry_Int_Tables_number   1
_chemical_formula_structural   Ti2CoNi
_chemical_formula_sum   'Ti108 Co54 Ni54'
_cell_volume   3109.34049273
_cell_formula_units_Z   54
loop_
 _symmetry_equiv_pos_site_id
 _symmetry_equiv_pos_as_xyz
  1  'x, y, z'
loop_
 _atom_site_type_symbol
 _atom_site_label
 _atom_site_symmetry_multiplicity
 _atom_site_fract_x
 _atom_site_fract_y
 _atom_site_fract_z
 _atom_site_occupancy
  Ti  Ti0  1  0.00886910  -0.02436569  0.06535539  1
  Ti  Ti1  1  0.02231282  -0.02223506  0.27967704  1
  Ti  Ti2  1  -0.04909043  0.02565945  0.63934367  1
  Ti  Ti3  1  -0.03904552  0.25352991  -0.01340533  1
  Ti  Ti4  1  0.02828228  0.29231561  0.29103771  1
  Ti  Ti5  1  -0.03431052  0.29343357  0.67770667  1
  Ti  Ti6  1  -0.00775153  0.75507666  -0.06973943  1
  Ti  Ti7  1  0.03006343  0.61357640  0.31006662  1
  Ti  Ti8  1  0.10163124  0.60233918  0.64364834  1
  Ti  Ti9  1  0.34086378  -0.05519864  0.03803967  1
  Ti  Ti10  1  0.37047844  0.07247223  0.33169554  1
  Ti  Ti11  1  0.35471000  0.02915152  0.68156628  1
  Ti  Ti12  1  0.29722479  0.38634694  -0.07343714  1
  Ti  Ti13  1  0.40622751  0.36361701  0.41979540  1
  Ti  Ti14  1  0.38409511  0.25659186  0.67271917  1
  Ti  Ti15  1  0.34845614  0.68212363  0.07392656  1
  Ti  Ti16  1  0.24905206  0.67539111  0.29630987  1
  Ti  Ti17  1  0.35594470  0.64891303  0.63368484  1
  Ti  Ti18  1  0.62241504  0.05847447  0.03899465  1
  Ti  Ti19  1  0.65539584  0.00843177  0.38221707  1
  Ti  Ti20  1  0.72798477  -0.00463680  0.62186434  1
  Ti  Ti21  1  0.63238246  0.27798943  -0.00268131  1
  Ti  Ti22  1  0.68842289  0.32901823  0.40292577  1
  Ti  Ti23  1  0.72029470  0.43749343  0.66333197  1
  Ti  Ti24  1  0.60307584  0.67191995  0.06232012  1
  Ti  Ti25  1  0.67019629  0.65789829  0.31907888  1
  Ti  Ti26  1  0.67102723  0.63393780  0.64117540  1
  Ti  Ti27  1  0.03424937  0.15170788  0.13723581  1
  Ti  Ti28  1  0.09318056  0.23400744  0.48281463  1
  Ti  Ti29  1  -0.10093787  0.16652216  0.80419981  1
  Ti  Ti30  1  -0.01979367  0.51455784  0.12082690  1
  Ti  Ti31  1  -0.03557180  0.50563365  0.47416792  1
  Ti  Ti32  1  0.00660307  0.56732098  0.84074196  1
  Ti  Ti33  1  -0.01639615  0.78924664  0.26387122  1
  Ti  Ti34  1  -0.02160293  0.70350388  0.52119647  1
  Ti  Ti35  1  -0.00113866  0.86640831  0.74789437  1
  Ti  Ti36  1  0.31321947  0.20851596  0.18977194  1
  Ti  Ti37  1  0.28469996  0.15017107  0.51650655  1
  Ti  Ti38  1  0.32236939  0.17494354  0.83496486  1
  Ti  Ti39  1  0.32013496  0.48424637  0.09870377  1
  Ti  Ti40  1  0.44397216  0.53954924  0.48900480  1
  Ti  Ti41  1  0.35409054  0.54445890  0.82676684  1
  Ti  Ti42  1  0.28043346  0.83359544  0.17446286  1
  Ti  Ti43  1  0.24466890  0.85211635  0.52023649  1
  Ti  Ti44  1  0.35578704  0.78473424  0.77503425  1
  Ti  Ti45  1  0.66729700  0.26837035  0.21343652  1
  Ti  Ti46  1  0.63721796  0.17009107  0.49992434  1
  Ti  Ti47  1  0.67619215  0.20656348  0.79548107  1
  Ti  Ti48  1  0.66866793  0.46510329  0.24217254  1
  Ti  Ti49  1  0.71984353  0.51931534  0.46261615  1
  Ti  Ti50  1  0.66918620  0.40840167  0.84964772  1
  Ti  Ti51  1  0.62670941  0.86236475  0.06549914  1
  Ti  Ti52  1  0.65690932  0.81478030  0.59288832  1
  Ti  Ti53  1  0.68985359  0.92377197  0.82098575  1
  Ti  Ti54  1  0.19845471  0.06080429  0.12257957  1
  Ti  Ti55  1  0.07487350  0.02289948  0.48175287  1
  Ti  Ti56  1  0.16862903  0.04943526  0.82450616  1
  Ti  Ti57  1  0.17489293  0.37244663  0.18238335  1
  Ti  Ti58  1  0.23800560  0.36710047  0.50737507  1
  Ti  Ti59  1  0.18018527  0.30673724  0.79066133  1
  Ti  Ti60  1  0.16364079  0.57753632  0.14393106  1
  Ti  Ti61  1  0.21106803  0.66371749  0.47804850  1
  Ti  Ti62  1  0.18060755  0.68248804  0.88359147  1
  Ti  Ti63  1  0.49881992  -0.01606294  0.18199229  1
  Ti  Ti64  1  0.42217008  -0.03636069  0.49714239  1
  Ti  Ti65  1  0.46153991  -0.03711187  0.84461292  1
  Ti  Ti66  1  0.46312465  0.30480359  0.13611153  1
  Ti  Ti67  1  0.54159004  0.34038206  0.56265002  1
  Ti  Ti68  1  0.47562172  0.34091840  0.85915675  1
  Ti  Ti69  1  0.44211831  0.71583389  0.25499974  1
  Ti  Ti70  1  0.45597488  0.74605541  0.48644010  1
  Ti  Ti71  1  0.54822987  0.59719088  0.89451482  1
  Ti  Ti72  1  0.78420481  -0.01344540  0.12797067  1
  Ti  Ti73  1  0.89699822  -0.00204812  0.44977583  1
  Ti  Ti74  1  0.87842148  -0.04236507  0.91009259  1
  Ti  Ti75  1  0.87134213  0.23175708  0.17468898  1
  Ti  Ti76  1  0.83533982  0.34308412  0.53529037  1
  Ti  Ti77  1  0.92526448  0.37472355  0.84689130  1
  Ti  Ti78  1  0.86948231  0.68808828  0.11480272  1
  Ti  Ti79  1  0.78016122  0.72866314  0.46180594  1
  Ti  Ti80  1  0.81143127  0.65585595  0.78709793  1
  Ti  Ti81  1  0.17456066  0.23144149  0.00107561  1
  Ti  Ti82  1  0.17715225  0.10787894  0.34794119  1
  Ti  Ti83  1  0.09119036  0.15196911  0.67656016  1
  Ti  Ti84  1  0.12257238  0.43311420  -0.01593622  1
  Ti  Ti85  1  0.23393189  0.48555422  0.34243253  1
  Ti  Ti86  1  0.22949280  0.47409090  0.67768160  1
  Ti  Ti87  1  0.15336234  0.76612492  0.05162059  1
  Ti  Ti88  1  0.17201262  0.87050622  0.34428574  1
  Ti  Ti89  1  0.18412152  0.88809469  0.70930998  1
  Ti  Ti90  1  0.47480714  0.13619380  -0.04098890  1
  Ti  Ti91  1  0.52799059  0.15360075  0.27474770  1
  Ti  Ti92  1  0.53731489  0.14016976  0.65084358  1
  Ti  Ti93  1  0.51471225  0.49681569  0.11288634  1
  Ti  Ti94  1  0.47927831  0.51615327  0.30945442  1
  Ti  Ti95  1  0.49874444  0.48133907  0.70782567  1
  Ti  Ti96  1  0.46935777  0.79280283  -0.04793900  1
  Ti  Ti97  1  0.52644968  0.86392289  0.33744636  1
  Ti  Ti98  1  0.57207168  0.78536022  0.77607281  1
  Ti  Ti99  1  0.77814803  0.12574045  -0.05494431  1
  Ti  Ti100  1  0.89622357  0.18787140  0.40250869  1
  Ti  Ti101  1  0.80475119  0.16730290  0.63216693  1
  Ti  Ti102  1  0.78985511  0.49278606  0.02141535  1
  Ti  Ti103  1  0.83859389  0.54643974  0.24665245  1
  Ti  Ti104  1  0.91572975  0.48717463  0.68061700  1
  Ti  Ti105  1  0.78754159  0.77423056  -0.02373182  1
  Ti  Ti106  1  0.82687699  0.89791828  0.30393418  1
  Ti  Ti107  1  0.87733919  0.85252562  0.58834838  1
  Co  Co108  1  0.59342505  0.77284342  0.20828732  1
  Co  Co109  1  0.93859136  0.35321391  0.40697498  1
  Co  Co110  1  0.23855768  0.57369503  -0.01527845  1
  Co  Co111  1  0.00884208  0.04009544  0.79204009  1
  Co  Co112  1  0.56857758  0.88121227  0.48672982  1
  Co  Co113  1  0.50503003  0.08958677  0.43133640  1
  Co  Co114  1  0.49546589  0.78046665  0.64053216  1
  Co  Co115  1  0.83189135  0.56078388  0.57039541  1
  Co  Co116  1  0.46925448  0.12247980  0.78957773  1
  Co  Co117  1  0.81478447  0.29165495  0.31062765  1
  Co  Co118  1  0.63813152  0.76166801  0.92212443  1
  Co  Co119  1  0.72715273  0.95079307  0.97282780  1
  Co  Co120  1  0.73558866  0.17853204  0.09540756  1
  Co  Co121  1  0.23839484  0.63108567  0.74946919  1
  Co  Co122  1  0.10388407  0.38598162  0.40803469  1
  Co  Co123  1  0.83310031  0.71716274  0.28495921  1
  Co  Co124  1  0.76201944  0.06896799  0.77786542  1
  Co  Co125  1  0.02154871  0.13116276  0.32222984  1
  Co  Co126  1  1.00892507  0.37500709  0.55008548  1
  Co  Co127  1  0.17613764  0.93371714  0.01027814  1
  Co  Co128  1  0.47818503  0.65091885  0.75998213  1
  Co  Co129  1  0.12720524  0.51559181  0.50331375  1
  Co  Co130  1  0.24702631  0.15895592  0.68191313  1
  Co  Co131  1  0.40215514  0.24316840  0.31898045  1
  Co  Co132  1  0.95749861  0.45082534  0.97792513  1
  Co  Co133  1  0.56388831  0.61190809  0.21111475  1
  Co  Co134  1  0.74295797  0.79702101  0.72788540  1
  Co  Co135  1  0.43123690  0.20911325  0.51551318  1
  Co  Co136  1  0.56213921  0.97541941  0.71757654  1
  Co  Co137  1  0.58223373  0.01792882  0.55813577  1
  Co  Co138  1  0.51581255  0.62741049  0.60649894  1
  Co  Co139  1  0.17913693  0.50269632  0.84241864  1
  Co  Co140  1  0.29114460  0.33597804  0.08309572  1
  Co  Co141  1  0.11092128  0.08528602  -0.02331424  1
  Co  Co142  1  0.89076638  0.60986234  -0.04510665  1
  Co  Co143  1  0.80815546  0.32123728  0.73569289  1
  Co  Co144  1  0.49576639  0.96040700  0.00983723  1
  Co  Co145  1  0.88312303  0.10029826  0.07323254  1
  Co  Co146  1  0.61328144  0.06596678  0.86628944  1
  Co  Co147  1  0.55599400  0.17609613  0.11255755  1
  Co  Co148  1  0.57264252  0.44037705  0.41767728  1
  Co  Co149  1  0.64515815  0.55451529  0.77220559  1
  Co  Co150  1  0.59350807  0.49230112  0.57021294  1
  Co  Co151  1  0.13601395  0.74217065  0.22414133  1
  Co  Co152  1  0.96185602  0.09541080  0.94040407  1
  Co  Co153  1  0.06717502  0.59485811  0.98793947  1
  Co  Co154  1  0.81396870  0.44004987  0.36710268  1
  Co  Co155  1  0.81876701  0.70727917  0.61798089  1
  Co  Co156  1  0.45294732  0.38719046  0.00275501  1
  Co  Co157  1  0.40207244  0.09625544  0.11448022  1
  Co  Co158  1  0.36349892  0.68124231  0.90188106  1
  Co  Co159  1  0.72276597  0.63261853  0.16303948  1
  Co  Co160  1  0.53941776  0.25891772  0.40353682  1
  Co  Co161  1  0.86568432  0.80761991  0.83870012  1
  Ni  Ni162  1  0.91178282  0.39817313  0.23259568  1
  Ni  Ni163  1  0.09496017  0.73611294  0.75156672  1
  Ni  Ni164  1  0.81018938  0.49228850  0.82705970  1
  Ni  Ni165  1  0.18531942  0.01716131  0.60061123  1
  Ni  Ni166  1  0.35181943  0.56920026  0.22825618  1
  Ni  Ni167  1  0.33393235  0.78965063  0.38307230  1
  Ni  Ni168  1  0.78805204  0.29497860  0.90886900  1
  Ni  Ni169  1  0.95533511  0.66758406  0.69313128  1
  Ni  Ni170  1  0.58958381  0.62650188  0.46200724  1
  Ni  Ni171  1  0.24820476  -0.01400800  0.25257752  1
  Ni  Ni172  1  0.01854277  0.34247119  0.11524660  1
  Ni  Ni173  1  0.75293759  0.90460931  0.47123366  1
  Ni  Ni174  1  0.21516569  0.74208309  0.63704834  1
  Ni  Ni175  1  0.89223497  0.06284235  0.23759819  1
  Ni  Ni176  1  0.28675907  0.52844485  0.52252876  1
  Ni  Ni177  1  0.24512386  0.26406927  0.36829943  1
  Ni  Ni178  1  0.34124986  0.38487171  0.76358145  1
  Ni  Ni179  1  0.29640014  0.93955637  0.83214182  1
  Ni  Ni180  1  0.41726950  0.55209524  0.98308608  1
  Ni  Ni181  1  0.45357946  0.82534763  0.12078868  1
  Ni  Ni182  1  0.95862658  0.16742174  0.55589322  1
  Ni  Ni183  1  0.75424920  0.80572565  0.17001458  1
  Ni  Ni184  1  0.06601811  0.46247618  0.26683910  1
  Ni  Ni185  1  0.28431953  0.81545653  0.94775169  1
  Ni  Ni186  1  0.36063562  0.86498590  0.63199319  1
  Ni  Ni187  1  0.71642834  0.60505152  0.92183372  1
  Ni  Ni188  1  0.13911858  0.33083899  0.63122377  1
  Ni  Ni189  1  0.38004029  0.40932472  0.59485459  1
  Ni  Ni190  1  0.25883514  0.99231322  0.43589021  1
  Ni  Ni191  1  0.27668090  0.07756665  0.96525137  1
  Ni  Ni192  1  0.05251481  0.92622244  0.90330849  1
  Ni  Ni193  1  0.02837410  0.68081944  0.12364469  1
  Ni  Ni194  1  0.53145824  0.35946873  0.27642907  1
  Ni  Ni195  1  0.65469424  0.92678625  0.22931660  1
  Ni  Ni196  1  0.77178195  0.37150556  0.13409245  1
  Ni  Ni197  1  0.06625527  0.20198688  0.85315690  1
  Ni  Ni198  1  0.06425586  0.42622431  0.75323516  1
  Ni  Ni199  1  0.09160039  0.74087963  0.39979233  1
  Ni  Ni200  1  0.12205716  0.90033138  0.16976555  1
  Ni  Ni201  1  0.05878902  0.86962552  0.57261481  1
  Ni  Ni202  1  0.15547642  0.21050651  0.22503805  1
  Ni  Ni203  1  0.84433996  0.93551154  0.73662706  1
  Ni  Ni204  1  0.66818405  0.08654664  0.21574743  1
  Ni  Ni205  1  0.38098474  0.90686944  0.28553369  1
  Ni  Ni206  1  0.56006092  0.30308043  0.72975167  1
  Ni  Ni207  1  0.35107476  0.39044861  0.25044828  1
  Ni  Ni208  1  0.77616900  0.09690356  0.47768709  1
  Ni  Ni209  1  0.62592262  0.44544248  1.00720125  1
  Ni  Ni210  1  0.97980291  0.86228323  0.42254600  1
  Ni  Ni211  1  0.34967735  0.22569465  0.99619057  1
  Ni  Ni212  1  0.86484340  0.60741978  0.39942028  1
  Ni  Ni213  1  0.68940999  0.81747703  0.34454023  1
  Ni  Ni214  1  0.68317667  0.27467394  0.62825500  1
  Ni  Ni215  1  0.90686528  0.87157298  0.14128394  1
