# generated using pymatgen
data_Ti2CoNi
_symmetry_space_group_name_H-M   'P 1'
_cell_length_a   14.53855781
_cell_length_b   14.48996822
_cell_length_c   14.55010297
_cell_angle_alpha   90.12667543
_cell_angle_beta   90.40831274
_cell_angle_gamma   89.74610035
_symmetry_Int_Tables_number   1
_chemical_formula_structural   Ti2CoNi
_chemical_formula_sum   'Ti108 Co54 Ni54'
_cell_volume   3065.05663538
_cell_formula_units_Z   54
loop_
 _symmetry_equiv_pos_site_id
 _symmetry_equiv_pos_as_xyz
  1  'x, y, z'
loop_
 _atom_site_type_symbol
 _atom_site_label
 _atom_site_symmetry_multiplicity
 _atom_site_fract_x
 _atom_site_fract_y
 _atom_site_fract_z
 _atom_site_occupancy
  Ti  Ti0  1  -0.01717553  -0.01765363  -0.02175018  1
  Ti  Ti1  1  0.04822290  -0.05465030  0.36243091  1
  Ti  Ti2  1  -0.01995285  -0.05882922  0.63502879  1
  Ti  Ti3  1  0.05769621  0.31582042  0.05943640  1
  Ti  Ti4  1  0.00737679  0.29986969  0.26245122  1
  Ti  Ti5  1  -0.04861298  0.34890927  0.61761362  1
  Ti  Ti6  1  0.03523549  0.62781579  -0.06758669  1
  Ti  Ti7  1  -0.02692666  0.70336751  0.36494610  1
  Ti  Ti8  1  0.04111049  0.61468095  0.72285452  1
  Ti  Ti9  1  0.34895722  -0.06883149  0.04447378  1
  Ti  Ti10  1  0.34520673  0.05750788  0.33853700  1
  Ti  Ti11  1  0.41744190  -0.00422556  0.69859255  1
  Ti  Ti12  1  0.40643944  0.30405794  0.00145763  1
  Ti  Ti13  1  0.32383957  0.30950945  0.35162478  1
  Ti  Ti14  1  0.28130658  0.31526213  0.67495873  1
  Ti  Ti15  1  0.38769747  0.71781985  0.06610755  1
  Ti  Ti16  1  0.29580835  0.60128408  0.40015328  1
  Ti  Ti17  1  0.32148901  0.63608211  0.58519832  1
  Ti  Ti18  1  0.67898054  0.06415985  -0.00398106  1
  Ti  Ti19  1  0.67388305  -0.03060460  0.28538171  1
  Ti  Ti20  1  0.70706706  0.01179439  0.65563519  1
  Ti  Ti21  1  0.61914079  0.26454381  0.02690508  1
  Ti  Ti22  1  0.66308541  0.35814713  0.35589657  1
  Ti  Ti23  1  0.65602936  0.19923079  0.69672572  1
  Ti  Ti24  1  0.65330582  0.61720120  0.00718633  1
  Ti  Ti25  1  0.72292056  0.78670155  0.33114284  1
  Ti  Ti26  1  0.73017152  0.62976194  0.65641539  1
  Ti  Ti27  1  -0.02307653  0.11095549  0.14292667  1
  Ti  Ti28  1  0.02690046  0.16328462  0.52706976  1
  Ti  Ti29  1  -0.01727614  0.18673367  0.86563734  1
  Ti  Ti30  1  0.02143718  0.60505468  0.12159001  1
  Ti  Ti31  1  -0.03993213  0.51690846  0.47792068  1
  Ti  Ti32  1  0.00576258  0.45867844  0.86042840  1
  Ti  Ti33  1  -0.07890228  0.84989977  0.07980313  1
  Ti  Ti34  1  0.06965654  0.80246051  0.51500532  1
  Ti  Ti35  1  -0.05781007  0.86164864  0.81649215  1
  Ti  Ti36  1  0.28013066  0.17877994  0.19160415  1
  Ti  Ti37  1  0.35679142  0.10698832  0.53225697  1
  Ti  Ti38  1  0.31082134  0.15111283  0.78528576  1
  Ti  Ti39  1  0.36792951  0.50716842  0.21765038  1
  Ti  Ti40  1  0.32870694  0.43832053  0.50880428  1
  Ti  Ti41  1  0.33948808  0.51647276  0.77903060  1
  Ti  Ti42  1  0.36279926  0.81654669  0.23616885  1
  Ti  Ti43  1  0.24936818  0.79882116  0.47340386  1
  Ti  Ti44  1  0.38744853  0.88372933  0.86805265  1
  Ti  Ti45  1  0.64012976  0.19776292  0.22790215  1
  Ti  Ti46  1  0.62593029  0.15341614  0.51331955  1
  Ti  Ti47  1  0.76329518  0.21095122  0.90430320  1
  Ti  Ti48  1  0.71167130  0.50639540  0.19657231  1
  Ti  Ti49  1  0.62141347  0.49591238  0.51910334  1
  Ti  Ti50  1  0.70393707  0.50832877  0.82645990  1
  Ti  Ti51  1  0.69153853  0.86424836  0.04256813  1
  Ti  Ti52  1  0.65489641  0.81389135  0.54239099  1
  Ti  Ti53  1  0.69126153  0.80003762  0.82509034  1
  Ti  Ti54  1  0.15900424  0.04251344  0.12286002  1
  Ti  Ti55  1  0.19998444  0.01018697  0.47145970  1
  Ti  Ti56  1  0.10884292  -0.02509300  0.84977699  1
  Ti  Ti57  1  0.20039881  0.36628427  0.19725042  1
  Ti  Ti58  1  0.16126763  0.33732992  0.49134972  1
  Ti  Ti59  1  0.26451933  0.34203270  0.86517103  1
  Ti  Ti60  1  0.20789358  0.69354252  0.10211237  1
  Ti  Ti61  1  0.12590457  0.61537699  0.55984486  1
  Ti  Ti62  1  0.20028707  0.71039254  0.83911184  1
  Ti  Ti63  1  0.46061799  0.03570095  0.17153748  1
  Ti  Ti64  1  0.44615181  -0.07776954  0.47589910  1
  Ti  Ti65  1  0.56836980  -0.04460523  0.84831323  1
  Ti  Ti66  1  0.55513895  0.37427854  0.16603888  1
  Ti  Ti67  1  0.48640783  0.32386115  0.48050000  1
  Ti  Ti68  1  0.50247370  0.36327067  0.79636493  1
  Ti  Ti69  1  0.54153500  0.70281113  0.16453093  1
  Ti  Ti70  1  0.51108329  0.68205271  0.52246921  1
  Ti  Ti71  1  0.39860462  0.68659963  0.85699124  1
  Ti  Ti72  1  0.81376307  0.00272620  0.17343973  1
  Ti  Ti73  1  0.87679028  0.03890875  0.45349905  1
  Ti  Ti74  1  0.79828491  -0.00601006  0.85492088  1
  Ti  Ti75  1  0.88021006  0.36858667  0.12759785  1
  Ti  Ti76  1  0.82415130  0.38906637  0.45699958  1
  Ti  Ti77  1  0.84563058  0.33102772  0.79346899  1
  Ti  Ti78  1  0.83064189  0.65637549  0.23175446  1
  Ti  Ti79  1  0.81528008  0.73944901  0.48167250  1
  Ti  Ti80  1  0.87472160  0.66668716  0.78421805  1
  Ti  Ti81  1  0.21090683  0.19846677  -0.00170078  1
  Ti  Ti82  1  0.09539285  0.14046829  0.32748762  1
  Ti  Ti83  1  0.09799153  0.08070250  0.68560950  1
  Ti  Ti84  1  0.16519116  0.49034077  0.01565759  1
  Ti  Ti85  1  0.07320813  0.52752783  0.31116068  1
  Ti  Ti86  1  0.14317584  0.43012771  0.73668122  1
  Ti  Ti87  1  0.15211778  0.87463321  0.03040446  1
  Ti  Ti88  1  0.15391269  0.81887201  0.28567163  1
  Ti  Ti89  1  0.25561590  0.86802097  0.73101086  1
  Ti  Ti90  1  0.49898676  0.12757893  -0.04534414  1
  Ti  Ti91  1  0.45240661  0.20283428  0.28348720  1
  Ti  Ti92  1  0.46452423  0.21915103  0.65557355  1
  Ti  Ti93  1  0.53528132  0.46790219  -0.05475325  1
  Ti  Ti94  1  0.53951365  0.54633709  0.33101382  1
  Ti  Ti95  1  0.54631433  0.54620169  0.71912863  1
  Ti  Ti96  1  0.54331925  0.77704130  -0.02913464  1
  Ti  Ti97  1  0.53683744  0.78273283  0.34620482  1
  Ti  Ti98  1  0.43144993  0.81313783  0.64376621  1
  Ti  Ti99  1  0.78875843  0.17906728  0.11862460  1
  Ti  Ti100  1  0.84326028  0.19527187  0.31446001  1
  Ti  Ti101  1  0.81667368  0.20942386  0.54302383  1
  Ti  Ti102  1  0.83350348  0.49587195  -0.02648203  1
  Ti  Ti103  1  0.88038414  0.45424845  0.29548865  1
  Ti  Ti104  1  0.76997954  0.43064154  0.64179346  1
  Ti  Ti105  1  0.83685059  0.68261756  0.04362421  1
  Ti  Ti106  1  0.88686881  0.88366102  0.30608851  1
  Ti  Ti107  1  0.91432088  0.77118684  0.64335637  1
  Co  Co108  1  0.77135039  0.65792777  0.89161106  1
  Co  Co109  1  0.93016079  0.86028069  0.46564031  1
  Co  Co110  1  0.81762690  0.96837555  0.02198621  1
  Co  Co111  1  0.48492556  0.10259565  0.44917227  1
  Co  Co112  1  0.02440833  0.31975804  0.77275211  1
  Co  Co113  1  0.25541304  0.35657154  0.04389823  1
  Co  Co114  1  0.87900041  0.53273407  0.13402394  1
  Co  Co115  1  0.55854243  0.07470113  0.31640968  1
  Co  Co116  1  0.46219011  0.60207436  0.98256629  1
  Co  Co117  1  0.59549548  0.71615480  0.67614792  1
  Co  Co118  1  0.23304048  0.48423113  0.61404380  1
  Co  Co119  1  0.11068954  0.31576241  0.91260223  1
  Co  Co120  1  0.57727769  0.22782824  0.38210646  1
  Co  Co121  1  0.76240005  0.92813957  0.42122540  1
  Co  Co122  1  0.70516095  0.51148470  0.36760367  1
  Co  Co123  1  -0.04082257  0.03840785  0.78430157  1
  Co  Co124  1  0.64933169  0.65298641  0.28212261  1
  Co  Co125  1  0.91542282  0.54240565  0.63659631  1
  Co  Co126  1  0.05921558  0.13407681  0.00082227  1
  Co  Co127  1  0.63166344  0.84998959  0.19594182  1
  Co  Co128  1  0.11985191  0.20318156  0.16771887  1
  Co  Co129  1  0.80842398  0.83415641  0.92741514  1
  Co  Co130  1  0.42445856  0.65582154  0.26910301  1
  Co  Co131  1  0.09910669  0.67495341  0.23927574  1
  Co  Co132  1  0.92590437  0.35573497  0.94636721  1
  Co  Co133  1  0.43091776  0.44996539  0.07321892  1
  Co  Co134  1  0.42105878  0.23779236  0.84591166  1
  Co  Co135  1  0.39291083  1.03966071  0.88670353  1
  Co  Co136  1  0.43691812  0.65545557  0.69511454  1
  Co  Co137  1  0.48169740  0.93437804  0.30625865  1
  Co  Co138  1  0.05424687  0.75374644  0.07062299  1
  Co  Co139  1  0.87109473  0.10278014  0.96680777  1
  Co  Co140  1  0.91847510  0.23123901  0.03630269  1
  Co  Co141  1  0.23740977  0.89787965  0.17036084  1
  Co  Co142  1  0.06953620  0.45441537  0.59245901  1
  Co  Co143  1  0.15133727  0.50197684  0.45546820  1
  Co  Co144  1  0.04361664  0.00367789  0.50948275  1
  Co  Co145  1  0.79777342  0.82297461  0.18142427  1
  Co  Co146  1  0.30905664  0.55495413  0.06778936  1
  Co  Co147  1  0.77647974  0.32727131  1.01782478  1
  Co  Co148  1  0.96316617  0.19448163  0.68920747  1
  Co  Co149  1  0.50594765  0.10786761  0.77139087  1
  Co  Co150  1  0.31361060  0.90013861  0.36378200  1
  Co  Co151  1  0.83816477  0.93718834  0.71483141  1
  Co  Co152  1  0.69964715  0.70411337  0.13530615  1
  Co  Co153  1  0.83928162  0.59225432  0.37614578  1
  Co  Co154  1  0.58727253  0.23018747  0.85243378  1
  Co  Co155  1  0.87946789  0.07245349  0.61618817  1
  Co  Co156  1  0.41284037  0.47754306  0.38376448  1
  Co  Co157  1  0.53336446  0.05150496  0.60257388  1
  Co  Co158  1  0.34253675  0.46726762  0.93590028  1
  Co  Co159  1  0.80981963  0.89845209  0.56422959  1
  Co  Co160  1  0.25630589  1.00685914  0.80594044  1
  Co  Co161  1  0.49279838  0.36054014  0.30965062  1
  Ni  Ni162  1  0.67205520  0.36521874  0.89993172  1
  Ni  Ni163  1  0.26036372  0.68607918  0.26898303  1
  Ni  Ni164  1  0.08479388  0.80847028  0.89782262  1
  Ni  Ni165  1  0.32941918  0.26439171  0.52474742  1
  Ni  Ni166  1  0.41021277  0.41598173  0.66621042  1
  Ni  Ni167  1  0.37767865  0.32651419  0.17768591  1
  Ni  Ni168  1  0.62220537  0.05252830  0.14235535  1
  Ni  Ni169  1  0.15312280  0.21100190  0.78275136  1
  Ni  Ni170  1  0.10666332  0.27000960  0.63468969  1
  Ni  Ni171  1  0.23168794  0.03284185  0.96135378  1
  Ni  Ni172  1  0.13746061  0.67648725  0.40252672  1
  Ni  Ni173  1  0.75247430  0.79835668  0.67847941  1
  Ni  Ni174  1  0.20085775  0.75299758  0.63071926  1
  Ni  Ni175  1  0.21529639  0.60877471  0.71397439  1
  Ni  Ni176  1  0.19193450  0.00032451  0.29072474  1
  Ni  Ni177  1  0.35108066  0.10827134  0.05173500  1
  Ni  Ni178  1  0.86118284  0.50083309  0.78111615  1
  Ni  Ni179  1  0.94090232  0.05308388  0.28819972  1
  Ni  Ni180  1  0.67271162  0.44945935  0.04090955  1
  Ni  Ni181  1  0.58672525  0.89236341  0.68161312  1
  Ni  Ni182  1  0.78973118  0.55283550  0.52132098  1
  Ni  Ni183  1  0.28299890  0.78863686  0.96080569  1
  Ni  Ni184  1  0.19297569  0.54283803  0.19189442  1
  Ni  Ni185  1  0.81460483  0.14901706  0.75095814  1
  Ni  Ni186  1  0.39064860  0.74547095  0.41215439  1
  Ni  Ni187  1  0.24226567  0.45198380  0.33671805  1
  Ni  Ni188  1  0.25340225  0.05672319  0.64987921  1
  Ni  Ni189  1  0.22950693  0.18042901  0.41658880  1
  Ni  Ni190  1  0.08007122  0.80912141  0.72821624  1
  Ni  Ni191  1  0.60303416  0.65189527  0.84443925  1
  Ni  Ni192  1  0.94152671  0.75395376  0.93802017  1
  Ni  Ni193  1  0.66462585  0.08609979  0.82205933  1
  Ni  Ni194  1  0.02893079  0.38887574  0.40649325  1
  Ni  Ni195  1  0.76475606  0.32001091  0.23384772  1
  Ni  Ni196  1  0.51652156  0.79184572  0.79525959  1
  Ni  Ni197  1  0.16872399  0.54425418  0.86096479  1
  Ni  Ni198  1  0.66542019  0.65496098  0.45425936  1
  Ni  Ni199  1  0.96425099  0.76454827  0.21202962  1
  Ni  Ni200  1  0.48510661  0.20337166  0.11458522  1
  Ni  Ni201  1  0.67982464  0.32187446  0.52752629  1
  Ni  Ni202  1  0.46124416  0.52894608  0.56014820  1
  Ni  Ni203  1  0.15122744  0.91748680  0.60890437  1
  Ni  Ni204  1  0.95856139  0.66768383  0.53622092  1
  Ni  Ni205  1  0.71709230  0.11537285  0.38025064  1
  Ni  Ni206  1  0.55309596  0.54185082  0.13051337  1
  Ni  Ni207  1  1.04532468  0.44597732  0.16711764  1
  Ni  Ni208  1  0.56012126  0.37387202  0.62642740  1
  Ni  Ni209  1  0.67133301  0.34852580  0.74131340  1
  Ni  Ni210  1  0.04398352  0.92264762  0.18167935  1
  Ni  Ni211  1  0.59954094  0.92528454  0.43048660  1
  Ni  Ni212  1  0.48485811  0.86569377  0.13559477  1
  Ni  Ni213  1  0.94211252  0.26097713  0.42932244  1
  Ni  Ni214  1  0.52652671  0.96288220  0.01048556  1
  Ni  Ni215  1  0.31146357  0.92781754  0.57270398  1
