# generated using pymatgen
data_Ti2CoNi
_symmetry_space_group_name_H-M   'P 1'
_cell_length_a   14.54085633
_cell_length_b   14.54408598
_cell_length_c   14.51379526
_cell_angle_alpha   90.10371106
_cell_angle_beta   90.39963933
_cell_angle_gamma   90.14551524
_symmetry_Int_Tables_number   1
_chemical_formula_structural   Ti2CoNi
_chemical_formula_sum   'Ti108 Co54 Ni54'
_cell_volume   3069.33801491
_cell_formula_units_Z   54
loop_
 _symmetry_equiv_pos_site_id
 _symmetry_equiv_pos_as_xyz
  1  'x, y, z'
loop_
 _atom_site_type_symbol
 _atom_site_label
 _atom_site_symmetry_multiplicity
 _atom_site_fract_x
 _atom_site_fract_y
 _atom_site_fract_z
 _atom_site_occupancy
  Ti  Ti0  1  -0.01075587  0.02193458  -0.03566942  1
  Ti  Ti1  1  -0.06666398  0.03088062  0.39192774  1
  Ti  Ti2  1  -0.01575050  -0.05490215  0.65319357  1
  Ti  Ti3  1  0.03111625  0.37082884  0.03016655  1
  Ti  Ti4  1  0.03297894  0.32076555  0.42753770  1
  Ti  Ti5  1  0.04438172  0.26719578  0.72800134  1
  Ti  Ti6  1  -0.03554036  0.66843623  0.03070778  1
  Ti  Ti7  1  -0.02227647  0.65293930  0.28828652  1
  Ti  Ti8  1  -0.05675976  0.74118464  0.72237438  1
  Ti  Ti9  1  0.34409938  0.04480220  0.05244757  1
  Ti  Ti10  1  0.30429324  -0.00909061  0.38138378  1
  Ti  Ti11  1  0.30087953  0.00183054  0.58786765  1
  Ti  Ti12  1  0.40989992  0.33082306  -0.00793955  1
  Ti  Ti13  1  0.35794513  0.30271549  0.32587065  1
  Ti  Ti14  1  0.30760785  0.36685302  0.63668438  1
  Ti  Ti15  1  0.27450514  0.69808153  -0.05668858  1
  Ti  Ti16  1  0.33212321  0.64913820  0.29325844  1
  Ti  Ti17  1  0.33436535  0.62996914  0.61443749  1
  Ti  Ti18  1  0.76916606  0.03707818  -0.06093151  1
  Ti  Ti19  1  0.60944152  -0.04426072  0.31957551  1
  Ti  Ti20  1  0.67876314  -0.00621668  0.74947756  1
  Ti  Ti21  1  0.75049995  0.31884838  0.00328483  1
  Ti  Ti22  1  0.62272157  0.29718598  0.33292575  1
  Ti  Ti23  1  0.63390730  0.37625330  0.61400075  1
  Ti  Ti24  1  0.65486830  0.63446434  0.03454015  1
  Ti  Ti25  1  0.66190691  0.76893294  0.30291169  1
  Ti  Ti26  1  0.66499374  0.70306954  0.64192781  1
  Ti  Ti27  1  -0.02596203  0.16301936  0.25632758  1
  Ti  Ti28  1  -0.02802566  0.13217539  0.56797852  1
  Ti  Ti29  1  0.14501239  0.16213759  0.85901031  1
  Ti  Ti30  1  0.02950922  0.44468926  0.24121645  1
  Ti  Ti31  1  -0.04902391  0.46678265  0.53858808  1
  Ti  Ti32  1  -0.01243224  0.47411668  0.83783141  1
  Ti  Ti33  1  0.00079521  0.88016822  0.15866483  1
  Ti  Ti34  1  0.09236318  0.79586701  0.57212974  1
  Ti  Ti35  1  0.04254329  0.82413068  0.89008879  1
  Ti  Ti36  1  0.34060524  0.21044916  0.15239279  1
  Ti  Ti37  1  0.32485558  0.19888457  0.56593216  1
  Ti  Ti38  1  0.30622063  0.11761870  0.78336631  1
  Ti  Ti39  1  0.33158867  0.59464079  0.11252362  1
  Ti  Ti40  1  0.39883106  0.43429107  0.49790824  1
  Ti  Ti41  1  0.34222691  0.44965282  0.81971209  1
  Ti  Ti42  1  0.38482476  0.78353930  0.13391649  1
  Ti  Ti43  1  0.35614303  0.73683414  0.44905097  1
  Ti  Ti44  1  0.38389327  0.83829483  0.86746712  1
  Ti  Ti45  1  0.65323548  0.21632182  0.15621142  1
  Ti  Ti46  1  0.65540541  0.10331567  0.57695776  1
  Ti  Ti47  1  0.63764440  0.17401711  0.87244936  1
  Ti  Ti48  1  0.67371276  0.48090652  0.23693304  1
  Ti  Ti49  1  0.69551477  0.47758156  0.44223265  1
  Ti  Ti50  1  0.70732269  0.49835401  0.89359934  1
  Ti  Ti51  1  0.71255619  0.81074431  0.12405794  1
  Ti  Ti52  1  0.71486653  0.79809990  0.48233300  1
  Ti  Ti53  1  0.61477089  0.81751090  0.86075865  1
  Ti  Ti54  1  0.19711575  -0.04296873  0.17892909  1
  Ti  Ti55  1  0.11833017  -0.00794976  0.47737264  1
  Ti  Ti56  1  0.11039571  -0.01873494  0.82070092  1
  Ti  Ti57  1  0.18221160  0.30698408  0.12622274  1
  Ti  Ti58  1  0.14810701  0.42746697  0.54076130  1
  Ti  Ti59  1  0.16900396  0.38994690  0.80018937  1
  Ti  Ti60  1  0.19929890  0.74301246  0.18702575  1
  Ti  Ti61  1  0.17536308  0.64940875  0.45392582  1
  Ti  Ti62  1  0.14260736  0.57011380  0.89068586  1
  Ti  Ti63  1  0.50881673  0.03524395  0.16359751  1
  Ti  Ti64  1  0.46911663  0.05644850  0.50214445  1
  Ti  Ti65  1  0.52851816  0.01121799  0.88037577  1
  Ti  Ti66  1  0.57384556  0.37013922  0.10815549  1
  Ti  Ti67  1  0.50431546  0.25026911  0.48126161  1
  Ti  Ti68  1  0.51131596  0.32729051  0.79839638  1
  Ti  Ti69  1  0.53326564  0.68397422  0.18144554  1
  Ti  Ti70  1  0.52426570  0.77446089  0.51646065  1
  Ti  Ti71  1  0.53972882  0.65098862  0.84992564  1
  Ti  Ti72  1  0.72306280  0.01907005  0.13407055  1
  Ti  Ti73  1  0.84995846  -0.07532314  0.51427292  1
  Ti  Ti74  1  0.87715157  0.04623717  0.79345181  1
  Ti  Ti75  1  0.83418182  0.40055267  0.15766248  1
  Ti  Ti76  1  0.83080597  0.33809244  0.45688012  1
  Ti  Ti77  1  0.73572175  0.32177460  0.81363602  1
  Ti  Ti78  1  0.80386268  0.61996113  0.17725127  1
  Ti  Ti79  1  0.82706956  0.61694121  0.56478236  1
  Ti  Ti80  1  0.83007105  0.59815060  0.80912529  1
  Ti  Ti81  1  0.08931114  0.16075068  0.06428014  1
  Ti  Ti82  1  0.16646623  0.13496792  0.28710176  1
  Ti  Ti83  1  0.15620681  0.10969195  0.64805406  1
  Ti  Ti84  1  0.24912832  0.44584597  -0.00102663  1
  Ti  Ti85  1  0.20397534  0.42541319  0.32872964  1
  Ti  Ti86  1  0.10306189  0.58880927  0.67852108  1
  Ti  Ti87  1  0.13479235  0.76771292  0.02920359  1
  Ti  Ti88  1  0.11877317  0.82437687  0.33484713  1
  Ti  Ti89  1  0.21519842  0.79889428  0.74829571  1
  Ti  Ti90  1  0.43559053  0.16348793  -0.07829907  1
  Ti  Ti91  1  0.46808329  0.13048950  0.31458631  1
  Ti  Ti92  1  0.50870205  0.12775467  0.71378859  1
  Ti  Ti93  1  0.49857660  0.51709334  -0.02489470  1
  Ti  Ti94  1  0.52984580  0.54387907  0.33999499  1
  Ti  Ti95  1  0.52100406  0.58571822  0.64305149  1
  Ti  Ti96  1  0.47255113  0.90855390  0.01745947  1
  Ti  Ti97  1  0.45051809  0.85658733  0.32203983  1
  Ti  Ti98  1  0.39993867  0.84532886  0.65744198  1
  Ti  Ti99  1  0.88242619  0.15038103  0.06965684  1
  Ti  Ti100  1  0.78390963  0.13097953  0.32701497  1
  Ti  Ti101  1  0.79204569  0.24011456  0.61935219  1
  Ti  Ti102  1  0.87560327  0.48090825  -0.00911678  1
  Ti  Ti103  1  0.85350628  0.49428045  0.33432597  1
  Ti  Ti104  1  0.82329893  0.42944085  0.68998534  1
  Ti  Ti105  1  0.87364171  0.85438863  -0.01375570  1
  Ti  Ti106  1  0.89440706  0.83922544  0.32364982  1
  Ti  Ti107  1  0.79754966  0.85101128  0.67976599  1
  Co  Co108  1  0.88281776  0.23446264  0.75265648  1
  Co  Co109  1  0.06074847  0.98034056  0.30130200  1
  Co  Co110  1  0.21384154  0.25517300  0.70592450  1
  Co  Co111  1  0.90626545  0.20404373  0.41893671  1
  Co  Co112  1  0.82399492  0.19432682  0.90133992  1
  Co  Co113  1  0.14513063  0.59985625  0.24635837  1
  Co  Co114  1  0.28641906  0.87148632  0.04834749  1
  Co  Co115  1  0.17379008  0.47034141  0.14610987  1
  Co  Co116  1  0.62316023  0.84302485  0.66650410  1
  Co  Co117  1  0.92175480  0.89141025  0.81374558  1
  Co  Co118  1  0.76589627  0.89444041  0.85195076  1
  Co  Co119  1  0.14674394  0.93637194  0.63861703  1
  Co  Co120  1  0.40916033  0.00396230  0.72877181  1
  Co  Co121  1  0.76195900  0.34886605  0.30581756  1
  Co  Co122  1  0.69938252  0.94648659  0.57649658  1
  Co  Co123  1  0.13371901  0.30136061  0.93748534  1
  Co  Co124  1  0.13928487  0.25558457  0.55593149  1
  Co  Co125  1  0.20379153  0.12277100  0.47762583  1
  Co  Co126  1  0.57047735  0.25314381  -0.01001074  1
  Co  Co127  1  0.03896484  0.04154207  0.14771254  1
  Co  Co128  1  0.48392036  0.42968773  0.23361763  1
  Co  Co129  1  0.40452379  0.90133112  0.49271906  1
  Co  Co130  1  0.47808378  0.18415509  0.09584456  1
  Co  Co131  1  0.33888137  0.15385135  0.40521966  1
  Co  Co132  1  0.73728579  0.00085592  0.42256852  1
  Co  Co133  1  0.17198547  0.61053935  0.05941460  1
  Co  Co134  1  0.81080543  0.62942919  0.98725563  1
  Co  Co135  1  0.53750775  -0.02079062  0.62681890  1
  Co  Co136  1  0.96093341  0.28609362  0.13647462  1
  Co  Co137  1  0.49553092  0.38431420  0.38131777  1
  Co  Co138  1  0.34226984  0.99809178  0.89818710  1
  Co  Co139  1  0.74233360  0.14448442  0.75583461  1
  Co  Co140  1  0.28400787  0.28257844  0.88026937  1
  Co  Co141  1  0.87393227  0.97751906  0.07962100  1
  Co  Co142  1  0.86354298  0.77782729  0.17151195  1
  Co  Co143  1  0.95064836  0.55070750  0.15644634  1
  Co  Co144  1  0.92276365  0.33069773  0.29390615  1
  Co  Co145  1  0.89015086  0.73183326  0.88022544  1
  Co  Co146  1  0.03393144  0.72367546  0.16888596  1
  Co  Co147  1  0.31987171  0.37582497  0.17597276  1
  Co  Co148  1  0.49909224  0.26980310  0.23361887  1
  Co  Co149  1  0.72026562  0.16482663  0.02631916  1
  Co  Co150  1  0.66324698  0.92481255  -0.01383704  1
  Co  Co151  1  0.74868810  0.74323957  0.79009225  1
  Co  Co152  1  0.89493146  0.01830250  0.23029908  1
  Co  Co153  1  0.51016058  0.70685292  0.34715837  1
  Co  Co154  1  0.55475313  0.53836799  0.13566346  1
  Co  Co155  1  0.05895347  0.15275267  0.42199505  1
  Co  Co156  1  0.04525810  0.52216444  1.01886365  1
  Co  Co157  1  0.35385034  0.48343294  0.30190531  1
  Co  Co158  1  0.55553309  0.47657613  0.51986368  1
  Co  Co159  1  0.25734800  0.95845729  0.75043329  1
  Co  Co160  1  0.41299298  0.46362760  0.09288055  1
  Co  Co161  1  0.19126684  0.26883589  0.39702897  1
  Ni  Ni162  1  0.25418256  0.63533488  0.77322174  1
  Ni  Ni163  1  0.57037612  0.77759893  1.02272361  1
  Ni  Ni164  1  1.00210219  0.88573910  0.45109121  1
  Ni  Ni165  1  0.69409808  0.53234711  0.61696009  1
  Ni  Ni166  1  0.23976208  0.50812593  0.66540722  1
  Ni  Ni167  1  0.31205702  0.08006027  0.23884345  1
  Ni  Ni168  1  0.30568978  0.55402677  0.44233436  1
  Ni  Ni169  1  0.76418361  0.91881032  0.26218717  1
  Ni  Ni170  1  0.55688386  0.86804216  0.16622583  1
  Ni  Ni171  1  0.66737710  0.60117455  0.76688946  1
  Ni  Ni172  1  0.67661038  0.27762968  0.48691708  1
  Ni  Ni173  1  0.99172138  0.19519740  0.92394502  1
  Ni  Ni174  1  0.61016390  0.45654570  0.75554762  1
  Ni  Ni175  1  0.61319130  0.12754335  0.41846376  1
  Ni  Ni176  1  0.37006609  0.26365262  0.75450654  1
  Ni  Ni177  1  0.00622233  0.64406054  0.56612663  1
  Ni  Ni178  1  0.08580655  0.28598748  0.25392940  1
  Ni  Ni179  1  0.57560114  0.92318946  0.47235920  1
  Ni  Ni180  1  0.93436703  0.56191791  0.68985209  1
  Ni  Ni181  1  0.23758281  0.85447506  0.44978882  1
  Ni  Ni182  1  0.82009030  0.05929403  0.63205426  1
  Ni  Ni183  1  0.59021735  0.39058678  0.92219969  1
  Ni  Ni184  1  0.94747536  0.30061988  0.59526748  1
  Ni  Ni185  1  0.81341134  0.23303446  0.19484289  1
  Ni  Ni186  1  0.62712841  0.64003753  0.47968648  1
  Ni  Ni187  1  0.93265116  0.59108214  0.43619789  1
  Ni  Ni188  1  0.37665535  0.59362412  0.87819535  1
  Ni  Ni189  1  0.02863521  0.42525144  0.68244914  1
  Ni  Ni190  1  0.02382137  0.72443439  0.43018720  1
  Ni  Ni191  1  0.01787466  0.10083236  0.74386190  1
  Ni  Ni192  1  0.41309966  0.69803237  0.74910294  1
  Ni  Ni193  1  0.62859422  0.23975670  0.69404717  1
  Ni  Ni194  1  0.90908235  0.33749285  0.89613824  1
  Ni  Ni195  1  0.71417596  0.61532837  0.33792456  1
  Ni  Ni196  1  0.21763697  0.87679480  0.90357767  1
  Ni  Ni197  1  0.28700634  0.83786686  0.29113114  1
  Ni  Ni198  1  0.09048821  0.69740238  0.80369012  1
  Ni  Ni199  1  0.07121469  0.51432963  0.39844883  1
  Ni  Ni200  1  0.10975108  0.92738150  1.03278889  1
  Ni  Ni201  1  0.70348868  0.47858423  0.06203286  1
  Ni  Ni202  1  0.73348679  0.77053332  -0.03767115  1
  Ni  Ni203  1  0.47289294  0.27695399  0.63401384  1
  Ni  Ni204  1  0.25940279  0.78472687  0.58693745  1
  Ni  Ni205  1  0.51193096  0.89598231  0.76672179  1
  Ni  Ni206  1  0.58289766  0.07573383  1.02232453  1
  Ni  Ni207  1  0.90588600  0.77099689  0.54808321  1
  Ni  Ni208  1  0.19056987  0.04608112  0.97900107  1
  Ni  Ni209  1  0.83066102  0.71253582  0.40345680  1
  Ni  Ni210  1  0.25826579  0.19282254  0.00666035  1
  Ni  Ni211  1  0.45303867  0.44005367  0.67664864  1
  Ni  Ni212  1  0.43950742  0.68608395  0.00003227  1
  Ni  Ni213  1  0.63314451  0.10232728  0.26346497  1
  Ni  Ni214  1  0.37404564  0.93795466  0.19004985  1
  Ni  Ni215  1  0.45983657  0.60749309  0.47914949  1
