# generated using pymatgen
data_Ti2CoNi
_symmetry_space_group_name_H-M   'P 1'
_cell_length_a   14.60172953
_cell_length_b   14.66216267
_cell_length_c   14.62115006
_cell_angle_alpha   89.79495679
_cell_angle_beta   89.87712528
_cell_angle_gamma   90.10510604
_symmetry_Int_Tables_number   1
_chemical_formula_structural   Ti2CoNi
_chemical_formula_sum   'Ti108 Co54 Ni54'
_cell_volume   3130.25235651
_cell_formula_units_Z   54
loop_
 _symmetry_equiv_pos_site_id
 _symmetry_equiv_pos_as_xyz
  1  'x, y, z'
loop_
 _atom_site_type_symbol
 _atom_site_label
 _atom_site_symmetry_multiplicity
 _atom_site_fract_x
 _atom_site_fract_y
 _atom_site_fract_z
 _atom_site_occupancy
  Ti  Ti0  1  0.01624697  -0.06621257  -0.05355830  1
  Ti  Ti1  1  -0.06329629  0.04738326  0.32808418  1
  Ti  Ti2  1  -0.00300153  -0.02673917  0.58757990  1
  Ti  Ti3  1  -0.09056083  0.40924905  0.06287403  1
  Ti  Ti4  1  -0.03835082  0.39454439  0.30541281  1
  Ti  Ti5  1  0.08289967  0.32327522  0.61104870  1
  Ti  Ti6  1  -0.04151926  0.69290447  0.01782124  1
  Ti  Ti7  1  0.05356010  0.56229047  0.37260819  1
  Ti  Ti8  1  0.01055320  0.67631499  0.66921723  1
  Ti  Ti9  1  0.33679257  0.00547604  -0.00421070  1
  Ti  Ti10  1  0.29172424  0.05140470  0.30180815  1
  Ti  Ti11  1  0.38243377  -0.02398715  0.67750888  1
  Ti  Ti12  1  0.34757720  0.33522208  -0.05667078  1
  Ti  Ti13  1  0.34568016  0.26535320  0.30921981  1
  Ti  Ti14  1  0.30966950  0.30290104  0.64141062  1
  Ti  Ti15  1  0.35466795  0.63809626  -0.03107177  1
  Ti  Ti16  1  0.32533522  0.55868664  0.35200222  1
  Ti  Ti17  1  0.32907260  0.59724049  0.74956390  1
  Ti  Ti18  1  0.62767303  0.00037954  0.01440910  1
  Ti  Ti19  1  0.71326570  0.05824984  0.29267078  1
  Ti  Ti20  1  0.71448083  -0.04154256  0.73289589  1
  Ti  Ti21  1  0.71068793  0.30668187  -0.02951432  1
  Ti  Ti22  1  0.64119858  0.31476239  0.37889127  1
  Ti  Ti23  1  0.61825142  0.32102079  0.63095316  1
  Ti  Ti24  1  0.66635192  0.74013136  -0.10802740  1
  Ti  Ti25  1  0.69307305  0.73191836  0.34769598  1
  Ti  Ti26  1  0.68246560  0.75442849  0.66744976  1
  Ti  Ti27  1  0.04804198  0.19781157  0.16214926  1
  Ti  Ti28  1  -0.05441375  0.13998183  0.50357385  1
  Ti  Ti29  1  -0.02052434  0.24876999  0.81292853  1
  Ti  Ti30  1  -0.01324420  0.54615892  0.15852716  1
  Ti  Ti31  1  -0.01587148  0.48258230  0.53674645  1
  Ti  Ti32  1  0.01090564  0.44953444  0.87070680  1
  Ti  Ti33  1  0.02148737  0.83463087  0.24910943  1
  Ti  Ti34  1  -0.02524132  0.78010491  0.51918073  1
  Ti  Ti35  1  -0.00087091  0.78111363  0.83626960  1
  Ti  Ti36  1  0.28329725  0.15747760  0.13487355  1
  Ti  Ti37  1  0.39725194  0.20421952  0.48318623  1
  Ti  Ti38  1  0.43339424  0.17546328  0.86387229  1
  Ti  Ti39  1  0.33494306  0.55030597  0.15158981  1
  Ti  Ti40  1  0.34145989  0.52819027  0.55131046  1
  Ti  Ti41  1  0.21378691  0.50374046  0.87400808  1
  Ti  Ti42  1  0.31277936  0.85083324  0.17111383  1
  Ti  Ti43  1  0.37140870  0.86794402  0.48042476  1
  Ti  Ti44  1  0.33207207  0.84760424  0.86950482  1
  Ti  Ti45  1  0.73056801  0.14064120  0.11374836  1
  Ti  Ti46  1  0.74268583  0.22590970  0.52395007  1
  Ti  Ti47  1  0.62359729  0.23122962  0.80382114  1
  Ti  Ti48  1  0.68456482  0.53555979  0.13837596  1
  Ti  Ti49  1  0.75195005  0.45160083  0.48666507  1
  Ti  Ti50  1  0.66316668  0.46781669  0.73611176  1
  Ti  Ti51  1  0.67316415  0.82161329  0.16963561  1
  Ti  Ti52  1  0.62211462  0.89912725  0.42340198  1
  Ti  Ti53  1  0.53892262  0.84869943  0.79935624  1
  Ti  Ti54  1  0.07151687  -0.00198273  0.16226012  1
  Ti  Ti55  1  0.19703395  0.01005193  0.59530438  1
  Ti  Ti56  1  0.18073344  0.01378929  0.83441877  1
  Ti  Ti57  1  0.21535285  0.37670041  0.14848627  1
  Ti  Ti58  1  0.20385689  0.25627779  0.47078578  1
  Ti  Ti59  1  0.15298956  0.30921800  0.89258216  1
  Ti  Ti60  1  0.15173194  0.66437762  0.23935154  1
  Ti  Ti61  1  0.21839924  0.68609317  0.45401544  1
  Ti  Ti62  1  0.18566841  0.72022291  0.75692761  1
  Ti  Ti63  1  0.55184182  -0.03967164  0.22797772  1
  Ti  Ti64  1  0.62627066  0.06520324  0.52382591  1
  Ti  Ti65  1  0.54306753  0.03897593  0.82686565  1
  Ti  Ti66  1  0.51013572  0.33165353  0.18185417  1
  Ti  Ti67  1  0.51238331  0.43714336  0.47702556  1
  Ti  Ti68  1  0.51372982  0.38676392  0.85115617  1
  Ti  Ti69  1  0.54810021  0.67137108  0.06798157  1
  Ti  Ti70  1  0.44675982  0.67142352  0.47896284  1
  Ti  Ti71  1  0.52193708  0.61013152  0.83393204  1
  Ti  Ti72  1  0.85924798  -0.07283307  0.19560539  1
  Ti  Ti73  1  0.82142862  -0.06090023  0.46839284  1
  Ti  Ti74  1  0.84693105  0.02086164  0.90667929  1
  Ti  Ti75  1  0.75567038  0.33192083  0.16276687  1
  Ti  Ti76  1  0.90381620  0.32056205  0.49218856  1
  Ti  Ti77  1  0.79113040  0.33371399  0.77821552  1
  Ti  Ti78  1  0.81679774  0.68188753  0.19161866  1
  Ti  Ti79  1  0.70551869  0.63160904  0.50420844  1
  Ti  Ti80  1  0.82779879  0.69777961  0.77630147  1
  Ti  Ti81  1  0.13246483  0.10580345  0.00177582  1
  Ti  Ti82  1  0.10546230  0.13804859  0.34951341  1
  Ti  Ti83  1  0.16191456  0.18802100  0.72716822  1
  Ti  Ti84  1  0.15625648  0.58252610  0.05185605  1
  Ti  Ti85  1  0.19165390  0.40415102  0.34577722  1
  Ti  Ti86  1  0.16213926  0.53494310  0.63080631  1
  Ti  Ti87  1  0.17178461  0.85585714  0.02453342  1
  Ti  Ti88  1  0.20518741  0.83625701  0.32980319  1
  Ti  Ti89  1  0.17545410  0.81065659  0.58579315  1
  Ti  Ti90  1  0.46621375  0.15416960  0.05384873  1
  Ti  Ti91  1  0.52697968  0.13310120  0.34786087  1
  Ti  Ti92  1  0.48681491  0.14396946  0.65139016  1
  Ti  Ti93  1  0.48188063  0.48314177  0.02365682  1
  Ti  Ti94  1  0.51578433  0.49889079  0.28782253  1
  Ti  Ti95  1  0.46744311  0.46797187  0.68197628  1
  Ti  Ti96  1  0.47105626  0.87121928  0.08092519  1
  Ti  Ti97  1  0.50085894  0.79049944  0.29706097  1
  Ti  Ti98  1  0.49917721  0.81253245  0.61517316  1
  Ti  Ti99  1  0.89380359  0.20162532  0.01956002  1
  Ti  Ti100  1  0.82232206  0.22545864  0.31901089  1
  Ti  Ti101  1  0.87218555  0.09991140  0.72902902  1
  Ti  Ti102  1  0.80878681  0.50405663  -0.09661366  1
  Ti  Ti103  1  0.86082132  0.57187537  0.36109131  1
  Ti  Ti104  1  0.89156594  0.52178034  0.70398232  1
  Ti  Ti105  1  0.80537078  0.84006965  0.00895321  1
  Ti  Ti106  1  0.87269326  0.77540384  0.36215048  1
  Ti  Ti107  1  0.87111652  0.86383440  0.67117844  1
  Co  Co108  1  0.90951267  0.27660579  0.18219712  1
  Co  Co109  1  0.97034548  0.90859651  0.39824606  1
  Co  Co110  1  0.49110318  0.97365630  0.54175417  1
  Co  Co111  1  0.59930581  0.61952588  0.68152464  1
  Co  Co112  1  0.24212793  0.95202092  0.43720127  1
  Co  Co113  1  0.82976353  0.23827124  0.64914300  1
  Co  Co114  1  0.84590084  0.70918809  0.61808639  1
  Co  Co115  1  0.24385770  0.71650253  0.08122974  1
  Co  Co116  1  0.68478899  0.91507983  0.88897508  1
  Co  Co117  1  0.64784795  0.21628633  0.25279236  1
  Co  Co118  1  0.70126787  0.60158198  0.81538640  1
  Co  Co119  1  0.29834157  0.69316774  0.23019273  1
  Co  Co120  1  0.65235192  0.44037703  0.90239782  1
  Co  Co121  1  0.75510095  0.57657385  0.64680433  1
  Co  Co122  1  0.14767869  0.85413680  0.85909007  1
  Co  Co123  1  0.06653857  0.37276219  0.44445560  1
  Co  Co124  1  0.64380781  0.40656004  0.24703335  1
  Co  Co125  1  0.79379547  0.39029746  0.34395445  1
  Co  Co126  1  0.06015171  0.84795307  0.69291530  1
  Co  Co127  1  0.44990399  0.62986991  0.64556804  1
  Co  Co128  1  0.76981388  0.79096570  0.50327697  1
  Co  Co129  1  0.37237319  0.90961397  0.31350742  1
  Co  Co130  1  0.23524170  0.10957228  0.45442993  1
  Co  Co131  1  0.08234915  0.02597290  0.46369954  1
  Co  Co132  1  0.30121379  0.13530044  0.60866385  1
  Co  Co133  1  0.98163969  0.23866990  0.34926649  1
  Co  Co134  1  0.37828408  0.04590622  0.45461822  1
  Co  Co135  1  0.49681680  0.97592680  0.37973304  1
  Co  Co136  1  0.78968821  0.40246908  0.62547728  1
  Co  Co137  1  0.06272083  0.73662939  0.38073664  1
  Co  Co138  1  0.45905391  0.32415500  0.57771314  1
  Co  Co139  1  0.98355305  0.20038332  0.65097963  1
  Co  Co140  1  0.10924902  0.87009901  0.46044549  1
  Co  Co141  1  0.71648087  0.69749326  0.06795940  1
  Co  Co142  1  0.39588884  0.50444927  0.88299080  1
  Co  Co143  1  0.28598354  0.46195993  1.01955701  1
  Co  Co144  1  0.55989068  0.98243630  0.67817412  1
  Co  Co145  1  0.59591636  0.75544596  0.49315832  1
  Co  Co146  1  0.61273109  0.24509500  0.09688301  1
  Co  Co147  1  0.61832533  0.40878203  0.06615391  1
  Co  Co148  1  0.35905142  0.02013284  0.83344201  1
  Co  Co149  1  0.09966183  0.44020265  0.00969633  1
  Co  Co150  1  0.11302254  0.97263379  0.31459499  1
  Co  Co151  1  0.64608805  0.57814513  -0.02518640  1
  Co  Co152  1  0.57393984  0.09664877  0.16603597  1
  Co  Co153  1  0.62158781  0.49561143  0.57776441  1
  Co  Co154  1  0.43903087  0.17435268  0.21631594  1
  Co  Co155  1  0.50940399  0.30429022  0.98929994  1
  Co  Co156  1  0.89437803  0.60657555  0.51528887  1
  Co  Co157  1  0.18465897  0.52844634  0.45930931  1
  Co  Co158  1  0.11055304  0.14827103  0.56659506  1
  Co  Co159  1  0.40310967  0.72118051  0.10814294  1
  Co  Co160  1  0.07276737  0.63685710  0.52442390  1
  Co  Co161  1  0.47906663  0.92837751  0.92731363  1
  Ni  Ni162  1  0.88757751  0.10453185  0.18053510  1
  Ni  Ni163  1  0.22864397  0.72242798  0.91662009  1
  Ni  Ni164  1  0.40392408  0.75057714  0.75522135  1
  Ni  Ni165  1  0.23164760  0.99449305  0.12711800  1
  Ni  Ni166  1  0.44934904  0.64371588  0.25595767  1
  Ni  Ni167  1  0.83917578  0.56699962  0.06243095  1
  Ni  Ni168  1  0.05487221  0.06575502  0.71365917  1
  Ni  Ni169  1  0.60536397  0.16104913  0.95493621  1
  Ni  Ni170  1  0.19938779  0.26217262  0.03891322  1
  Ni  Ni171  1  0.81321961  0.19587918  0.87271389  1
  Ni  Ni172  1  0.09074697  0.64262788  0.91093971  1
  Ni  Ni173  1  0.93980502  0.36338493  0.68170091  1
  Ni  Ni174  1  0.70503208  0.08137841  0.84501176  1
  Ni  Ni175  1  0.04526301  0.37556774  0.15951757  1
  Ni  Ni176  1  0.79672051  0.05041217  0.59169575  1
  Ni  Ni177  1  0.22082001  0.40230294  0.54335997  1
  Ni  Ni178  1  0.47824575  0.75658642  0.93252838  1
  Ni  Ni179  1  0.19442010  0.23471093  0.25919203  1
  Ni  Ni180  1  0.32780109  0.41575389  0.77096327  1
  Ni  Ni181  1  0.08405141  0.55779488  0.76954437  1
  Ni  Ni182  1  0.94688934  0.60848560  0.84618911  1
  Ni  Ni183  1  -0.03017472  0.05881242  0.04447663  1
  Ni  Ni184  1  0.61539043  0.83226079  0.01277796  1
  Ni  Ni185  1  0.29263846  0.25714715  0.80311476  1
  Ni  Ni186  1  0.96467893  0.95420284  0.78822014  1
  Ni  Ni187  1  0.80656661  0.00621103  0.06321726  1
  Ni  Ni188  1  0.67596000  0.12762909  0.68034365  1
  Ni  Ni189  1  0.36499096  0.31056176  0.10908413  1
  Ni  Ni190  1  0.35222375  0.74626678  0.36361701  1
  Ni  Ni191  1  0.83875741  0.85746631  0.84425476  1
  Ni  Ni192  1  0.08139691  0.74413842  0.11411105  1
  Ni  Ni193  1  0.35254352  0.38559136  0.43674988  1
  Ni  Ni194  1  0.81360511  0.67124559  0.93855975  1
  Ni  Ni195  1  0.03046780  0.29030642  1.01139605  1
  Ni  Ni196  1  0.78891406  0.09717142  0.43091008  1
  Ni  Ni197  1  0.27906254  0.15427209  0.93347359  1
  Ni  Ni198  1  0.56696323  0.22529476  0.50067849  1
  Ni  Ni199  1  1.01572823  0.09686916  0.87707464  1
  Ni  Ni200  1  0.66939038  0.89963392  0.58200115  1
  Ni  Ni201  1  0.23748718  0.89316366  0.72615587  1
  Ni  Ni202  1  0.16546625  0.38393336  0.74336827  1
  Ni  Ni203  1  0.61386976  0.65992774  0.22381405  1
  Ni  Ni204  1  0.13504121  0.50202307  0.22227271  1
  Ni  Ni205  1  0.83002132  0.48810234  0.21210181  1
  Ni  Ni206  1  0.74012708  0.89376266  0.30536927  1
  Ni  Ni207  1  0.36259009  0.42012359  0.25973256  1
  Ni  Ni208  1  0.96410032  0.85891494  0.08310672  1
  Ni  Ni209  1  0.70433829  0.54649100  0.31883701  1
  Ni  Ni210  1  0.40023082  0.01800378  0.16053466  1
  Ni  Ni211  1  0.56935976  0.62007518  0.38637125  1
  Ni  Ni212  1  0.32510008  0.72327314  0.59707372  1
  Ni  Ni213  1  0.45167432  0.28613719  0.73855244  1
  Ni  Ni214  1  0.97123426  0.67375243  0.25621321  1
  Ni  Ni215  1  0.88490216  0.34234444  0.91728923  1
