# generated using pymatgen
data_Ti2CoNi
_symmetry_space_group_name_H-M   'P 1'
_cell_length_a   14.54840529
_cell_length_b   14.55068093
_cell_length_c   14.55002205
_cell_angle_alpha   90.11018150
_cell_angle_beta   89.78945422
_cell_angle_gamma   90.24273411
_symmetry_Int_Tables_number   1
_chemical_formula_structural   Ti2CoNi
_chemical_formula_sum   'Ti108 Co54 Ni54'
_cell_volume   3080.02853849
_cell_formula_units_Z   54
loop_
 _symmetry_equiv_pos_site_id
 _symmetry_equiv_pos_as_xyz
  1  'x, y, z'
loop_
 _atom_site_type_symbol
 _atom_site_label
 _atom_site_symmetry_multiplicity
 _atom_site_fract_x
 _atom_site_fract_y
 _atom_site_fract_z
 _atom_site_occupancy
  Ti  Ti0  1  -0.02930095  0.00741456  -0.03383895  1
  Ti  Ti1  1  -0.03637036  0.01801130  0.33011055  1
  Ti  Ti2  1  -0.04251725  -0.04993498  0.61550758  1
  Ti  Ti3  1  -0.08504926  0.33713645  -0.01875450  1
  Ti  Ti4  1  0.03156404  0.40536879  0.33434712  1
  Ti  Ti5  1  0.08039813  0.29844234  0.59870382  1
  Ti  Ti6  1  0.02314037  0.61869888  0.06818513  1
  Ti  Ti7  1  -0.02123966  0.60766926  0.26494255  1
  Ti  Ti8  1  -0.02004083  0.69073937  0.55487906  1
  Ti  Ti9  1  0.39821148  -0.01389050  -0.06199709  1
  Ti  Ti10  1  0.38932372  -0.01991555  0.36409715  1
  Ti  Ti11  1  0.37769552  0.03154471  0.62116814  1
  Ti  Ti12  1  0.28718588  0.37522681  -0.01860322  1
  Ti  Ti13  1  0.38961889  0.38752373  0.35963920  1
  Ti  Ti14  1  0.25558396  0.32786668  0.62839812  1
  Ti  Ti15  1  0.34482127  0.66929247  -0.01776946  1
  Ti  Ti16  1  0.33623715  0.64636459  0.32490758  1
  Ti  Ti17  1  0.31931626  0.73260473  0.69206523  1
  Ti  Ti18  1  0.67545349  0.03469934  0.05261744  1
  Ti  Ti19  1  0.59261132  -0.01134502  0.30826519  1
  Ti  Ti20  1  0.64959961  -0.04358883  0.54638408  1
  Ti  Ti21  1  0.71492972  0.36400619  -0.02169133  1
  Ti  Ti22  1  0.68871326  0.28785741  0.32772192  1
  Ti  Ti23  1  0.61425504  0.33720188  0.68085420  1
  Ti  Ti24  1  0.73387364  0.69322036  -0.03421629  1
  Ti  Ti25  1  0.64806621  0.67900666  0.35231126  1
  Ti  Ti26  1  0.78560450  0.63645431  0.67224824  1
  Ti  Ti27  1  0.09643372  0.11695980  0.16599957  1
  Ti  Ti28  1  0.00179355  0.12483821  0.52179830  1
  Ti  Ti29  1  0.02023916  0.20076346  0.81073741  1
  Ti  Ti30  1  -0.02556021  0.39346652  0.15004699  1
  Ti  Ti31  1  0.01232450  0.48082105  0.50737162  1
  Ti  Ti32  1  -0.00706972  0.52840610  0.86402728  1
  Ti  Ti33  1  -0.00954602  0.81968301  0.25487467  1
  Ti  Ti34  1  0.02158761  0.85374852  0.43769146  1
  Ti  Ti35  1  0.01986963  0.86823578  0.82247575  1
  Ti  Ti36  1  0.32616754  0.12914423  0.22243853  1
  Ti  Ti37  1  0.39735511  0.24971163  0.50156400  1
  Ti  Ti38  1  0.33113315  0.19344122  0.90511503  1
  Ti  Ti39  1  0.35869055  0.53791456  0.10730831  1
  Ti  Ti40  1  0.34428474  0.48862004  0.54783042  1
  Ti  Ti41  1  0.31000672  0.49133136  0.74095782  1
  Ti  Ti42  1  0.37496516  0.84438207  0.10727840  1
  Ti  Ti43  1  0.29812013  0.84464960  0.52990193  1
  Ti  Ti44  1  0.30079652  0.82832367  0.87998153  1
  Ti  Ti45  1  0.65580219  0.24701165  0.13415660  1
  Ti  Ti46  1  0.65275845  0.18100352  0.51270581  1
  Ti  Ti47  1  0.61570379  0.22779594  0.84935591  1
  Ti  Ti48  1  0.72801921  0.57724075  0.14040688  1
  Ti  Ti49  1  0.70609059  0.44648321  0.45956899  1
  Ti  Ti50  1  0.67157236  0.55350736  0.83235213  1
  Ti  Ti51  1  0.58026172  0.81995016  0.17890636  1
  Ti  Ti52  1  0.66132812  0.75606860  0.57046774  1
  Ti  Ti53  1  0.67488785  0.88110639  0.91430071  1
  Ti  Ti54  1  0.17837996  -0.10814155  0.16191190  1
  Ti  Ti55  1  0.20975721  0.02583332  0.53574080  1
  Ti  Ti56  1  0.16214186  -0.02210654  0.86343192  1
  Ti  Ti57  1  0.22204615  0.29120624  0.22749363  1
  Ti  Ti58  1  0.19146570  0.35222728  0.42470175  1
  Ti  Ti59  1  0.15114381  0.35227131  0.82414922  1
  Ti  Ti60  1  0.14272840  0.67446813  0.21540673  1
  Ti  Ti61  1  0.18674099  0.64829447  0.48310778  1
  Ti  Ti62  1  0.10605464  0.68401721  0.76372882  1
  Ti  Ti63  1  0.46705343  0.01231078  0.15680674  1
  Ti  Ti64  1  0.51294899  0.07500037  0.47679753  1
  Ti  Ti65  1  0.48293769  0.06473422  0.78918616  1
  Ti  Ti66  1  0.52356832  0.37627470  0.18693065  1
  Ti  Ti67  1  0.52422863  0.41651773  0.52711401  1
  Ti  Ti68  1  0.46085770  0.32894660  0.85530819  1
  Ti  Ti69  1  0.55893332  0.58021880  0.18602960  1
  Ti  Ti70  1  0.47991596  0.67656322  0.50988297  1
  Ti  Ti71  1  0.45428062  0.61878181  0.81879776  1
  Ti  Ti72  1  0.85653616  -0.03054963  0.17054257  1
  Ti  Ti73  1  0.82874653  0.05656220  0.51464386  1
  Ti  Ti74  1  0.75111630  0.06170381  0.83969255  1
  Ti  Ti75  1  0.78859218  0.38927341  0.14803062  1
  Ti  Ti76  1  0.85052060  0.26030018  0.56195316  1
  Ti  Ti77  1  0.82429042  0.27132986  0.81611275  1
  Ti  Ti78  1  0.86550137  0.71661234  0.14286704  1
  Ti  Ti79  1  0.79982267  0.62148343  0.47633017  1
  Ti  Ti80  1  0.90605063  0.73264713  0.78973458  1
  Ti  Ti81  1  0.10310410  0.15971198  -0.03301680  1
  Ti  Ti82  1  0.06909139  0.18498004  0.35014053  1
  Ti  Ti83  1  0.11831065  0.11343349  0.66854385  1
  Ti  Ti84  1  0.10093567  0.45280613  0.01336008  1
  Ti  Ti85  1  0.24388602  0.48432842  0.25638190  1
  Ti  Ti86  1  0.09007317  0.47053793  0.70212775  1
  Ti  Ti87  1  0.17863906  0.75092813  0.02371738  1
  Ti  Ti88  1  0.21193670  0.79989835  0.34041070  1
  Ti  Ti89  1  0.17594341  0.89826010  0.69355861  1
  Ti  Ti90  1  0.51050726  0.14308162  0.00916120  1
  Ti  Ti91  1  0.50304229  0.15242542  0.32012646  1
  Ti  Ti92  1  0.37641060  0.20733986  0.71238876  1
  Ti  Ti93  1  0.53901667  0.58195189  -0.00438569  1
  Ti  Ti94  1  0.56522161  0.51025508  0.35968285  1
  Ti  Ti95  1  0.51022241  0.48403790  0.71432594  1
  Ti  Ti96  1  0.51828164  0.77843585  -0.01912747  1
  Ti  Ti97  1  0.54855516  0.83531575  0.41340934  1
  Ti  Ti98  1  0.51202296  0.87625655  0.69024294  1
  Ti  Ti99  1  0.84503675  0.13786670  0.05749602  1
  Ti  Ti100  1  0.84550709  0.17195882  0.36826857  1
  Ti  Ti101  1  0.72055766  0.17201833  0.68534761  1
  Ti  Ti102  1  0.85540905  0.54751441  0.00084091  1
  Ti  Ti103  1  0.83986990  0.46056347  0.32162316  1
  Ti  Ti104  1  0.81257655  0.43786597  0.71590626  1
  Ti  Ti105  1  0.89930481  0.81440817  -0.00931469  1
  Ti  Ti106  1  0.77263240  0.81322647  0.26926768  1
  Ti  Ti107  1  0.77821789  0.86950921  0.70901542  1
  Co  Co108  1  0.45496237  0.42655110  0.02888001  1
  Co  Co109  1  0.10453521  0.93540898  0.29356258  1
  Co  Co110  1  0.26648918  0.16714824  0.60307061  1
  Co  Co111  1  0.59263648  0.04369243  0.90209143  1
  Co  Co112  1  0.25447097  0.51422217  0.41775521  1
  Co  Co113  1  0.91167905  0.29616393  0.29350479  1
  Co  Co114  1  0.41142017  0.27161506  1.03651846  1
  Co  Co115  1  0.08504666  0.59337612  0.60728855  1
  Co  Co116  1  0.85049653  0.77046350  0.59514470  1
  Co  Co117  1  0.61866514  0.62198748  0.69365609  1
  Co  Co118  1  0.82270639  0.33287920  0.42188003  1
  Co  Co119  1  0.76713711  0.01859458  0.65585409  1
  Co  Co120  1  0.79723488  0.89911088  0.53165314  1
  Co  Co121  1  0.42936132  0.51477071  0.25475433  1
  Co  Co122  1  0.09978930  0.02910399  0.42426285  1
  Co  Co123  1  0.53344782  0.94229307  0.02873263  1
  Co  Co124  1  0.05563857  0.27803657  0.22452516  1
  Co  Co125  1  0.93719998  0.56147585  0.70260149  1
  Co  Co126  1  0.06995476  0.87715154  0.99467269  1
  Co  Co127  1  0.01058911  0.81256692  0.66411808  1
  Co  Co128  1  0.42528031  0.35717814  0.65218460  1
  Co  Co129  1  0.82521808  0.49217701  0.56328667  1
  Co  Co130  1  0.76736630  0.76829319  0.43657171  1
  Co  Co131  1  0.64206269  0.70592461  0.09361902  1
  Co  Co132  1  0.86382610  0.90763357  0.38221538  1
  Co  Co133  1  0.43042641  0.77512011  0.82313477  1
  Co  Co134  1  0.41260076  0.60240825  0.64179181  1
  Co  Co135  1  0.69616073  0.89643458  0.38928328  1
  Co  Co136  1  0.50577965  0.72440410  0.68283762  1
  Co  Co137  1  0.61811245  0.44881221  0.07803520  1
  Co  Co138  1  0.15854300  0.74879035  0.61533984  1
  Co  Co139  1  0.58813252  0.70714109  0.85167868  1
  Co  Co140  1  0.70151952  0.32498762  0.55075891  1
  Co  Co141  1  0.11457958  0.54130680  0.35178328  1
  Co  Co142  1  0.17840845  0.45577772  0.55761496  1
  Co  Co143  1  0.03118361  0.77635025  0.10981256  1
  Co  Co144  1  0.90696451  0.73706196  0.36992895  1
  Co  Co145  1  0.92941516  0.13053180  0.21391805  1
  Co  Co146  1  0.25055152  0.07160501  0.94373480  1
  Co  Co147  1  0.19527349  0.07125075  0.29137977  1
  Co  Co148  1  0.23579567  0.59709577  0.65065839  1
  Co  Co149  1  0.42268786  0.54312272  0.41750902  1
  Co  Co150  1  0.97490739  0.23023654  0.08626679  1
  Co  Co151  1  0.81538095  0.24172328  0.18328276  1
  Co  Co152  1  0.20432823  0.57156366  0.08461510  1
  Co  Co153  1  0.56478011  0.30020934  0.00477418  1
  Co  Co154  1  0.12806190  0.88731602  0.53694084  1
  Co  Co155  1  0.51651179  0.90213765  0.86092179  1
  Co  Co156  1  0.06206788  0.31231768  0.94264810  1
  Co  Co157  1  0.93900039  0.57578791  0.41254052  1
  Co  Co158  1  -0.02131699  0.37502740  0.79969746  1
  Co  Co159  1  0.15516520  0.19113380  0.49115247  1
  Co  Co160  1  0.67056021  0.48081199  0.63585403  1
  Co  Co161  1  0.23667091  0.94333199  0.38838999  1
  Ni  Ni162  1  0.26104049  0.66448617  0.83589780  1
  Ni  Ni163  1  0.06489444  0.69849534  0.37833637  1
  Ni  Ni164  1  0.73585115  0.74408648  0.80983249  1
  Ni  Ni165  1  0.54307669  0.28746265  0.41391710  1
  Ni  Ni166  1  0.13289837  0.61477191  0.94165715  1
  Ni  Ni167  1  1.02401414  0.72895247  0.92297633  1
  Ni  Ni168  1  0.75405875  0.10053599  0.24336957  1
  Ni  Ni169  1  0.34011510  0.10119364  0.45835565  1
  Ni  Ni170  1  0.55628451  0.44894662  0.90106044  1
  Ni  Ni171  1  0.31429186  0.04089920  0.08696623  1
  Ni  Ni172  1  0.53441051  0.20327450  0.69920011  1
  Ni  Ni173  1  0.02783486  0.02742107  0.77342908  1
  Ni  Ni174  1  0.68562107  0.38343855  0.81854587  1
  Ni  Ni175  1  0.19920897  0.19842244  0.78624764  1
  Ni  Ni176  1  0.98876863  0.29176993  0.45770603  1
  Ni  Ni177  1  0.09475564  0.50299513  0.18742738  1
  Ni  Ni178  1  1.01741260  0.96181272  0.14729517  1
  Ni  Ni179  1  0.80149883  0.63018852  0.29615060  1
  Ni  Ni180  1  0.41549827  0.26484691  0.25452177  1
  Ni  Ni181  1  0.75208344  0.83306918  0.08312094  1
  Ni  Ni182  1  0.67071630  0.44681962  0.24886971  1
  Ni  Ni183  1  0.68919315  0.94907609  0.18754868  1
  Ni  Ni184  1  0.88673388  0.53519584  0.15902486  1
  Ni  Ni185  1  0.27335427  0.21662887  0.36751171  1
  Ni  Ni186  1  0.94089181  0.25573097  0.68704054  1
  Ni  Ni187  1  0.83130595  0.43742543  0.87964438  1
  Ni  Ni188  1  0.81309316  0.96181939  0.98827230  1
  Ni  Ni189  1  0.62744855  0.59143398  0.52211271  1
  Ni  Ni190  1  0.35121544  0.37741920  0.15799480  1
  Ni  Ni191  1  0.38290281  0.80179842  0.39647562  1
  Ni  Ni192  1  0.56213159  0.06256220  0.63696622  1
  Ni  Ni193  1  0.47178754  0.92179483  0.53426740  1
  Ni  Ni194  1  0.29457186  0.06246091  0.77500067  1
  Ni  Ni195  1  0.13123668  0.28472591  0.08285461  1
  Ni  Ni196  1  0.26756022  0.20288945  0.07411061  1
  Ni  Ni197  1  0.70652485  0.17726817  0.96667363  1
  Ni  Ni198  1  0.25129003  0.91069719  0.01020687  1
  Ni  Ni199  1  0.70621385  0.06060877  0.40744198  1
  Ni  Ni200  1  0.18699218  0.50999311  0.84178076  1
  Ni  Ni201  1  0.31239768  0.33670897  0.79631014  1
  Ni  Ni202  1  0.94415294  0.40225136  0.62848941  1
  Ni  Ni203  1  0.87943858  0.96677905  0.81264903  1
  Ni  Ni204  1  0.36271522  0.50913603  0.91318686  1
  Ni  Ni205  1  0.35469187  0.91187231  0.74616245  1
  Ni  Ni206  1  0.83118541  0.59903614  0.83809350  1
  Ni  Ni207  1  0.63724737  0.97115723  0.75214592  1
  Ni  Ni208  1  0.45427153  0.68784321  0.11790022  1
  Ni  Ni209  1  0.90062523  0.10308090  0.69330554  1
  Ni  Ni210  1  0.29409363  0.71175288  0.16575658  1
  Ni  Ni211  1  0.45453452  0.87323835  0.26307456  1
  Ni  Ni212  1  0.59768916  0.10854271  0.18674324  1
  Ni  Ni213  1  0.89018696  0.13709227  0.89214999  1
  Ni  Ni214  1  0.13451219  0.01787549  0.04405271  1
  Ni  Ni215  1  0.49363354  0.70061697  0.30544420  1
