# generated using pymatgen
data_Ti2CoNi
_symmetry_space_group_name_H-M   'P 1'
_cell_length_a   14.54886661
_cell_length_b   14.60309597
_cell_length_c   14.50435779
_cell_angle_alpha   89.94670408
_cell_angle_beta   90.20360054
_cell_angle_gamma   89.89166143
_symmetry_Int_Tables_number   1
_chemical_formula_structural   Ti2CoNi
_chemical_formula_sum   'Ti108 Co54 Ni54'
_cell_volume   3081.54771469
_cell_formula_units_Z   54
loop_
 _symmetry_equiv_pos_site_id
 _symmetry_equiv_pos_as_xyz
  1  'x, y, z'
loop_
 _atom_site_type_symbol
 _atom_site_label
 _atom_site_symmetry_multiplicity
 _atom_site_fract_x
 _atom_site_fract_y
 _atom_site_fract_z
 _atom_site_occupancy
  Ti  Ti0  1  -0.02771496  0.04203118  0.02735445  1
  Ti  Ti1  1  0.02545375  -0.03593118  0.36865214  1
  Ti  Ti2  1  0.01632539  -0.03829518  0.59106196  1
  Ti  Ti3  1  -0.02062172  0.23495903  -0.03500182  1
  Ti  Ti4  1  -0.07512426  0.33742255  0.38859255  1
  Ti  Ti5  1  -0.02244170  0.27622666  0.67606772  1
  Ti  Ti6  1  0.03112197  0.70431414  -0.01921420  1
  Ti  Ti7  1  -0.05036841  0.60425833  0.31791407  1
  Ti  Ti8  1  -0.00873810  0.71962262  0.62306577  1
  Ti  Ti9  1  0.35625067  -0.02443752  0.01550092  1
  Ti  Ti10  1  0.28025882  0.02389433  0.33328865  1
  Ti  Ti11  1  0.31217390  0.07630820  0.61491181  1
  Ti  Ti12  1  0.33054585  0.29298588  -0.02337130  1
  Ti  Ti13  1  0.24120053  0.33694341  0.34811384  1
  Ti  Ti14  1  0.28839686  0.32727000  0.62108362  1
  Ti  Ti15  1  0.37897438  0.67006784  -0.01852264  1
  Ti  Ti16  1  0.32353924  0.63764169  0.29817766  1
  Ti  Ti17  1  0.34598236  0.66750845  0.67238581  1
  Ti  Ti18  1  0.76241142  0.00010192  0.00695127  1
  Ti  Ti19  1  0.65640322  0.03420981  0.37980252  1
  Ti  Ti20  1  0.60929210  -0.01525584  0.69953561  1
  Ti  Ti21  1  0.67382574  0.32006756  0.04478705  1
  Ti  Ti22  1  0.68202369  0.21464787  0.34301337  1
  Ti  Ti23  1  0.66074987  0.30005501  0.73978454  1
  Ti  Ti24  1  0.63615457  0.58849947  0.01660044  1
  Ti  Ti25  1  0.71712840  0.71076914  0.27863439  1
  Ti  Ti26  1  0.68267676  0.69633619  0.57391019  1
  Ti  Ti27  1  -0.04866553  0.27935404  0.18090441  1
  Ti  Ti28  1  0.04120347  0.18341762  0.50773180  1
  Ti  Ti29  1  0.01965405  0.07687198  0.82039552  1
  Ti  Ti30  1  0.02305439  0.48254746  0.16471008  1
  Ti  Ti31  1  0.04615474  0.51282781  0.51072581  1
  Ti  Ti32  1  0.01297460  0.45457130  0.79813907  1
  Ti  Ti33  1  -0.02225068  0.92982494  0.18447627  1
  Ti  Ti34  1  0.04962992  0.78935132  0.46380176  1
  Ti  Ti35  1  -0.00728158  0.89495281  0.90899778  1
  Ti  Ti36  1  0.34805717  0.20908831  0.16986347  1
  Ti  Ti37  1  0.40876068  0.21633734  0.50125512  1
  Ti  Ti38  1  0.31761820  0.18200082  0.80859643  1
  Ti  Ti39  1  0.29042594  0.55321841  0.12110627  1
  Ti  Ti40  1  0.34758704  0.52832616  0.53894150  1
  Ti  Ti41  1  0.33351780  0.53227043  0.85989899  1
  Ti  Ti42  1  0.27983513  0.84072763  0.25966379  1
  Ti  Ti43  1  0.31337793  0.75031521  0.45844237  1
  Ti  Ti44  1  0.35388247  0.82144498  0.86131599  1
  Ti  Ti45  1  0.72479905  0.10254247  0.17886222  1
  Ti  Ti46  1  0.71299283  0.21748179  0.53297125  1
  Ti  Ti47  1  0.65845707  0.15225883  0.86565240  1
  Ti  Ti48  1  0.63680585  0.53755284  0.19454390  1
  Ti  Ti49  1  0.66204731  0.49236913  0.48157089  1
  Ti  Ti50  1  0.64189932  0.49118345  0.79527036  1
  Ti  Ti51  1  0.68530350  0.87150347  0.13228788  1
  Ti  Ti52  1  0.61690422  0.84279001  0.42985210  1
  Ti  Ti53  1  0.67589843  0.84227567  0.87900982  1
  Ti  Ti54  1  0.18158154  -0.08211962  0.10650875  1
  Ti  Ti55  1  0.20226322  -0.07947746  0.50662409  1
  Ti  Ti56  1  0.27087372  -0.02072410  0.84394924  1
  Ti  Ti57  1  0.20431879  0.38178842  0.14212380  1
  Ti  Ti58  1  0.22671000  0.20245503  0.47887201  1
  Ti  Ti59  1  0.15275370  0.35096485  0.90531129  1
  Ti  Ti60  1  0.19380743  0.71713741  0.11394201  1
  Ti  Ti61  1  0.17343562  0.64810583  0.56679069  1
  Ti  Ti62  1  0.08488169  0.64426165  0.82873666  1
  Ti  Ti63  1  0.53404157  -0.01088773  0.10971425  1
  Ti  Ti64  1  0.49381945  0.00918391  0.52188453  1
  Ti  Ti65  1  0.48636880  0.04457104  0.87580576  1
  Ti  Ti66  1  0.53265601  0.38316184  0.19586234  1
  Ti  Ti67  1  0.48540624  0.36784261  0.59186120  1
  Ti  Ti68  1  0.47718291  0.36004859  0.80719035  1
  Ti  Ti69  1  0.52411154  0.66251241  0.26306031  1
  Ti  Ti70  1  0.49218865  0.68821792  0.44211241  1
  Ti  Ti71  1  0.50230679  0.71502560  0.80150717  1
  Ti  Ti72  1  0.84940746  0.01582076  0.31756511  1
  Ti  Ti73  1  0.80519733  -0.04484156  0.52600846  1
  Ti  Ti74  1  0.77101682  0.01104444  0.78200422  1
  Ti  Ti75  1  0.75426454  0.36867252  0.21683089  1
  Ti  Ti76  1  0.82806638  0.38037230  0.57056429  1
  Ti  Ti77  1  0.86614357  0.34405218  0.85921172  1
  Ti  Ti78  1  0.82984746  0.58389237  0.16716226  1
  Ti  Ti79  1  0.84477248  0.64481976  0.47176683  1
  Ti  Ti80  1  0.77612611  0.62310292  0.78209412  1
  Ti  Ti81  1  0.16285365  0.16039425  -0.03949774  1
  Ti  Ti82  1  0.14914840  0.16998498  0.24592494  1
  Ti  Ti83  1  0.15215991  0.19101066  0.66435276  1
  Ti  Ti84  1  0.09491855  0.49493357  0.00270496  1
  Ti  Ti85  1  0.12418904  0.49355650  0.33332904  1
  Ti  Ti86  1  0.18006690  0.46970149  0.66181674  1
  Ti  Ti87  1  0.17364456  0.81895021  -0.06467504  1
  Ti  Ti88  1  0.06651334  0.77553519  0.25942011  1
  Ti  Ti89  1  0.19938532  0.79189475  0.75210209  1
  Ti  Ti90  1  0.50214025  0.27770709  0.04348461  1
  Ti  Ti91  1  0.49171327  0.22027643  0.31760625  1
  Ti  Ti92  1  0.55604258  0.16806131  0.62939405  1
  Ti  Ti93  1  0.45490324  0.47353789  0.02131412  1
  Ti  Ti94  1  0.48363983  0.48483134  0.35185817  1
  Ti  Ti95  1  0.50126993  0.53599730  0.68283301  1
  Ti  Ti96  1  0.55468019  0.76030247  0.00350241  1
  Ti  Ti97  1  0.48203878  0.94989791  0.31001714  1
  Ti  Ti98  1  0.52011615  0.83958579  0.60388865  1
  Ti  Ti99  1  0.80040422  0.17592668  -0.01028315  1
  Ti  Ti100  1  0.96646678  0.16625853  0.33895752  1
  Ti  Ti101  1  0.89752161  0.10005929  0.64385606  1
  Ti  Ti102  1  0.82487676  0.63033943  -0.02665316  1
  Ti  Ti103  1  0.76617951  0.51600923  0.33387558  1
  Ti  Ti104  1  0.88566664  0.55313447  0.63813924  1
  Ti  Ti105  1  0.87164412  0.82758211  0.05228667  1
  Ti  Ti106  1  0.87766985  0.79027380  0.29203925  1
  Ti  Ti107  1  0.82526676  0.82091682  0.72993617  1
  Co  Co108  1  0.49129248  0.68060052  0.60095921  1
  Co  Co109  1  0.10986125  0.07875283  0.09897645  1
  Co  Co110  1  0.39432215  0.34060219  0.29251985  1
  Co  Co111  1  0.90122957  0.87545473  0.42630528  1
  Co  Co112  1  0.13368897  0.34784721  0.73778755  1
  Co  Co113  1  0.65543688  0.04684549  0.54009321  1
  Co  Co114  1  0.60772259  0.71359601  0.14257622  1
  Co  Co115  1  1.00409183  0.08065935  0.21723171  1
  Co  Co116  1  0.82161440  0.95631894  0.16400496  1
  Co  Co117  1  0.06538563  0.32591461  0.06859655  1
  Co  Co118  1  0.31317270  0.12186923  0.97405470  1
  Co  Co119  1  0.94904468  0.05386328  0.47897852  1
  Co  Co120  1  0.98961774  0.42774418  0.63663487  1
  Co  Co121  1  0.43882646  0.86044150  0.43757550  1
  Co  Co122  1  0.62932714  0.40646200  0.32525648  1
  Co  Co123  1  0.52600898  0.19072229  0.78009870  1
  Co  Co124  1  0.37823346  0.81402959  0.69658141  1
  Co  Co125  1  0.31486124  0.18831822  0.33185039  1
  Co  Co126  1  0.26721320  0.93907340  0.69052277  1
  Co  Co127  1  0.96402496  0.58686117  0.05491554  1
  Co  Co128  1  0.19438847  0.22643481  0.09904404  1
  Co  Co129  1  0.69419782  0.86419014  0.58694551  1
  Co  Co130  1  0.11476419  0.32751409  0.57701212  1
  Co  Co131  1  0.43754837  0.52284846  0.20234491  1
  Co  Co132  1  0.85956057  0.78470734  0.56607712  1
  Co  Co133  1  0.14489249  0.99284895  0.24082272  1
  Co  Co134  1  0.15292752  0.05943794  0.55230651  1
  Co  Co135  1  0.92667744  0.66496189  0.76071013  1
  Co  Co136  1  0.64357701  0.80372704  0.72826090  1
  Co  Co137  1  0.87739715  0.13369012  0.14035596  1
  Co  Co138  1  0.88654900  0.23366229  0.51376788  1
  Co  Co139  1  0.87626539  0.05655577  0.89007675  1
  Co  Co140  1  0.82403107  0.21067172  0.28845870  1
  Co  Co141  1  0.24123306  0.78756291  0.59473483  1
  Co  Co142  1  0.88076687  0.75141681  0.88845069  1
  Co  Co143  1  0.50666481  0.58073301  0.90309615  1
  Co  Co144  1  0.44298921  0.11874664  0.06966400  1
  Co  Co145  1  0.01947189  0.79475527  0.78870988  1
  Co  Co146  1  0.10597093  0.61857648  0.21821384  1
  Co  Co147  1  0.48279637  0.62181478  0.08925727  1
  Co  Co148  1  0.26981588  0.06620088  0.14142566  1
  Co  Co149  1  0.65383781  0.67271164  0.87520050  1
  Co  Co150  1  0.61785793  0.64479953  0.71174122  1
  Co  Co151  1  0.19102058  0.71145826  0.35159355  1
  Co  Co152  1  0.82970091  0.90175161  0.88767756  1
  Co  Co153  1  0.60856432  0.97621062  -0.03455237  1
  Co  Co154  1  0.36747681  0.93721976  0.17667315  1
  Co  Co155  1  0.60833208  0.13399728  1.03898842  1
  Co  Co156  1  0.76334114  0.78107395  0.43854327  1
  Co  Co157  1  0.06808547  0.64014693  0.41050944  1
  Co  Co158  1  0.65904445  0.64755859  0.41303661  1
  Co  Co159  1  0.24159636  0.57852255  0.43221496  1
  Co  Co160  1  -0.05138433  0.56196351  0.89273321  1
  Co  Co161  1  0.20478635  0.43534512  0.49755066  1
  Ni  Ni162  1  0.72092471  0.53571134  0.62958484  1
  Ni  Ni163  1  0.62760106  0.24674293  0.18663326  1
  Ni  Ni164  1  0.89430338  0.19058206  0.80615972  1
  Ni  Ni165  1  0.13578006  0.98872130  0.95022514  1
  Ni  Ni166  1  0.74451464  0.46653395  0.06399504  1
  Ni  Ni167  1  0.13159914  0.08027256  0.39100117  1
  Ni  Ni168  1  0.21474806  0.59742978  0.74379381  1
  Ni  Ni169  1  0.58266296  0.83389758  0.25431254  1
  Ni  Ni170  1  0.27060003  0.44681784  0.98579337  1
  Ni  Ni171  1  0.77793780  0.48396159  0.90225760  1
  Ni  Ni172  1  0.80041045  0.43823711  0.73838296  1
  Ni  Ni173  1  0.45580563  0.19681591  0.91793907  1
  Ni  Ni174  1  0.08905301  0.33740885  0.25419090  1
  Ni  Ni175  1  0.35779338  0.90359979  0.56229004  1
  Ni  Ni176  1  0.17809377  0.08877847  0.78201572  1
  Ni  Ni177  1  0.36920679  0.72017124  0.15855429  1
  Ni  Ni178  1  0.09798749  0.83951941  0.63958760  1
  Ni  Ni179  1  0.05505821  0.57818910  0.68211211  1
  Ni  Ni180  1  0.32250468  0.81914394  0.04254812  1
  Ni  Ni181  1  0.06437967  0.23442707  0.81907461  1
  Ni  Ni182  1  0.87826540  0.48236222  0.44978072  1
  Ni  Ni183  1  0.30723751  0.36578650  0.81178375  1
  Ni  Ni184  1  0.71024351  0.32782127  0.89283632  1
  Ni  Ni185  1  0.08797839  0.33753135  0.42171132  1
  Ni  Ni186  1  0.50799946  0.52888662  0.50815860  1
  Ni  Ni187  1  0.56267687  0.16363022  0.45970704  1
  Ni  Ni188  1  0.59307369  0.43470077  0.94463874  1
  Ni  Ni189  1  0.80806780  0.11811456  0.43810518  1
  Ni  Ni190  1  0.49404610  0.89256095  0.78101578  1
  Ni  Ni191  1  0.47645118  0.88211196  0.94546106  1
  Ni  Ni192  1  0.29925361  0.47656213  0.27839536  1
  Ni  Ni193  1  0.19887523  0.61054623  -0.01452962  1
  Ni  Ni194  1  0.75198976  0.71914561  0.09182682  1
  Ni  Ni195  1  0.42583316  0.78412952  0.30164886  1
  Ni  Ni196  1  0.94888945  0.70858365  0.15802539  1
  Ni  Ni197  1  0.34530791  0.48485606  0.70486303  1
  Ni  Ni198  1  0.94476192  0.42452852  0.98701197  1
  Ni  Ni199  1  0.73959794  0.88961230  0.30867658  1
  Ni  Ni200  1  0.16004244  0.87338676  0.36091374  1
  Ni  Ni201  1  0.45102224  0.05033616  0.70819084  1
  Ni  Ni202  1  0.80854977  0.25241330  0.67917992  1
  Ni  Ni203  1  0.75011466  0.35005544  0.41670130  1
  Ni  Ni204  1  0.36698379  0.38484450  0.12848519  1
  Ni  Ni205  1  0.40595405  0.23239069  0.68026474  1
  Ni  Ni206  1  0.84420927  0.31886704  0.06629578  1
  Ni  Ni207  1  0.94607872  0.94479957  0.74651661  1
  Ni  Ni208  1  0.65764969  0.36751679  0.59531742  1
  Ni  Ni209  1  0.90929264  0.43694575  0.26442129  1
  Ni  Ni210  1  0.72541624  0.11528742  0.66634742  1
  Ni  Ni211  1  0.42376799  0.08189406  0.39403074  1
  Ni  Ni212  1  0.04695481  0.83190328  0.07202046  1
  Ni  Ni213  1  0.56519270  0.10009304  0.23284152  1
  Ni  Ni214  1  0.37097689  0.38000335  0.45713452  1
  Ni  Ni215  1  0.25936502  0.68574608  0.86594119  1
