# generated using pymatgen
data_Ti2CoNi
_symmetry_space_group_name_H-M   'P 1'
_cell_length_a   14.52228441
_cell_length_b   14.49584462
_cell_length_c   14.56357937
_cell_angle_alpha   90.28055414
_cell_angle_beta   89.99296552
_cell_angle_gamma   89.97503504
_symmetry_Int_Tables_number   1
_chemical_formula_structural   Ti2CoNi
_chemical_formula_sum   'Ti108 Co54 Ni54'
_cell_volume   3065.78248621
_cell_formula_units_Z   54
loop_
 _symmetry_equiv_pos_site_id
 _symmetry_equiv_pos_as_xyz
  1  'x, y, z'
loop_
 _atom_site_type_symbol
 _atom_site_label
 _atom_site_symmetry_multiplicity
 _atom_site_fract_x
 _atom_site_fract_y
 _atom_site_fract_z
 _atom_site_occupancy
  Ti  Ti0  1  -0.08602190  0.08442079  -0.00503491  1
  Ti  Ti1  1  -0.00833275  -0.00269642  0.45218202  1
  Ti  Ti2  1  0.04460553  -0.00990739  0.64895705  1
  Ti  Ti3  1  0.03337111  0.27906701  0.05182235  1
  Ti  Ti4  1  0.00894430  0.31150134  0.29302754  1
  Ti  Ti5  1  -0.02284433  0.33814977  0.69139759  1
  Ti  Ti6  1  0.03717661  0.67242907  -0.04778463  1
  Ti  Ti7  1  -0.03916702  0.69073726  0.29215117  1
  Ti  Ti8  1  -0.01769226  0.71330280  0.57619399  1
  Ti  Ti9  1  0.38975547  -0.09194637  -0.00014784  1
  Ti  Ti10  1  0.31024625  -0.08422839  0.31369181  1
  Ti  Ti11  1  0.26234020  0.05468591  0.64364513  1
  Ti  Ti12  1  0.34789473  0.32221275  -0.11532941  1
  Ti  Ti13  1  0.30898138  0.24589747  0.36566267  1
  Ti  Ti14  1  0.33185572  0.39583598  0.64007660  1
  Ti  Ti15  1  0.37816532  0.72849897  -0.03716984  1
  Ti  Ti16  1  0.31469468  0.70069018  0.28943505  1
  Ti  Ti17  1  0.39625183  0.58425673  0.69246980  1
  Ti  Ti18  1  0.61006549  -0.05284912  0.00619900  1
  Ti  Ti19  1  0.60203259  0.00759723  0.33635275  1
  Ti  Ti20  1  0.66448130  0.00689432  0.62599731  1
  Ti  Ti21  1  0.58181994  0.36601832  -0.00553085  1
  Ti  Ti22  1  0.67066037  0.36624781  0.33160450  1
  Ti  Ti23  1  0.71244821  0.34317051  0.56167017  1
  Ti  Ti24  1  0.71347498  0.68381024  0.00295085  1
  Ti  Ti25  1  0.76260625  0.66417496  0.30789711  1
  Ti  Ti26  1  0.62539960  0.62721724  0.71430128  1
  Ti  Ti27  1  0.01579898  0.12998731  0.20939979  1
  Ti  Ti28  1  -0.08527062  0.15363619  0.59319620  1
  Ti  Ti29  1  0.05534194  0.18233661  0.89222406  1
  Ti  Ti30  1  -0.00215080  0.51531074  0.23218302  1
  Ti  Ti31  1  0.02288319  0.46729349  0.53886892  1
  Ti  Ti32  1  -0.04098097  0.51695583  0.84034867  1
  Ti  Ti33  1  -0.02573657  0.90414889  0.20214189  1
  Ti  Ti34  1  0.05779906  0.80600891  0.41235253  1
  Ti  Ti35  1  0.04489364  0.83421041  0.85872152  1
  Ti  Ti36  1  0.36045399  0.22708677  0.17496635  1
  Ti  Ti37  1  0.35649212  0.19319517  0.54569004  1
  Ti  Ti38  1  0.25363891  0.13386046  0.84924111  1
  Ti  Ti39  1  0.23792921  0.52573191  0.15081440  1
  Ti  Ti40  1  0.35015747  0.61334891  0.47106546  1
  Ti  Ti41  1  0.33805708  0.54089857  0.90329365  1
  Ti  Ti42  1  0.26025964  0.78319599  0.09926082  1
  Ti  Ti43  1  0.36631175  0.85283876  0.54648081  1
  Ti  Ti44  1  0.33654056  0.83744127  0.79166092  1
  Ti  Ti45  1  0.63834865  0.18827308  0.25983227  1
  Ti  Ti46  1  0.58341008  0.18593039  0.56303408  1
  Ti  Ti47  1  0.63360168  0.17215197  0.87953860  1
  Ti  Ti48  1  0.67707836  0.52524761  0.16903326  1
  Ti  Ti49  1  0.68220110  0.58935582  0.50944965  1
  Ti  Ti50  1  0.64388769  0.45412011  0.82102791  1
  Ti  Ti51  1  0.72307498  0.89578978  0.16419223  1
  Ti  Ti52  1  0.56555583  0.87029672  0.49454698  1
  Ti  Ti53  1  0.67793066  0.82235978  0.86184279  1
  Ti  Ti54  1  0.15619814  0.00541095  0.19956652  1
  Ti  Ti55  1  0.20033228  -0.03736676  0.47285171  1
  Ti  Ti56  1  0.19119102  -0.05709131  0.83180973  1
  Ti  Ti57  1  0.24937934  0.35116004  0.08506798  1
  Ti  Ti58  1  0.21358069  0.37528150  0.49584028  1
  Ti  Ti59  1  0.18080164  0.31768353  0.78458936  1
  Ti  Ti60  1  0.03430117  0.70296286  0.12709125  1
  Ti  Ti61  1  0.16268197  0.58641250  0.47433343  1
  Ti  Ti62  1  0.22807628  0.65368936  0.78106183  1
  Ti  Ti63  1  0.47564567  -0.02459636  0.18824355  1
  Ti  Ti64  1  0.46911209  0.03073013  0.55119563  1
  Ti  Ti65  1  0.54323502  -0.01645046  0.80723320  1
  Ti  Ti66  1  0.55121747  0.32424794  0.17089300  1
  Ti  Ti67  1  0.45111440  0.34466185  0.48517467  1
  Ti  Ti68  1  0.51790102  0.29154147  0.82084946  1
  Ti  Ti69  1  0.54931985  0.64509647  0.26558325  1
  Ti  Ti70  1  0.51583226  0.68989802  0.55664331  1
  Ti  Ti71  1  0.49352247  0.70471031  0.81377816  1
  Ti  Ti72  1  0.79959776  0.08765874  0.14200952  1
  Ti  Ti73  1  0.81368937  0.06719239  0.44405811  1
  Ti  Ti74  1  0.88625133  0.01038092  0.78242080  1
  Ti  Ti75  1  0.89501982  0.40430738  0.12678722  1
  Ti  Ti76  1  0.90187871  0.32104479  0.46466159  1
  Ti  Ti77  1  0.88325122  0.30078774  0.84455331  1
  Ti  Ti78  1  0.84010777  0.60967794  0.13965029  1
  Ti  Ti79  1  0.86730617  0.57996554  0.46777548  1
  Ti  Ti80  1  0.89282338  0.71328718  0.80437026  1
  Ti  Ti81  1  0.19655217  0.13977225  0.07923960  1
  Ti  Ti82  1  0.15959574  0.11785402  0.37194670  1
  Ti  Ti83  1  0.12030375  0.19733830  0.66058702  1
  Ti  Ti84  1  0.10076584  0.47709554  0.01099994  1
  Ti  Ti85  1  0.20925925  0.38026518  0.28137132  1
  Ti  Ti86  1  0.12247664  0.48281298  0.69835479  1
  Ti  Ti87  1  0.15853973  0.90950674  0.02187101  1
  Ti  Ti88  1  0.15623404  0.82226497  0.24081735  1
  Ti  Ti89  1  0.13029606  0.79086078  0.70259779  1
  Ti  Ti90  1  0.51911613  0.16590544  0.04129230  1
  Ti  Ti91  1  0.47258969  0.15090527  0.37228013  1
  Ti  Ti92  1  0.43006742  0.12491404  0.72766978  1
  Ti  Ti93  1  0.43431313  0.49766588  0.09409443  1
  Ti  Ti94  1  0.49522658  0.49516595  0.38057817  1
  Ti  Ti95  1  0.54212583  0.44693361  0.65488000  1
  Ti  Ti96  1  0.54345383  0.77999654  0.11157114  1
  Ti  Ti97  1  0.50882552  0.83030857  0.30519841  1
  Ti  Ti98  1  0.58373768  0.84615626  0.69620626  1
  Ti  Ti99  1  0.82414388  0.24893048  0.01731916  1
  Ti  Ti100  1  0.83371846  0.20291877  0.30357739  1
  Ti  Ti101  1  0.76573539  0.17935835  0.70722025  1
  Ti  Ti102  1  0.78013342  0.48272853  -0.03837659  1
  Ti  Ti103  1  0.82081186  0.45863787  0.28315011  1
  Ti  Ti104  1  0.79698359  0.54174050  0.69581400  1
  Ti  Ti105  1  0.86674859  0.84487667  -0.07168818  1
  Ti  Ti106  1  0.84989196  0.88422129  0.37818909  1
  Ti  Ti107  1  0.78670967  0.84542163  0.57607313  1
  Co  Co108  1  0.65685544  0.74503201  0.59327758  1
  Co  Co109  1  0.86839935  0.63662250  0.95601718  1
  Co  Co110  1  0.86691073  0.94072492  0.07701082  1
  Co  Co111  1  0.15628711  0.69167681  0.34975905  1
  Co  Co112  1  0.95169306  0.17235157  0.74743938  1
  Co  Co113  1  0.69770560  0.03627225  0.80788134  1
  Co  Co114  1  0.53693204  0.46650635  0.23255667  1
  Co  Co115  1  0.72095908  0.31539762  0.91671511  1
  Co  Co116  1  0.20536537  0.18306000  0.51567311  1
  Co  Co117  1  0.12183497  0.27263089  0.40157237  1
  Co  Co118  1  0.12131093  0.55283736  0.29024462  1
  Co  Co119  1  0.18143351  0.66066097  0.18905791  1
  Co  Co120  1  0.42626926  0.16756543  0.88965729  1
  Co  Co121  1  0.04301870  0.29286732  0.54361637  1
  Co  Co122  1  0.75369160  1.02691436  0.28402445  1
  Co  Co123  1  0.50892892  0.54167555  0.80630458  1
  Co  Co124  1  0.47104136  0.29964730  0.30953338  1
  Co  Co125  1  0.06122432  0.37514724  0.87359247  1
  Co  Co126  1  0.39420321  0.82582993  0.18243686  1
  Co  Co127  1  0.32572441  0.20224771  0.00963151  1
  Co  Co128  1  0.90619458  0.23514311  0.15457812  1
  Co  Co129  1  0.47391887  0.60582755  0.97291663  1
  Co  Co130  1  0.92128234  0.03356567  0.30165764  1
  Co  Co131  1  0.49066921  0.13738184  0.20945075  1
  Co  Co132  1  0.34405618  0.40998288  0.39274253  1
  Co  Co133  1  0.42542076  0.41258660  0.77601260  1
  Co  Co134  1  0.45481188  0.52154842  0.54044207  1
  Co  Co135  1  0.12895292  0.53443741  0.85000047  1
  Co  Co136  1  0.26275415  0.53263484  0.34740517  1
  Co  Co137  1  1.01586681  0.63199737  0.42774835  1
  Co  Co138  1  0.47520240  0.44831395  0.92912746  1
  Co  Co139  1  0.69952888  0.95078870  0.45130390  1
  Co  Co140  1  0.94294413  0.45951688  0.37955193  1
  Co  Co141  1  0.96564374  0.17231410  0.40421563  1
  Co  Co142  1  0.42853818  0.76349196  0.67263050  1
  Co  Co143  1  0.94455808  0.87476600  0.53561329  1
  Co  Co144  1  0.85644357  0.75564666  0.06444568  1
  Co  Co145  1  0.06140191  0.11665772  0.52337977  1
  Co  Co146  1  0.72839457  0.74558998  0.44695895  1
  Co  Co147  1  0.09625472  0.43595379  0.39329751  1
  Co  Co148  1  0.56583490  0.60921251  0.10137181  1
  Co  Co149  1  0.88789578  0.74273466  0.44261798  1
  Co  Co150  1  0.48360326  0.03025212  0.95014958  1
  Co  Co151  1  0.81731348  0.14941793  0.86240820  1
  Co  Co152  1  0.69452476  0.72635221  0.16868208  1
  Co  Co153  1  0.56646677  0.73903905  0.96427744  1
  Co  Co154  1  0.27121450  0.47796952  0.76656452  1
  Co  Co155  1  0.84290833  -0.00083719  0.59579484  1
  Co  Co156  1  0.39430173  0.07272001  0.08080040  1
  Co  Co157  1  0.50179415  0.85897387  0.88988473  1
  Co  Co158  1  0.78068170  0.21763949  0.49987638  1
  Co  Co159  1  0.40154831  0.66215644  0.13918539  1
  Co  Co160  1  0.42727369  0.94889501  0.68300316  1
  Co  Co161  1  0.36148842  0.00318663  0.82745037  1
  Ni  Ni162  1  0.11083344  0.85844948  0.55917833  1
  Ni  Ni163  1  0.95937360  0.56643516  0.67200980  1
  Ni  Ni164  1  0.27396143  0.71581422  0.60368735  1
  Ni  Ni165  1  0.24828094  0.89646355  0.65340650  1
  Ni  Ni166  1  0.58862889  0.12529389  0.71822301  1
  Ni  Ni167  1  0.71377814  0.38751558  0.07961545  1
  Ni  Ni168  1  0.84840041  0.78941390  0.21742441  1
  Ni  Ni169  1  0.46601199  0.28864632  0.65334835  1
  Ni  Ni170  1  0.67249173  0.22024330  0.07501365  1
  Ni  Ni171  1  0.05173081  0.03036014  0.06778001  1
  Ni  Ni172  1  0.23833822  0.78980800  0.44579081  1
  Ni  Ni173  1  0.41757948  0.33276897  0.05352292  1
  Ni  Ni174  1  0.75809808  0.30807502  0.20105737  1
  Ni  Ni175  1  0.02457679  0.98996751  0.90304561  1
  Ni  Ni176  1  0.21565643  0.77257530  0.91336581  1
  Ni  Ni177  1  0.77169049  0.36720204  0.73372223  1
  Ni  Ni178  1  0.63061762  0.28684834  0.70286535  1
  Ni  Ni179  1  0.10108487  0.07305269  0.77771835  1
  Ni  Ni180  1  0.22213964  0.42453924  0.91430397  1
  Ni  Ni181  1  0.70176370  0.08754076  -0.00664440  1
  Ni  Ni182  1  0.93342156  0.38995520  0.96814209  1
  Ni  Ni183  1  0.77686307  0.96985202  0.92606995  1
  Ni  Ni184  1  0.27312445  0.02390231  0.97202918  1
  Ni  Ni185  1  0.19403575  0.65064434  0.02273222  1
  Ni  Ni186  1  0.09534549  0.39918030  0.15964333  1
  Ni  Ni187  1  0.30673671  0.22758800  0.70241937  1
  Ni  Ni188  1  0.93810673  0.84843221  0.69660211  1
  Ni  Ni189  1  0.60135996  0.44799932  0.49654707  1
  Ni  Ni190  1  0.75828558  0.60999610  0.84130541  1
  Ni  Ni191  1  0.75004482  0.73561732  0.72637057  1
  Ni  Ni192  1  0.95351498  0.53571799  0.03710262  1
  Ni  Ni193  1  0.66222534  0.53417058  0.34563054  1
  Ni  Ni194  1  0.10012973  0.95267057  0.33722617  1
  Ni  Ni195  1  0.30203154  0.08930137  0.23883478  1
  Ni  Ni196  1  0.17825900  0.27290725  0.95948821  1
  Ni  Ni197  1  0.30038421  0.95687557  0.13748002  1
  Ni  Ni198  1  0.67807779  0.83596609  0.31900599  1
  Ni  Ni199  1  0.00066318  0.84480089  0.03182120  1
  Ni  Ni200  1  0.86166395  0.42785186  0.59927211  1
  Ni  Ni201  1  0.16494450  0.22830606  0.21777366  1
  Ni  Ni202  1  0.32500144  0.07359667  0.40261993  1
  Ni  Ni203  1  0.78150389  0.89239589  0.74401503  1
  Ni  Ni204  1  0.66773242  0.14097947  0.41729557  1
  Ni  Ni205  1  0.25376637  0.55220128  0.61485755  1
  Ni  Ni206  1  0.77696885  0.44791916  0.44536826  1
  Ni  Ni207  1  0.04815729  0.66010422  0.78457084  1
  Ni  Ni208  1  0.37243588  0.39784980  0.21839462  1
  Ni  Ni209  1  0.44797632  0.96146591  0.40305842  1
  Ni  Ni210  1  0.63299834  1.05164155  0.14814324  1
  Ni  Ni211  1  0.39466217  0.55773018  0.26376134  1
  Ni  Ni212  1  0.11324910  0.63608158  0.63280621  1
  Ni  Ni213  1  0.81068610  0.67640652  0.58793553  1
  Ni  Ni214  1  0.58930875  0.28253543  0.43044222  1
  Ni  Ni215  1  0.41937605  0.76177638  0.41922829  1
