# generated using pymatgen
data_Ti2CoNi
_symmetry_space_group_name_H-M   'P 1'
_cell_length_a   14.58248396
_cell_length_b   14.60396550
_cell_length_c   14.62088827
_cell_angle_alpha   89.77510220
_cell_angle_beta   89.95383999
_cell_angle_gamma   90.10477628
_symmetry_Int_Tables_number   1
_chemical_formula_structural   Ti2CoNi
_chemical_formula_sum   'Ti108 Co54 Ni54'
_cell_volume   3113.66474201
_cell_formula_units_Z   54
loop_
 _symmetry_equiv_pos_site_id
 _symmetry_equiv_pos_as_xyz
  1  'x, y, z'
loop_
 _atom_site_type_symbol
 _atom_site_label
 _atom_site_symmetry_multiplicity
 _atom_site_fract_x
 _atom_site_fract_y
 _atom_site_fract_z
 _atom_site_occupancy
  Ti  Ti0  1  0.08973732  0.00524819  0.03712995  1
  Ti  Ti1  1  0.02117178  -0.01449579  0.35898440  1
  Ti  Ti2  1  -0.02698726  0.03631558  0.71077859  1
  Ti  Ti3  1  0.00663849  0.28085754  -0.01821311  1
  Ti  Ti4  1  -0.02646047  0.29468484  0.26360401  1
  Ti  Ti5  1  -0.02656517  0.38040149  0.67643597  1
  Ti  Ti6  1  -0.09232456  0.69410567  -0.06457456  1
  Ti  Ti7  1  -0.00771084  0.67194076  0.40390874  1
  Ti  Ti8  1  0.01366506  0.73775294  0.74994374  1
  Ti  Ti9  1  0.36987049  -0.01091938  -0.06332823  1
  Ti  Ti10  1  0.37447720  -0.05460405  0.37911701  1
  Ti  Ti11  1  0.28792583  -0.00130730  0.65447205  1
  Ti  Ti12  1  0.33803353  0.33836274  -0.09652797  1
  Ti  Ti13  1  0.29940665  0.41823666  0.35865323  1
  Ti  Ti14  1  0.32809406  0.34494492  0.66531279  1
  Ti  Ti15  1  0.32724753  0.57006534  -0.05909462  1
  Ti  Ti16  1  0.34681593  0.65733135  0.41675201  1
  Ti  Ti17  1  0.33257608  0.71702079  0.61432088  1
  Ti  Ti18  1  0.68738462  0.03978185  0.04904319  1
  Ti  Ti19  1  0.70219901  0.00404816  0.29052500  1
  Ti  Ti20  1  0.72304620  0.01147319  0.61961761  1
  Ti  Ti21  1  0.54024037  0.31291601  -0.04957255  1
  Ti  Ti22  1  0.77848687  0.34118112  0.38486842  1
  Ti  Ti23  1  0.66953856  0.30809519  0.71291234  1
  Ti  Ti24  1  0.63562184  0.67613279  0.06314316  1
  Ti  Ti25  1  0.66467594  0.67957507  0.37679943  1
  Ti  Ti26  1  0.66424552  0.62919849  0.62793958  1
  Ti  Ti27  1  0.04102743  0.15312491  0.13075373  1
  Ti  Ti28  1  0.03602998  0.15673179  0.56848769  1
  Ti  Ti29  1  0.02402288  0.20252915  0.77765020  1
  Ti  Ti30  1  -0.03094230  0.47751863  0.17409943  1
  Ti  Ti31  1  0.05972214  0.47431378  0.46603462  1
  Ti  Ti32  1  0.03221482  0.43601749  0.85053041  1
  Ti  Ti33  1  -0.07974037  0.79111632  0.10808781  1
  Ti  Ti34  1  -0.00556364  0.82099353  0.54538169  1
  Ti  Ti35  1  0.03526854  0.84048241  0.96310339  1
  Ti  Ti36  1  0.32120104  0.18132615  0.18391369  1
  Ti  Ti37  1  0.34508000  0.11788777  0.46050627  1
  Ti  Ti38  1  0.28024505  0.13954334  0.80817658  1
  Ti  Ti39  1  0.29917285  0.46890297  0.12447104  1
  Ti  Ti40  1  0.38769390  0.48497487  0.53502968  1
  Ti  Ti41  1  0.21588337  0.49174933  0.82227311  1
  Ti  Ti42  1  0.37128304  0.85067920  0.08129962  1
  Ti  Ti43  1  0.25822773  0.85512318  0.51569903  1
  Ti  Ti44  1  0.40340172  0.72762999  0.80796830  1
  Ti  Ti45  1  0.58048847  0.14661328  0.20512987  1
  Ti  Ti46  1  0.70395942  0.22338861  0.52398535  1
  Ti  Ti47  1  0.71769186  0.12656756  0.87161028  1
  Ti  Ti48  1  0.70506268  0.45671257  0.23031612  1
  Ti  Ti49  1  0.61519636  0.49533566  0.41877878  1
  Ti  Ti50  1  0.69334139  0.50550430  0.79058770  1
  Ti  Ti51  1  0.71999588  0.78773070  0.21089452  1
  Ti  Ti52  1  0.57544712  0.83320093  0.49129392  1
  Ti  Ti53  1  0.65658531  0.86109124  0.75847974  1
  Ti  Ti54  1  0.21931547  -0.08329974  0.20986035  1
  Ti  Ti55  1  0.12385520  -0.02052120  0.51798076  1
  Ti  Ti56  1  0.16908970  -0.02923011  0.84799284  1
  Ti  Ti57  1  0.11755615  0.34293136  0.12706851  1
  Ti  Ti58  1  0.20660327  0.29431950  0.49120355  1
  Ti  Ti59  1  0.16783158  0.30367085  0.84268400  1
  Ti  Ti60  1  0.19744080  0.69132271  0.22504060  1
  Ti  Ti61  1  0.19813915  0.61170197  0.51429266  1
  Ti  Ti62  1  0.12359173  0.65035232  0.88199007  1
  Ti  Ti63  1  0.55585107  -0.06127446  0.18503007  1
  Ti  Ti64  1  0.56691433  0.03356021  0.46482629  1
  Ti  Ti65  1  0.55282660  0.02746479  0.81591113  1
  Ti  Ti66  1  0.55630636  0.33517133  0.17467251  1
  Ti  Ti67  1  0.54887074  0.34546840  0.53028389  1
  Ti  Ti68  1  0.50504153  0.36072199  0.77273254  1
  Ti  Ti69  1  0.45434524  0.67159362  0.11848254  1
  Ti  Ti70  1  0.50889123  0.64465453  0.52330733  1
  Ti  Ti71  1  0.54085424  0.62412841  0.90232879  1
  Ti  Ti72  1  0.88168749  0.04286941  0.16620990  1
  Ti  Ti73  1  0.83807002  -0.07153917  0.46144230  1
  Ti  Ti74  1  0.83273409  -0.03611452  0.86797723  1
  Ti  Ti75  1  0.82083017  0.35866123  0.08758591  1
  Ti  Ti76  1  0.89328095  0.26067402  0.52003287  1
  Ti  Ti77  1  0.73721274  0.33293292  0.89839992  1
  Ti  Ti78  1  0.89180379  0.64288330  0.21970948  1
  Ti  Ti79  1  0.81744729  0.73071604  0.51115572  1
  Ti  Ti80  1  0.82702642  0.62853272  0.77565528  1
  Ti  Ti81  1  0.19521700  0.20110122  0.02589710  1
  Ti  Ti82  1  0.13919643  0.13532463  0.38266374  1
  Ti  Ti83  1  0.17871597  0.23121019  0.66782416  1
  Ti  Ti84  1  0.13376396  0.54298676  0.04786594  1
  Ti  Ti85  1  0.13748092  0.47595612  0.25727704  1
  Ti  Ti86  1  0.12841935  0.56035717  0.67405766  1
  Ti  Ti87  1  0.20068536  0.74342892  0.02640915  1
  Ti  Ti88  1  0.09952554  0.81779507  0.33662458  1
  Ti  Ti89  1  0.11078977  0.89542899  0.68358760  1
  Ti  Ti90  1  0.49675943  0.13376465  -0.00804076  1
  Ti  Ti91  1  0.45826442  0.24820511  0.33932686  1
  Ti  Ti92  1  0.49086772  0.20060765  0.67852409  1
  Ti  Ti93  1  0.52052154  0.50370210  0.04505134  1
  Ti  Ti94  1  0.45191076  0.49382066  0.24537965  1
  Ti  Ti95  1  0.50633584  0.53618073  0.72714548  1
  Ti  Ti96  1  0.50321502  0.83654344  -0.05859654  1
  Ti  Ti97  1  0.46629019  0.77698702  0.31845358  1
  Ti  Ti98  1  0.44570676  0.85968951  0.65618153  1
  Ti  Ti99  1  0.90801497  0.11750231  -0.02645181  1
  Ti  Ti100  1  0.81428571  0.16771714  0.33031714  1
  Ti  Ti101  1  0.84389964  0.22466035  0.72054719  1
  Ti  Ti102  1  0.74988729  0.52823950  0.00082919  1
  Ti  Ti103  1  0.83240198  0.53497228  0.37496391  1
  Ti  Ti104  1  0.82506643  0.50550455  0.62624865  1
  Ti  Ti105  1  0.77534493  0.83015105  -0.00935498  1
  Ti  Ti106  1  0.89996544  0.85821173  0.27393220  1
  Ti  Ti107  1  0.86708671  0.88133544  0.67132818  1
  Co  Co108  1  0.87444837  0.43649916  0.94326695  1
  Co  Co109  1  0.38810415  0.71497417  -0.02137129  1
  Co  Co110  1  1.01554986  0.26084476  0.41297756  1
  Co  Co111  1  0.71721228  0.86060811  0.56431051  1
  Co  Co112  1  0.79833959  0.34738000  0.62720180  1
  Co  Co113  1  0.48388998  0.07519977  0.31977398  1
  Co  Co114  1  0.91554335  0.57864577  0.51259420  1
  Co  Co115  1  0.83070469  0.42027028  0.77981834  1
  Co  Co116  1  0.72940621  0.41834417  0.50632299  1
  Co  Co117  1  0.13677209  0.33792662  0.34588274  1
  Co  Co118  1  0.54895932  0.92112958  0.34415312  1
  Co  Co119  1  0.86225411  1.01280515  0.32823148  1
  Co  Co120  1  -0.03354906  0.98540809  0.55116158  1
  Co  Co121  1  0.24500575  0.33740827  0.22439717  1
  Co  Co122  1  0.73630476  0.58415293  0.49706077  1
  Co  Co123  1  0.19908671  0.95076145  0.37618152  1
  Co  Co124  1  0.60666420  0.45621012  0.90301557  1
  Co  Co125  1  0.30746024  1.00998147  0.10216360  1
  Co  Co126  1  0.28646469  0.31374897  0.07075517  1
  Co  Co127  1  0.14360915  0.06818522  0.70525665  1
  Co  Co128  1  0.98127016  0.13030454  0.28240635  1
  Co  Co129  1  0.74523042  0.13805875  0.16106368  1
  Co  Co130  1  0.04043427  0.68087321  0.06383753  1
  Co  Co131  1  0.52529213  -0.02239150  1.02018801  1
  Co  Co132  1  0.17444057  0.39672702  0.97266362  1
  Co  Co133  1  0.85364003  0.40935580  0.25534534  1
  Co  Co134  1  0.39782452  0.91994669  0.22536969  1
  Co  Co135  1  0.28459414  0.23778159  0.34741500  1
  Co  Co136  1  0.14690481  0.21303896  0.24146746  1
  Co  Co137  1  -0.05515422  0.11069479  0.43857988  1
  Co  Co138  1  0.73076865  0.62204631  0.23389401  1
  Co  Co139  1  0.82540881  0.73344125  0.34522142  1
  Co  Co140  1  0.73893847  0.07399421  0.45445227  1
  Co  Co141  1  0.44678375  0.46403435  0.90435321  1
  Co  Co142  1  0.59339405  0.77764498  0.63817674  1
  Co  Co143  1  0.03778422  0.64960526  0.57588073  1
  Co  Co144  1  0.75388601  0.75645514  0.67985964  1
  Co  Co145  1  0.05847187  0.33252219  0.55269216  1
  Co  Co146  1  0.14273146  0.81140138  0.83779641  1
  Co  Co147  1  0.00034053  0.56749488  0.93523456  1
  Co  Co148  1  0.23661769  0.06217189  0.96752662  1
  Co  Co149  1  0.01082242  0.43113257  0.02479929  1
  Co  Co150  1  0.62536474  0.68251226  0.77829347  1
  Co  Co151  1  0.90012659  0.69332229  0.64562102  1
  Co  Co152  1  0.22646054  0.44860766  0.54963430  1
  Co  Co153  1  0.56983506  0.95986356  0.63583431  1
  Co  Co154  1  0.39724258  0.33386799  0.20914787  1
  Co  Co155  1  0.21110344  0.90273555  1.02087032  1
  Co  Co156  1  0.90703664  0.56539090  0.06004742  1
  Co  Co157  1  0.29210363  0.07020748  0.30067542  1
  Co  Co158  1  0.48114052  0.67658504  0.68016613  1
  Co  Co159  1  0.90674932  0.41556745  0.49853927  1
  Co  Co160  1  0.79545320  0.67981901  0.07616562  1
  Co  Co161  1  0.73719069  0.65351664  0.90656310  1
  Ni  Ni162  1  0.18083806  0.07443531  0.16933228  1
  Ni  Ni163  1  0.62148488  0.84581845  0.06748686  1
  Ni  Ni164  1  0.88999052  0.21404959  0.12816531  1
  Ni  Ni165  1  0.50060577  0.18462336  0.49218382  1
  Ni  Ni166  1  0.28669851  0.80004901  0.33426667  1
  Ni  Ni167  1  0.83296810  0.79919155  0.81756253  1
  Ni  Ni168  1  0.35579884  0.63224079  0.25475983  1
  Ni  Ni169  1  0.98395318  0.88779139  0.80668852  1
  Ni  Ni170  1  0.11559582  0.14302850  0.89468261  1
  Ni  Ni171  1  0.16109516  0.73631977  0.65128659  1
  Ni  Ni172  1  0.42582657  0.20140667  0.84517296  1
  Ni  Ni173  1  0.50138416  0.60603974  0.35266130  1
  Ni  Ni174  1  0.98763768  0.57278060  0.76561443  1
  Ni  Ni175  1  0.20511213  0.11774518  0.54884586  1
  Ni  Ni176  1  0.37726359  0.30627261  0.48961106  1
  Ni  Ni177  1  0.42841884  0.37356511  0.05092512  1
  Ni  Ni178  1  0.60751609  0.34295395  0.34483890  1
  Ni  Ni179  1  0.63106008  0.22580642  0.05932576  1
  Ni  Ni180  1  0.33915817  0.17582429  0.62098684  1
  Ni  Ni181  1  0.65595655  0.39525483  0.05375160  1
  Ni  Ni182  1  0.41829095  0.96983590  0.54035807  1
  Ni  Ni183  1  1.00454762  0.02729484  0.88120681  1
  Ni  Ni184  1  0.60781131  0.12785647  0.60743325  1
  Ni  Ni185  1  0.21396852  0.57132735  0.35611261  1
  Ni  Ni186  1  0.91264916  0.30240365  0.85060635  1
  Ni  Ni187  1  0.77145091  0.92328544  0.13532381  1
  Ni  Ni188  1  0.08292375  0.81610441  0.15271253  1
  Ni  Ni189  1  0.44943388  0.05952204  0.14393320  1
  Ni  Ni190  1  0.62876904  0.17924299  0.36917231  1
  Ni  Ni191  1  0.27524517  0.84150104  0.72695683  1
  Ni  Ni192  1  0.41503143  0.05626119  0.73239590  1
  Ni  Ni193  1  0.71680612  0.27805065  0.23332959  1
  Ni  Ni194  1  0.58510585  0.20608387  0.82549989  1
  Ni  Ni195  1  0.80845737  0.06819930  0.74393201  1
  Ni  Ni196  1  0.29464804  0.63418497  0.10119429  1
  Ni  Ni197  1  0.05205430  0.62086102  0.25799447  1
  Ni  Ni198  1  0.66068649  0.94460149  0.91713747  1
  Ni  Ni199  1  0.59163337  0.55347618  0.17812777  1
  Ni  Ni200  1  0.41855506  0.90471014  0.80685846  1
  Ni  Ni201  1  0.70405741  0.85189259  0.37568567  1
  Ni  Ni202  1  0.36569740  0.45972938  0.77158242  1
  Ni  Ni203  1  0.90631031  0.94881759  0.02522540  1
  Ni  Ni204  1  0.46554150  0.41967655  0.39287667  1
  Ni  Ni205  1  0.57922548  0.70505280  0.22623875  1
  Ni  Ni206  1  0.64359214  0.77590127  0.90999890  1
  Ni  Ni207  1  0.29599433  0.82844174  0.89887580  1
  Ni  Ni208  1  0.24813073  0.67941805  0.78220675  1
  Ni  Ni209  1  0.13080411  0.76022941  0.48733743  1
  Ni  Ni210  1  0.85588066  0.10787512  0.58210454  1
  Ni  Ni211  1  0.41141624  0.80320342  0.48189531  1
  Ni  Ni212  1  0.62715014  0.45501087  0.62957497  1
  Ni  Ni213  1  0.31473965  0.56849300  0.66714372  1
  Ni  Ni214  1  0.77988028  0.20533820  1.00610573  1
  Ni  Ni215  1  0.14660273  0.39323523  0.69243465  1
