# generated using pymatgen
data_Ti2CoNi
_symmetry_space_group_name_H-M   'P 1'
_cell_length_a   14.62711674
_cell_length_b   14.65427477
_cell_length_c   14.61615845
_cell_angle_alpha   89.59776175
_cell_angle_beta   89.94464255
_cell_angle_gamma   90.18513842
_symmetry_Int_Tables_number   1
_chemical_formula_structural   Ti2CoNi
_chemical_formula_sum   'Ti108 Co54 Ni54'
_cell_volume   3132.87536884
_cell_formula_units_Z   54
loop_
 _symmetry_equiv_pos_site_id
 _symmetry_equiv_pos_as_xyz
  1  'x, y, z'
loop_
 _atom_site_type_symbol
 _atom_site_label
 _atom_site_symmetry_multiplicity
 _atom_site_fract_x
 _atom_site_fract_y
 _atom_site_fract_z
 _atom_site_occupancy
  Ti  Ti0  1  0.09248375  0.04692842  -0.01731723  1
  Ti  Ti1  1  0.02657975  0.01998149  0.38736298  1
  Ti  Ti2  1  -0.10139416  -0.00442518  0.61339221  1
  Ti  Ti3  1  0.05341888  0.24485406  0.03308464  1
  Ti  Ti4  1  -0.00702979  0.37865694  0.29744146  1
  Ti  Ti5  1  -0.04780442  0.30012290  0.66240506  1
  Ti  Ti6  1  -0.08697243  0.65143188  -0.03659412  1
  Ti  Ti7  1  0.04310574  0.64615369  0.41012693  1
  Ti  Ti8  1  -0.02894800  0.63845748  0.68536798  1
  Ti  Ti9  1  0.36974670  0.02756548  0.00157301  1
  Ti  Ti10  1  0.31304873  0.02042190  0.30792367  1
  Ti  Ti11  1  0.32579230  0.03425519  0.63455457  1
  Ti  Ti12  1  0.35366096  0.31893913  0.00766809  1
  Ti  Ti13  1  0.36844099  0.34854454  0.30323580  1
  Ti  Ti14  1  0.38895336  0.31747872  0.61969311  1
  Ti  Ti15  1  0.36072638  0.71824473  0.06728287  1
  Ti  Ti16  1  0.45430922  0.66151028  0.27419731  1
  Ti  Ti17  1  0.30550462  0.61855614  0.69321627  1
  Ti  Ti18  1  0.68076812  -0.05136850  -0.00153742  1
  Ti  Ti19  1  0.60020547  0.06849748  0.33198829  1
  Ti  Ti20  1  0.66148438  -0.02178858  0.64891149  1
  Ti  Ti21  1  0.65427292  0.41308175  -0.00345943  1
  Ti  Ti22  1  0.68922871  0.29984133  0.35140095  1
  Ti  Ti23  1  0.64531889  0.37497004  0.65683926  1
  Ti  Ti24  1  0.70331541  0.60378183  0.03037332  1
  Ti  Ti25  1  0.76099117  0.67179885  0.34301244  1
  Ti  Ti26  1  0.67511722  0.78159752  0.68269801  1
  Ti  Ti27  1  0.00504944  0.05968490  0.16305882  1
  Ti  Ti28  1  0.04667704  0.17515822  0.53761164  1
  Ti  Ti29  1  -0.02385604  0.11292540  0.74038707  1
  Ti  Ti30  1  0.02989457  0.56514934  0.22402071  1
  Ti  Ti31  1  -0.01914428  0.46596513  0.56630906  1
  Ti  Ti32  1  0.02964412  0.52149413  0.86979616  1
  Ti  Ti33  1  -0.06038114  0.83042869  0.18069239  1
  Ti  Ti34  1  0.00465736  0.83652766  0.39082881  1
  Ti  Ti35  1  0.06121808  0.72957961  0.83221633  1
  Ti  Ti36  1  0.29107646  0.18865859  0.16263743  1
  Ti  Ti37  1  0.25967555  0.19408351  0.55230315  1
  Ti  Ti38  1  0.34033581  0.11614658  0.81224989  1
  Ti  Ti39  1  0.29545221  0.55664027  0.20511346  1
  Ti  Ti40  1  0.38019671  0.51791303  0.53755602  1
  Ti  Ti41  1  0.41196051  0.51656320  0.84885811  1
  Ti  Ti42  1  0.29188292  0.81668115  0.22297606  1
  Ti  Ti43  1  0.31968125  0.82728037  0.43353445  1
  Ti  Ti44  1  0.34375691  0.81733769  0.88120186  1
  Ti  Ti45  1  0.67739266  0.10549953  0.11455658  1
  Ti  Ti46  1  0.59938456  0.12191812  0.52481823  1
  Ti  Ti47  1  0.70793644  0.26473009  0.83650590  1
  Ti  Ti48  1  0.59793417  0.50498135  0.17929203  1
  Ti  Ti49  1  0.66988446  0.56495615  0.50139637  1
  Ti  Ti50  1  0.70075998  0.48807574  0.82912455  1
  Ti  Ti51  1  0.67754946  0.85971134  0.18996773  1
  Ti  Ti52  1  0.65437730  0.78641698  0.47184364  1
  Ti  Ti53  1  0.69353848  0.83043650  0.85544354  1
  Ti  Ti54  1  0.20989302  0.00031532  0.13061170  1
  Ti  Ti55  1  0.14033084  -0.09103539  0.54026773  1
  Ti  Ti56  1  0.15968212  0.04183816  0.79191018  1
  Ti  Ti57  1  0.15933359  0.32115501  0.21433029  1
  Ti  Ti58  1  0.18300492  0.30799049  0.43160185  1
  Ti  Ti59  1  0.17849382  0.32757042  0.87474369  1
  Ti  Ti60  1  0.17619461  0.67215617  0.11444034  1
  Ti  Ti61  1  0.24696349  0.63792330  0.47742958  1
  Ti  Ti62  1  0.22946103  0.62372560  0.87243018  1
  Ti  Ti63  1  0.47407642  0.06702160  0.18997258  1
  Ti  Ti64  1  0.46021975  -0.02493864  0.45221189  1
  Ti  Ti65  1  0.59965314  0.01408079  0.83471958  1
  Ti  Ti66  1  0.48675555  0.33805817  0.13343701  1
  Ti  Ti67  1  0.52561358  0.29751701  0.48388272  1
  Ti  Ti68  1  0.41205962  0.32527796  0.82232073  1
  Ti  Ti69  1  0.51801640  0.78161532  0.14045249  1
  Ti  Ti70  1  0.49701823  0.65140782  0.46280789  1
  Ti  Ti71  1  0.48970350  0.70528069  0.76666976  1
  Ti  Ti72  1  0.82888461  -0.02812078  0.12780087  1
  Ti  Ti73  1  0.75357263  0.01002434  0.45159725  1
  Ti  Ti74  1  0.79739246  0.04775527  0.81542907  1
  Ti  Ti75  1  0.82460959  0.30256588  0.19235885  1
  Ti  Ti76  1  0.82508295  0.34800227  0.50675225  1
  Ti  Ti77  1  0.87609245  0.37967686  0.84557555  1
  Ti  Ti78  1  0.85751793  0.64537866  0.15351513  1
  Ti  Ti79  1  0.88501384  0.61081483  0.50441580  1
  Ti  Ti80  1  0.87215230  0.77607894  0.81282606  1
  Ti  Ti81  1  0.23824309  0.16288550  -0.03099399  1
  Ti  Ti82  1  0.05619962  0.19716820  0.33272473  1
  Ti  Ti83  1  0.13810202  0.21883558  0.70575650  1
  Ti  Ti84  1  0.14864066  0.47210616  0.04730531  1
  Ti  Ti85  1  0.12929272  0.48013703  0.44548453  1
  Ti  Ti86  1  0.12778175  0.50551603  0.69667958  1
  Ti  Ti87  1  0.09608379  0.85264360  0.05747618  1
  Ti  Ti88  1  0.11465602  0.75881033  0.26156853  1
  Ti  Ti89  1  0.20037949  0.85191719  0.73228476  1
  Ti  Ti90  1  0.57353025  0.23739244  -0.00851879  1
  Ti  Ti91  1  0.40012237  0.15842365  0.42224817  1
  Ti  Ti92  1  0.53925592  0.19986652  0.72049822  1
  Ti  Ti93  1  0.43492604  0.51778511  0.05520650  1
  Ti  Ti94  1  0.51845834  0.47013486  0.38120045  1
  Ti  Ti95  1  0.53769409  0.53643040  0.69149242  1
  Ti  Ti96  1  0.53868109  0.78426978  -0.06196425  1
  Ti  Ti97  1  0.47871022  0.89094158  0.27866314  1
  Ti  Ti98  1  0.49343780  0.82452675  0.60105599  1
  Ti  Ti99  1  0.89906404  0.19895234  -0.08376330  1
  Ti  Ti100  1  0.86354722  0.12141469  0.29538019  1
  Ti  Ti101  1  0.80964618  0.16444839  0.59876431  1
  Ti  Ti102  1  0.86306222  0.46801292  0.01535395  1
  Ti  Ti103  1  0.79050395  0.46695506  0.34288444  1
  Ti  Ti104  1  0.78326461  0.55116146  0.66933882  1
  Ti  Ti105  1  0.80690666  0.79726274  0.02742964  1
  Ti  Ti106  1  0.79961404  0.85710438  0.33447978  1
  Ti  Ti107  1  0.89477190  0.80774592  0.61745382  1
  Co  Co108  1  0.47022099  0.04926828  0.74525994  1
  Co  Co109  1  0.59626173  0.75680403  0.30704506  1
  Co  Co110  1  0.93373474  0.93471804  0.76942172  1
  Co  Co111  1  0.58565306  0.66828032  0.60363116  1
  Co  Co112  1  0.06143986  -0.02708303  0.67930818  1
  Co  Co113  1  0.35721923  0.78593710  0.71241396  1
  Co  Co114  1  0.71244746  0.16981909  0.26056479  1
  Co  Co115  1  0.53161119  0.87073277  0.76036410  1
  Co  Co116  1  0.89211778  0.47488594  0.19293166  1
  Co  Co117  1  0.97123763  0.80186634  0.96752845  1
  Co  Co118  1  0.01241818  0.70543603  0.11312235  1
  Co  Co119  1  0.94015193  0.47967151  0.72032069  1
  Co  Co120  1  0.16440832  0.77350470  0.42501013  1
  Co  Co121  1  0.76211133  0.87592944  0.55181601  1
  Co  Co122  1  0.84215938  0.91292484  0.91422811  1
  Co  Co123  1  0.16761136  0.58879436  0.30777895  1
  Co  Co124  1  0.14718500  0.67910612  0.70181234  1
  Co  Co125  1  0.33223652  0.94536066  0.77343876  1
  Co  Co126  1  0.54810585  0.35112402  0.27970729  1
  Co  Co127  1  0.67952117  0.25663693  0.55964223  1
  Co  Co128  1  0.74547414  0.55764278  0.22121064  1
  Co  Co129  1  0.16085359  0.07157176  0.60615106  1
  Co  Co130  1  0.99959397  0.54293602  0.06400405  1
  Co  Co131  1  0.03518585  0.81895499  0.70005684  1
  Co  Co132  1  0.74923833  0.43598332  0.12539367  1
  Co  Co133  1  0.45263969  0.95307012  0.88126347  1
  Co  Co134  1  0.38667480  0.69769334  0.57529116  1
  Co  Co135  1  0.75191658  0.17168923  0.43371581  1
  Co  Co136  1  0.02250348  0.39341876  0.12838276  1
  Co  Co137  1  0.41798042  0.20205131  0.26221750  1
  Co  Co138  1  0.09198334  0.60265416  0.56493241  1
  Co  Co139  1  0.75243244  0.27772800  0.99595724  1
  Co  Co140  1  0.22851668  0.76238490  0.58538458  1
  Co  Co141  1  0.13481613  0.15802889  0.13397685  1
  Co  Co142  1  0.30420547  0.40051939  0.14892548  1
  Co  Co143  1  0.54837426  0.20744916  0.35482788  1
  Co  Co144  1  0.28549744  0.69217247  0.31926026  1
  Co  Co145  1  0.84102343  0.21854717  0.75690278  1
  Co  Co146  1  0.89864017  0.93543178  0.46485785  1
  Co  Co147  1  0.39548124  0.45781471  0.69215121  1
  Co  Co148  1  0.91111577  -0.03609864  0.28562308  1
  Co  Co149  1  0.95821420  0.94951628  0.02914579  1
  Co  Co150  1  0.43470349  0.18198136  0.08318189  1
  Co  Co151  1  0.66859223  0.30048051  0.13889397  1
  Co  Co152  1  0.33870078  0.88240685  0.58598968  1
  Co  Co153  1  0.19825836  0.31301812  0.05361836  1
  Co  Co154  1  1.01453602  0.38323605  0.94931670  1
  Co  Co155  1  0.44152913  0.48138819  0.22641956  1
  Co  Co156  1  -0.01988272  0.23420548  0.19528138  1
  Co  Co157  1  1.04095406  0.75408498  0.54563302  1
  Co  Co158  1  0.56451127  0.20059589  0.18960315  1
  Co  Co159  1  0.78356233  0.90341687  0.72993259  1
  Co  Co160  1  0.23407185  -0.02929174  0.91848211  1
  Co  Co161  1  0.96201060  0.04262550  0.88921827  1
  Ni  Ni162  1  0.75866540  0.69545876  0.56699484  1
  Ni  Ni163  1  0.26723667  0.86070015  0.04988273  1
  Ni  Ni164  1  0.22559615  0.43612504  0.31419965  1
  Ni  Ni165  1  0.94640298  0.49580005  0.39856382  1
  Ni  Ni166  1  0.25772008  0.43529609  0.76737901  1
  Ni  Ni167  1  0.07801770  0.92562664  0.23274915  1
  Ni  Ni168  1  0.43185991  0.18157051  0.92343359  1
  Ni  Ni169  1  0.28411166  0.57682834  0.02231033  1
  Ni  Ni170  1  0.34158037  0.36934220  0.46427036  1
  Ni  Ni171  1  0.41721880  0.65908071  0.92371992  1
  Ni  Ni172  1  0.80550610  0.37822047  0.69033240  1
  Ni  Ni173  1  0.85996358  0.56251674  0.83205156  1
  Ni  Ni174  1  0.90733265  0.11748197  0.46524268  1
  Ni  Ni175  1  0.90130305  0.31078027  0.04788116  1
  Ni  Ni176  1  0.66890407  0.40585637  0.47963594  1
  Ni  Ni177  1  0.17858187  0.92862164  0.36496906  1
  Ni  Ni178  1  0.44098679  0.15271327  0.58968915  1
  Ni  Ni179  1  0.18487626  0.79015009  0.92696155  1
  Ni  Ni180  1  0.49593797  0.40539452  0.95193126  1
  Ni  Ni181  1  0.68806275  0.13734702  0.70894703  1
  Ni  Ni182  1  0.55373736  0.94782498  0.10729491  1
  Ni  Ni183  1  0.65221294  0.63681917  0.75932920  1
  Ni  Ni184  1  0.57641658  0.36338816  0.81516389  1
  Ni  Ni185  1  0.92482862  0.70634405  0.30310884  1
  Ni  Ni186  1  0.88301111  0.26985369  0.36797351  1
  Ni  Ni187  1  0.57306403  0.58334447  0.89869035  1
  Ni  Ni188  1  0.09210320  0.64898626  0.97566264  1
  Ni  Ni189  1  0.61574598  0.59399942  0.32868513  1
  Ni  Ni190  1  0.10982210  0.34267677  0.59373454  1
  Ni  Ni191  1  0.28700089  0.26051940  0.73553921  1
  Ni  Ni192  1  0.07273101  0.18156408  0.86658126  1
  Ni  Ni193  1  0.74683982  0.67109974  0.88613946  1
  Ni  Ni194  1  0.29016681  0.00015183  0.47360312  1
  Ni  Ni195  1  0.00734284  0.33228874  0.46393205  1
  Ni  Ni196  1  0.04773025  0.36622577  0.78086265  1
  Ni  Ni197  1  0.74059332  1.00236646  0.26884230  1
  Ni  Ni198  1  0.62878233  0.90793439  0.36087657  1
  Ni  Ni199  1  0.68494716  0.12275800  0.93940964  1
  Ni  Ni200  1  0.48927052  0.81018724  0.42092310  1
  Ni  Ni201  1  0.24523348  0.43657334  0.59115814  1
  Ni  Ni202  1  0.43124099  0.87249799  0.02419418  1
  Ni  Ni203  1  0.52263218  0.44313951  0.55698977  1
  Ni  Ni204  1  0.35796950  0.53941139  0.36716594  1
  Ni  Ni205  1  0.54086269  0.64252565  0.05353628  1
  Ni  Ni206  1  0.66078402  0.68788456  0.17341831  1
  Ni  Ni207  1  0.86439355  0.76699413  0.45610043  1
  Ni  Ni208  1  0.82808147  0.06425945  -0.00748545  1
  Ni  Ni209  1  0.25833812  0.19501447  0.33441708  1
  Ni  Ni210  1  0.37022326  0.94333621  0.15566576  1
  Ni  Ni211  1  0.50327678  -0.00619356  0.60414970  1
  Ni  Ni212  1  0.28228139  0.44656634  0.92880657  1
  Ni  Ni213  1  0.16755509  0.09904445  0.43846545  1
  Ni  Ni214  1  0.15561121  0.07243454  0.27374245  1
  Ni  Ni215  1  0.07131474  0.90522522  0.86248679  1
