# generated using pymatgen
data_Ti2CoNi
_symmetry_space_group_name_H-M   'P 1'
_cell_length_a   14.62994003
_cell_length_b   14.51527761
_cell_length_c   14.56091123
_cell_angle_alpha   90.04642384
_cell_angle_beta   90.22649156
_cell_angle_gamma   89.97003600
_symmetry_Int_Tables_number   1
_chemical_formula_structural   Ti2CoNi
_chemical_formula_sum   'Ti108 Co54 Ni54'
_cell_volume   3092.09516603
_cell_formula_units_Z   54
loop_
 _symmetry_equiv_pos_site_id
 _symmetry_equiv_pos_as_xyz
  1  'x, y, z'
loop_
 _atom_site_type_symbol
 _atom_site_label
 _atom_site_symmetry_multiplicity
 _atom_site_fract_x
 _atom_site_fract_y
 _atom_site_fract_z
 _atom_site_occupancy
  Ti  Ti0  1  0.03337676  0.03364231  0.01683637  1
  Ti  Ti1  1  0.03348814  0.02655250  0.31200973  1
  Ti  Ti2  1  -0.04668754  -0.04667669  0.65455510  1
  Ti  Ti3  1  0.00937732  0.35420223  0.02460340  1
  Ti  Ti4  1  -0.02400868  0.34634855  0.33475956  1
  Ti  Ti5  1  -0.00619716  0.41529756  0.70184456  1
  Ti  Ti6  1  0.10750660  0.61241655  -0.05307618  1
  Ti  Ti7  1  -0.03070228  0.72871562  0.27430462  1
  Ti  Ti8  1  0.05691526  0.67116076  0.73666948  1
  Ti  Ti9  1  0.36518810  -0.01650870  0.04613666  1
  Ti  Ti10  1  0.36810688  -0.01828889  0.26832751  1
  Ti  Ti11  1  0.24686982  0.01494782  0.66732699  1
  Ti  Ti12  1  0.29441766  0.32151636  -0.03678943  1
  Ti  Ti13  1  0.34332587  0.38888326  0.34388149  1
  Ti  Ti14  1  0.31555253  0.27157864  0.60368299  1
  Ti  Ti15  1  0.33138542  0.70434643  -0.03685576  1
  Ti  Ti16  1  0.39461385  0.63307715  0.37056904  1
  Ti  Ti17  1  0.22832885  0.65997460  0.67777279  1
  Ti  Ti18  1  0.63266516  0.01011122  -0.06076186  1
  Ti  Ti19  1  0.59344022  0.02487527  0.39480422  1
  Ti  Ti20  1  0.73594114  -0.03080094  0.72171669  1
  Ti  Ti21  1  0.59075950  0.28993819  0.01857888  1
  Ti  Ti22  1  0.66431154  0.37423957  0.36669146  1
  Ti  Ti23  1  0.69317526  0.35262777  0.65139667  1
  Ti  Ti24  1  0.69451142  0.57390384  -0.00713139  1
  Ti  Ti25  1  0.63684032  0.62214815  0.29303585  1
  Ti  Ti26  1  0.70695790  0.77916382  0.65466944  1
  Ti  Ti27  1  0.01563358  0.21312365  0.14212135  1
  Ti  Ti28  1  -0.02723963  0.12871699  0.57514090  1
  Ti  Ti29  1  0.00413915  0.15221350  0.80813927  1
  Ti  Ti30  1  0.01961780  0.55028646  0.13776827  1
  Ti  Ti31  1  -0.04657330  0.48348821  0.49618453  1
  Ti  Ti32  1  -0.04773338  0.55033519  0.83006644  1
  Ti  Ti33  1  0.00615246  0.88355758  0.14069490  1
  Ti  Ti34  1  -0.00940599  0.84960379  0.45611007  1
  Ti  Ti35  1  -0.00921446  0.78594302  0.89657745  1
  Ti  Ti36  1  0.33417179  0.24593036  0.18088429  1
  Ti  Ti37  1  0.29167083  0.09618931  0.49596155  1
  Ti  Ti38  1  0.27238923  0.15744751  0.81865536  1
  Ti  Ti39  1  0.34516062  0.46958957  0.11162711  1
  Ti  Ti40  1  0.26040033  0.51926269  0.49978125  1
  Ti  Ti41  1  0.39813969  0.47497145  0.85089312  1
  Ti  Ti42  1  0.30674258  0.82319927  0.14010686  1
  Ti  Ti43  1  0.33205765  0.87025042  0.56390243  1
  Ti  Ti44  1  0.35044044  0.86702581  0.83312260  1
  Ti  Ti45  1  0.68481333  0.20525133  0.21826768  1
  Ti  Ti46  1  0.63079570  0.18764110  0.54367413  1
  Ti  Ti47  1  0.76205466  0.14750386  0.87339199  1
  Ti  Ti48  1  0.67152131  0.45390942  0.18594728  1
  Ti  Ti49  1  0.61084630  0.48756383  0.52703371  1
  Ti  Ti50  1  0.65438568  0.51057191  0.80100157  1
  Ti  Ti51  1  0.70045967  0.80910447  0.21286146  1
  Ti  Ti52  1  0.68953095  0.90930436  0.51336699  1
  Ti  Ti53  1  0.62108949  0.85867526  0.82581642  1
  Ti  Ti54  1  0.18617882  -0.06203336  0.20953156  1
  Ti  Ti55  1  0.18127334  -0.04115945  0.42198516  1
  Ti  Ti56  1  0.15682899  -0.02238766  0.84344857  1
  Ti  Ti57  1  0.16840566  0.30773439  0.32642985  1
  Ti  Ti58  1  0.07599137  0.28416106  0.50643365  1
  Ti  Ti59  1  0.11993493  0.31707274  0.85915308  1
  Ti  Ti60  1  0.21616832  0.61118370  0.12660631  1
  Ti  Ti61  1  0.08430541  0.62651668  0.51933023  1
  Ti  Ti62  1  0.17968407  0.77440770  0.84719853  1
  Ti  Ti63  1  0.52696708  -0.06580973  0.16808602  1
  Ti  Ti64  1  0.47254731  0.03504548  0.58520254  1
  Ti  Ti65  1  0.45219350  0.05155927  0.84784689  1
  Ti  Ti66  1  0.48381306  0.36796207  0.15649974  1
  Ti  Ti67  1  0.48256763  0.33847809  0.47654884  1
  Ti  Ti68  1  0.54139841  0.33422165  0.81335109  1
  Ti  Ti69  1  0.42246369  0.67219153  0.14094515  1
  Ti  Ti70  1  0.45530340  0.67827219  0.56326136  1
  Ti  Ti71  1  0.50377922  0.69169024  0.75413538  1
  Ti  Ti72  1  0.80152563  -0.02315044  0.22073194  1
  Ti  Ti73  1  0.88625200  0.02609226  0.43870040  1
  Ti  Ti74  1  0.84089983  -0.06157063  0.88642655  1
  Ti  Ti75  1  0.83016949  0.29949770  0.11856642  1
  Ti  Ti76  1  0.81672367  0.33935169  0.45418075  1
  Ti  Ti77  1  0.76167551  0.35451634  0.88252383  1
  Ti  Ti78  1  0.81235191  0.61987179  0.15407764  1
  Ti  Ti79  1  0.85022584  0.68797646  0.53588697  1
  Ti  Ti80  1  0.79695613  0.62298698  0.73023976  1
  Ti  Ti81  1  0.20950560  0.14019655  0.00602733  1
  Ti  Ti82  1  0.21598244  0.12600423  0.30920908  1
  Ti  Ti83  1  0.15663652  0.23379396  0.69188915  1
  Ti  Ti84  1  0.17098520  0.44554323  0.04635003  1
  Ti  Ti85  1  0.13957595  0.51419610  0.29798589  1
  Ti  Ti86  1  0.23708669  0.44499356  0.69627832  1
  Ti  Ti87  1  0.14061800  0.77264139  0.05385375  1
  Ti  Ti88  1  0.25147646  0.79592610  0.35642978  1
  Ti  Ti89  1  0.14917558  0.81577178  0.56663227  1
  Ti  Ti90  1  0.42709022  0.18057828  -0.00008024  1
  Ti  Ti91  1  0.49021336  0.15277960  0.29077229  1
  Ti  Ti92  1  0.56230291  0.15715705  0.72486733  1
  Ti  Ti93  1  0.50305653  0.53365766  0.03002397  1
  Ti  Ti94  1  0.51325287  0.48411529  0.34799835  1
  Ti  Ti95  1  0.50447801  0.49691472  0.67321539  1
  Ti  Ti96  1  0.57348446  0.80043657  0.02754321  1
  Ti  Ti97  1  0.55676447  0.80389101  0.36191085  1
  Ti  Ti98  1  0.52553935  0.86655434  0.65498930  1
  Ti  Ti99  1  0.81312580  0.10393552  0.07082862  1
  Ti  Ti100  1  0.87634041  0.16339732  0.27231776  1
  Ti  Ti101  1  0.78842243  0.17340073  0.67762884  1
  Ti  Ti102  1  0.86373863  0.46377693  0.02917382  1
  Ti  Ti103  1  0.85555303  0.51045561  0.31348053  1
  Ti  Ti104  1  0.79523688  0.49825198  0.58661728  1
  Ti  Ti105  1  0.84727607  0.76819121  0.02002718  1
  Ti  Ti106  1  0.80972703  0.82921782  0.37988918  1
  Ti  Ti107  1  0.89696364  0.79689104  0.72902556  1
  Co  Co108  1  0.44275801  0.36893818  -0.01706989  1
  Co  Co109  1  0.63716367  0.03678332  0.60617695  1
  Co  Co110  1  0.69721225  0.63660114  0.54883258  1
  Co  Co111  1  0.41287370  0.81088223  0.26592074  1
  Co  Co112  1  0.05113955  0.19713009  0.29885085  1
  Co  Co113  1  0.92769307  0.90366779  0.29667015  1
  Co  Co114  1  0.70435212  0.71944118  0.07290061  1
  Co  Co115  1  0.86942184  0.26947098  0.77691776  1
  Co  Co116  1  0.48551525  0.53245131  0.20356619  1
  Co  Co117  1  0.61026494  0.61007221  0.13712136  1
  Co  Co118  1  0.22484999  0.45382029  0.87397910  1
  Co  Co119  1  0.80276514  0.52250813  0.88499174  1
  Co  Co120  1  0.73246138  0.23133798  1.00854478  1
  Co  Co121  1  0.79908015  0.67398840  0.30768164  1
  Co  Co122  1  0.94261060  0.19684158  0.42110793  1
  Co  Co123  1  0.64007541  0.03904610  0.22832664  1
  Co  Co124  1  0.75998087  0.17436278  0.37321422  1
  Co  Co125  1  0.10582728  0.49640692  0.60878006  1
  Co  Co126  1  0.58896111  0.76511423  0.53673356  1
  Co  Co127  1  0.74770615  1.00416543  0.36470713  1
  Co  Co128  1  0.06385807  0.46126386  0.91289199  1
  Co  Co129  1  0.99285761  0.96910259  0.83204344  1
  Co  Co130  1  0.25428243  0.86256848  0.96692637  1
  Co  Co131  1  0.42238984  0.23318284  0.83973871  1
  Co  Co132  1  0.28179401  0.31758377  0.79528457  1
  Co  Co133  1  0.58476362  0.17163770  0.90151720  1
  Co  Co134  1  0.11634597  0.52480942  0.77030035  1
  Co  Co135  1  0.29420981  0.68905212  0.24394805  1
  Co  Co136  1  0.11112444  0.08535928  0.16409359  1
  Co  Co137  1  0.39664585  0.96177669  0.71426387  1
  Co  Co138  1  0.88811389  0.25060616  -0.03982100  1
  Co  Co139  1  0.41749017  0.83676146  0.02395446  1
  Co  Co140  1  0.71238770  0.40502010  0.03922149  1
  Co  Co141  1  0.16101814  0.13436645  0.57662886  1
  Co  Co142  1  0.53554757  0.20975451  0.14841877  1
  Co  Co143  1  0.22401935  0.85454145  0.70498855  1
  Co  Co144  1  0.55683909  0.63025204  0.44390483  1
  Co  Co145  1  0.24272487  0.39077961  0.20461186  1
  Co  Co146  1  0.08523359  0.89177506  0.96037777  1
  Co  Co147  1  0.23472276  0.61456763  0.84218941  1
  Co  Co148  1  0.68545093  0.95000571  0.09508096  1
  Co  Co149  1  0.85493302  0.80020363  0.18112045  1
  Co  Co150  1  0.56824429  0.99586786  0.75211159  1
  Co  Co151  1  0.69389991  0.72443295  0.41782511  1
  Co  Co152  1  0.08604569  0.86293632  0.30943098  1
  Co  Co153  1  0.82759896  0.44663775  0.74053200  1
  Co  Co154  1  0.09929780  0.12457505  0.43241428  1
  Co  Co155  1  0.64247284  0.10878898  0.06879360  1
  Co  Co156  1  0.94493194  0.58283443  0.64565887  1
  Co  Co157  1  0.71913388  0.85689413  0.97137396  1
  Co  Co158  1  0.31673427  0.54338567  -0.02544710  1
  Co  Co159  1  0.68357294  0.25634427  0.77742922  1
  Co  Co160  1  0.18954786  0.97976521  0.04957471  1
  Co  Co161  1  0.22061891  0.62630047  0.37730723  1
  Ni  Ni162  1  0.23491350  0.35314004  0.48455261  1
  Ni  Ni163  1  0.08652588  0.04895999  0.70132900  1
  Ni  Ni164  1  0.32584336  0.23220545  0.39680765  1
  Ni  Ni165  1  0.99436092  0.75834483  0.60264036  1
  Ni  Ni166  1  0.17531983  0.27695525  0.09740665  1
  Ni  Ni167  1  0.86635046  0.93968396  0.05851553  1
  Ni  Ni168  1  0.35412029  0.93921014  0.42029619  1
  Ni  Ni169  1  0.87293173  0.06082764  0.76274661  1
  Ni  Ni170  1  0.40770416  0.78418382  0.43705508  1
  Ni  Ni171  1  0.73566004  0.54042968  0.41972842  1
  Ni  Ni172  1  0.43338853  0.07845698  0.41721876  1
  Ni  Ni173  1  0.92513135  0.41952662  0.18749412  1
  Ni  Ni174  1  0.80843469  0.03047104  0.58190659  1
  Ni  Ni175  1  -0.00683742  0.71212940  0.10550070  1
  Ni  Ni176  1  0.29962610  0.02094774  0.90633291  1
  Ni  Ni177  1  0.13287829  0.72672211  0.22225476  1
  Ni  Ni178  1  0.35603092  0.56435978  0.64424760  1
  Ni  Ni179  1  0.80409660  0.33766204  0.28063930  1
  Ni  Ni180  1  0.40140397  0.37565510  0.70705287  1
  Ni  Ni181  1  0.95011941  0.04284138  0.16571433  1
  Ni  Ni182  1  0.27141310  0.08444915  0.15338144  1
  Ni  Ni183  1  0.63665841  0.69637994  0.88574187  1
  Ni  Ni184  1  0.36693371  0.76942432  0.68943141  1
  Ni  Ni185  1  0.05083975  0.19723855  0.96778478  1
  Ni  Ni186  1  0.09369914  0.72622280  0.39387176  1
  Ni  Ni187  1  0.43096929  0.09246484  0.14967345  1
  Ni  Ni188  1  -0.00095132  0.25631151  0.67102857  1
  Ni  Ni189  1  0.31474607  0.53021218  0.26784983  1
  Ni  Ni190  1  0.51795778  0.31576892  0.30122698  1
  Ni  Ni191  1  0.48617879  0.79353907  0.88455565  1
  Ni  Ni192  1  0.50624217  0.90614728  0.48964769  1
  Ni  Ni193  1  0.93008955  0.60888132  -0.00277821  1
  Ni  Ni194  1  0.91023226  0.08801634  0.92862412  1
  Ni  Ni195  1  0.53068756  0.30858913  0.63274186  1
  Ni  Ni196  1  0.06208558  0.85070309  0.73517067  1
  Ni  Ni197  1  0.81292634  0.18985777  0.52128003  1
  Ni  Ni198  1  0.07067905  0.99081588  0.53687140  1
  Ni  Ni199  1  0.38193302  0.13685132  0.69158563  1
  Ni  Ni200  1  0.60626004  0.21711791  0.39016928  1
  Ni  Ni201  1  0.58878485  0.43972318  0.93343208  1
  Ni  Ni202  1  0.10276447  0.44303287  0.44264908  1
  Ni  Ni203  1  0.63058529  0.62253023  0.68410256  1
  Ni  Ni204  1  0.55087163  0.75510145  0.19561179  1
  Ni  Ni205  1  0.86312972  0.68266300  0.87122790  1
  Ni  Ni206  1  0.86685696  0.33301867  0.61309630  1
  Ni  Ni207  1  0.92865497  0.38782627  0.87233355  1
  Ni  Ni208  1  0.93657089  0.63900938  0.40819591  1
  Ni  Ni209  1  0.08206243  0.38580411  0.18706024  1
  Ni  Ni210  1  0.84587860  0.86181078  0.56424842  1
  Ni  Ni211  1  0.44539585  0.19197895  0.54062292  1
  Ni  Ni212  1  0.76738537  0.79674006  0.82212751  1
  Ni  Ni213  1  0.28117604  0.69608737  0.51639349  1
  Ni  Ni214  1  0.43730031  0.51093558  0.50117149  1
  Ni  Ni215  1  0.47173608  0.62986829  0.90291456  1
