# generated using pymatgen
data_Ti2CoNi
_symmetry_space_group_name_H-M   'P 1'
_cell_length_a   14.57847344
_cell_length_b   14.53914897
_cell_length_c   14.51704083
_cell_angle_alpha   90.05468806
_cell_angle_beta   89.96127775
_cell_angle_gamma   89.83738816
_symmetry_Int_Tables_number   1
_chemical_formula_structural   Ti2CoNi
_chemical_formula_sum   'Ti108 Co54 Ni54'
_cell_volume   3076.99710595
_cell_formula_units_Z   54
loop_
 _symmetry_equiv_pos_site_id
 _symmetry_equiv_pos_as_xyz
  1  'x, y, z'
loop_
 _atom_site_type_symbol
 _atom_site_label
 _atom_site_symmetry_multiplicity
 _atom_site_fract_x
 _atom_site_fract_y
 _atom_site_fract_z
 _atom_site_occupancy
  Ti  Ti0  1  -0.02087491  -0.05589449  -0.01861888  1
  Ti  Ti1  1  0.04750685  -0.06310242  0.32652543  1
  Ti  Ti2  1  0.04982684  -0.04427268  0.60581553  1
  Ti  Ti3  1  0.02729182  0.31430770  -0.02774808  1
  Ti  Ti4  1  -0.06390154  0.28536153  0.35705840  1
  Ti  Ti5  1  -0.02721508  0.29959470  0.56130589  1
  Ti  Ti6  1  0.01255814  0.59599716  -0.04977345  1
  Ti  Ti7  1  -0.08367068  0.65323647  0.35577746  1
  Ti  Ti8  1  0.09230177  0.67723473  0.72235575  1
  Ti  Ti9  1  0.26667312  -0.01749938  -0.03205935  1
  Ti  Ti10  1  0.40313738  0.04464508  0.29461157  1
  Ti  Ti11  1  0.24413436  0.06585982  0.74561079  1
  Ti  Ti12  1  0.34376722  0.36372829  0.08347933  1
  Ti  Ti13  1  0.31479827  0.34656196  0.29756683  1
  Ti  Ti14  1  0.35274252  0.27733096  0.59768617  1
  Ti  Ti15  1  0.39504021  0.71173062  0.00047896  1
  Ti  Ti16  1  0.30640926  0.63027740  0.26711107  1
  Ti  Ti17  1  0.38767590  0.64740650  0.67296888  1
  Ti  Ti18  1  0.68690736  0.05081990  -0.05240259  1
  Ti  Ti19  1  0.65374169  -0.03489527  0.40688519  1
  Ti  Ti20  1  0.71980338  -0.04058324  0.69438383  1
  Ti  Ti21  1  0.69415818  0.24431683  0.01774278  1
  Ti  Ti22  1  0.63633119  0.36329945  0.35981560  1
  Ti  Ti23  1  0.63276155  0.28207204  0.68289368  1
  Ti  Ti24  1  0.63390692  0.73784144  0.08636602  1
  Ti  Ti25  1  0.71933416  0.66569980  0.37647424  1
  Ti  Ti26  1  0.60798208  0.63529207  0.65786458  1
  Ti  Ti27  1  -0.00596755  0.14249953  0.22757923  1
  Ti  Ti28  1  -0.03182799  0.10591187  0.43920765  1
  Ti  Ti29  1  -0.04252123  0.16939330  0.78927369  1
  Ti  Ti30  1  -0.03818301  0.57990419  0.17763072  1
  Ti  Ti31  1  0.01502568  0.50108768  0.47850746  1
  Ti  Ti32  1  0.00060395  0.48330962  0.75918391  1
  Ti  Ti33  1  0.03999121  0.77764597  0.22985748  1
  Ti  Ti34  1  -0.04386804  0.83100222  0.48516162  1
  Ti  Ti35  1  0.03985878  0.86394795  0.79491512  1
  Ti  Ti36  1  0.28014829  0.19585761  0.15567293  1
  Ti  Ti37  1  0.29165018  0.11390388  0.50945638  1
  Ti  Ti38  1  0.40772061  0.14014662  0.83761558  1
  Ti  Ti39  1  0.43824252  0.52792461  0.18035528  1
  Ti  Ti40  1  0.34122468  0.49700895  0.55819242  1
  Ti  Ti41  1  0.39893352  0.55994965  0.88402239  1
  Ti  Ti42  1  0.32379462  0.89628928  0.17669749  1
  Ti  Ti43  1  0.34722448  0.90627612  0.44480369  1
  Ti  Ti44  1  0.30666823  0.81476404  0.86774843  1
  Ti  Ti45  1  0.53759918  0.14072982  0.14967560  1
  Ti  Ti46  1  0.68708440  0.10826948  0.55261221  1
  Ti  Ti47  1  0.60982819  0.21854074  0.85417276  1
  Ti  Ti48  1  0.68816308  0.40245226  0.14969481  1
  Ti  Ti49  1  0.66226438  0.51477775  0.50239982  1
  Ti  Ti50  1  0.67314835  0.57250743  0.84393343  1
  Ti  Ti51  1  0.65021182  0.90004939  0.19258464  1
  Ti  Ti52  1  0.65285706  0.79878578  0.53710954  1
  Ti  Ti53  1  0.70147339  0.76580576  0.77398079  1
  Ti  Ti54  1  0.18501563  0.04096597  0.20500752  1
  Ti  Ti55  1  0.17315232  -0.03223002  0.46714350  1
  Ti  Ti56  1  0.10549930  0.04799187  0.89343064  1
  Ti  Ti57  1  0.14781710  0.35836710  0.15243241  1
  Ti  Ti58  1  0.18034964  0.37670820  0.50512390  1
  Ti  Ti59  1  0.19412856  0.34374582  0.83832877  1
  Ti  Ti60  1  0.14900328  0.60362165  0.15274616  1
  Ti  Ti61  1  0.22554977  0.68530530  0.52792145  1
  Ti  Ti62  1  0.18923364  0.53769180  0.81600566  1
  Ti  Ti63  1  0.52150009  -0.02541348  0.07632450  1
  Ti  Ti64  1  0.48237123  0.06799738  0.48660697  1
  Ti  Ti65  1  0.55300688  -0.01858229  0.82436983  1
  Ti  Ti66  1  0.49801508  0.32149527  0.21016660  1
  Ti  Ti67  1  0.52321517  0.36719905  0.51303853  1
  Ti  Ti68  1  0.49037521  0.36882003  0.89624684  1
  Ti  Ti69  1  0.46119817  0.73428935  0.16451609  1
  Ti  Ti70  1  0.40837319  0.69952250  0.45573227  1
  Ti  Ti71  1  0.50229057  0.73066208  0.80432996  1
  Ti  Ti72  1  0.84006135  -0.03736317  0.13769759  1
  Ti  Ti73  1  0.86507509  0.02782680  0.58863260  1
  Ti  Ti74  1  0.84482560  0.01842482  0.84619380  1
  Ti  Ti75  1  0.83817179  0.28031783  0.15651726  1
  Ti  Ti76  1  0.81490788  0.37039176  0.47580026  1
  Ti  Ti77  1  0.80379830  0.33887159  0.82025521  1
  Ti  Ti78  1  0.77112635  0.61448534  0.15954654  1
  Ti  Ti79  1  0.89656899  0.64346397  0.56587740  1
  Ti  Ti80  1  0.85054637  0.65652594  0.86483202  1
  Ti  Ti81  1  0.11598967  0.15557819  0.05682820  1
  Ti  Ti82  1  0.14880455  0.23523439  0.29677116  1
  Ti  Ti83  1  0.12856621  0.23594437  0.67512664  1
  Ti  Ti84  1  0.19165896  0.48543396  0.01773841  1
  Ti  Ti85  1  0.17543501  0.49075527  0.33374042  1
  Ti  Ti86  1  0.17392570  0.53441330  0.62788657  1
  Ti  Ti87  1  0.18673408  0.75088731  0.02786461  1
  Ti  Ti88  1  0.20870550  0.77578450  0.34329119  1
  Ti  Ti89  1  0.21578127  0.83294141  0.67788405  1
  Ti  Ti90  1  0.41620766  0.19226035  0.02675958  1
  Ti  Ti91  1  0.56085136  0.17412051  0.34809825  1
  Ti  Ti92  1  0.54713047  0.09206018  0.68407068  1
  Ti  Ti93  1  0.60288602  0.54229208  0.05926001  1
  Ti  Ti94  1  0.44714065  0.49782919  0.38390917  1
  Ti  Ti95  1  0.47079685  0.41848324  0.69342358  1
  Ti  Ti96  1  0.54645478  0.83946387  -0.05284282  1
  Ti  Ti97  1  0.56286549  0.77302747  0.33184868  1
  Ti  Ti98  1  0.46605392  0.92415304  0.61293797  1
  Ti  Ti99  1  0.83704865  0.12017291  0.04807630  1
  Ti  Ti100  1  0.76335987  0.17126004  0.32144169  1
  Ti  Ti101  1  0.81118233  0.21378282  0.66956708  1
  Ti  Ti102  1  0.84294123  0.46378040  0.03637276  1
  Ti  Ti103  1  0.76468271  0.49745048  0.30414590  1
  Ti  Ti104  1  0.77783249  0.48971875  0.68103370  1
  Ti  Ti105  1  0.82118858  0.83091245  -0.04048706  1
  Ti  Ti106  1  0.83072048  0.85689776  0.31170802  1
  Ti  Ti107  1  0.83782989  0.80841581  0.64605134  1
  Co  Co108  1  0.77944052  0.81062659  0.11715496  1
  Co  Co109  1  0.40873172  0.20760473  0.42257499  1
  Co  Co110  1  0.31745795  0.43681130  0.92926647  1
  Co  Co111  1  0.69100734  0.36125552  0.56443850  1
  Co  Co112  1  0.26030664  0.13906523  0.96457020  1
  Co  Co113  1  0.90517179  0.95941599  0.41810777  1
  Co  Co114  1  0.35755108  0.36058630  0.78694164  1
  Co  Co115  1  0.60861369  0.62144534  0.21257064  1
  Co  Co116  1  0.16482338  0.74208556  0.84186942  1
  Co  Co117  1  0.96637941  0.21714309  0.08568898  1
  Co  Co118  1  0.11448974  0.08608715  0.35797044  1
  Co  Co119  1  0.77912797  0.64905013  0.70689883  1
  Co  Co120  1  0.19298907  0.92706263  0.80881625  1
  Co  Co121  1  0.79076811  0.06345811  0.43588562  1
  Co  Co122  1  0.38875958  0.11701240  0.65165712  1
  Co  Co123  1  0.54795553  0.12308893  0.97021404  1
  Co  Co124  1  0.23932673  0.93996111  0.32039562  1
  Co  Co125  1  0.56828122  0.46243694  0.23729053  1
  Co  Co126  1  0.61364981  -0.04077589  0.56973445  1
  Co  Co127  1  0.77329977  0.91453690  0.51541929  1
  Co  Co128  1  0.07628610  0.45393172  0.90861686  1
  Co  Co129  1  0.89610141  0.03907855  0.28118434  1
  Co  Co130  1  0.68452883  0.73941107  0.93036359  1
  Co  Co131  1  0.61531598  0.46828314  0.65913783  1
  Co  Co132  1  0.74394593  1.00918297  0.28002085  1
  Co  Co133  1  0.73494892  0.65378840  0.55460935  1
  Co  Co134  1  0.68434548  0.90800180  0.02688814  1
  Co  Co135  1  0.12402364  0.86922810  0.94126062  1
  Co  Co136  1  0.87616317  0.68256931  0.03938606  1
  Co  Co137  1  0.70908179  0.75495667  0.25018296  1
  Co  Co138  1  0.59877850  0.55041112  0.35848348  1
  Co  Co139  1  0.27161403  0.11999558  0.34075266  1
  Co  Co140  1  0.23751244  0.37950694  0.67225567  1
  Co  Co141  1  0.94286871  0.83920337  0.09465245  1
  Co  Co142  1  0.84169880  0.20309769  0.50846025  1
  Co  Co143  1  0.96865150  0.32022559  0.73655910  1
  Co  Co144  1  0.78863954  0.17555080  0.87007846  1
  Co  Co145  1  0.57602752  0.03103917  0.26923204  1
  Co  Co146  1  0.56612515  0.66051678  0.47027737  1
  Co  Co147  1  0.81428439  0.76549858  0.46203099  1
  Co  Co148  1  0.33691763  0.27492746  0.91468933  1
  Co  Co149  1  0.28514833  0.22595750  0.74216902  1
  Co  Co150  1  0.27838088  0.74916563  0.16072011  1
  Co  Co151  1  0.40086119  0.20607146  0.25541836  1
  Co  Co152  1  0.25203858  0.25518152  0.43136110  1
  Co  Co153  1  0.07544083  0.40740680  0.63565228  1
  Co  Co154  1  0.13212253  0.97679391  0.05628742  1
  Co  Co155  1  0.78572410  0.33383078  0.30032903  1
  Co  Co156  1  0.47008293  0.64241832  0.31275684  1
  Co  Co157  1  0.49413359  0.54355902  0.56227399  1
  Co  Co158  1  0.20180603  0.29060678  0.00367259  1
  Co  Co159  1  0.15576515  0.87106318  0.18267100  1
  Co  Co160  1  0.70043007  0.11033921  0.74945763  1
  Co  Co161  1  0.11511458  0.20229091  0.85033251  1
  Ni  Ni162  1  0.30566827  0.97135499  0.61631407  1
  Ni  Ni163  1  0.13797254  0.09651435  0.57860138  1
  Ni  Ni164  1  0.07623220  0.36776673  0.37255577  1
  Ni  Ni165  1  0.83361837  0.53722260  0.45812185  1
  Ni  Ni166  1  0.07398223  0.05677994  0.73282850  1
  Ni  Ni167  1  0.02386971  0.46348028  0.07752334  1
  Ni  Ni168  1  0.25031871  0.62969288  0.93425909  1
  Ni  Ni169  1  0.32683743  0.50935767  0.73293867  1
  Ni  Ni170  1  0.50042454  0.90317778  0.42125773  1
  Ni  Ni171  1  0.58159453  0.85111158  0.70875387  1
  Ni  Ni172  1  0.74997811  0.59174351  0.99075491  1
  Ni  Ni173  1  0.28707982  0.57604191  0.42255862  1
  Ni  Ni174  1  0.98681400  0.76547703  0.92157483  1
  Ni  Ni175  1  0.46714382  0.45627432  0.03190097  1
  Ni  Ni176  1  0.38005791  0.79264997  0.31035669  1
  Ni  Ni177  1  0.00083110  0.32595571  0.20559643  1
  Ni  Ni178  1  0.87814596  0.43643846  0.20000778  1
  Ni  Ni179  1  0.38785160  0.87496698  0.02793713  1
  Ni  Ni180  1  0.85771269  0.28622455  -0.02622068  1
  Ni  Ni181  1  0.43123331  1.00562036  0.93834255  1
  Ni  Ni182  1  0.47089444  0.25070768  0.73171551  1
  Ni  Ni183  1  0.66511984  0.24114969  0.20031351  1
  Ni  Ni184  1  0.87985292  0.73053656  0.20666512  1
  Ni  Ni185  1  0.49782753  0.74866779  0.60031682  1
  Ni  Ni186  1  0.39113942  0.82582687  0.72948921  1
  Ni  Ni187  1  0.48552781  0.89862784  0.23717578  1
  Ni  Ni188  1  0.65058752  0.23932718  0.47122375  1
  Ni  Ni189  1  0.51142826  0.21187171  0.56786649  1
  Ni  Ni190  1  0.12952105  0.81925050  0.52755998  1
  Ni  Ni191  1  0.64770273  0.40465356  0.80526506  1
  Ni  Ni192  1  0.34199755  0.80071443  0.57587838  1
  Ni  Ni193  1  0.70311933  0.90584000  0.85956882  1
  Ni  Ni194  1  0.93588694  0.63336923  0.72641997  1
  Ni  Ni195  1  0.36053016  0.05135709  0.10240028  1
  Ni  Ni196  1  0.96374044  0.12908443  0.94735735  1
  Ni  Ni197  1  0.31406987  0.59672107  0.08262662  1
  Ni  Ni198  1  0.03250229  0.70749567  0.07447982  1
  Ni  Ni199  1  0.54733207  0.30607188  0.05038564  1
  Ni  Ni200  1  0.06119272  0.65533940  0.54819592  1
  Ni  Ni201  1  0.98152884  0.14097940  0.61463266  1
  Ni  Ni202  1  0.26791533  0.47580748  0.19046875  1
  Ni  Ni203  1  1.00474079  0.79061637  0.64241968  1
  Ni  Ni204  1  0.66404780  0.40556099  0.97010220  1
  Ni  Ni205  1  0.54495036  0.64895798  0.94454596  1
  Ni  Ni206  1  0.52433718  0.54780469  0.78344492  1
  Ni  Ni207  1  0.91565676  0.45487448  0.60600203  1
  Ni  Ni208  1  0.06036319  0.74029559  0.40391885  1
  Ni  Ni209  1  0.91770510  0.43070451  0.89539817  1
  Ni  Ni210  1  0.09462094  0.22232079  0.46942003  1
  Ni  Ni211  1  0.35952706  0.37216451  0.45442698  1
  Ni  Ni212  1  0.69104191  0.07004122  0.13153983  1
  Ni  Ni213  1  0.01341278  -0.02089021  0.16483349  1
  Ni  Ni214  1  0.91672087  0.94759163  0.72186557  1
  Ni  Ni215  1  0.08062442  0.61839357  0.30687215  1
