# generated using pymatgen
data_Ti2CoNi
_symmetry_space_group_name_H-M   'P 1'
_cell_length_a   14.63528618
_cell_length_b   14.60588462
_cell_length_c   14.62168716
_cell_angle_alpha   90.04715265
_cell_angle_beta   90.19320820
_cell_angle_gamma   89.49722169
_symmetry_Int_Tables_number   1
_chemical_formula_structural   Ti2CoNi
_chemical_formula_sum   'Ti108 Co54 Ni54'
_cell_volume   3125.41178323
_cell_formula_units_Z   54
loop_
 _symmetry_equiv_pos_site_id
 _symmetry_equiv_pos_as_xyz
  1  'x, y, z'
loop_
 _atom_site_type_symbol
 _atom_site_label
 _atom_site_symmetry_multiplicity
 _atom_site_fract_x
 _atom_site_fract_y
 _atom_site_fract_z
 _atom_site_occupancy
  Ti  Ti0  1  0.11190682  -0.02236134  -0.03281548  1
  Ti  Ti1  1  0.02554763  0.03295411  0.27133057  1
  Ti  Ti2  1  0.01072862  -0.00323878  0.69196567  1
  Ti  Ti3  1  0.05710949  0.33056532  -0.02485207  1
  Ti  Ti4  1  0.02507861  0.29465779  0.29482798  1
  Ti  Ti5  1  0.00673779  0.30995679  0.68047996  1
  Ti  Ti6  1  -0.01241774  0.64328097  0.04759161  1
  Ti  Ti7  1  0.13831802  0.67264929  0.32414039  1
  Ti  Ti8  1  0.05170179  0.63659649  0.61256557  1
  Ti  Ti9  1  0.34403830  0.01609701  0.05173475  1
  Ti  Ti10  1  0.30625013  0.01260006  0.35974520  1
  Ti  Ti11  1  0.34249631  0.08068292  0.70422023  1
  Ti  Ti12  1  0.30549198  0.29423716  0.02775032  1
  Ti  Ti13  1  0.37430647  0.34294486  0.35112976  1
  Ti  Ti14  1  0.38719536  0.30522140  0.69535492  1
  Ti  Ti15  1  0.30984485  0.65230142  0.01889219  1
  Ti  Ti16  1  0.30618210  0.75075876  0.33543253  1
  Ti  Ti17  1  0.24543050  0.74358077  0.69878737  1
  Ti  Ti18  1  0.60561999  -0.04493516  0.00933071  1
  Ti  Ti19  1  0.61313109  -0.01140850  0.40808386  1
  Ti  Ti20  1  0.65273612  -0.04044313  0.65795208  1
  Ti  Ti21  1  0.62838173  0.36017466  0.02031647  1
  Ti  Ti22  1  0.68195007  0.41034698  0.33677460  1
  Ti  Ti23  1  0.68966426  0.38474069  0.63714364  1
  Ti  Ti24  1  0.68383588  0.73356400  -0.01523204  1
  Ti  Ti25  1  0.70016782  0.60061033  0.31477145  1
  Ti  Ti26  1  0.63435758  0.72274661  0.64390825  1
  Ti  Ti27  1  0.03958523  0.11857610  0.08803136  1
  Ti  Ti28  1  -0.00578821  0.26314441  0.49272931  1
  Ti  Ti29  1  -0.01737107  0.11743155  0.88561248  1
  Ti  Ti30  1  -0.04229569  0.48764514  0.23196328  1
  Ti  Ti31  1  -0.04730020  0.48528036  0.53668924  1
  Ti  Ti32  1  -0.04917723  0.49550450  0.73891539  1
  Ti  Ti33  1  -0.01781048  0.70067780  0.22461025  1
  Ti  Ti34  1  0.01157596  0.79369165  0.42794750  1
  Ti  Ti35  1  -0.04051583  0.82188269  0.75833824  1
  Ti  Ti36  1  0.28981575  0.20318945  0.21181455  1
  Ti  Ti37  1  0.33507344  0.18782856  0.42712785  1
  Ti  Ti38  1  0.36256617  0.15164159  0.88741742  1
  Ti  Ti39  1  0.43318942  0.56255590  0.13660353  1
  Ti  Ti40  1  0.29874869  0.46227301  0.54792327  1
  Ti  Ti41  1  0.30592057  0.55087495  0.75631327  1
  Ti  Ti42  1  0.32891962  0.83623828  0.14610526  1
  Ti  Ti43  1  0.40581961  0.78753346  0.56809399  1
  Ti  Ti44  1  0.35377247  0.79432584  0.88136453  1
  Ti  Ti45  1  0.67564754  0.14681390  0.08079811  1
  Ti  Ti46  1  0.70616021  0.17649496  0.57848802  1
  Ti  Ti47  1  0.65712543  0.18576695  0.89398223  1
  Ti  Ti48  1  0.65120491  0.51382803  0.13323227  1
  Ti  Ti49  1  0.60696445  0.49539096  0.50602608  1
  Ti  Ti50  1  0.69984662  0.45825878  0.87287207  1
  Ti  Ti51  1  0.67941092  0.87530938  0.26306073  1
  Ti  Ti52  1  0.69292370  0.81285419  0.46617360  1
  Ti  Ti53  1  0.69891007  0.82996372  0.79622255  1
  Ti  Ti54  1  0.15592632  -0.06803445  0.13645326  1
  Ti  Ti55  1  0.11860249  -0.01202393  0.50102443  1
  Ti  Ti56  1  0.16422503  -0.11332363  0.79787782  1
  Ti  Ti57  1  0.15820008  0.39079512  0.16078209  1
  Ti  Ti58  1  0.17108154  0.33736494  0.47643055  1
  Ti  Ti59  1  0.21819941  0.36833533  0.88240512  1
  Ti  Ti60  1  0.16197928  0.72789644  0.14173338  1
  Ti  Ti61  1  0.23274355  0.65636992  0.49780298  1
  Ti  Ti62  1  0.12166438  0.57104664  0.80248319  1
  Ti  Ti63  1  0.51318673  0.06522883  0.16992952  1
  Ti  Ti64  1  0.42526513  -0.01249315  0.54374047  1
  Ti  Ti65  1  0.43853921  -0.02768075  0.87248490  1
  Ti  Ti66  1  0.43410154  0.35769629  0.14693526  1
  Ti  Ti67  1  0.50501295  0.31370204  0.54024799  1
  Ti  Ti68  1  0.54660861  0.34577643  0.79956751  1
  Ti  Ti69  1  0.60532253  0.69248181  0.16689112  1
  Ti  Ti70  1  0.44386103  0.59098136  0.50628153  1
  Ti  Ti71  1  0.56835443  0.68335389  0.84436930  1
  Ti  Ti72  1  0.84982083  0.01218685  0.16720316  1
  Ti  Ti73  1  0.87268443  0.06971293  0.48767313  1
  Ti  Ti74  1  0.78104415  0.03995770  0.88016888  1
  Ti  Ti75  1  0.75350478  0.31865114  0.16479069  1
  Ti  Ti76  1  0.81278412  0.31170179  0.46816469  1
  Ti  Ti77  1  0.81981398  0.29352774  0.76864845  1
  Ti  Ti78  1  0.79584898  0.68064501  0.14527613  1
  Ti  Ti79  1  0.85582796  0.68066940  0.44865386  1
  Ti  Ti80  1  0.84300222  0.62552909  0.90231741  1
  Ti  Ti81  1  0.18402989  0.15986237  -0.07622153  1
  Ti  Ti82  1  0.15985874  0.15604634  0.36232923  1
  Ti  Ti83  1  0.14860748  0.15665333  0.68363955  1
  Ti  Ti84  1  0.15360910  0.53420918  0.01065792  1
  Ti  Ti85  1  0.16385024  0.48432079  0.33595205  1
  Ti  Ti86  1  0.19867127  0.37741324  0.70079565  1
  Ti  Ti87  1  0.13283992  0.75841588  -0.05873550  1
  Ti  Ti88  1  0.16886047  0.88342000  0.32182830  1
  Ti  Ti89  1  0.09457884  0.82952304  0.60994906  1
  Ti  Ti90  1  0.49519884  0.25362320  -0.02681715  1
  Ti  Ti91  1  0.54385742  0.17697122  0.42023611  1
  Ti  Ti92  1  0.53785767  0.16468269  0.66893578  1
  Ti  Ti93  1  0.44931767  0.45938493  -0.03808665  1
  Ti  Ti94  1  0.47595052  0.51565129  0.31006885  1
  Ti  Ti95  1  0.49798641  0.57860740  0.70381111  1
  Ti  Ti96  1  0.52076461  0.85768239  0.15210285  1
  Ti  Ti97  1  0.46960161  0.86743510  0.36547757  1
  Ti  Ti98  1  0.50314321  0.85852017  0.73115871  1
  Ti  Ti99  1  0.85220748  0.17340427  0.02944892  1
  Ti  Ti100  1  0.77157981  0.16071524  0.26732998  1
  Ti  Ti101  1  0.83359156  0.07718535  0.68678043  1
  Ti  Ti102  1  0.88793112  0.42669202  -0.07611001  1
  Ti  Ti103  1  0.84924670  0.49280896  0.38638709  1
  Ti  Ti104  1  0.81446094  0.62089310  0.63442171  1
  Ti  Ti105  1  0.87888003  0.83786236  0.01813134  1
  Ti  Ti106  1  0.87549636  0.85175914  0.26791455  1
  Ti  Ti107  1  0.81053216  0.84471249  0.62164373  1
  Co  Co108  1  0.15890554  0.25625259  0.06595340  1
  Co  Co109  1  0.73778121  0.88460681  0.93395290  1
  Co  Co110  1  0.20998900  0.31451082  0.31243347  1
  Co  Co111  1  0.57738180  0.05827840  0.54878279  1
  Co  Co112  1  0.11772020  0.19770554  0.20655014  1
  Co  Co113  1  0.63756291  0.25559777  0.29693286  1
  Co  Co114  1  0.00159254  0.88624720  0.90265207  1
  Co  Co115  1  0.24688017  0.66563547  0.86557618  1
  Co  Co116  1  0.45470787  0.71918713  0.06987694  1
  Co  Co117  1  0.19639264  0.56815866  0.63716132  1
  Co  Co118  1  0.70196619  0.64035325  0.50602718  1
  Co  Co119  1  0.86701257  0.22075092  0.60635352  1
  Co  Co120  1  0.62300319  0.09657698  0.28422509  1
  Co  Co121  1  0.93957949  0.27712048  0.87244023  1
  Co  Co122  1  0.09919225  0.24908524  0.81451975  1
  Co  Co123  1  0.71367227  0.57050359  0.99288916  1
  Co  Co124  1  0.76018519  0.74882537  0.32498984  1
  Co  Co125  1  0.04269977  0.84529256  0.24347762  1
  Co  Co126  1  0.55678825  0.51580814  0.85052294  1
  Co  Co127  1  0.56878846  0.60911248  0.38951990  1
  Co  Co128  1  0.09473273  0.72694316  0.76695962  1
  Co  Co129  1  0.42032985  0.61646570  0.88428899  1
  Co  Co130  1  0.32698705  0.68573215  0.18782033  1
  Co  Co131  1  0.58858367  0.76145745  0.33499726  1
  Co  Co132  1  0.03517894  0.80744576  0.06232621  1
  Co  Co133  1  0.26337228  0.23526567  0.77277438  1
  Co  Co134  1  0.46906567  0.70844905  0.24396001  1
  Co  Co135  1  0.76356118  0.00493073  0.03661382  1
  Co  Co136  1  0.43297755  0.70059528  0.39795014  1
  Co  Co137  1  0.71891216  0.13836841  0.42424303  1
  Co  Co138  1  0.55376227  0.88438497  0.55230071  1
  Co  Co139  1  0.86454919  0.62800253  0.28818606  1
  Co  Co140  1  0.41833059  0.45216849  0.79146956  1
  Co  Co141  1  0.02244081  0.09796721  0.42530358  1
  Co  Co142  1  0.77936527  0.42283413  0.04642873  1
  Co  Co143  1  0.11176337  0.05286815  0.81124505  1
  Co  Co144  1  0.17120517  0.80091638  0.46380795  1
  Co  Co145  1  0.34002589  0.89675646  0.73515086  1
  Co  Co146  1  0.42680388  0.87271267  1.01036319  1
  Co  Co147  1  0.55123843  0.83376614  0.90657967  1
  Co  Co148  1  0.96368790  0.16745631  0.73892210  1
  Co  Co149  1  0.66871978  1.00040215  0.16655325  1
  Co  Co150  1  0.43671735  0.43830041  0.45796661  1
  Co  Co151  1  0.79315512  0.48624561  0.21680997  1
  Co  Co152  1  0.25568078  0.87383629  0.59484766  1
  Co  Co153  1  0.05794363  0.40619994  0.81841334  1
  Co  Co154  1  0.86455710  0.38156583  0.62240403  1
  Co  Co155  1  0.21502233  0.10635505  0.07831130  1
  Co  Co156  1  0.85819651  0.55422629  0.07258099  1
  Co  Co157  1  0.97730830  0.72256247  0.89946571  1
  Co  Co158  1  -0.04924343  0.91288654  0.56473101  1
  Co  Co159  1  1.00072900  0.12097788  0.58994454  1
  Co  Co160  1  0.77371185  0.29158741  0.94997187  1
  Co  Co161  1  0.99108757  0.94514340  0.12475239  1
  Ni  Ni162  1  0.55436774  0.72767960  0.50250748  1
  Ni  Ni163  1  0.14127662  0.17494707  0.52070622  1
  Ni  Ni164  1  0.56181266  0.24093146  0.14252122  1
  Ni  Ni165  1  0.26945279  0.00161979  0.86551548  1
  Ni  Ni166  1  0.57694574  0.39016493  0.21053652  1
  Ni  Ni167  1  0.31714293  0.55274931  0.37503450  1
  Ni  Ni168  1  0.01199592  0.42491967  0.39548961  1
  Ni  Ni169  1  0.72193986  0.84936967  0.10436628  1
  Ni  Ni170  1  0.54969970  0.59760738  0.00413348  1
  Ni  Ni171  1  0.00406165  0.46412833  0.06797086  1
  Ni  Ni172  1  0.08500406  0.45868641  0.62402499  1
  Ni  Ni173  1  0.73873471  0.98139633  0.51911976  1
  Ni  Ni174  1  0.19443318  0.99507753  0.67536191  1
  Ni  Ni175  1  0.51014009  0.09002185  0.98314167  1
  Ni  Ni176  1  0.65841323  0.55430553  0.69380781  1
  Ni  Ni177  1  0.77753302  0.99752394  0.33803496  1
  Ni  Ni178  1  0.41158536  0.72169742  0.74270287  1
  Ni  Ni179  1  0.51172257  0.12484790  0.82064577  1
  Ni  Ni180  1  1.00142615  0.59601776  0.39196474  1
  Ni  Ni181  1  0.26917211  0.06344379  0.53770977  1
  Ni  Ni182  1  0.23616943  0.56427151  0.18365964  1
  Ni  Ni183  1  0.41040777  0.16122035  0.56831732  1
  Ni  Ni184  1  0.08338224  0.57000666  0.17180038  1
  Ni  Ni185  1  0.74185927  0.66853835  0.78072071  1
  Ni  Ni186  1  0.25233102  0.87725845  -0.00872606  1
  Ni  Ni187  1  0.00517805  0.54378366  0.91419533  1
  Ni  Ni188  1  0.91509078  0.31707389  0.06321342  1
  Ni  Ni189  1  0.93694933  0.65984222  0.74861686  1
  Ni  Ni190  1  0.31162984  0.43408653  0.23476534  1
  Ni  Ni191  1  0.39498971  0.96230717  0.22430280  1
  Ni  Ni192  1  0.34469864  0.63305673  0.62204980  1
  Ni  Ni193  1  0.37951167  0.31804037  0.86816943  1
  Ni  Ni194  1  0.46273438  0.05569641  0.34368564  1
  Ni  Ni195  1  0.77313055  0.49056310  0.53402410  1
  Ni  Ni196  1  0.85512054  0.34315289  0.29888700  1
  Ni  Ni197  1  0.26871154  0.25237364  0.58944917  1
  Ni  Ni198  1  0.92227587  0.00805791  0.99320152  1
  Ni  Ni199  1  0.93396278  0.17575485  0.20487866  1
  Ni  Ni200  1  0.29315619  0.51014595  0.91436489  1
  Ni  Ni201  1  0.65020559  0.30364442  0.46289947  1
  Ni  Ni202  1  0.93562642  0.74716303  0.58236625  1
  Ni  Ni203  1  0.20308681  0.05233902  0.23365189  1
  Ni  Ni204  1  0.60381226  0.97618738  0.83549368  1
  Ni  Ni205  1  0.46000252  0.21172673  0.26996944  1
  Ni  Ni206  1  0.30495612  0.46247160  0.06977920  1
  Ni  Ni207  1  0.83555974  0.93112814  0.76781707  1
  Ni  Ni208  1  0.66561726  0.25449099  0.73374226  1
  Ni  Ni209  1  0.94976679  0.94565647  0.39434139  1
  Ni  Ni210  1  0.89938577  0.19502547  0.36852134  1
  Ni  Ni211  1  0.31402952  0.87929440  0.44961271  1
  Ni  Ni212  1  0.79331498  0.47591217  0.74382467  1
  Ni  Ni213  1  0.67610716  0.09495054  0.74891864  1
  Ni  Ni214  1  0.40645715  0.17510801  0.09193978  1
  Ni  Ni215  1  0.46323165  0.44478195  0.62581588  1
