# generated using pymatgen
data_Ti2CoNi
_symmetry_space_group_name_H-M   'P 1'
_cell_length_a   14.67765493
_cell_length_b   14.67722444
_cell_length_c   14.63702354
_cell_angle_alpha   89.92849215
_cell_angle_beta   89.84264382
_cell_angle_gamma   90.06296537
_symmetry_Int_Tables_number   1
_chemical_formula_structural   Ti2CoNi
_chemical_formula_sum   'Ti108 Co54 Ni54'
_cell_volume   3153.19725734
_cell_formula_units_Z   54
loop_
 _symmetry_equiv_pos_site_id
 _symmetry_equiv_pos_as_xyz
  1  'x, y, z'
loop_
 _atom_site_type_symbol
 _atom_site_label
 _atom_site_symmetry_multiplicity
 _atom_site_fract_x
 _atom_site_fract_y
 _atom_site_fract_z
 _atom_site_occupancy
  Ti  Ti0  1  0.07992350  0.01385315  -0.01399333  1
  Ti  Ti1  1  0.01847134  0.06570906  0.29063057  1
  Ti  Ti2  1  0.08170063  0.03594989  0.58661215  1
  Ti  Ti3  1  -0.03877942  0.42358979  -0.03242028  1
  Ti  Ti4  1  0.08746810  0.32586973  0.38242289  1
  Ti  Ti5  1  -0.03934231  0.38329864  0.62153411  1
  Ti  Ti6  1  -0.04059820  0.66560750  -0.07107983  1
  Ti  Ti7  1  0.03664630  0.61508792  0.32312266  1
  Ti  Ti8  1  -0.04502548  0.69311799  0.73895895  1
  Ti  Ti9  1  0.38109155  -0.09131807  -0.02690243  1
  Ti  Ti10  1  0.35552459  -0.04894102  0.35383007  1
  Ti  Ti11  1  0.35514831  0.06562344  0.64607722  1
  Ti  Ti12  1  0.35016611  0.36644187  -0.07707638  1
  Ti  Ti13  1  0.28956998  0.41354090  0.32259215  1
  Ti  Ti14  1  0.36468364  0.24402890  0.72448298  1
  Ti  Ti15  1  0.35860134  0.58862534  0.00204049  1
  Ti  Ti16  1  0.34931890  0.70901697  0.39604759  1
  Ti  Ti17  1  0.29791513  0.67829033  0.68335091  1
  Ti  Ti18  1  0.72652588  -0.01101355  -0.03302809  1
  Ti  Ti19  1  0.61727037  0.03945180  0.33690267  1
  Ti  Ti20  1  0.70902094  0.08816753  0.67401617  1
  Ti  Ti21  1  0.74114914  0.27366292  -0.00177967  1
  Ti  Ti22  1  0.66263629  0.35726640  0.32489633  1
  Ti  Ti23  1  0.78427499  0.28870520  0.64381596  1
  Ti  Ti24  1  0.73006892  0.65279702  0.00457134  1
  Ti  Ti25  1  0.63402802  0.54902295  0.36936885  1
  Ti  Ti26  1  0.65472394  0.66093877  0.64579108  1
  Ti  Ti27  1  0.01873600  0.15870160  0.10249422  1
  Ti  Ti28  1  0.00378859  0.21763013  0.54453284  1
  Ti  Ti29  1  0.03040886  0.16223793  0.87330833  1
  Ti  Ti30  1  -0.03497456  0.47071508  0.19255292  1
  Ti  Ti31  1  -0.02486201  0.46946728  0.43407961  1
  Ti  Ti32  1  -0.04732977  0.51299630  0.78607650  1
  Ti  Ti33  1  0.01883193  0.91656019  0.15234049  1
  Ti  Ti34  1  -0.01213064  0.88126043  0.49843144  1
  Ti  Ti35  1  -0.06223493  0.85021157  0.85275417  1
  Ti  Ti36  1  0.33839287  0.16350490  0.14862385  1
  Ti  Ti37  1  0.22308676  0.19372234  0.52225407  1
  Ti  Ti38  1  0.37277779  0.15302755  0.91859898  1
  Ti  Ti39  1  0.41907944  0.49318617  0.15974298  1
  Ti  Ti40  1  0.27817814  0.54144368  0.50451950  1
  Ti  Ti41  1  0.39239239  0.54187551  0.81157292  1
  Ti  Ti42  1  0.30171305  0.76595528  0.09484154  1
  Ti  Ti43  1  0.31119327  0.85581843  0.60173308  1
  Ti  Ti44  1  0.27103422  0.84180799  0.80999591  1
  Ti  Ti45  1  0.67231740  0.18351322  0.19965651  1
  Ti  Ti46  1  0.67796219  0.17619653  0.51015920  1
  Ti  Ti47  1  0.63548615  0.21337761  0.81484276  1
  Ti  Ti48  1  0.69511813  0.58785704  0.18724592  1
  Ti  Ti49  1  0.62847191  0.44716741  0.63754779  1
  Ti  Ti50  1  0.66692443  0.50813629  0.86527017  1
  Ti  Ti51  1  0.66417229  0.86531201  0.25571783  1
  Ti  Ti52  1  0.71524880  0.79969973  0.47924966  1
  Ti  Ti53  1  0.60788932  0.87622440  0.87920012  1
  Ti  Ti54  1  0.24204820  -0.04576591  0.13915571  1
  Ti  Ti55  1  0.16614783  0.00970842  0.41023119  1
  Ti  Ti56  1  0.22707156  0.03772412  0.84727136  1
  Ti  Ti57  1  0.16243765  0.31395929  0.16619174  1
  Ti  Ti58  1  0.13847779  0.42006429  0.57072105  1
  Ti  Ti59  1  0.10543199  0.34353695  0.85350362  1
  Ti  Ti60  1  0.14779953  0.74943170  0.19591166  1
  Ti  Ti61  1  0.09250886  0.62644310  0.49854085  1
  Ti  Ti62  1  0.21090151  0.62094162  0.84412182  1
  Ti  Ti63  1  0.47833850  0.02310192  0.20621779  1
  Ti  Ti64  1  0.48464401  -0.00090765  0.49844738  1
  Ti  Ti65  1  0.44774355  -0.01762507  0.79366010  1
  Ti  Ti66  1  0.51647500  0.31008959  0.19876984  1
  Ti  Ti67  1  0.54904909  0.33056775  0.48931544  1
  Ti  Ti68  1  0.51786833  0.37975303  0.78978592  1
  Ti  Ti69  1  0.46988609  0.68667456  0.16492793  1
  Ti  Ti70  1  0.54235018  0.69084760  0.47050798  1
  Ti  Ti71  1  0.53311769  0.65564090  0.88582452  1
  Ti  Ti72  1  0.80569025  -0.00201595  0.20079547  1
  Ti  Ti73  1  0.82685018  -0.01374182  0.53394153  1
  Ti  Ti74  1  0.78109522  -0.07316149  0.77052033  1
  Ti  Ti75  1  0.87765336  0.29695749  0.14528689  1
  Ti  Ti76  1  0.83633351  0.31626906  0.44979686  1
  Ti  Ti77  1  0.92347846  0.31776525  0.78818094  1
  Ti  Ti78  1  0.87869838  0.65875021  0.13940973  1
  Ti  Ti79  1  0.86661208  0.63213804  0.48121664  1
  Ti  Ti80  1  0.77815913  0.68025291  0.81221371  1
  Ti  Ti81  1  0.18331674  0.19915920  -0.00163699  1
  Ti  Ti82  1  0.21901649  0.20632752  0.31299829  1
  Ti  Ti83  1  0.18211056  0.15571219  0.70829462  1
  Ti  Ti84  1  0.14734677  0.61608841  0.03276730  1
  Ti  Ti85  1  0.16761357  0.50979484  0.22822444  1
  Ti  Ti86  1  0.11560216  0.61515542  0.68187902  1
  Ti  Ti87  1  0.09016051  0.81374993  -0.02030943  1
  Ti  Ti88  1  0.13528501  0.79481007  0.38667753  1
  Ti  Ti89  1  0.09823708  0.82813517  0.69184243  1
  Ti  Ti90  1  0.56689525  0.10414242  -0.01841766  1
  Ti  Ti91  1  0.39968363  0.25248117  0.38014232  1
  Ti  Ti92  1  0.50685199  0.18188750  0.60454566  1
  Ti  Ti93  1  0.60029455  0.44788436  0.05309606  1
  Ti  Ti94  1  0.47387101  0.44487531  0.34138083  1
  Ti  Ti95  1  0.43037955  0.52765836  0.62443432  1
  Ti  Ti96  1  0.54059184  0.88369542  0.08440684  1
  Ti  Ti97  1  0.48357475  0.82328574  0.30232653  1
  Ti  Ti98  1  0.48433743  0.75081229  0.70614409  1
  Ti  Ti99  1  0.87850416  0.10007532  -0.02083692  1
  Ti  Ti100  1  0.80336445  0.10881725  0.37345319  1
  Ti  Ti101  1  0.91089513  0.10542941  0.71292185  1
  Ti  Ti102  1  0.79845858  0.46824859  0.05841262  1
  Ti  Ti103  1  0.81354916  0.47473378  0.32304199  1
  Ti  Ti104  1  0.79543873  0.49003395  0.70685133  1
  Ti  Ti105  1  0.73616118  0.83910074  0.07482543  1
  Ti  Ti106  1  0.85067519  0.80750997  0.33482713  1
  Ti  Ti107  1  0.83586465  0.80324383  0.63458188  1
  Co  Co108  1  0.09291129  0.45904611  0.08765813  1
  Co  Co109  1  0.48157498  0.48471775  0.94645111  1
  Co  Co110  1  0.55596282  0.04026369  0.64781251  1
  Co  Co111  1  0.97104813  0.06013139  0.46906537  1
  Co  Co112  1  0.62037454  0.28043088  0.65584499  1
  Co  Co113  1  0.58257147  0.90358822  0.72400817  1
  Co  Co114  1  -0.02439380  0.73821694  0.41610586  1
  Co  Co115  1  0.16239749  0.11000624  0.15263052  1
  Co  Co116  1  0.39285342  0.68352000  0.55399854  1
  Co  Co117  1  0.49404465  0.25615687  0.90523682  1
  Co  Co118  1  0.09637820  0.73669211  0.83360908  1
  Co  Co119  1  0.74271159  0.66483716  0.37961889  1
  Co  Co120  1  0.06320838  0.04811159  0.75274728  1
  Co  Co121  1  0.62523243  0.35937714  0.91765139  1
  Co  Co122  1  0.74529754  0.94308316  0.37881084  1
  Co  Co123  1  0.68435183  0.78866772  0.73442531  1
  Co  Co124  1  0.57844421  0.81529875  0.57939898  1
  Co  Co125  1  0.43911987  0.36122359  0.06033517  1
  Co  Co126  1  0.45294032  0.91308112  0.63497473  1
  Co  Co127  1  0.44317759  0.83090428  0.48109998  1
  Co  Co128  1  0.37332262  0.25192804  0.54432134  1
  Co  Co129  1  0.46677049  0.36312287  0.63226566  1
  Co  Co130  1  0.70655584  0.36051716  0.76996786  1
  Co  Co131  1  0.79117150  0.26502073  0.29344786  1
  Co  Co132  1  0.10340580  0.91803760  0.83560900  1
  Co  Co133  1  0.96598380  0.55909502  0.04142767  1
  Co  Co134  1  0.24634839  0.34336195  0.45730681  1
  Co  Co135  1  0.35341019  0.31817919  0.21421103  1
  Co  Co136  1  0.27066683  0.61187373  0.15131325  1
  Co  Co137  1  0.14761201  0.88495429  0.54351180  1
  Co  Co138  1  0.04383830  0.22199305  0.25497909  1
  Co  Co139  1  0.05455598  0.60922724  0.16362211  1
  Co  Co140  1  0.82835390  0.63125594  0.64116482  1
  Co  Co141  1  0.09162888  0.15656874  0.41787958  1
  Co  Co142  1  0.25011839  0.52062451  0.68922920  1
  Co  Co143  1  0.46083559  0.82883877  0.85149887  1
  Co  Co144  1  0.29745221  0.39189633  0.60045923  1
  Co  Co145  1  0.75767045  0.73052756  0.22603163  1
  Co  Co146  1  0.09318940  0.45629241  0.72989953  1
  Co  Co147  1  0.43782899  0.74647593  0.00072793  1
  Co  Co148  1  0.00976041  0.74338462  0.09308432  1
  Co  Co149  1  0.65856339  0.01639899  0.50335785  1
  Co  Co150  1  0.93572369  0.19996801  0.38086310  1
  Co  Co151  1  0.70540035  0.91143353  0.62076711  1
  Co  Co152  1  0.26338975  0.00161120  0.53563484  1
  Co  Co153  1  1.03656408  0.22446769  0.70746279  1
  Co  Co154  1  0.29675622  0.29210904  0.05903461  1
  Co  Co155  1  0.94095518  0.00988723  0.85263681  1
  Co  Co156  1  0.27487986  0.44278608  0.11941336  1
  Co  Co157  1  0.27311315  0.85670360  0.44194682  1
  Co  Co158  1  0.75938280  0.81324764  0.90050163  1
  Co  Co159  1  0.87770052  0.61920734  0.30047273  1
  Co  Co160  1  0.55002351  0.60545383  0.04611871  1
  Co  Co161  1  0.62071648  0.73500651  0.14414093  1
  Ni  Ni162  1  0.42820473  0.04377900  0.05144614  1
  Ni  Ni163  1  0.24446632  0.74769902  0.94772392  1
  Ni  Ni164  1  0.90437137  0.96300775  0.35626800  1
  Ni  Ni165  1  0.07911716  0.53087334  0.89210157  1
  Ni  Ni166  1  0.93511146  0.34892436  0.30575030  1
  Ni  Ni167  1  0.20540789  0.96591585  0.69414199  1
  Ni  Ni168  1  0.73931135  0.11896538  0.06983583  1
  Ni  Ni169  1  0.55163999  0.56695722  0.74223630  1
  Ni  Ni170  1  0.69627969  0.41328704  0.47772296  1
  Ni  Ni171  1  0.14470070  0.92354347  0.26871035  1
  Ni  Ni172  1  0.83333763  0.55032437  0.91068376  1
  Ni  Ni173  1  0.60567643  0.75928990  0.98777329  1
  Ni  Ni174  1  0.80623555  0.39164273  0.89313061  1
  Ni  Ni175  1  0.83704117  0.46836739  0.53941274  1
  Ni  Ni176  1  0.34145584  0.10454640  0.43302142  1
  Ni  Ni177  1  0.57978304  0.26084744  0.04966371  1
  Ni  Ni178  1  0.98491070  0.72598949  0.58137194  1
  Ni  Ni179  1  0.36631866  0.69983049  0.85062894  1
  Ni  Ni180  1  0.80241364  0.23027891  0.83989884  1
  Ni  Ni181  1  0.60612625  0.70914368  0.30566173  1
  Ni  Ni182  1  0.62232632  0.03796600  0.82038484  1
  Ni  Ni183  1  0.39469905  0.88330255  0.17024934  1
  Ni  Ni184  1  -0.02463483  0.54838879  0.60532708  1
  Ni  Ni185  1  0.84575866  0.15781543  0.54310323  1
  Ni  Ni186  1  0.91631534  0.26236298  -0.03785324  1
  Ni  Ni187  1  0.62319998  0.20705391  0.36102650  1
  Ni  Ni188  1  0.05806457  0.30627750  1.02934270  1
  Ni  Ni189  1  0.27122317  0.06036197  0.27096511  1
  Ni  Ni190  1  0.28395463  0.81123814  0.27370007  1
  Ni  Ni191  1  0.70612518  0.57349814  0.52139293  1
  Ni  Ni192  1  0.34487326  0.40009945  0.75091797  1
  Ni  Ni193  1  0.99164519  0.76356661  0.25417449  1
  Ni  Ni194  1  0.20884502  0.63482493  0.35046307  1
  Ni  Ni195  1  0.88105060  0.14624837  0.21340839  1
  Ni  Ni196  1  0.47293608  0.61001906  0.31710553  1
  Ni  Ni197  1  0.78499087  0.07614349  0.83423143  1
  Ni  Ni198  1  0.19238548  0.32508271  0.70613432  1
  Ni  Ni199  1  0.49063125  0.16727064  0.27129882  1
  Ni  Ni200  1  0.22604099  0.45717265  0.84833530  1
  Ni  Ni201  1  0.88017387  0.78886894  1.00486509  1
  Ni  Ni202  1  0.58776912  0.88519987  0.41650176  1
  Ni  Ni203  1  0.58614897  0.47032564  0.21665416  1
  Ni  Ni204  1  0.39959444  0.41374774  0.48226918  1
  Ni  Ni205  1  0.54513644  0.50506320  0.50213471  1
  Ni  Ni206  1  0.23875576  0.23368342  0.84398151  1
  Ni  Ni207  1  0.22357155  0.71985418  0.53348129  1
  Ni  Ni208  1  0.21796388  0.91204651  -0.03464185  1
  Ni  Ni209  1  0.64280716  1.00504794  0.14511763  1
  Ni  Ni210  1  0.14649799  0.48669997  0.40600003  1
  Ni  Ni211  1  0.70974127  0.35345504  0.15933575  1
  Ni  Ni212  1  0.87384122  0.84021809  0.16485112  1
  Ni  Ni213  1  0.26398982  0.06081383  1.01625743  1
  Ni  Ni214  1  0.48738584  0.14023056  0.77894590  1
  Ni  Ni215  1  0.95162383  0.91978140  0.69408958  1
