# generated using pymatgen
data_Ti2CoNi
_symmetry_space_group_name_H-M   'P 1'
_cell_length_a   14.68450835
_cell_length_b   14.59040506
_cell_length_c   14.68289086
_cell_angle_alpha   89.76338530
_cell_angle_beta   90.00353007
_cell_angle_gamma   90.02585921
_symmetry_Int_Tables_number   1
_chemical_formula_structural   Ti2CoNi
_chemical_formula_sum   'Ti108 Co54 Ni54'
_cell_volume   3145.82516066
_cell_formula_units_Z   54
loop_
 _symmetry_equiv_pos_site_id
 _symmetry_equiv_pos_as_xyz
  1  'x, y, z'
loop_
 _atom_site_type_symbol
 _atom_site_label
 _atom_site_symmetry_multiplicity
 _atom_site_fract_x
 _atom_site_fract_y
 _atom_site_fract_z
 _atom_site_occupancy
  Ti  Ti0  1  -0.04154731  -0.04313404  -0.04888300  1
  Ti  Ti1  1  0.04016070  0.04395008  0.38010706  1
  Ti  Ti2  1  -0.11921991  -0.01789740  0.65036114  1
  Ti  Ti3  1  0.01739724  0.28869288  -0.06439178  1
  Ti  Ti4  1  -0.03477640  0.34390114  0.38723126  1
  Ti  Ti5  1  0.07091634  0.29218132  0.74747495  1
  Ti  Ti6  1  -0.01385974  0.74644789  0.04446195  1
  Ti  Ti7  1  0.00115192  0.69457067  0.38224307  1
  Ti  Ti8  1  0.01537291  0.67059884  0.61177534  1
  Ti  Ti9  1  0.40463084  0.02089470  0.00454428  1
  Ti  Ti10  1  0.26242454  -0.00137406  0.34810436  1
  Ti  Ti11  1  0.37736594  0.02705155  0.64382387  1
  Ti  Ti12  1  0.35583994  0.24702464  -0.09483754  1
  Ti  Ti13  1  0.32015680  0.34416199  0.29595643  1
  Ti  Ti14  1  0.27808240  0.32131446  0.61542190  1
  Ti  Ti15  1  0.37339498  0.74435547  0.01572764  1
  Ti  Ti16  1  0.32611878  0.68539977  0.23685317  1
  Ti  Ti17  1  0.30286282  0.68458244  0.70411815  1
  Ti  Ti18  1  0.68792019  0.03745580  0.03442483  1
  Ti  Ti19  1  0.70495435  -0.02616081  0.36393660  1
  Ti  Ti20  1  0.67142324  -0.07073881  0.69021090  1
  Ti  Ti21  1  0.65748882  0.33791903  -0.01758189  1
  Ti  Ti22  1  0.68066188  0.43202951  0.28840787  1
  Ti  Ti23  1  0.62064651  0.35158093  0.63741524  1
  Ti  Ti24  1  0.67598897  0.62537738  -0.04378784  1
  Ti  Ti25  1  0.72142543  0.63956054  0.33714495  1
  Ti  Ti26  1  0.60767471  0.63134560  0.64724653  1
  Ti  Ti27  1  0.04802665  0.13341160  0.16381565  1
  Ti  Ti28  1  0.02569646  0.20464556  0.52622441  1
  Ti  Ti29  1  -0.05664884  0.11510670  0.80957448  1
  Ti  Ti30  1  0.01269846  0.46258556  0.20922556  1
  Ti  Ti31  1  0.04701615  0.50395017  0.49442726  1
  Ti  Ti32  1  0.00669097  0.55062529  0.92012630  1
  Ti  Ti33  1  0.01783992  0.93577988  0.14095787  1
  Ti  Ti34  1  -0.09149009  0.89852013  0.48341286  1
  Ti  Ti35  1  -0.00311884  0.78600545  0.81103999  1
  Ti  Ti36  1  0.36948635  0.15369142  0.21630111  1
  Ti  Ti37  1  0.34365707  0.15807771  0.49618237  1
  Ti  Ti38  1  0.29884517  0.09129086  0.80777136  1
  Ti  Ti39  1  0.36335163  0.43941198  0.12119605  1
  Ti  Ti40  1  0.31571512  0.54059665  0.55836897  1
  Ti  Ti41  1  0.36209903  0.44888247  0.92122000  1
  Ti  Ti42  1  0.27847893  0.85724246  0.18782232  1
  Ti  Ti43  1  0.38451868  0.89776351  0.48928546  1
  Ti  Ti44  1  0.31093597  0.88277963  0.83281007  1
  Ti  Ti45  1  0.69334629  0.11613964  0.21173708  1
  Ti  Ti46  1  0.60521987  0.20227394  0.50086304  1
  Ti  Ti47  1  0.64196425  0.11693738  0.83107308  1
  Ti  Ti48  1  0.63949200  0.56258518  0.14651016  1
  Ti  Ti49  1  0.72757728  0.45328249  0.48110047  1
  Ti  Ti50  1  0.69416391  0.46422647  0.81398450  1
  Ti  Ti51  1  0.72443577  0.85505495  0.17438983  1
  Ti  Ti52  1  0.64693639  0.87083390  0.50636968  1
  Ti  Ti53  1  0.68474559  0.75742285  0.79999459  1
  Ti  Ti54  1  0.22226693  0.02700868  0.13405672  1
  Ti  Ti55  1  0.07861552  -0.01909340  0.58293000  1
  Ti  Ti56  1  0.12974799  -0.01155196  0.83493132  1
  Ti  Ti57  1  0.10191139  0.32120209  0.10385981  1
  Ti  Ti58  1  0.19210770  0.29881024  0.45705674  1
  Ti  Ti59  1  0.19173736  0.35278593  0.89760019  1
  Ti  Ti60  1  0.16279603  0.66752736  0.12582647  1
  Ti  Ti61  1  0.17860731  0.65644491  0.49410609  1
  Ti  Ti62  1  0.13146539  0.64606652  0.78880730  1
  Ti  Ti63  1  0.44593432  -0.02384232  0.20717641  1
  Ti  Ti64  1  0.52621669  0.04093983  0.49891023  1
  Ti  Ti65  1  0.49561503  -0.01795030  0.78936041  1
  Ti  Ti66  1  0.51295679  0.30374790  0.21260439  1
  Ti  Ti67  1  0.53750208  0.37661248  0.44545384  1
  Ti  Ti68  1  0.51511652  0.35254994  0.83712032  1
  Ti  Ti69  1  0.50314418  0.63016624  0.26945604  1
  Ti  Ti70  1  0.47838040  0.63056777  0.50094535  1
  Ti  Ti71  1  0.52196258  0.61708150  0.82900259  1
  Ti  Ti72  1  0.87200326  0.06163055  0.10725273  1
  Ti  Ti73  1  0.75192421  0.06935021  0.52559155  1
  Ti  Ti74  1  0.83149550  -0.09694618  0.81942468  1
  Ti  Ti75  1  0.84117262  0.37179180  0.10826880  1
  Ti  Ti76  1  0.89049316  0.37190999  0.55062605  1
  Ti  Ti77  1  0.81551343  0.29490989  0.83188948  1
  Ti  Ti78  1  0.86436620  0.68878701  0.20491464  1
  Ti  Ti79  1  0.76000742  0.65317484  0.51938624  1
  Ti  Ti80  1  0.84737762  0.65253993  0.84596814  1
  Ti  Ti81  1  0.17033780  0.16496504  -0.00863366  1
  Ti  Ti82  1  0.12583356  0.26651141  0.29187216  1
  Ti  Ti83  1  0.18990599  0.13857360  0.63757874  1
  Ti  Ti84  1  0.16040435  0.48598719  0.03869971  1
  Ti  Ti85  1  0.18019090  0.56990337  0.31589430  1
  Ti  Ti86  1  0.22346952  0.46486708  0.72621032  1
  Ti  Ti87  1  0.14509894  0.81958370  -0.05635528  1
  Ti  Ti88  1  0.24021145  0.79840270  0.38714229  1
  Ti  Ti89  1  0.20717518  0.83189777  0.59024569  1
  Ti  Ti90  1  0.52280451  0.18417789  -0.01040801  1
  Ti  Ti91  1  0.54509537  0.11811422  0.31056394  1
  Ti  Ti92  1  0.51364036  0.19952467  0.70756471  1
  Ti  Ti93  1  0.47258307  0.57650990  0.02862516  1
  Ti  Ti94  1  0.41199663  0.49225263  0.38604429  1
  Ti  Ti95  1  0.43890931  0.42202230  0.63101862  1
  Ti  Ti96  1  0.54486396  0.87101289  0.07629697  1
  Ti  Ti97  1  0.57165739  0.80957885  0.32738947  1
  Ti  Ti98  1  0.48843140  0.78189134  0.69088223  1
  Ti  Ti99  1  0.86768851  0.17575094  -0.03468190  1
  Ti  Ti100  1  0.86758454  0.18654927  0.28708029  1
  Ti  Ti101  1  0.84954374  0.19196376  0.64003088  1
  Ti  Ti102  1  0.85559765  0.58426827  0.04485982  1
  Ti  Ti103  1  0.87947616  0.52830451  0.36121423  1
  Ti  Ti104  1  0.86753774  0.48872480  0.71151334  1
  Ti  Ti105  1  0.70383486  0.84757976  -0.03113340  1
  Ti  Ti106  1  0.88301490  0.86921775  0.30318549  1
  Ti  Ti107  1  0.85503634  0.77963356  0.66638892  1
  Co  Co108  1  0.94657221  0.02849714  0.25515417  1
  Co  Co109  1  0.25642303  0.71544009  0.87657463  1
  Co  Co110  1  0.93573699  0.06856212  0.52737092  1
  Co  Co111  1  0.79449292  0.98784050  0.22503474  1
  Co  Co112  1  0.90354949  0.73573067  0.50652983  1
  Co  Co113  1  0.72144512  0.15337410  0.38208124  1
  Co  Co114  1  0.78246402  0.32546356  0.39315931  1
  Co  Co115  1  0.76910796  0.34769168  0.68457820  1
  Co  Co116  1  0.56049679  0.84668322  0.83507433  1
  Co  Co117  1  -0.01941332  0.29161091  0.22828094  1
  Co  Co118  1  0.87025555  0.20093202  0.45914021  1
  Co  Co119  1  0.40567261  0.06206241  0.37534031  1
  Co  Co120  1  0.61562190  -0.03309489  0.21685905  1
  Co  Co121  1  0.00577366  0.84168686  0.63864336  1
  Co  Co122  1  0.15761951  0.58079304  0.63412786  1
  Co  Co123  1  0.53031508  0.95311386  0.36813023  1
  Co  Co124  1  0.09097390  0.45457041  0.82161128  1
  Co  Co125  1  0.33544016  0.52726649  0.25007279  1
  Co  Co126  1  0.19385237  0.45347060  0.52554560  1
  Co  Co127  1  0.74213313  0.27328192  0.53752730  1
  Co  Co128  1  0.85433839  1.04319073  0.38557713  1
  Co  Co129  1  0.25586038  0.03517436  0.94586483  1
  Co  Co130  1  0.54641665  0.69847068  0.09846469  1
  Co  Co131  1  0.43657413  0.59913915  0.67298755  1
  Co  Co132  1  0.15158420  0.74070927  0.27224472  1
  Co  Co133  1  0.12971504  0.65223317  0.96920915  1
  Co  Co134  1  0.41575340  0.75689098  0.83454942  1
  Co  Co135  1  0.53856256  1.07887202  0.12193663  1
  Co  Co136  1  0.14109898  0.83459881  0.11301534  1
  Co  Co137  1  0.16643749  0.10051441  0.27698490  1
  Co  Co138  1  -0.02210945  0.42700642  0.03328805  1
  Co  Co139  1  0.35271532  0.36156706  0.47085217  1
  Co  Co140  1  0.14674487  0.92672833  0.44056655  1
  Co  Co141  1  0.70418311  0.18873060  0.95691713  1
  Co  Co142  1  0.31591867  0.62169917  0.40274845  1
  Co  Co143  1  0.85921154  0.39189301  0.27089579  1
  Co  Co144  1  0.13625406  0.92101637  0.26188780  1
  Co  Co145  1  0.43993605  0.87671691  0.93955568  1
  Co  Co146  1  0.28265138  0.19242149  0.34703873  1
  Co  Co147  1  0.12022555  0.97137221  1.00998256  1
  Co  Co148  1  0.92999746  0.32034022  0.69875492  1
  Co  Co149  1  0.65573820  0.28385326  0.80579125  1
  Co  Co150  1  0.45883829  0.13026206  0.84733369  1
  Co  Co151  1  0.01689505  0.10469973  -0.00204765  1
  Co  Co152  1  0.25586154  -0.00098661  0.53488894  1
  Co  Co153  1  0.67765629  0.95325402  0.84657157  1
  Co  Co154  1  0.56995857  0.50002035  0.55181773  1
  Co  Co155  1  0.33846973  0.73207288  0.53987652  1
  Co  Co156  1  0.55758474  -0.00302346  0.95286288  1
  Co  Co157  1  0.97663941  0.60628694  0.75587573  1
  Co  Co158  1  0.71651425  0.49954258  0.63323893  1
  Co  Co159  1  0.36983837  0.60420536  0.86657069  1
  Co  Co160  1  0.94941632  0.24042950  0.08538423  1
  Co  Co161  1  1.01582797  0.58476931  0.08260854  1
  Ni  Ni162  1  0.42456626  0.73883906  0.38070860  1
  Ni  Ni163  1  0.82548509  0.49313346  0.90695527  1
  Ni  Ni164  1  0.38427972  0.88092735  0.32287591  1
  Ni  Ni165  1  0.45934562  0.26687376  0.55817117  1
  Ni  Ni166  1  0.76911942  0.79592652  0.41454683  1
  Ni  Ni167  1  0.45182693  0.79017038  0.19655725  1
  Ni  Ni168  1  0.56890988  0.47976347  0.93830070  1
  Ni  Ni169  1  0.44741643  0.23814068  0.38108676  1
  Ni  Ni170  1  0.61604536  0.27401722  0.34435493  1
  Ni  Ni171  1  0.47782692  0.35266207  0.01605452  1
  Ni  Ni172  1  0.06637604  0.79771251  0.49332676  1
  Ni  Ni173  1  0.16497070  0.81785404  0.75836285  1
  Ni  Ni174  1  0.50718142  0.46781189  0.23637232  1
  Ni  Ni175  1  0.02763410  0.62322240  0.23994776  1
  Ni  Ni176  1  0.54669481  0.73521915  0.94578865  1
  Ni  Ni177  1  0.50699043  0.79075381  0.52055626  1
  Ni  Ni178  1  0.11291092  0.15303878  0.83554327  1
  Ni  Ni179  1  0.59189733  0.53803437  0.39003301  1
  Ni  Ni180  1  0.35539852  0.35847986  0.77163576  1
  Ni  Ni181  1  0.78301500  0.20945605  0.10180176  1
  Ni  Ni182  1  0.35694579  0.19322654  0.68181766  1
  Ni  Ni183  1  0.86489928  0.87329060  0.08604513  1
  Ni  Ni184  1  0.76346328  0.06993989  0.72387656  1
  Ni  Ni185  1  0.73233216  0.28385891  0.23502036  1
  Ni  Ni186  1  0.60521314  0.07605087  0.64404198  1
  Ni  Ni187  1  0.65438103  0.71539222  0.21245676  1
  Ni  Ni188  1  0.02521980  0.11424057  0.67268547  1
  Ni  Ni189  1  1.00496821  0.78637846  0.21726194  1
  Ni  Ni190  1  0.71954262  0.47801485  0.03173970  1
  Ni  Ni191  1  0.21897908  0.20660425  0.16065548  1
  Ni  Ni192  1  0.94271028  0.40222294  0.84534096  1
  Ni  Ni193  1  0.10164293  0.33433069  0.59500563  1
  Ni  Ni194  1  0.86016687  0.78504215  0.94215630  1
  Ni  Ni195  1  0.79810808  0.52894748  0.19994176  1
  Ni  Ni196  1  0.55920434  0.49004390  0.72215414  1
  Ni  Ni197  1  1.03005646  0.46689945  0.66385761  1
  Ni  Ni198  1  0.76806174  0.63640244  0.70323024  1
  Ni  Ni199  1  0.23327276  0.24848925  0.77256567  1
  Ni  Ni200  1  0.75628587  0.71806926  0.07253552  1
  Ni  Ni201  1  0.28271417  0.89046623  0.02000940  1
  Ni  Ni202  1  0.51194869  0.93094816  0.62132736  1
  Ni  Ni203  1  0.22652815  0.96705699  0.69562461  1
  Ni  Ni204  1  0.12255605  0.42221043  0.36205952  1
  Ni  Ni205  1  0.79684459  0.05333402  0.88886133  1
  Ni  Ni206  1  0.16905721  0.12279966  0.45894858  1
  Ni  Ni207  1  0.99139379  0.94935792  0.76497639  1
  Ni  Ni208  1  0.29705135  0.58969512  0.02457537  1
  Ni  Ni209  1  0.62061103  0.23217682  0.11232610  1
  Ni  Ni210  1  0.33260100  0.16198672  0.04945057  1
  Ni  Ni211  1  0.19817320  0.42896082  0.20441217  1
  Ni  Ni212  1  0.88846869  0.54712231  0.54251703  1
  Ni  Ni213  1  0.21811010  0.53631449  0.88558836  1
  Ni  Ni214  1  0.69162474  0.77205944  0.62978298  1
  Ni  Ni215  1  0.27043229  0.32217550  1.04432973  1
