# generated using pymatgen
data_Ti2CoNi
_symmetry_space_group_name_H-M   'P 1'
_cell_length_a   14.52925301
_cell_length_b   14.55187596
_cell_length_c   14.57133624
_cell_angle_alpha   89.72839057
_cell_angle_beta   89.55186943
_cell_angle_gamma   89.90912661
_symmetry_Int_Tables_number   1
_chemical_formula_structural   Ti2CoNi
_chemical_formula_sum   'Ti108 Co54 Ni54'
_cell_volume   3080.65429985
_cell_formula_units_Z   54
loop_
 _symmetry_equiv_pos_site_id
 _symmetry_equiv_pos_as_xyz
  1  'x, y, z'
loop_
 _atom_site_type_symbol
 _atom_site_label
 _atom_site_symmetry_multiplicity
 _atom_site_fract_x
 _atom_site_fract_y
 _atom_site_fract_z
 _atom_site_occupancy
  Ti  Ti0  1  0.02916306  -0.03004003  0.03212702  1
  Ti  Ti1  1  0.02137396  0.00605422  0.31974622  1
  Ti  Ti2  1  -0.09467127  -0.05981893  0.57838514  1
  Ti  Ti3  1  -0.05725573  0.30167262  0.01236512  1
  Ti  Ti4  1  -0.00317476  0.34729376  0.34740190  1
  Ti  Ti5  1  0.01789428  0.38765616  0.70289807  1
  Ti  Ti6  1  -0.01851916  0.71984752  -0.00658602  1
  Ti  Ti7  1  -0.02099225  0.61901090  0.37966369  1
  Ti  Ti8  1  -0.02257477  0.68837190  0.66682814  1
  Ti  Ti9  1  0.31989792  0.05346588  -0.03232841  1
  Ti  Ti10  1  0.33837672  -0.02934913  0.31805879  1
  Ti  Ti11  1  0.33670245  0.00465825  0.64829329  1
  Ti  Ti12  1  0.35820735  0.42050760  -0.02726231  1
  Ti  Ti13  1  0.33343885  0.26987766  0.30650029  1
  Ti  Ti14  1  0.37788682  0.35084163  0.70017471  1
  Ti  Ti15  1  0.29577264  0.58848098  0.01864963  1
  Ti  Ti16  1  0.30633936  0.72134777  0.34146595  1
  Ti  Ti17  1  0.31576620  0.66404466  0.68625757  1
  Ti  Ti18  1  0.70157786  -0.04228295  -0.06398056  1
  Ti  Ti19  1  0.65300280  -0.01398140  0.38510259  1
  Ti  Ti20  1  0.70171890  0.04111947  0.66605851  1
  Ti  Ti21  1  0.75923432  0.39082346  -0.00732863  1
  Ti  Ti22  1  0.68731346  0.36775285  0.35757536  1
  Ti  Ti23  1  0.67921190  0.30161628  0.73405172  1
  Ti  Ti24  1  0.55914598  0.68665359  -0.08814860  1
  Ti  Ti25  1  0.73025701  0.68727868  0.31360010  1
  Ti  Ti26  1  0.58956103  0.63552539  0.72647996  1
  Ti  Ti27  1  0.09002091  0.16116569  0.13312308  1
  Ti  Ti28  1  -0.02884422  0.15644413  0.56920005  1
  Ti  Ti29  1  -0.04718578  0.13346321  0.81178298  1
  Ti  Ti30  1  0.01603212  0.39733866  0.14912796  1
  Ti  Ti31  1  0.02626303  0.53396577  0.56815307  1
  Ti  Ti32  1  0.02246152  0.57135115  0.87338264  1
  Ti  Ti33  1  -0.04735759  0.83683768  0.14419475  1
  Ti  Ti34  1  -0.01037175  0.85050166  0.42518223  1
  Ti  Ti35  1  0.04600981  0.86378012  0.74217901  1
  Ti  Ti36  1  0.38040926  0.13778600  0.15820598  1
  Ti  Ti37  1  0.37052635  0.20787493  0.53144702  1
  Ti  Ti38  1  0.34495102  0.16922687  0.74885437  1
  Ti  Ti39  1  0.28778749  0.58601715  0.20663064  1
  Ti  Ti40  1  0.36210853  0.51346336  0.53950983  1
  Ti  Ti41  1  0.24382572  0.54837017  0.84365144  1
  Ti  Ti42  1  0.33605466  0.93327261  0.12013410  1
  Ti  Ti43  1  0.34856814  0.85657632  0.47306735  1
  Ti  Ti44  1  0.25363265  0.89358194  0.83426310  1
  Ti  Ti45  1  0.59077928  0.16811409  0.12283438  1
  Ti  Ti46  1  0.61050121  0.24021670  0.48897601  1
  Ti  Ti47  1  0.63290622  0.14556210  0.84247578  1
  Ti  Ti48  1  0.68577875  0.48438403  0.14275654  1
  Ti  Ti49  1  0.58984604  0.52624483  0.52663941  1
  Ti  Ti50  1  0.72135449  0.49692682  0.79998286  1
  Ti  Ti51  1  0.62595422  0.75080476  0.16090877  1
  Ti  Ti52  1  0.68206530  0.79816463  0.44484817  1
  Ti  Ti53  1  0.73371485  0.80040893  0.83863513  1
  Ti  Ti54  1  0.16304157  -0.04067282  0.16997697  1
  Ti  Ti55  1  0.13478900  -0.02670626  0.53596108  1
  Ti  Ti56  1  0.09447533  0.01711705  0.86378517  1
  Ti  Ti57  1  0.24060251  0.38216487  0.12741153  1
  Ti  Ti58  1  0.11200633  0.30576565  0.52877825  1
  Ti  Ti59  1  0.13515580  0.25825620  0.83266185  1
  Ti  Ti60  1  0.09308928  0.67315426  0.18607894  1
  Ti  Ti61  1  0.17398151  0.60724466  0.42272083  1
  Ti  Ti62  1  0.15397092  0.71681262  0.83900031  1
  Ti  Ti63  1  0.49955291  -0.02522417  0.21886744  1
  Ti  Ti64  1  0.46911412  0.03818900  0.49989586  1
  Ti  Ti65  1  0.51226504  0.00068801  0.88796667  1
  Ti  Ti66  1  0.53926235  0.36044499  0.07632753  1
  Ti  Ti67  1  0.47881590  0.36460744  0.53045438  1
  Ti  Ti68  1  0.54614990  0.36492276  0.88020346  1
  Ti  Ti69  1  0.43248582  0.69171107  0.16402385  1
  Ti  Ti70  1  0.48992685  0.72575482  0.49850126  1
  Ti  Ti71  1  0.47125340  0.82910010  0.84541172  1
  Ti  Ti72  1  0.77376542  0.04349067  0.23757559  1
  Ti  Ti73  1  0.79637779  0.09304612  0.49035451  1
  Ti  Ti74  1  0.86277390  -0.03807542  0.79889720  1
  Ti  Ti75  1  0.76607908  0.28363055  0.16283699  1
  Ti  Ti76  1  0.81423847  0.29907200  0.48427835  1
  Ti  Ti77  1  0.80398159  0.25969241  0.88052588  1
  Ti  Ti78  1  0.89622188  0.65540764  0.17435521  1
  Ti  Ti79  1  0.82147752  0.63130520  0.50838793  1
  Ti  Ti80  1  0.87116086  0.66815516  0.82889076  1
  Ti  Ti81  1  0.25778681  0.23581907  -0.02244916  1
  Ti  Ti82  1  0.13211206  0.18630226  0.32715319  1
  Ti  Ti83  1  0.18736019  0.14030097  0.61001087  1
  Ti  Ti84  1  0.12783549  0.44436090  -0.02072836  1
  Ti  Ti85  1  0.15757772  0.46748991  0.28963648  1
  Ti  Ti86  1  0.21068495  0.45856603  0.67310040  1
  Ti  Ti87  1  0.25624986  0.77163582  0.02932115  1
  Ti  Ti88  1  0.17625625  0.85366289  0.38335665  1
  Ti  Ti89  1  0.23704277  0.84865661  0.63675427  1
  Ti  Ti90  1  0.46895553  0.19003283  -0.03959423  1
  Ti  Ti91  1  0.50511473  0.15399644  0.34504294  1
  Ti  Ti92  1  0.51625564  0.03249539  0.69885342  1
  Ti  Ti93  1  0.50126639  0.55948107  0.03411937  1
  Ti  Ti94  1  0.47619763  0.49089400  0.32728431  1
  Ti  Ti95  1  0.54977942  0.44044040  0.69628150  1
  Ti  Ti96  1  0.50228653  0.85765897  0.05178805  1
  Ti  Ti97  1  0.52420070  0.80361818  0.32249450  1
  Ti  Ti98  1  0.57407479  0.81746812  0.67026772  1
  Ti  Ti99  1  0.90581207  0.12098758  0.05376764  1
  Ti  Ti100  1  0.83315165  0.20045276  0.32013706  1
  Ti  Ti101  1  0.86932665  0.26793932  0.68249592  1
  Ti  Ti102  1  0.82879173  0.56510409  -0.00002407  1
  Ti  Ti103  1  0.80197717  0.52013873  0.30990899  1
  Ti  Ti104  1  0.83255137  0.44269916  0.62060827  1
  Ti  Ti105  1  0.76236829  0.87430499  0.10200390  1
  Ti  Ti106  1  0.81874241  0.85663897  0.28592659  1
  Ti  Ti107  1  0.75910369  0.80558980  0.62082952  1
  Co  Co108  1  0.31807282  0.54913235  0.36889880  1
  Co  Co109  1  0.41011368  0.60188483  0.88311875  1
  Co  Co110  1  0.04766069  0.22180682  0.69152129  1
  Co  Co111  1  0.10031185  0.43358935  0.82473723  1
  Co  Co112  1  0.75499009  0.05031215  0.07237968  1
  Co  Co113  1  0.22403386  0.11475440  0.84312308  1
  Co  Co114  1  0.19336335  0.59497807  0.58302556  1
  Co  Co115  1  0.97228438  0.29417547  0.83947049  1
  Co  Co116  1  0.65442245  0.88843415  0.25154085  1
  Co  Co117  1  0.62061420  0.96371355  0.10231946  1
  Co  Co118  1  0.74851451  0.62596924  0.16895895  1
  Co  Co119  1  0.64040105  0.68799970  0.56380038  1
  Co  Co120  1  0.63149968  0.24197257  0.26878131  1
  Co  Co121  1  0.22572213  0.21206661  0.46018542  1
  Co  Co122  1  0.64504623  0.80658847  0.99114635  1
  Co  Co123  1  0.91130523  0.77967321  0.55873310  1
  Co  Co124  1  0.93849121  0.43887477  0.92345857  1
  Co  Co125  1  0.73606497  0.20268092  0.60524026  1
  Co  Co126  1  0.74468170  0.68557025  0.72260152  1
  Co  Co127  1  0.11758215  0.29226735  0.04242217  1
  Co  Co128  1  0.63128635  0.26525145  -0.02111687  1
  Co  Co129  1  0.89548350  0.97838160  0.15074913  1
  Co  Co130  1  0.88081174  0.81073967  0.72837242  1
  Co  Co131  1  0.62079052  0.07167447  0.24585724  1
  Co  Co132  1  0.76417819  0.20308211  1.02829966  1
  Co  Co133  1  0.41338446  0.72243603  -0.00337239  1
  Co  Co134  1  0.61811776  0.08668166  0.52839886  1
  Co  Co135  1  0.13306511  0.31118715  0.22730224  1
  Co  Co136  1  0.45097601  0.65330108  0.33731829  1
  Co  Co137  1  0.20042194  0.75510646  0.50855066  1
  Co  Co138  1  0.16542194  0.08269269  0.01036576  1
  Co  Co139  1  0.20330220  0.92726009  -0.00067139  1
  Co  Co140  1  0.50841608  0.32656471  0.36930304  1
  Co  Co141  1  0.86659067  0.95135858  0.98950941  1
  Co  Co142  1  0.06674046  0.83996347  0.57835274  1
  Co  Co143  1  0.09858681  0.57020495  0.72657182  1
  Co  Co144  1  0.68973338  0.14896097  0.38134422  1
  Co  Co145  1  0.04661096  0.69623488  0.50214993  1
  Co  Co146  1  0.36750766  0.00978569  0.81152817  1
  Co  Co147  1  0.94519220  0.25799994  0.18759231  1
  Co  Co148  1  0.31821926  0.72909099  0.85499126  1
  Co  Co149  1  0.20720167  0.28647555  0.68375030  1
  Co  Co150  1  0.62336680  0.09190092  0.98827785  1
  Co  Co151  1  0.04681066  0.16936387  0.94950575  1
  Co  Co152  1  0.36880167  0.89341035  0.95632308  1
  Co  Co153  1  0.47745319  0.26883372  0.21787595  1
  Co  Co154  1  0.10624714  0.81109694  0.07994967  1
  Co  Co155  1  0.54983994  0.52419204  0.84409019  1
  Co  Co156  1  0.84748194  0.76361929  0.41814996  1
  Co  Co157  1  0.33288555  0.66455146  0.49782437  1
  Co  Co158  1  0.25311132  0.37926265  0.82830039  1
  Co  Co159  1  0.35847241  0.38811202  0.41746062  1
  Co  Co160  1  0.40190818  0.45753987  0.81936941  1
  Co  Co161  1  0.80860265  0.08724597  0.91479374  1
  Ni  Ni162  1  0.32573099  0.42593960  0.26420582  1
  Ni  Ni163  1  0.46828763  0.62099972  0.61951007  1
  Ni  Ni164  1  0.71538662  0.63577752  0.88681503  1
  Ni  Ni165  1  0.08328612  0.10680251  0.46394548  1
  Ni  Ni166  1  0.92683765  0.53784875  0.72268675  1
  Ni  Ni167  1  0.71932877  0.55720302  0.63024266  1
  Ni  Ni168  1  0.02778680  0.02537498  0.67861753  1
  Ni  Ni169  1  0.94358284  0.10844590  0.22806572  1
  Ni  Ni170  1  0.14080548  0.71952573  0.67097811  1
  Ni  Ni171  1  0.91354182  0.82758538  0.88568033  1
  Ni  Ni172  1  0.95964848  0.75191181  0.29492488  1
  Ni  Ni173  1  0.70161807  0.94112820  0.53777793  1
  Ni  Ni174  1  0.57993475  0.59554087  0.21955299  1
  Ni  Ni175  1  0.99003019  0.55438188  0.06440993  1
  Ni  Ni176  1  0.18429438  1.00443944  0.71635178  1
  Ni  Ni177  1  0.64281189  0.49870492  0.96854202  1
  Ni  Ni178  1  0.90549053  0.47282750  0.43231300  1
  Ni  Ni179  1  0.08033409  0.45358416  0.44095503  1
  Ni  Ni180  1  0.59986227  0.63109341  0.39865043  1
  Ni  Ni181  1  0.95824936  0.35665646  0.53957349  1
  Ni  Ni182  1  0.38213420  0.83024456  0.24005971  1
  Ni  Ni183  1  0.13132419  0.63567217  0.99223197  1
  Ni  Ni184  1  0.86832395  0.07635715  0.66218684  1
  Ni  Ni185  1  0.80684217  0.74128547  -0.00063488  1
  Ni  Ni186  1  0.65204764  0.92729069  0.77122600  1
  Ni  Ni187  1  0.42241329  0.46893515  0.14278240  1
  Ni  Ni188  1  0.85157518  0.37061323  0.27943036  1
  Ni  Ni189  1  0.37779467  0.29250325  0.09293856  1
  Ni  Ni190  1  0.84762415  0.40148096  0.79304511  1
  Ni  Ni191  1  0.74515840  0.47993994  0.47385452  1
  Ni  Ni192  1  0.23645670  0.09709873  0.22249839  1
  Ni  Ni193  1  0.22663211  0.77829096  0.20174681  1
  Ni  Ni194  1  0.66176304  0.64190137  0.04143729  1
  Ni  Ni195  1  0.58254952  0.39920324  0.23290797  1
  Ni  Ni196  1  0.50530592  0.22959897  0.77514942  1
  Ni  Ni197  1  0.14358169  0.52880590  0.12588813  1
  Ni  Ni198  1  0.37751138  0.82248986  0.72000120  1
  Ni  Ni199  1  0.51144977  0.18498247  0.62177002  1
  Ni  Ni200  1  0.18825241  1.02583957  0.36572176  1
  Ni  Ni201  1  0.96515332  0.20256179  0.41382066  1
  Ni  Ni202  1  0.08246774  0.85026287  0.91444313  1
  Ni  Ni203  1  0.28143167  0.35347941  0.55232813  1
  Ni  Ni204  1  0.34141473  0.12203037  0.37371281  1
  Ni  Ni205  1  0.29403598  0.01699153  0.49034153  1
  Ni  Ni206  1  0.67567138  0.37054339  0.57947922  1
  Ni  Ni207  1  0.47163137  0.03784244  0.05401154  1
  Ni  Ni208  1  0.77725021  0.15030049  0.76450729  1
  Ni  Ni209  1  0.07796881  0.84773000  0.25230208  1
  Ni  Ni210  1  0.44642500  0.89065298  0.59660454  1
  Ni  Ni211  1  0.38314500  0.29204010  0.86718994  1
  Ni  Ni212  1  0.54054690  0.89112001  0.46923464  1
  Ni  Ni213  1  0.85803645  0.96908617  0.40025998  1
  Ni  Ni214  1  0.85548521  0.47147107  0.14111757  1
  Ni  Ni215  1  -0.01977401  0.51951152  0.25140297  1
