# generated using pymatgen
data_Ti2CoNi
_symmetry_space_group_name_H-M   'P 1'
_cell_length_a   14.68181660
_cell_length_b   14.63707624
_cell_length_c   14.60722502
_cell_angle_alpha   89.67465763
_cell_angle_beta   89.87838237
_cell_angle_gamma   90.16552752
_symmetry_Int_Tables_number   1
_chemical_formula_structural   Ti2CoNi
_chemical_formula_sum   'Ti108 Co54 Ni54'
_cell_volume   3139.00524575
_cell_formula_units_Z   54
loop_
 _symmetry_equiv_pos_site_id
 _symmetry_equiv_pos_as_xyz
  1  'x, y, z'
loop_
 _atom_site_type_symbol
 _atom_site_label
 _atom_site_symmetry_multiplicity
 _atom_site_fract_x
 _atom_site_fract_y
 _atom_site_fract_z
 _atom_site_occupancy
  Ti  Ti0  1  -0.02536204  0.00092757  0.02561885  1
  Ti  Ti1  1  -0.07354533  0.02565566  0.33999574  1
  Ti  Ti2  1  -0.00126007  -0.02873453  0.70617172  1
  Ti  Ti3  1  -0.01548547  0.35423005  0.05153485  1
  Ti  Ti4  1  0.03592614  0.31778704  0.31747574  1
  Ti  Ti5  1  0.02737735  0.37487004  0.62944132  1
  Ti  Ti6  1  -0.06978827  0.64006237  -0.01925783  1
  Ti  Ti7  1  0.06118354  0.71222600  0.40950772  1
  Ti  Ti8  1  0.02349641  0.66839664  0.60422615  1
  Ti  Ti9  1  0.25743244  -0.03115361  0.01706367  1
  Ti  Ti10  1  0.35541664  -0.03573681  0.33478866  1
  Ti  Ti11  1  0.32544661  -0.07470173  0.63853475  1
  Ti  Ti12  1  0.30764686  0.36343978  0.00441954  1
  Ti  Ti13  1  0.33717985  0.33062088  0.33992397  1
  Ti  Ti14  1  0.25279601  0.35249825  0.68729977  1
  Ti  Ti15  1  0.33252621  0.62818356  0.06712036  1
  Ti  Ti16  1  0.34666194  0.67527004  0.27057520  1
  Ti  Ti17  1  0.39371765  0.53107513  0.56666749  1
  Ti  Ti18  1  0.62535776  0.03948053  -0.01346534  1
  Ti  Ti19  1  0.66170033  -0.00646877  0.28892804  1
  Ti  Ti20  1  0.66109894  -0.01787294  0.71264884  1
  Ti  Ti21  1  0.67474399  0.30332814  -0.03195264  1
  Ti  Ti22  1  0.64806186  0.29704476  0.30592683  1
  Ti  Ti23  1  0.65063708  0.38626651  0.76022914  1
  Ti  Ti24  1  0.62188793  0.62855912  -0.02244843  1
  Ti  Ti25  1  0.66320741  0.69900141  0.29443087  1
  Ti  Ti26  1  0.66342221  0.68675533  0.69468516  1
  Ti  Ti27  1  0.04785355  0.16692834  0.16491801  1
  Ti  Ti28  1  -0.07716631  0.18880802  0.48076607  1
  Ti  Ti29  1  -0.03372382  0.18823848  0.78164644  1
  Ti  Ti30  1  0.02672566  0.51572836  0.17271152  1
  Ti  Ti31  1  -0.07357729  0.53898754  0.49879250  1
  Ti  Ti32  1  -0.00912639  0.53651888  0.82461558  1
  Ti  Ti33  1  -0.00162751  0.79701927  0.10248081  1
  Ti  Ti34  1  0.05543974  0.89721045  0.50717959  1
  Ti  Ti35  1  0.01254749  0.81935571  0.88193087  1
  Ti  Ti36  1  0.35059695  0.17275815  0.20971468  1
  Ti  Ti37  1  0.29959530  0.21443591  0.55059582  1
  Ti  Ti38  1  0.30620337  0.12703877  0.85861478  1
  Ti  Ti39  1  0.25399192  0.50477396  0.21121061  1
  Ti  Ti40  1  0.29421434  0.51861173  0.40509732  1
  Ti  Ti41  1  0.36479649  0.49409488  0.77884975  1
  Ti  Ti42  1  0.30101862  0.85877144  0.17813206  1
  Ti  Ti43  1  0.36385135  0.83228214  0.48451555  1
  Ti  Ti44  1  0.40177362  0.84273083  0.82206821  1
  Ti  Ti45  1  0.65166324  0.14340081  0.15467699  1
  Ti  Ti46  1  0.59331993  0.19355759  0.47466314  1
  Ti  Ti47  1  0.63455737  0.17137455  0.75717024  1
  Ti  Ti48  1  0.73277030  0.51670231  0.08547814  1
  Ti  Ti49  1  0.71434476  0.54927011  0.56572696  1
  Ti  Ti50  1  0.78655092  0.53254795  0.76070050  1
  Ti  Ti51  1  0.70952366  0.79400148  0.13642447  1
  Ti  Ti52  1  0.69556368  0.75808650  0.49636224  1
  Ti  Ti53  1  0.71672233  0.85160193  0.84867119  1
  Ti  Ti54  1  0.20621704  0.03486324  0.20018335  1
  Ti  Ti55  1  0.21872065  0.02070355  0.49122052  1
  Ti  Ti56  1  0.19491714  -0.02009177  0.79389188  1
  Ti  Ti57  1  0.14954075  0.36141879  0.13924250  1
  Ti  Ti58  1  0.19486777  0.37826970  0.49196760  1
  Ti  Ti59  1  0.14084997  0.24892384  0.85802344  1
  Ti  Ti60  1  0.17771412  0.70087088  0.18884313  1
  Ti  Ti61  1  0.24011120  0.67289362  0.54515659  1
  Ti  Ti62  1  0.23052707  0.71295096  0.80828526  1
  Ti  Ti63  1  0.43608584  0.01960306  0.14455093  1
  Ti  Ti64  1  0.53191528  -0.01125735  0.45138691  1
  Ti  Ti65  1  0.49700961  0.07104946  0.83658420  1
  Ti  Ti66  1  0.48645224  0.37867183  0.21151778  1
  Ti  Ti67  1  0.46655396  0.34040589  0.53243287  1
  Ti  Ti68  1  0.49207420  0.33278522  0.83583539  1
  Ti  Ti69  1  0.52203440  0.62862503  0.15510213  1
  Ti  Ti70  1  0.52094165  0.67081324  0.51289739  1
  Ti  Ti71  1  0.47877513  0.65843129  0.82924020  1
  Ti  Ti72  1  0.85361198  0.07695798  0.16325948  1
  Ti  Ti73  1  0.86517889  -0.03634971  0.52581482  1
  Ti  Ti74  1  0.84693712  0.01453582  0.85894390  1
  Ti  Ti75  1  0.85305582  0.40920705  0.21343992  1
  Ti  Ti76  1  0.74530002  0.29349242  0.49106385  1
  Ti  Ti77  1  0.80221648  0.28778868  0.80426081  1
  Ti  Ti78  1  0.86635444  0.65543206  0.18162685  1
  Ti  Ti79  1  0.88726661  0.75069100  0.48928919  1
  Ti  Ti80  1  0.88333659  0.69503165  0.76296125  1
  Ti  Ti81  1  0.20972786  0.19290786  0.04894429  1
  Ti  Ti82  1  0.09373238  0.12253691  0.36146893  1
  Ti  Ti83  1  0.10890949  0.16995967  0.60644406  1
  Ti  Ti84  1  0.19682693  0.53057925  -0.10098153  1
  Ti  Ti85  1  0.09884538  0.52559167  0.34352845  1
  Ti  Ti86  1  0.13751773  0.54436617  0.69942040  1
  Ti  Ti87  1  0.17906860  0.75660501  0.00297450  1
  Ti  Ti88  1  0.06887095  0.85689324  0.27503434  1
  Ti  Ti89  1  0.15766669  0.81866133  0.65476885  1
  Ti  Ti90  1  0.48589781  0.22502497  0.06360883  1
  Ti  Ti91  1  0.41210613  0.15420718  0.40600166  1
  Ti  Ti92  1  0.45272893  0.11689491  0.63081217  1
  Ti  Ti93  1  0.45560077  0.50381763  -0.04454893  1
  Ti  Ti94  1  0.57788623  0.51778154  0.31562398  1
  Ti  Ti95  1  0.54643518  0.52649339  0.68132724  1
  Ti  Ti96  1  0.49512895  0.86624045  0.02296652  1
  Ti  Ti97  1  0.48204815  0.77327777  0.34235537  1
  Ti  Ti98  1  0.52898417  0.81670350  0.68413146  1
  Ti  Ti99  1  0.86812198  0.19615179  -0.02570381  1
  Ti  Ti100  1  0.77590179  0.15604384  0.33139772  1
  Ti  Ti101  1  0.77383277  0.11730321  0.59258225  1
  Ti  Ti102  1  0.84588343  0.42605165  -0.07799190  1
  Ti  Ti103  1  0.77454269  0.46819937  0.39046832  1
  Ti  Ti104  1  0.81950200  0.40389393  0.62486947  1
  Ti  Ti105  1  0.83752870  0.87239202  0.01903239  1
  Ti  Ti106  1  0.79198041  0.85259250  0.32864159  1
  Ti  Ti107  1  0.78498147  0.83794756  0.65327762  1
  Co  Co108  1  0.23514977  0.20020295  0.73105863  1
  Co  Co109  1  0.10334342  0.10839103  0.75448490  1
  Co  Co110  1  0.49490859  0.92450859  0.27458507  1
  Co  Co111  1  0.14235786  0.98522178  0.63117607  1
  Co  Co112  1  0.49514630  0.95916272  0.62105500  1
  Co  Co113  1  0.45848515  0.66363686  0.67110976  1
  Co  Co114  1  0.03075854  0.05857125  0.50290358  1
  Co  Co115  1  0.71886039  0.26395293  0.65392836  1
  Co  Co116  1  0.71033803  0.69213563  0.84651035  1
  Co  Co117  1  0.33534335  0.63043030  0.90273054  1
  Co  Co118  1  0.63060648  0.39193724  0.59847077  1
  Co  Co119  1  0.10788606  0.92288416  0.95400455  1
  Co  Co120  1  0.93652910  0.09808582  0.63530552  1
  Co  Co121  1  0.93001640  0.60065858  0.34335030  1
  Co  Co122  1  0.84713993  0.75977750  0.90709897  1
  Co  Co123  1  0.15646066  0.08836795  0.91444368  1
  Co  Co124  1  0.78982675  0.04412568  0.01128521  1
  Co  Co125  1  0.37429465  0.00962462  0.76137858  1
  Co  Co126  1  0.11898429  0.05168810  0.06362294  1
  Co  Co127  1  0.93775502  0.18429685  0.29228078  1
  Co  Co128  1  0.18674050  0.38563433  0.30725320  1
  Co  Co129  1  0.24477405  0.49078017  0.59414822  1
  Co  Co130  1  0.03956147  0.66770351  0.24324121  1
  Co  Co131  1  0.36720280  0.67304397  0.43633577  1
  Co  Co132  1  0.77526881  0.69003619  0.03501402  1
  Co  Co133  1  0.20580459  0.64916257  0.37002074  1
  Co  Co134  1  0.62460628  0.31047119  0.12444331  1
  Co  Co135  1  0.49588944  0.29254336  0.37458419  1
  Co  Co136  1  0.88824600  0.25596129  0.64026857  1
  Co  Co137  1  0.90351893  0.35576354  0.49351774  1
  Co  Co138  1  0.05737614  0.64869427  0.07904557  1
  Co  Co139  1  0.76140830  0.25878512  0.19964923  1
  Co  Co140  1  0.79819747  0.67181498  0.38212175  1
  Co  Co141  1  0.89706864  0.50237611  0.06602089  1
  Co  Co142  1  0.94045245  0.44635078  0.34374383  1
  Co  Co143  1  0.07151612  0.25788016  0.47929683  1
  Co  Co144  1  0.19695958  0.82574986  0.48282118  1
  Co  Co145  1  0.45342638  0.39154389  0.68432915  1
  Co  Co146  1  1.01140460  0.02759848  0.86802512  1
  Co  Co147  1  0.67772231  0.42987729  0.21843544  1
  Co  Co148  1  0.66392039  0.88405512  1.00198544  1
  Co  Co149  1  0.54963720  0.25738765  0.65282402  1
  Co  Co150  1  0.27425781  0.08182544  0.64212829  1
  Co  Co151  1  0.65865555  0.59973085  0.42403701  1
  Co  Co152  1  0.55312703  0.51146318  0.51509003  1
  Co  Co153  1  0.82386201  0.66408647  0.61366142  1
  Co  Co154  1  0.92169251  0.75845139  0.29261396  1
  Co  Co155  1  0.75793665  0.56383615  0.26168361  1
  Co  Co156  1  0.37752603  0.02585946  0.50651787  1
  Co  Co157  1  0.04387152  0.41881727  0.46487388  1
  Co  Co158  1  0.08750437  0.65372048  0.91045609  1
  Co  Co159  1  0.84201545  0.30645328  0.34955650  1
  Co  Co160  1  0.78887034  0.57620214  0.92030495  1
  Co  Co161  1  0.93283590  0.53903523  0.66774272  1
  Ni  Ni162  1  0.80650480  0.13097818  0.74961634  1
  Ni  Ni163  1  0.26086987  0.37749048  0.84812956  1
  Ni  Ni164  1  0.24579613  0.85923714  0.88391054  1
  Ni  Ni165  1  0.24388458  0.79995700  0.32766969  1
  Ni  Ni166  1  0.61181335  0.44650525  0.93515553  1
  Ni  Ni167  1  0.42054534  0.76263380  0.13432130  1
  Ni  Ni168  1  0.34995888  0.78423752  0.98221613  1
  Ni  Ni169  1  0.69051050  0.92766222  0.54248618  1
  Ni  Ni170  1  0.17809519  0.53919791  0.06655167  1
  Ni  Ni171  1  0.29683617  0.61136732  0.69799937  1
  Ni  Ni172  1  0.72538881  0.14890767  0.89958146  1
  Ni  Ni173  1  0.54376057  0.83744121  0.51524026  1
  Ni  Ni174  1  0.09942366  0.40509514  0.79321919  1
  Ni  Ni175  1  0.51660815  0.07981758  0.30246358  1
  Ni  Ni176  1  0.58766400  0.96004037  0.13724226  1
  Ni  Ni177  1  0.13537056  0.37576453  -0.03211200  1
  Ni  Ni178  1  0.21340980  0.23791406  0.40595821  1
  Ni  Ni179  1  0.26135334  0.10213817  0.34289107  1
  Ni  Ni180  1  0.62453026  0.85521649  0.37041888  1
  Ni  Ni181  1  0.33480527  0.76677485  0.67328693  1
  Ni  Ni182  1  0.56306531  0.92211804  0.84917745  1
  Ni  Ni183  1  0.92488920  0.39451878  0.75905215  1
  Ni  Ni184  1  0.41652946  0.52819329  0.25457925  1
  Ni  Ni185  1  0.06507308  0.71396393  0.75756354  1
  Ni  Ni186  1  0.51195490  0.21579574  0.22819747  1
  Ni  Ni187  1  0.98237578  0.31946619  0.89033004  1
  Ni  Ni188  1  0.88148357  0.87042929  0.78508951  1
  Ni  Ni189  1  0.90467939  0.23959998  0.13945719  1
  Ni  Ni190  1  0.94530828  0.87554221  0.39481035  1
  Ni  Ni191  1  0.02475605  0.99746102  0.19378755  1
  Ni  Ni192  1  0.89118744  0.89544448  0.19542508  1
  Ni  Ni193  1  0.35516302  0.11631139  0.03521365  1
  Ni  Ni194  1  0.73036430  0.05445477  0.44579233  1
  Ni  Ni195  1  0.95887883  0.81669607  0.64428495  1
  Ni  Ni196  1  0.56214534  0.19678539  0.91952720  1
  Ni  Ni197  1  0.39427334  0.24245111  0.92691810  1
  Ni  Ni198  1  0.18012826  0.95059279  0.34967544  1
  Ni  Ni199  1  0.44838401  0.44897135  0.39995202  1
  Ni  Ni200  1  0.62721840  0.55514884  0.82217867  1
  Ni  Ni201  1  0.13869264  0.88841542  0.11864817  1
  Ni  Ni202  1  0.80394450  0.34744690  0.06379362  1
  Ni  Ni203  1  0.61153658  0.07418399  0.58315955  1
  Ni  Ni204  1  0.31059206  0.32781502  0.16925676  1
  Ni  Ni205  1  0.61659039  0.39342204  0.43490335  1
  Ni  Ni206  1  0.19112545  0.22356242  0.23915456  1
  Ni  Ni207  1  0.56187248  0.80297131  0.19688762  1
  Ni  Ni208  1  0.57011572  0.77215179  0.90332075  1
  Ni  Ni209  1  0.56668648  0.47556890  0.09475981  1
  Ni  Ni210  1  0.39370482  0.24062679  0.72515541  1
  Ni  Ni211  1  0.12070400  0.56144241  0.50735095  1
  Ni  Ni212  1  0.39256376  0.46748480  0.10517714  1
  Ni  Ni213  1  0.39217203  0.97052011  0.92926887  1
  Ni  Ni214  1  0.74446951  0.95893378  0.14128735  1
  Ni  Ni215  1  0.03448341  0.18109475  0.98276213  1
