# generated using pymatgen
data_Ti2CoNi
_symmetry_space_group_name_H-M   'P 1'
_cell_length_a   14.61466354
_cell_length_b   14.55084738
_cell_length_c   14.59637695
_cell_angle_alpha   90.13773686
_cell_angle_beta   89.77391713
_cell_angle_gamma   89.98865237
_symmetry_Int_Tables_number   1
_chemical_formula_structural   Ti2CoNi
_chemical_formula_sum   'Ti108 Co54 Ni54'
_cell_volume   3103.97012246
_cell_formula_units_Z   54
loop_
 _symmetry_equiv_pos_site_id
 _symmetry_equiv_pos_as_xyz
  1  'x, y, z'
loop_
 _atom_site_type_symbol
 _atom_site_label
 _atom_site_symmetry_multiplicity
 _atom_site_fract_x
 _atom_site_fract_y
 _atom_site_fract_z
 _atom_site_occupancy
  Ti  Ti0  1  -0.03622523  0.03375613  -0.06348330  1
  Ti  Ti1  1  -0.00850394  0.01566216  0.42660683  1
  Ti  Ti2  1  -0.06296558  0.03557526  0.74149137  1
  Ti  Ti3  1  -0.05490638  0.28184346  -0.01587119  1
  Ti  Ti4  1  -0.02656685  0.33514200  0.30939801  1
  Ti  Ti5  1  0.06261852  0.37929874  0.68839271  1
  Ti  Ti6  1  0.03331465  0.64605072  0.07515594  1
  Ti  Ti7  1  0.02036660  0.61702603  0.30428374  1
  Ti  Ti8  1  0.03049210  0.65569435  0.69030078  1
  Ti  Ti9  1  0.25751481  0.09988993  0.03915599  1
  Ti  Ti10  1  0.36395256  0.00689367  0.35572107  1
  Ti  Ti11  1  0.37348190  -0.00464135  0.69988951  1
  Ti  Ti12  1  0.29940981  0.30972180  0.04371550  1
  Ti  Ti13  1  0.35577701  0.24734754  0.38851795  1
  Ti  Ti14  1  0.38145743  0.35127774  0.65410247  1
  Ti  Ti15  1  0.30719417  0.68001088  -0.04819174  1
  Ti  Ti16  1  0.39511904  0.71708787  0.27412130  1
  Ti  Ti17  1  0.37925863  0.68684045  0.67222783  1
  Ti  Ti18  1  0.70115398  -0.06307385  0.03425850  1
  Ti  Ti19  1  0.57530840  0.01409770  0.36630664  1
  Ti  Ti20  1  0.72593365  0.05868642  0.63728096  1
  Ti  Ti21  1  0.60576752  0.31417557  -0.04457468  1
  Ti  Ti22  1  0.61162581  0.31169309  0.28686980  1
  Ti  Ti23  1  0.63810293  0.39510653  0.72110052  1
  Ti  Ti24  1  0.61756179  0.60563227  0.00954929  1
  Ti  Ti25  1  0.69850372  0.69692413  0.38110984  1
  Ti  Ti26  1  0.60496596  0.67662766  0.65555591  1
  Ti  Ti27  1  0.01301008  0.15095350  0.11283076  1
  Ti  Ti28  1  0.02502153  0.19334415  0.45290233  1
  Ti  Ti29  1  0.02551366  0.20586368  0.79513744  1
  Ti  Ti30  1  -0.01656033  0.44490125  0.08786555  1
  Ti  Ti31  1  -0.00933348  0.47663810  0.51576223  1
  Ti  Ti32  1  -0.03625981  0.50120065  0.80680073  1
  Ti  Ti33  1  0.01168404  0.79739386  0.23253048  1
  Ti  Ti34  1  -0.02495290  0.79660854  0.45881510  1
  Ti  Ti35  1  -0.03948181  0.81725221  0.81145036  1
  Ti  Ti36  1  0.31036317  0.18618386  0.22027694  1
  Ti  Ti37  1  0.30809902  0.07852100  0.52916532  1
  Ti  Ti38  1  0.27468803  0.10821678  0.83669343  1
  Ti  Ti39  1  0.35520851  0.43591767  0.17402174  1
  Ti  Ti40  1  0.31391536  0.48837012  0.51011408  1
  Ti  Ti41  1  0.33842667  0.44310929  0.83493003  1
  Ti  Ti42  1  0.35483870  0.80306198  0.10228011  1
  Ti  Ti43  1  0.29943266  0.82432921  0.54198290  1
  Ti  Ti44  1  0.31556317  0.90055349  0.87267681  1
  Ti  Ti45  1  0.72260760  0.23394968  0.15767399  1
  Ti  Ti46  1  0.75726617  0.20637861  0.53199833  1
  Ti  Ti47  1  0.63113312  0.16103231  0.78389450  1
  Ti  Ti48  1  0.68162507  0.57944786  0.18871188  1
  Ti  Ti49  1  0.61016268  0.54401831  0.52010045  1
  Ti  Ti50  1  0.69707654  0.47006187  0.90322329  1
  Ti  Ti51  1  0.69065087  0.79518888  0.16890284  1
  Ti  Ti52  1  0.69674929  0.84059916  0.59634523  1
  Ti  Ti53  1  0.67933086  0.83903232  0.86692755  1
  Ti  Ti54  1  0.12614965  0.00433685  0.17332578  1
  Ti  Ti55  1  0.17586254  -0.07539010  0.44080057  1
  Ti  Ti56  1  0.16493344  -0.04428466  0.75562004  1
  Ti  Ti57  1  0.17249236  0.35307569  0.23130078  1
  Ti  Ti58  1  0.18166268  0.36034618  0.43625488  1
  Ti  Ti59  1  0.21071192  0.31683269  0.77422918  1
  Ti  Ti60  1  0.19083841  0.66800791  0.17983951  1
  Ti  Ti61  1  0.20541903  0.67354731  0.48957102  1
  Ti  Ti62  1  0.10290329  0.64348896  0.88012029  1
  Ti  Ti63  1  0.42492518  0.00412827  0.11856579  1
  Ti  Ti64  1  0.54122303  -0.03031107  0.55577728  1
  Ti  Ti65  1  0.53345638  -0.01047809  0.85200458  1
  Ti  Ti66  1  0.50375117  0.31941881  0.11475564  1
  Ti  Ti67  1  0.54020406  0.26662669  0.47247445  1
  Ti  Ti68  1  0.49055231  0.29650942  0.79222678  1
  Ti  Ti69  1  0.48912350  0.59231669  0.16719856  1
  Ti  Ti70  1  0.49522511  0.70630636  0.43824422  1
  Ti  Ti71  1  0.55907847  0.67120977  0.84570942  1
  Ti  Ti72  1  0.83244303  -0.01068192  0.19632934  1
  Ti  Ti73  1  0.83469561  -0.05972379  0.48888354  1
  Ti  Ti74  1  0.76011509  0.04264766  0.86235770  1
  Ti  Ti75  1  0.80576133  0.41620352  0.19522050  1
  Ti  Ti76  1  0.79269361  0.42336602  0.53919194  1
  Ti  Ti77  1  0.76944934  0.28738642  0.84214306  1
  Ti  Ti78  1  0.87145057  0.64767547  0.17615898  1
  Ti  Ti79  1  0.86461386  0.60942938  0.43396856  1
  Ti  Ti80  1  0.83657510  0.73722822  0.93408126  1
  Ti  Ti81  1  0.14176306  0.22660736  -0.04340007  1
  Ti  Ti82  1  0.17143048  0.10394718  0.34022531  1
  Ti  Ti83  1  0.17418227  0.20668596  0.62093603  1
  Ti  Ti84  1  0.19862712  0.51296493  0.04941489  1
  Ti  Ti85  1  0.19791033  0.53391563  0.34035883  1
  Ti  Ti86  1  0.17037362  0.53436914  0.64585939  1
  Ti  Ti87  1  0.16883249  0.81982392  -0.04197976  1
  Ti  Ti88  1  0.21965156  0.85419522  0.25227524  1
  Ti  Ti89  1  0.10007885  0.82448882  0.61196239  1
  Ti  Ti90  1  0.46572673  0.16893493  -0.05764439  1
  Ti  Ti91  1  0.53631283  0.13706161  0.22664784  1
  Ti  Ti92  1  0.47963361  0.15334242  0.62390224  1
  Ti  Ti93  1  0.40072844  0.52137412  -0.01193684  1
  Ti  Ti94  1  0.45834632  0.47862063  0.35811878  1
  Ti  Ti95  1  0.49138470  0.51414335  0.70341009  1
  Ti  Ti96  1  0.47586817  0.84625016  -0.03993861  1
  Ti  Ti97  1  0.52879284  0.86094631  0.27196927  1
  Ti  Ti98  1  0.52489247  0.84306030  0.72958590  1
  Ti  Ti99  1  0.83869029  0.11303119  0.05934788  1
  Ti  Ti100  1  0.86229017  0.15718006  0.31497634  1
  Ti  Ti101  1  0.93085549  0.24446855  0.62936863  1
  Ti  Ti102  1  0.81503456  0.54131574  0.03312508  1
  Ti  Ti103  1  0.69817518  0.46161499  0.36854142  1
  Ti  Ti104  1  0.79639818  0.57493889  0.67936072  1
  Ti  Ti105  1  0.88004200  0.82602640  0.10655894  1
  Ti  Ti106  1  0.73934563  0.89034697  0.32433973  1
  Ti  Ti107  1  0.86034026  0.77792231  0.65614829  1
  Co  Co108  1  0.35346921  0.24259778  0.54201469  1
  Co  Co109  1  0.40849415  0.59918076  0.83063186  1
  Co  Co110  1  0.10717151  0.50159612  0.19044386  1
  Co  Co111  1  0.20870391  0.20659865  0.46267185  1
  Co  Co112  1  0.81176683  0.78152531  0.47166943  1
  Co  Co113  1  0.75366104  0.69126651  0.06361980  1
  Co  Co114  1  0.11896860  0.35555989  0.06615981  1
  Co  Co115  1  0.94277985  0.49725581  0.23445414  1
  Co  Co116  1  0.54472251  0.78947703  0.56078378  1
  Co  Co117  1  0.62059138  0.06861564  0.95148953  1
  Co  Co118  1  0.65146600  0.55418916  0.75651223  1
  Co  Co119  1  0.71875496  0.08758159  0.26593830  1
  Co  Co120  1  0.82161228  0.89969213  0.80427883  1
  Co  Co121  1  0.68525272  0.07949671  0.10794212  1
  Co  Co122  1  0.06153018  0.35246725  0.87159029  1
  Co  Co123  1  0.05190065  0.46300195  0.36222032  1
  Co  Co124  1  0.89179006  0.25530512  0.16339849  1
  Co  Co125  1  0.72890377  0.73634693  0.75365930  1
  Co  Co126  1  0.33699289  0.56526123  0.26317472  1
  Co  Co127  1  0.87227971  0.44863377  0.38071906  1
  Co  Co128  1  0.11472942  0.79480888  0.77383896  1
  Co  Co129  1  0.61075295  0.11511078  0.52649573  1
  Co  Co130  1  0.32645394  0.50622279  0.67952994  1
  Co  Co131  1  0.82082308  0.16621303  0.72410175  1
  Co  Co132  1  0.21821155  0.37418849  0.60295404  1
  Co  Co133  1  0.29189825  0.84754499  0.70817295  1
  Co  Co134  1  0.13851975  0.48493840  0.80450594  1
  Co  Co135  1  0.91579982  0.32648926  0.79251865  1
  Co  Co136  1  0.24287279  0.69472921  0.32751507  1
  Co  Co137  1  0.54389876  0.89418185  0.09997963  1
  Co  Co138  1  0.06693946  0.48900877  0.95453202  1
  Co  Co139  1  0.80109237  0.56944898  0.29550966  1
  Co  Co140  1  0.35344989  0.62086969  0.42007670  1
  Co  Co141  1  0.42283764  0.87077266  0.60757730  1
  Co  Co142  1  0.38175376  0.89156765  0.23889120  1
  Co  Co143  1  0.25232451  0.59038071  0.79737611  1
  Co  Co144  1  0.77281323  0.31462324  0.67341499  1
  Co  Co145  1  0.89316600  0.65950585  0.78734340  1
  Co  Co146  1  0.80138065  0.30560278  0.30715527  1
  Co  Co147  1  0.25176580  0.74512559  0.82280525  1
  Co  Co148  1  0.46281555  0.88052089  0.43420583  1
  Co  Co149  1  0.21320376  0.38933687  0.93217555  1
  Co  Co150  1  0.73469278  0.62740402  0.87595484  1
  Co  Co151  1  0.79413407  0.44552558  0.77818447  1
  Co  Co152  1  0.31201251  0.40813388  0.34137077  1
  Co  Co153  1  0.70918496  0.31155084  0.42939055  1
  Co  Co154  1  0.12913027  0.07132818  0.51182276  1
  Co  Co155  1  0.05802773  0.33034830  0.53010075  1
  Co  Co156  1  0.57714708  0.18198347  0.06420017  1
  Co  Co157  1  0.63458790  0.17195644  0.37205488  1
  Co  Co158  1  0.73952623  0.66027837  0.55251459  1
  Co  Co159  1  0.94599603  0.60207006  -0.05406980  1
  Co  Co160  1  0.28213835  0.02168385  0.21316000  1
  Co  Co161  1  0.64048652  0.96329174  0.20513343  1
  Ni  Ni162  1  0.62685923  0.38551458  0.55278816  1
  Ni  Ni163  1  0.05117776  0.62926776  0.48433638  1
  Ni  Ni164  1  0.53947699  0.46309473  0.04226987  1
  Ni  Ni165  1  0.38655501  1.01941112  0.95632585  1
  Ni  Ni166  1  0.45940326  0.11469037  0.44886682  1
  Ni  Ni167  1  0.98261861  0.04481783  0.25674867  1
  Ni  Ni168  1  0.07540064  0.92077022  0.31561482  1
  Ni  Ni169  1  0.52899864  0.47207141  0.86561678  1
  Ni  Ni170  1  0.88481250  0.42746728  0.93170525  1
  Ni  Ni171  1  0.46585737  0.68591580  0.01624760  1
  Ni  Ni172  1  0.58494181  0.57470989  0.34033129  1
  Ni  Ni173  1  1.00099070  0.78824585  0.98148192  1
  Ni  Ni174  1  0.11836447  0.00830394  0.00865775  1
  Ni  Ni175  1  0.57794940  0.70834620  0.25716940  1
  Ni  Ni176  1  0.33305538  0.26266604  0.87011575  1
  Ni  Ni177  1  0.00265176  0.95485667  0.58273726  1
  Ni  Ni178  1  0.72797442  0.04500322  0.43404132  1
  Ni  Ni179  1  0.85815115  0.91102432  0.96521095  1
  Ni  Ni180  1  0.68823162  0.42378525  0.07771801  1
  Ni  Ni181  1  0.90474291  0.42462601  0.65758363  1
  Ni  Ni182  1  0.72402499  0.19266619  0.97302408  1
  Ni  Ni183  1  0.43973736  0.35520652  -0.04566109  1
  Ni  Ni184  1  0.87703947  0.16725998  0.88659813  1
  Ni  Ni185  1  0.61867926  0.24345793  0.63874515  1
  Ni  Ni186  1  0.45149174  0.58041783  0.55291439  1
  Ni  Ni187  1  0.05382851  0.19673752  0.26818465  1
  Ni  Ni188  1  0.91437052  0.65053348  0.57548943  1
  Ni  Ni189  1  0.90721729  0.90284948  0.32611550  1
  Ni  Ni190  1  0.66253641  0.94718229  0.73748826  1
  Ni  Ni191  1  0.16709809  0.20641198  0.13862326  1
  Ni  Ni192  1  0.11861813  0.83345544  0.11081307  1
  Ni  Ni193  1  0.86164641  0.74279612  0.31334780  1
  Ni  Ni194  1  0.62978723  0.86175683  0.43956967  1
  Ni  Ni195  1  0.56994606  0.45296721  0.21417394  1
  Ni  Ni196  1  0.07921967  0.08152362  0.67208115  1
  Ni  Ni197  1  0.21368361  -0.03591263  0.60232723  1
  Ni  Ni198  1  0.44281078  0.32093931  0.26896036  1
  Ni  Ni199  1  0.45182703  0.40017028  0.50589947  1
  Ni  Ni200  1  0.06390033  0.91897552  0.87948354  1
  Ni  Ni201  1  0.88732906  0.29771296  0.45551727  1
  Ni  Ni202  1  0.45475019  0.12008664  0.78629210  1
  Ni  Ni203  1  0.41338138  0.17698817  0.09965412  1
  Ni  Ni204  1  0.97208897  0.97247518  0.09471137  1
  Ni  Ni205  1  0.32025761  0.82606287  0.38243684  1
  Ni  Ni206  1  0.20860022  0.70185243  0.66343375  1
  Ni  Ni207  1  0.89411866  0.09068953  0.56429649  1
  Ni  Ni208  1  0.33451904  0.62484274  0.10941972  1
  Ni  Ni209  1  0.61961229  0.77244958  1.00950884  1
  Ni  Ni210  1  0.10923256  0.08164742  0.85765440  1
  Ni  Ni211  1  0.84525486  0.94105184  0.65113131  1
  Ni  Ni212  1  0.32868045  0.18894729  0.70053536  1
  Ni  Ni213  1  0.41271884  0.76764680  0.81959212  1
  Ni  Ni214  1  0.26486976  0.93090439  0.05944067  1
  Ni  Ni215  1  0.10602092  0.75699233  0.37387134  1
