# generated using pymatgen
data_Ti2CoNi
_symmetry_space_group_name_H-M   'P 1'
_cell_length_a   14.69124448
_cell_length_b   14.69848755
_cell_length_c   14.58917870
_cell_angle_alpha   90.12902349
_cell_angle_beta   89.93012604
_cell_angle_gamma   90.40763901
_symmetry_Int_Tables_number   1
_chemical_formula_structural   Ti2CoNi
_chemical_formula_sum   'Ti108 Co54 Ni54'
_cell_volume   3150.28373912
_cell_formula_units_Z   54
loop_
 _symmetry_equiv_pos_site_id
 _symmetry_equiv_pos_as_xyz
  1  'x, y, z'
loop_
 _atom_site_type_symbol
 _atom_site_label
 _atom_site_symmetry_multiplicity
 _atom_site_fract_x
 _atom_site_fract_y
 _atom_site_fract_z
 _atom_site_occupancy
  Ti  Ti0  1  -0.00627187  -0.07912431  0.02377312  1
  Ti  Ti1  1  -0.05749065  0.03510503  0.32456458  1
  Ti  Ti2  1  0.03333627  -0.02401312  0.65247259  1
  Ti  Ti3  1  -0.01424635  0.37403954  -0.00040905  1
  Ti  Ti4  1  0.04318560  0.38296851  0.34208326  1
  Ti  Ti5  1  0.04325056  0.36397102  0.68921583  1
  Ti  Ti6  1  -0.02466124  0.61398525  0.03452757  1
  Ti  Ti7  1  -0.07799484  0.71931153  0.31844488  1
  Ti  Ti8  1  0.04340267  0.67378121  0.64953816  1
  Ti  Ti9  1  0.33711575  0.00808336  -0.03255939  1
  Ti  Ti10  1  0.30188607  0.03510163  0.31134371  1
  Ti  Ti11  1  0.25243839  0.05031580  0.64712900  1
  Ti  Ti12  1  0.41533340  0.29098578  0.03750680  1
  Ti  Ti13  1  0.28650358  0.36262039  0.36684136  1
  Ti  Ti14  1  0.38739932  0.32057453  0.63090604  1
  Ti  Ti15  1  0.36219153  0.63622627  -0.01274644  1
  Ti  Ti16  1  0.35011962  0.63040681  0.28448423  1
  Ti  Ti17  1  0.32415705  0.62597302  0.69905648  1
  Ti  Ti18  1  0.58056134  0.01568888  -0.05174566  1
  Ti  Ti19  1  0.71351156  -0.03007892  0.27328521  1
  Ti  Ti20  1  0.68801920  -0.01459518  0.64776013  1
  Ti  Ti21  1  0.75208159  0.30386896  -0.00461698  1
  Ti  Ti22  1  0.65451679  0.31450462  0.41079939  1
  Ti  Ti23  1  0.65033583  0.30771258  0.66226494  1
  Ti  Ti24  1  0.67463517  0.70822972  0.08426408  1
  Ti  Ti25  1  0.70513152  0.68670491  0.33487378  1
  Ti  Ti26  1  0.63416953  0.65627025  0.64355672  1
  Ti  Ti27  1  0.01362872  0.11334675  0.12514890  1
  Ti  Ti28  1  0.08057891  0.10559118  0.51231737  1
  Ti  Ti29  1  0.00625261  0.19696915  0.94040233  1
  Ti  Ti30  1  0.05917098  0.47347992  0.16334471  1
  Ti  Ti31  1  -0.00194701  0.49703400  0.54273806  1
  Ti  Ti32  1  -0.02302831  0.52822640  0.74707990  1
  Ti  Ti33  1  -0.05414082  0.78228496  0.14050710  1
  Ti  Ti34  1  0.04237210  0.79059769  0.48650801  1
  Ti  Ti35  1  -0.01530540  0.81113281  0.78535207  1
  Ti  Ti36  1  0.31162068  0.16224863  0.14429400  1
  Ti  Ti37  1  0.37455022  0.19316166  0.46532926  1
  Ti  Ti38  1  0.33386444  0.22607500  0.79975712  1
  Ti  Ti39  1  0.24654852  0.54271641  0.12074753  1
  Ti  Ti40  1  0.39935562  0.51481308  0.54650125  1
  Ti  Ti41  1  0.32114580  0.43144992  0.79216346  1
  Ti  Ti42  1  0.36220337  0.84701041  0.23709611  1
  Ti  Ti43  1  0.41066267  0.84105152  0.52172349  1
  Ti  Ti44  1  0.30566857  0.74419521  0.84334093  1
  Ti  Ti45  1  0.73781382  0.18570466  0.15644069  1
  Ti  Ti46  1  0.74366358  0.17940545  0.53504923  1
  Ti  Ti47  1  0.67697330  0.17354843  0.81095061  1
  Ti  Ti48  1  0.62600904  0.49903059  0.09885554  1
  Ti  Ti49  1  0.65725560  0.49689749  0.51601007  1
  Ti  Ti50  1  0.63613537  0.43941115  0.86090111  1
  Ti  Ti51  1  0.68106747  0.90170102  0.08061469  1
  Ti  Ti52  1  0.66851729  0.86701094  0.47522672  1
  Ti  Ti53  1  0.64311592  0.85786036  0.86258352  1
  Ti  Ti54  1  0.17098197  -0.01363920  0.13149729  1
  Ti  Ti55  1  0.17796394  -0.06678476  0.49493612  1
  Ti  Ti56  1  0.15655799  -0.02742019  0.79527091  1
  Ti  Ti57  1  0.19994298  0.32813586  0.18338992  1
  Ti  Ti58  1  0.12645815  0.30695696  0.52686828  1
  Ti  Ti59  1  0.15737031  0.31734389  0.86665529  1
  Ti  Ti60  1  0.10993350  0.68309153  0.19325423  1
  Ti  Ti61  1  0.24795942  0.71726673  0.46198299  1
  Ti  Ti62  1  0.11831303  0.71194551  0.91972602  1
  Ti  Ti63  1  0.51004836  -0.00940048  0.22899318  1
  Ti  Ti64  1  0.52412183  0.01610106  0.52406662  1
  Ti  Ti65  1  0.45564122  -0.08897654  0.82677906  1
  Ti  Ti66  1  0.58161060  0.27911291  0.14988050  1
  Ti  Ti67  1  0.47275223  0.36946351  0.44466046  1
  Ti  Ti68  1  0.52100995  0.27578229  0.88707149  1
  Ti  Ti69  1  0.53425568  0.66341355  0.22058859  1
  Ti  Ti70  1  0.51238407  0.63329493  0.42519212  1
  Ti  Ti71  1  0.49447322  0.70618732  0.79888126  1
  Ti  Ti72  1  0.84517869  0.01224513  0.13369779  1
  Ti  Ti73  1  0.88735462  0.04224393  0.54023763  1
  Ti  Ti74  1  0.87407641  0.08954945  0.81577746  1
  Ti  Ti75  1  0.91341927  0.31004441  0.16934427  1
  Ti  Ti76  1  0.86624713  0.31719944  0.40597654  1
  Ti  Ti77  1  0.89439683  0.37587271  0.83826705  1
  Ti  Ti78  1  0.81536953  0.57470046  0.21021821  1
  Ti  Ti79  1  0.86310891  0.72030506  0.53560334  1
  Ti  Ti80  1  0.82925748  0.68578723  0.88313278  1
  Ti  Ti81  1  0.18457063  0.15219107  0.00409300  1
  Ti  Ti82  1  0.17290159  0.19940943  0.35970358  1
  Ti  Ti83  1  0.12983263  0.18737109  0.70146680  1
  Ti  Ti84  1  0.10527524  0.51146219  -0.08636782  1
  Ti  Ti85  1  0.16474236  0.55374453  0.32339665  1
  Ti  Ti86  1  0.20174173  0.50167736  0.60765421  1
  Ti  Ti87  1  0.18566288  0.88317522  -0.04814576  1
  Ti  Ti88  1  0.10946073  0.86265403  0.30499711  1
  Ti  Ti89  1  0.26435189  0.84951894  0.65161475  1
  Ti  Ti90  1  0.48332022  0.11718995  0.07703758  1
  Ti  Ti91  1  0.48779967  0.23810424  0.31014542  1
  Ti  Ti92  1  0.42659397  0.12171522  0.64927891  1
  Ti  Ti93  1  0.46361266  0.47146890  -0.01604951  1
  Ti  Ti94  1  0.47612813  0.44087066  0.23208137  1
  Ti  Ti95  1  0.50433677  0.52158849  0.70472860  1
  Ti  Ti96  1  0.49744734  0.81763720  0.01213863  1
  Ti  Ti97  1  0.54281660  0.82716552  0.34444905  1
  Ti  Ti98  1  0.56199796  0.84281885  0.66880449  1
  Ti  Ti99  1  0.75474313  0.08897193  -0.02251412  1
  Ti  Ti100  1  0.74529303  0.14369179  0.34660951  1
  Ti  Ti101  1  0.85414975  0.25841907  0.68206743  1
  Ti  Ti102  1  0.79298948  0.49058706  -0.01129074  1
  Ti  Ti103  1  0.83658557  0.54289202  0.42955149  1
  Ti  Ti104  1  0.81387321  0.44687173  0.66654024  1
  Ti  Ti105  1  0.82715344  0.90210014  -0.10039610  1
  Ti  Ti106  1  0.85581549  0.87452791  0.40050097  1
  Ti  Ti107  1  0.77973433  0.80895058  0.70742766  1
  Co  Co108  1  0.93080252  0.51966692  0.91043530  1
  Co  Co109  1  0.09246846  0.70233703  0.35727226  1
  Co  Co110  1  0.59066523  0.71788630  0.92693804  1
  Co  Co111  1  0.40280374  0.79343106  0.70070711  1
  Co  Co112  1  0.93925022  0.82759997  0.62966250  1
  Co  Co113  1  0.27614056  0.54503382  0.44483999  1
  Co  Co114  1  0.23523678  0.74286917  0.29199770  1
  Co  Co115  1  0.98821321  0.24539086  0.78355966  1
  Co  Co116  1  0.74166214  0.33447719  0.80394848  1
  Co  Co117  1  0.65728656  0.54710593  0.24691272  1
  Co  Co118  1  0.61683009  0.12941727  0.62373379  1
  Co  Co119  1  0.68059595  0.71909831  0.79189827  1
  Co  Co120  1  0.81979082  0.83503535  0.04495700  1
  Co  Co121  1  0.60189556  0.58591627  0.81703601  1
  Co  Co122  1  0.85692446  0.88693077  0.23586416  1
  Co  Co123  1  0.35312811  0.05612082  0.79007759  1
  Co  Co124  1  0.68751002  0.59728641  0.95431509  1
  Co  Co125  1  0.42535897  0.93275959  0.38425416  1
  Co  Co126  1  0.34263927  0.41581194  0.10220316  1
  Co  Co127  1  0.39501314  0.75976137  0.37886783  1
  Co  Co128  1  0.08273434  0.27155607  1.08869355  1
  Co  Co129  1  0.82591927  0.66616340  0.04670107  1
  Co  Co130  1  0.27659615  0.87207734  0.09998838  1
  Co  Co131  1  0.92622249  0.36245376  0.55417875  1
  Co  Co132  1  0.21895816  0.33566767  0.69044728  1
  Co  Co133  1  0.09894673  0.02840396  -0.04304455  1
  Co  Co134  1  0.25296101  0.29927174  0.01064253  1
  Co  Co135  1  0.59434424  0.99667061  0.37885539  1
  Co  Co136  1  0.29757589  0.90293951  0.80748286  1
  Co  Co137  1  0.27103203  0.87685306  0.38456103  1
  Co  Co138  1  -0.00466751  0.22476280  0.58617521  1
  Co  Co139  1  0.21183636  0.12293063  0.84251602  1
  Co  Co140  1  0.76973206  0.29759070  0.27503178  1
  Co  Co141  1  0.84921449  0.22902629  0.89229105  1
  Co  Co142  1  0.15182724  0.41787924  0.03697565  1
  Co  Co143  1  -0.00876933  0.65508362  0.84022808  1
  Co  Co144  1  0.95093673  0.10923691  0.67514388  1
  Co  Co145  1  0.34592301  0.16948036  0.95164007  1
  Co  Co146  1  0.20235548  0.69585021  0.62511087  1
  Co  Co147  1  0.24543833  0.73075141  1.03492464  1
  Co  Co148  1  0.45753638  0.08789447  0.36929945  1
  Co  Co149  1  0.39540777  0.72874825  0.12385058  1
  Co  Co150  1  0.35398956  0.83515078  0.96332471  1
  Co  Co151  1  0.95541618  0.77229572  0.96165971  1
  Co  Co152  1  0.29366626  0.45449770  0.95140861  1
  Co  Co153  1  0.41329540  0.50543813  0.37871786  1
  Co  Co154  1  0.30709125  0.47020612  0.25411597  1
  Co  Co155  1  0.74147013  0.44991163  0.35061805  1
  Co  Co156  1  0.87356815  0.19150378  0.05926657  1
  Co  Co157  1  0.28888427  0.37988477  0.52229874  1
  Co  Co158  1  0.77609946  0.11196101  0.68482015  1
  Co  Co159  1  0.80120244  0.73867239  0.19602039  1
  Co  Co160  1  0.62338900  0.37795999  0.26108786  1
  Co  Co161  1  0.13586767  0.61124403  0.04617420  1
  Ni  Ni162  1  0.55611977  0.76017433  0.51530036  1
  Ni  Ni163  1  0.36111058  0.00520500  0.14512368  1
  Ni  Ni164  1  0.12875895  0.02814752  0.34513365  1
  Ni  Ni165  1  0.71463085  1.00566444  0.81814287  1
  Ni  Ni166  1  0.04062859  0.23671692  0.25448940  1
  Ni  Ni167  1  0.57695470  0.48807508  0.37341433  1
  Ni  Ni168  1  0.10842440  0.81145939  0.08724786  1
  Ni  Ni169  1  0.52685584  0.21103193  0.73332728  1
  Ni  Ni170  1  0.14626126  0.45031535  0.45334149  1
  Ni  Ni171  1  0.52802983  0.62925674  0.04605588  1
  Ni  Ni172  1  0.88220108  0.16437813  0.24169876  1
  Ni  Ni173  1  0.63944718  0.05754062  0.11394116  1
  Ni  Ni174  1  0.92148397  0.05660434  0.97547826  1
  Ni  Ni175  1  0.89215395  0.43645413  0.27788583  1
  Ni  Ni176  1  0.87932811  0.67197507  0.70945194  1
  Ni  Ni177  1  0.41726801  0.56093380  0.13932289  1
  Ni  Ni178  1  -0.01652133  0.95576728  0.85258176  1
  Ni  Ni179  1  0.97808441  0.63323328  0.45160095  1
  Ni  Ni180  1  0.60012345  0.12833346  0.26167283  1
  Ni  Ni181  1  0.16124705  0.79071967  0.77822175  1
  Ni  Ni182  1  1.01293214  0.95340471  0.45263198  1
  Ni  Ni183  1  0.00858098  0.94269264  0.19593165  1
  Ni  Ni184  1  0.16263431  0.13941280  0.20454800  1
  Ni  Ni185  1  0.52068629  0.24092735  0.55513116  1
  Ni  Ni186  1  0.04868224  0.09751358  0.81288157  1
  Ni  Ni187  1  0.90381072  0.47350518  0.11024127  1
  Ni  Ni188  1  0.12706433  0.61089122  0.50315767  1
  Ni  Ni189  1  0.59667331  0.15137544  0.43935903  1
  Ni  Ni190  1  0.25587956  0.21056010  0.58283530  1
  Ni  Ni191  1  0.75279386  0.01080264  0.44759079  1
  Ni  Ni192  1  0.61887755  0.18787186  -0.00101316  1
  Ni  Ni193  1  -0.00873771  0.56937490  0.29312813  1
  Ni  Ni194  1  0.46529436  0.66530047  0.61082344  1
  Ni  Ni195  1  0.80519042  0.89320076  0.56331153  1
  Ni  Ni196  1  0.86336239  0.95834161  0.71010719  1
  Ni  Ni197  1  0.48429069  0.36940824  0.75885091  1
  Ni  Ni198  1  0.55269833  1.02530720  0.74895636  1
  Ni  Ni199  1  0.78430098  0.58677416  0.59537118  1
  Ni  Ni200  1  0.75782694  0.41100745  0.16006030  1
  Ni  Ni201  1  0.37427125  0.30003177  0.21197827  1
  Ni  Ni202  1  0.25231282  0.58186784  0.85430062  1
  Ni  Ni203  1  0.48172915  0.11703563  0.87514529  1
  Ni  Ni204  1  0.10339539  0.83254281  0.63498365  1
  Ni  Ni205  1  0.24282284  0.08620886  0.46918192  1
  Ni  Ni206  1  1.00948730  0.22799383  0.41918659  1
  Ni  Ni207  1  0.53928356  0.40368432  0.59449622  1
  Ni  Ni208  1  0.42082142  0.55886719  0.84692628  1
  Ni  Ni209  1  0.15568002  0.47052957  0.76413167  1
  Ni  Ni210  1  0.59241876  0.36092351  1.00986795  1
  Ni  Ni211  1  0.70581003  0.69050579  0.49490883  1
  Ni  Ni212  1  0.41597173  0.95505125  0.65858674  1
  Ni  Ni213  1  0.52626035  0.82887043  0.17058916  1
  Ni  Ni214  1  0.67035533  0.81610268  0.23439001  1
  Ni  Ni215  1  0.76424272  0.35900050  0.53423144  1
