# generated using pymatgen
data_Ti2CoNi
_symmetry_space_group_name_H-M   'P 1'
_cell_length_a   14.52521334
_cell_length_b   14.63265000
_cell_length_c   14.58393475
_cell_angle_alpha   90.03999755
_cell_angle_beta   90.26492170
_cell_angle_gamma   89.92594901
_symmetry_Int_Tables_number   1
_chemical_formula_structural   Ti2CoNi
_chemical_formula_sum   'Ti108 Co54 Ni54'
_cell_volume   3099.66748954
_cell_formula_units_Z   54
loop_
 _symmetry_equiv_pos_site_id
 _symmetry_equiv_pos_as_xyz
  1  'x, y, z'
loop_
 _atom_site_type_symbol
 _atom_site_label
 _atom_site_symmetry_multiplicity
 _atom_site_fract_x
 _atom_site_fract_y
 _atom_site_fract_z
 _atom_site_occupancy
  Ti  Ti0  1  0.00943391  0.03887810  0.01489874  1
  Ti  Ti1  1  0.06342876  -0.04706447  0.34311539  1
  Ti  Ti2  1  0.03296537  0.00225372  0.69062776  1
  Ti  Ti3  1  -0.05222324  0.34416734  -0.10032067  1
  Ti  Ti4  1  -0.01770202  0.33176692  0.27624961  1
  Ti  Ti5  1  -0.03311201  0.28630395  0.68602911  1
  Ti  Ti6  1  0.02898292  0.72098083  -0.00195729  1
  Ti  Ti7  1  0.02301448  0.64024232  0.29270162  1
  Ti  Ti8  1  -0.08210948  0.64265874  0.76797367  1
  Ti  Ti9  1  0.28641056  0.04085735  -0.00353929  1
  Ti  Ti10  1  0.34709946  -0.02258793  0.28262194  1
  Ti  Ti11  1  0.32839408  0.01518170  0.60827234  1
  Ti  Ti12  1  0.29379791  0.33425246  0.00492774  1
  Ti  Ti13  1  0.36629435  0.34392742  0.39239173  1
  Ti  Ti14  1  0.33750745  0.32532446  0.69693657  1
  Ti  Ti15  1  0.41621870  0.69236161  -0.05066500  1
  Ti  Ti16  1  0.33145004  0.65377783  0.35817466  1
  Ti  Ti17  1  0.24983287  0.68052813  0.70137767  1
  Ti  Ti18  1  0.73422591  -0.04547524  -0.01165774  1
  Ti  Ti19  1  0.71289319  -0.01954957  0.28169249  1
  Ti  Ti20  1  0.69391165  -0.03513633  0.63430752  1
  Ti  Ti21  1  0.65263909  0.30097686  -0.00057278  1
  Ti  Ti22  1  0.62653973  0.31504980  0.27618129  1
  Ti  Ti23  1  0.59512375  0.38798495  0.65799812  1
  Ti  Ti24  1  0.59868736  0.62017156  -0.02243245  1
  Ti  Ti25  1  0.59222179  0.66741958  0.34149227  1
  Ti  Ti26  1  0.72780013  0.68695267  0.64532632  1
  Ti  Ti27  1  0.02413958  0.17760352  0.16878138  1
  Ti  Ti28  1  -0.00768042  0.14654921  0.54321412  1
  Ti  Ti29  1  -0.02731507  0.13746332  0.82611283  1
  Ti  Ti30  1  0.02179612  0.49431309  0.18374433  1
  Ti  Ti31  1  -0.01413285  0.45902548  0.45061518  1
  Ti  Ti32  1  0.04373245  0.47387365  0.81070869  1
  Ti  Ti33  1  -0.03280369  0.81345164  0.20382212  1
  Ti  Ti34  1  0.01725882  0.87583383  0.53274539  1
  Ti  Ti35  1  0.08346274  0.83468466  0.85465752  1
  Ti  Ti36  1  0.34220764  0.21521174  0.24639458  1
  Ti  Ti37  1  0.35861423  0.19163954  0.54355202  1
  Ti  Ti38  1  0.43196414  0.19652257  0.84723084  1
  Ti  Ti39  1  0.29474205  0.48780206  0.14438911  1
  Ti  Ti40  1  0.34584295  0.51106165  0.49951310  1
  Ti  Ti41  1  0.27668994  0.48880170  0.83910607  1
  Ti  Ti42  1  0.30492275  0.79769359  0.22506309  1
  Ti  Ti43  1  0.33353905  0.82142691  0.56343583  1
  Ti  Ti44  1  0.31589398  0.89469676  0.76556327  1
  Ti  Ti45  1  0.66869819  0.16719909  0.13470872  1
  Ti  Ti46  1  0.64058074  0.11520436  0.52761564  1
  Ti  Ti47  1  0.71555391  0.13593966  0.89560601  1
  Ti  Ti48  1  0.67197797  0.54988989  0.17701320  1
  Ti  Ti49  1  0.65162961  0.54915886  0.47635119  1
  Ti  Ti50  1  0.61864271  0.55010113  0.76003393  1
  Ti  Ti51  1  0.66456774  0.85662342  0.12330292  1
  Ti  Ti52  1  0.67894010  0.84230372  0.43543230  1
  Ti  Ti53  1  0.61884080  0.90402955  0.81423287  1
  Ti  Ti54  1  0.17777289  -0.05929554  0.16577441  1
  Ti  Ti55  1  0.16678419  0.07852905  0.47445208  1
  Ti  Ti56  1  0.16414613  0.00515486  0.84413567  1
  Ti  Ti57  1  0.12773813  0.35297498  0.11180154  1
  Ti  Ti58  1  0.23017788  0.35032769  0.51453545  1
  Ti  Ti59  1  0.23724912  0.24914410  0.84802019  1
  Ti  Ti60  1  0.15244796  0.66947775  0.13679348  1
  Ti  Ti61  1  0.02960131  0.66630891  0.48835866  1
  Ti  Ti62  1  0.19525491  0.65014292  0.89516363  1
  Ti  Ti63  1  0.51648222  0.05655407  0.22779416  1
  Ti  Ti64  1  0.46407647  -0.02226652  0.48471947  1
  Ti  Ti65  1  0.43735066  0.00035375  0.87369298  1
  Ti  Ti66  1  0.55880506  0.41977588  0.09429873  1
  Ti  Ti67  1  0.53620428  0.28348284  0.51262363  1
  Ti  Ti68  1  0.54339507  0.36515477  0.83753394  1
  Ti  Ti69  1  0.52225375  0.71516202  0.15623466  1
  Ti  Ti70  1  0.46494151  0.69272466  0.49527943  1
  Ti  Ti71  1  0.53687708  0.73481776  0.79486279  1
  Ti  Ti72  1  0.86059094  -0.02751050  0.14287508  1
  Ti  Ti73  1  0.81108241  0.00289658  0.48463997  1
  Ti  Ti74  1  0.81715414  0.00325189  0.78574716  1
  Ti  Ti75  1  0.82758833  0.26620314  0.16930747  1
  Ti  Ti76  1  0.81351777  0.24408925  0.49125164  1
  Ti  Ti77  1  0.74788427  0.40834016  0.81337246  1
  Ti  Ti78  1  0.84028382  0.64502878  0.19158794  1
  Ti  Ti79  1  0.84517518  0.57733829  0.51637339  1
  Ti  Ti80  1  0.74120642  0.71190871  0.84752358  1
  Ti  Ti81  1  0.09827837  0.22097193  -0.02231066  1
  Ti  Ti82  1  0.18311874  0.10029437  0.27341246  1
  Ti  Ti83  1  0.15538136  0.23704283  0.64377737  1
  Ti  Ti84  1  0.14292440  0.51878920  0.01150393  1
  Ti  Ti85  1  0.17449811  0.51716565  0.41317532  1
  Ti  Ti86  1  0.09652489  0.44539212  0.60766387  1
  Ti  Ti87  1  0.23261370  0.80520111  0.00772666  1
  Ti  Ti88  1  0.20013609  0.83130972  0.41450985  1
  Ti  Ti89  1  0.07656960  0.75022151  0.65794859  1
  Ti  Ti90  1  0.52213742  0.14527153  0.00523589  1
  Ti  Ti91  1  0.50302920  0.16975703  0.37103308  1
  Ti  Ti92  1  0.52479277  0.19396195  0.68643352  1
  Ti  Ti93  1  0.42553602  0.48247356  -0.03064253  1
  Ti  Ti94  1  0.47077221  0.51268951  0.23928598  1
  Ti  Ti95  1  0.42923262  0.50077070  0.70154114  1
  Ti  Ti96  1  0.50434416  0.87814779  0.00949980  1
  Ti  Ti97  1  0.51472869  0.89141779  0.33222840  1
  Ti  Ti98  1  0.55791259  0.82981937  0.61704327  1
  Ti  Ti99  1  0.89644595  0.19098109  -0.00204642  1
  Ti  Ti100  1  0.90456321  0.10257528  0.32190700  1
  Ti  Ti101  1  0.83286580  0.13948549  0.64746694  1
  Ti  Ti102  1  0.81956863  0.44162838  0.03435979  1
  Ti  Ti103  1  0.78854606  0.41227466  0.35076461  1
  Ti  Ti104  1  0.89059643  0.46489339  0.67760765  1
  Ti  Ti105  1  0.82823984  0.77054296  0.03083030  1
  Ti  Ti106  1  0.87293389  0.85518436  0.38998966  1
  Ti  Ti107  1  0.89980496  0.84026045  0.72909089  1
  Co  Co108  1  0.80022396  0.32902793  0.66915517  1
  Co  Co109  1  0.86241374  0.02802526  0.94343851  1
  Co  Co110  1  0.79630294  0.86292899  0.87526094  1
  Co  Co111  1  0.35672374  0.87224141  0.93672824  1
  Co  Co112  1  0.35309454  0.63983074  0.19656305  1
  Co  Co113  1  0.66418847  0.24522821  0.41793127  1
  Co  Co114  1  0.41326709  0.75760405  0.69192477  1
  Co  Co115  1  0.06725820  0.68307669  0.80510236  1
  Co  Co116  1  0.96705165  0.61074329  0.09358602  1
  Co  Co117  1  0.41574335  0.07421689  0.72301714  1
  Co  Co118  1  0.72734202  0.83220779  0.71927768  1
  Co  Co119  1  0.02514137  0.79008121  0.38168732  1
  Co  Co120  1  0.77200033  0.70301602  0.45541150  1
  Co  Co121  1  0.44358420  0.03500825  0.07976182  1
  Co  Co122  1  0.64607648  0.14390777  0.28995935  1
  Co  Co123  1  0.95136004  0.26695340  0.41009600  1
  Co  Co124  1  0.53546993  0.64677281  0.65109939  1
  Co  Co125  1  0.09178689  0.82624461  0.10230126  1
  Co  Co126  1  0.74949232  0.58887695  0.33170126  1
  Co  Co127  1  0.00584842  0.58917653  0.91944464  1
  Co  Co128  1  0.30006410  0.08909494  0.83923372  1
  Co  Co129  1  0.13170968  0.93645295  0.98826841  1
  Co  Co130  1  0.97519358  1.01443123  0.46266727  1
  Co  Co131  1  0.53459227  0.02741887  0.61861421  1
  Co  Co132  1  0.33320543  0.91863633  0.10611679  1
  Co  Co133  1  0.36792317  0.63007253  0.60466654  1
  Co  Co134  1  0.61760138  0.46326625  0.93483431  1
  Co  Co135  1  0.77934887  0.56347568  0.75587667  1
  Co  Co136  1  0.69278413  0.11609826  0.71628648  1
  Co  Co137  1  0.56438984  1.05764214  0.78107744  1
  Co  Co138  1  0.87836452  0.70577133  0.34063725  1
  Co  Co139  1  0.46868800  0.91671735  0.71444335  1
  Co  Co140  1  -0.00450519  0.45811400  0.00662586  1
  Co  Co141  1  0.71237759  0.38078101  0.15720444  1
  Co  Co142  1  0.48661870  0.89218976  0.17279892  1
  Co  Co143  1  0.38697801  0.76897981  0.08772156  1
  Co  Co144  1  0.15313446  0.56072721  0.74262606  1
  Co  Co145  1  0.90389053  0.54630472  0.34531696  1
  Co  Co146  1  0.62331722  0.48942090  0.31710981  1
  Co  Co147  1  0.88528845  0.49360213  0.86889050  1
  Co  Co148  1  0.46451219  0.57938710  0.08798493  1
  Co  Co149  1  0.79566217  0.10093762  0.07404128  1
  Co  Co150  1  0.06464706  0.29170053  0.52278842  1
  Co  Co151  1  0.14408571  0.25940478  0.26089049  1
  Co  Co152  1  0.29313491  0.17054700  0.70224724  1
  Co  Co153  1  0.05551158  0.14834725  0.36152540  1
  Co  Co154  1  0.92043346  0.76317645  0.88277346  1
  Co  Co155  1  0.10618586  0.36611448  0.39082907  1
  Co  Co156  1  0.32589208  0.48363626  0.31591289  1
  Co  Co157  1  0.75400919  0.10860945  0.39399987  1
  Co  Co158  1  0.80425707  0.24408479  0.31824436  1
  Co  Co159  1  0.14390858  0.38184975  0.92479398  1
  Co  Co160  1  0.91511909  0.35714737  0.54929855  1
  Co  Co161  1  0.62330704  0.99599671  0.42905173  1
  Ni  Ni162  1  0.22812981  0.22130996  0.11526864  1
  Ni  Ni163  1  0.69528054  0.69417508  0.09675659  1
  Ni  Ni164  1  0.26702137  0.49042443  0.64757091  1
  Ni  Ni165  1  0.15886380  0.88478262  0.71284972  1
  Ni  Ni166  1  0.62519472  0.71163244  0.51869751  1
  Ni  Ni167  1  0.74759641  0.55883010  0.92485201  1
  Ni  Ni168  1  0.30503678  0.07973887  0.15651914  1
  Ni  Ni169  1  0.72430130  0.48720338  0.62405884  1
  Ni  Ni170  1  0.17615945  0.06479437  0.64253867  1
  Ni  Ni171  1  0.84800554  0.47158344  0.20260102  1
  Ni  Ni172  1  0.51505717  0.50549689  0.55626645  1
  Ni  Ni173  1  0.68677915  0.38599968  0.49125939  1
  Ni  Ni174  1  0.35083732  0.10800340  0.39786087  1
  Ni  Ni175  1  0.41289109  0.37483501  0.56533537  1
  Ni  Ni176  1  0.00792418  0.58398092  0.63609650  1
  Ni  Ni177  1  0.16394378  0.68062610  0.37568922  1
  Ni  Ni178  1  0.07245881  0.28969836  0.81118599  1
  Ni  Ni179  1  0.83217189  0.21959375  0.79336770  1
  Ni  Ni180  1  0.29371781  0.62360487  0.03913558  1
  Ni  Ni181  1  0.63284844  0.80600950  0.26721803  1
  Ni  Ni182  1  0.38020803  0.36057389  0.85573466  1
  Ni  Ni183  1  0.18218987  0.91557091  0.56067895  1
  Ni  Ni184  1  0.37738074  0.82147835  0.39237492  1
  Ni  Ni185  1  0.67836388  0.25170051  0.60920044  1
  Ni  Ni186  1  0.91082930  0.72382665  0.60144443  1
  Ni  Ni187  1  0.79023641  0.29642597  0.92786287  1
  Ni  Ni188  1  0.18214322  0.38876659  0.74418996  1
  Ni  Ni189  1  0.29242491  0.96407274  0.44304911  1
  Ni  Ni190  1  0.47427590  0.55395666  0.39735037  1
  Ni  Ni191  1  0.12791976  0.14467985  0.77632670  1
  Ni  Ni192  1  1.01612022  0.01289850  0.19675743  1
  Ni  Ni193  1  0.17855276  0.41918812  0.25715235  1
  Ni  Ni194  1  0.21123572  0.70332534  0.53547872  1
  Ni  Ni195  1  0.79779303  0.82279908  0.22255096  1
  Ni  Ni196  1  0.66633183  0.26048432  0.78336920  1
  Ni  Ni197  1  0.52926481  0.40281718  0.41089036  1
  Ni  Ni198  1  0.14621203  0.08468016  0.08835988  1
  Ni  Ni199  1  0.40617670  0.36224415  0.12498136  1
  Ni  Ni200  1  0.60934492  1.00883089  0.10007940  1
  Ni  Ni201  1  0.32055486  0.74739041  0.83617878  1
  Ni  Ni202  1  0.46719723  0.34087421  0.26799962  1
  Ni  Ni203  1  0.20156555  0.57799859  0.25638363  1
  Ni  Ni204  1  0.64819415  0.79043635  0.95965428  1
  Ni  Ni205  1  0.47138604  0.30505756  0.98621833  1
  Ni  Ni206  1  0.59281963  0.01704257  0.93612227  1
  Ni  Ni207  1  0.48042479  0.57151638  0.84411727  1
  Ni  Ni208  1  0.96215768  0.32526430  0.09169653  1
  Ni  Ni209  1  0.50328052  0.22073609  0.16539199  1
  Ni  Ni210  1  0.98151639  0.96398508  0.85735048  1
  Ni  Ni211  1  0.23299138  0.22490531  0.39578140  1
  Ni  Ni212  1  0.88859567  -0.02260399  0.62439976  1
  Ni  Ni213  1  0.79749575  0.83839971  0.56201449  1
  Ni  Ni214  1  0.95497691  0.88133717  0.01553707  1
  Ni  Ni215  1  0.13144908  0.79280827  0.25646046  1
