# generated using pymatgen
data_Ti2CoNi
_symmetry_space_group_name_H-M   'P 1'
_cell_length_a   14.56904602
_cell_length_b   14.55414269
_cell_length_c   14.61060007
_cell_angle_alpha   90.04491743
_cell_angle_beta   90.23204133
_cell_angle_gamma   90.13287449
_symmetry_Int_Tables_number   1
_chemical_formula_structural   Ti2CoNi
_chemical_formula_sum   'Ti108 Co54 Ni54'
_cell_volume   3097.99655754
_cell_formula_units_Z   54
loop_
 _symmetry_equiv_pos_site_id
 _symmetry_equiv_pos_as_xyz
  1  'x, y, z'
loop_
 _atom_site_type_symbol
 _atom_site_label
 _atom_site_symmetry_multiplicity
 _atom_site_fract_x
 _atom_site_fract_y
 _atom_site_fract_z
 _atom_site_occupancy
  Ti  Ti0  1  0.06030954  0.06313150  -0.00694630  1
  Ti  Ti1  1  0.05798550  0.01224449  0.42028593  1
  Ti  Ti2  1  0.00335191  0.03061937  0.65065099  1
  Ti  Ti3  1  0.03891484  0.27614114  0.02777576  1
  Ti  Ti4  1  0.02695911  0.28514086  0.33538883  1
  Ti  Ti5  1  -0.00464540  0.43479321  0.71266565  1
  Ti  Ti6  1  -0.00947282  0.69048887  0.02459672  1
  Ti  Ti7  1  -0.03210145  0.72260290  0.30953483  1
  Ti  Ti8  1  0.06989825  0.64449748  0.66847393  1
  Ti  Ti9  1  0.34137274  -0.04127465  -0.04543486  1
  Ti  Ti10  1  0.23778256  -0.04290943  0.31211820  1
  Ti  Ti11  1  0.38227385  -0.10849325  0.66471779  1
  Ti  Ti12  1  0.34139859  0.39348028  -0.00453256  1
  Ti  Ti13  1  0.36118113  0.27184312  0.31877997  1
  Ti  Ti14  1  0.36699960  0.32210966  0.68338563  1
  Ti  Ti15  1  0.31223474  0.64299669  0.01980105  1
  Ti  Ti16  1  0.34367190  0.67553107  0.28466654  1
  Ti  Ti17  1  0.31852222  0.71328211  0.59630529  1
  Ti  Ti18  1  0.68467203  0.00741797  0.03130078  1
  Ti  Ti19  1  0.64117696  -0.00386751  0.29174586  1
  Ti  Ti20  1  0.66965067  0.06907113  0.62486088  1
  Ti  Ti21  1  0.61982459  0.33981765  0.01788043  1
  Ti  Ti22  1  0.62618814  0.38563814  0.41005286  1
  Ti  Ti23  1  0.70982175  0.26296945  0.71143358  1
  Ti  Ti24  1  0.69673981  0.76394828  0.00206881  1
  Ti  Ti25  1  0.73330726  0.66799903  0.27971055  1
  Ti  Ti26  1  0.68040864  0.58343481  0.69702109  1
  Ti  Ti27  1  0.01165022  0.13606000  0.17787836  1
  Ti  Ti28  1  -0.01824258  0.16541840  0.51268374  1
  Ti  Ti29  1  0.05962577  0.12848658  0.81638988  1
  Ti  Ti30  1  -0.02427086  0.42305793  0.17895775  1
  Ti  Ti31  1  -0.01875445  0.41554845  0.46137469  1
  Ti  Ti32  1  0.00939040  0.43737102  0.90639452  1
  Ti  Ti33  1  0.05937583  0.81095972  0.15700988  1
  Ti  Ti34  1  -0.01301774  0.83343610  0.46451280  1
  Ti  Ti35  1  -0.07547153  0.82924648  0.87234152  1
  Ti  Ti36  1  0.32243582  0.20645043  0.08323067  1
  Ti  Ti37  1  0.32033370  0.20152094  0.54200186  1
  Ti  Ti38  1  0.38513160  0.21705105  0.86457210  1
  Ti  Ti39  1  0.37189087  0.49299952  0.25372497  1
  Ti  Ti40  1  0.35865134  0.55553724  0.46276623  1
  Ti  Ti41  1  0.27148300  0.53551887  0.84991522  1
  Ti  Ti42  1  0.40972841  0.81319617  0.14191292  1
  Ti  Ti43  1  0.31847661  0.87576350  0.47183991  1
  Ti  Ti44  1  0.30054549  0.78289920  0.81816381  1
  Ti  Ti45  1  0.62698963  0.21416407  0.21895777  1
  Ti  Ti46  1  0.64932490  0.19301423  0.43460336  1
  Ti  Ti47  1  0.69505425  0.18891860  0.88644571  1
  Ti  Ti48  1  0.64536897  0.49581458  0.12174348  1
  Ti  Ti49  1  0.57759540  0.51696207  0.52240714  1
  Ti  Ti50  1  0.68612707  0.43166857  0.84810929  1
  Ti  Ti51  1  0.60759895  0.81393690  0.18168799  1
  Ti  Ti52  1  0.63026895  0.90682211  0.51518652  1
  Ti  Ti53  1  0.74477641  0.78917771  0.78360638  1
  Ti  Ti54  1  0.14202202  -0.00206968  0.15695376  1
  Ti  Ti55  1  0.21045298  0.01826113  0.54079703  1
  Ti  Ti56  1  0.14557746  -0.06777740  0.86382447  1
  Ti  Ti57  1  0.20698711  0.39504444  0.24076018  1
  Ti  Ti58  1  0.17978560  0.35363866  0.53430576  1
  Ti  Ti59  1  0.17532550  0.33589056  0.76237773  1
  Ti  Ti60  1  0.17742798  0.59427718  0.18903323  1
  Ti  Ti61  1  0.17532282  0.58014413  0.50248906  1
  Ti  Ti62  1  0.14972899  0.70146259  0.88165320  1
  Ti  Ti63  1  0.40007698  0.01134147  0.16275764  1
  Ti  Ti64  1  0.43393146  0.03440485  0.53885897  1
  Ti  Ti65  1  0.44118978  0.03749015  0.79614745  1
  Ti  Ti66  1  0.46902400  0.35001405  0.15824562  1
  Ti  Ti67  1  0.44949317  0.35559430  0.49934169  1
  Ti  Ti68  1  0.54058873  0.30477103  0.80418850  1
  Ti  Ti69  1  0.46244597  0.62950041  0.13036681  1
  Ti  Ti70  1  0.54152013  0.70093486  0.52293508  1
  Ti  Ti71  1  0.45031059  0.68849953  0.88282113  1
  Ti  Ti72  1  0.86858534  0.01315520  0.22943428  1
  Ti  Ti73  1  0.83974289  -0.02761361  0.55267674  1
  Ti  Ti74  1  0.85265647  0.03352922  0.90294063  1
  Ti  Ti75  1  0.77927373  0.34787672  0.15839744  1
  Ti  Ti76  1  0.79305392  0.42087223  0.47765178  1
  Ti  Ti77  1  0.86887495  0.30482811  0.84827701  1
  Ti  Ti78  1  0.81591252  0.59704038  0.10901237  1
  Ti  Ti79  1  0.83442888  0.70314327  0.46471328  1
  Ti  Ti80  1  0.89043463  0.65470575  0.76246647  1
  Ti  Ti81  1  0.19917747  0.21589158  -0.06756847  1
  Ti  Ti82  1  0.16307803  0.14532611  0.30577122  1
  Ti  Ti83  1  0.13213912  0.18278796  0.64061519  1
  Ti  Ti84  1  0.14178050  0.54049222  -0.00618365  1
  Ti  Ti85  1  0.06239949  0.54952593  0.34172060  1
  Ti  Ti86  1  0.22016449  0.50784227  0.67482944  1
  Ti  Ti87  1  0.20362108  0.84527024  0.02184723  1
  Ti  Ti88  1  0.16831382  0.73688218  0.36019574  1
  Ti  Ti89  1  0.17187232  0.84892424  0.67440659  1
  Ti  Ti90  1  0.47901786  0.10028239  0.00964617  1
  Ti  Ti91  1  0.46976756  0.10156879  0.32623817  1
  Ti  Ti92  1  0.54872615  0.21890430  0.60284243  1
  Ti  Ti93  1  0.59448051  0.58294650  -0.02570976  1
  Ti  Ti94  1  0.57449921  0.53431705  0.28258320  1
  Ti  Ti95  1  0.46690792  0.49000059  0.73664681  1
  Ti  Ti96  1  0.53545595  0.89974773  -0.04257345  1
  Ti  Ti97  1  0.53918627  0.80914838  0.35654112  1
  Ti  Ti98  1  0.51062562  0.73041441  0.70853604  1
  Ti  Ti99  1  0.85005365  0.14491345  0.05741277  1
  Ti  Ti100  1  0.81635734  0.15547278  0.34552947  1
  Ti  Ti101  1  0.85657664  0.13769604  0.70563842  1
  Ti  Ti102  1  0.84216835  0.54342826  -0.08379946  1
  Ti  Ti103  1  0.87912498  0.54191255  0.30415151  1
  Ti  Ti104  1  0.85446258  0.54880983  0.60607132  1
  Ti  Ti105  1  0.86042757  0.86974246  0.06206269  1
  Ti  Ti106  1  0.80891778  0.85223360  0.30948033  1
  Ti  Ti107  1  0.93159950  0.84658276  0.67303501  1
  Co  Co108  1  0.75494728  0.55784368  0.42415278  1
  Co  Co109  1  0.52719131  0.27713397  0.33003424  1
  Co  Co110  1  0.04175708  0.66814542  0.46150766  1
  Co  Co111  1  0.30259167  0.40816072  0.40616364  1
  Co  Co112  1  0.13653400  0.42016872  0.39644562  1
  Co  Co113  1  0.91913986  0.26625703  0.15568686  1
  Co  Co114  1  0.46319074  0.19399420  0.45740675  1
  Co  Co115  1  0.15606424  0.87798248  0.43790609  1
  Co  Co116  1  0.06845321  0.91670214  0.57348620  1
  Co  Co117  1  0.05372566  0.28577263  0.86175044  1
  Co  Co118  1  0.57511328  0.14584866  0.75736511  1
  Co  Co119  1  0.47344634  0.60188714  0.38322922  1
  Co  Co120  1  0.21401028  0.67572895  0.72633414  1
  Co  Co121  1  0.75737357  0.44744119  0.01062430  1
  Co  Co122  1  0.76201067  0.77087004  0.15346583  1
  Co  Co123  1  0.41880700  0.53731129  0.91343688  1
  Co  Co124  1  0.11463862  0.52051000  0.80552328  1
  Co  Co125  1  0.27997024  0.91468901  0.14442142  1
  Co  Co126  1  0.16056325  0.16593994  0.10371810  1
  Co  Co127  1  0.09791713  0.28726580  0.18895632  1
  Co  Co128  1  0.46937169  0.42839175  0.36116487  1
  Co  Co129  1  0.20976904  0.27892341  0.37750203  1
  Co  Co130  1  0.57207688  0.57178923  0.81978750  1
  Co  Co131  1  0.44707389  0.19148939  0.18484324  1
  Co  Co132  1  0.63790534  0.65825403  0.13171908  1
  Co  Co133  1  0.54293981  0.93467053  0.11310826  1
  Co  Co134  1  0.92414679  0.56895714  0.46000371  1
  Co  Co135  1  0.95106429  0.70036565  0.58737829  1
  Co  Co136  1  0.73146272  0.91285712  0.66445198  1
  Co  Co137  1  0.15927605  0.75307035  0.53994362  1
  Co  Co138  1  0.47711819  0.26201668  0.99873608  1
  Co  Co139  1  0.69909467  0.64178654  0.54764701  1
  Co  Co140  1  0.05245997  0.50411534  0.57288202  1
  Co  Co141  1  0.15654722  0.02934546  0.71097401  1
  Co  Co142  1  0.31685146  0.04821225  0.65607838  1
  Co  Co143  1  0.90471658  0.72455012  0.16774697  1
  Co  Co144  1  0.96133546  0.52462846  0.03707933  1
  Co  Co145  1  0.85486334  0.97505694  0.74647976  1
  Co  Co146  1  0.84182474  0.71418142  0.94958605  1
  Co  Co147  1  0.29294553  0.50064907  0.10914651  1
  Co  Co148  1  0.17701776  0.38813093  0.91629108  1
  Co  Co149  1  0.73284648  0.93156197  0.16707872  1
  Co  Co150  1  0.28929200  0.11158858  0.21858997  1
  Co  Co151  1  0.23055308  0.55194923  0.34231408  1
  Co  Co152  1  0.10732401  0.43930525  0.10000987  1
  Co  Co153  1  0.51899997  0.41635118  0.91866483  1
  Co  Co154  1  0.21001801  0.32766773  0.06998279  1
  Co  Co155  1  0.24814142  0.05125726  0.03602182  1
  Co  Co156  1  0.62607536  0.64159276  0.39790823  1
  Co  Co157  1  0.52759426  0.68943642  0.26183621  1
  Co  Co158  1  0.57835022  0.06031252  0.47561092  1
  Co  Co159  1  0.64689552  0.77440543  0.63536103  1
  Co  Co160  1  0.78157768  0.27877063  0.99655512  1
  Co  Co161  1  0.90544239  0.37418237  1.02528368  1
  Ni  Ni162  1  0.31353941  0.09138019  0.40398212  1
  Ni  Ni163  1  0.86241558  0.33189575  0.64535662  1
  Ni  Ni164  1  0.36737265  0.62675680  0.74111514  1
  Ni  Ni165  1  0.37362784  0.80001851  0.97775469  1
  Ni  Ni166  1  0.58532042  0.05631406  0.89548782  1
  Ni  Ni167  1  0.88137176  0.36739882  0.31244891  1
  Ni  Ni168  1  0.46669780  0.48596695  0.06702500  1
  Ni  Ni169  1  0.22913031  0.77006218  0.19898447  1
  Ni  Ni170  1  0.72485833  0.28455321  0.55022525  1
  Ni  Ni171  1  0.73148551  0.02681947  0.42976527  1
  Ni  Ni172  1  0.69829835  0.78572080  0.42669961  1
  Ni  Ni173  1  0.26013000  0.08059459  0.86557131  1
  Ni  Ni174  1  0.52862435  0.74589607  0.02667062  1
  Ni  Ni175  1  0.71806562  0.05949074  0.78687951  1
  Ni  Ni176  1  0.00274841  0.62125468  0.87524203  1
  Ni  Ni177  1  0.64288140  0.17612682  0.04422902  1
  Ni  Ni178  1  0.00543391  0.59608096  0.18338429  1
  Ni  Ni179  1  0.73603529  0.30118608  0.32403924  1
  Ni  Ni180  1  0.61696769  0.37484367  0.23133349  1
  Ni  Ni181  1  0.99369134  -0.02310347  0.83374083  1
  Ni  Ni182  1  0.05448022  0.77969160  0.77855844  1
  Ni  Ni183  1  0.36282824  0.39121091  0.83132825  1
  Ni  Ni184  1  0.44205327  0.58847628  0.60531590  1
  Ni  Ni185  1  0.47227871  0.84858623  0.53782887  1
  Ni  Ni186  1  0.89061863  0.98141608  0.39474054  1
  Ni  Ni187  1  0.15631157  0.69740565  0.06307405  1
  Ni  Ni188  1  0.03239846  0.88457442  0.99217290  1
  Ni  Ni189  1  0.56402039  0.07997042  0.15943128  1
  Ni  Ni190  1  0.55570429  0.91255515  0.67437455  1
  Ni  Ni191  1  0.26385020  0.18525924  0.73734683  1
  Ni  Ni192  1  0.40004248  0.74161359  0.42723087  1
  Ni  Ni193  1  0.35483267  0.84580318  0.29717122  1
  Ni  Ni194  1  0.32084864  0.43770294  0.57264042  1
  Ni  Ni195  1  0.45344463  0.86179213  0.81955300  1
  Ni  Ni196  1  0.42337504  0.16807418  0.69165785  1
  Ni  Ni197  1  0.87425339  0.27619153  0.45570234  1
  Ni  Ni198  1  0.75111557  0.89631477  0.90821411  1
  Ni  Ni199  1  0.98756205  0.24622265  0.72100579  1
  Ni  Ni200  1  0.05235208  0.88893074  0.29988822  1
  Ni  Ni201  1  0.28675409  0.94562593  0.78180458  1
  Ni  Ni202  1  0.97982979  0.97519506  0.11593014  1
  Ni  Ni203  1  0.71963089  0.42326431  0.64634584  1
  Ni  Ni204  1  0.47577094  0.95017518  0.39578337  1
  Ni  Ni205  1  0.59611557  0.76103958  0.85842756  1
  Ni  Ni206  1  0.97516425  0.12459031  0.33760572  1
  Ni  Ni207  1  0.02511863  0.31967574  0.58549386  1
  Ni  Ni208  1  0.16138318  0.16423381  0.47750892  1
  Ni  Ni209  1  0.56073541  0.38055844  0.64323759  1
  Ni  Ni210  1  0.72081392  0.63972242  0.86118151  1
  Ni  Ni211  1  0.83187723  0.46404407  0.76180037  1
  Ni  Ni212  1  0.73690736  0.10217233  0.17152439  1
  Ni  Ni213  1  0.73710726  0.47218245  0.27889989  1
  Ni  Ni214  1  0.80356613  0.74092779  0.63266535  1
  Ni  Ni215  1  0.81217212  0.14238883  0.53511748  1
