# generated using pymatgen
data_Ti2CoNi
_symmetry_space_group_name_H-M   'P 1'
_cell_length_a   14.66155061
_cell_length_b   14.66638844
_cell_length_c   14.54964257
_cell_angle_alpha   90.22153124
_cell_angle_beta   90.04540529
_cell_angle_gamma   90.12960765
_symmetry_Int_Tables_number   1
_chemical_formula_structural   Ti2CoNi
_chemical_formula_sum   'Ti108 Co54 Ni54'
_cell_volume   3128.60629213
_cell_formula_units_Z   54
loop_
 _symmetry_equiv_pos_site_id
 _symmetry_equiv_pos_as_xyz
  1  'x, y, z'
loop_
 _atom_site_type_symbol
 _atom_site_label
 _atom_site_symmetry_multiplicity
 _atom_site_fract_x
 _atom_site_fract_y
 _atom_site_fract_z
 _atom_site_occupancy
  Ti  Ti0  1  0.01320617  -0.07634623  0.04006967  1
  Ti  Ti1  1  -0.04317521  -0.04594882  0.34023303  1
  Ti  Ti2  1  -0.01502426  0.01171891  0.61167355  1
  Ti  Ti3  1  -0.00449955  0.29682738  0.02908506  1
  Ti  Ti4  1  -0.00698305  0.27925817  0.35097582  1
  Ti  Ti5  1  0.01368027  0.31489616  0.70963288  1
  Ti  Ti6  1  -0.01260817  0.65991331  0.03662523  1
  Ti  Ti7  1  0.05950810  0.64047512  0.32899829  1
  Ti  Ti8  1  0.01447751  0.67638443  0.73646929  1
  Ti  Ti9  1  0.35891461  -0.00926943  0.05568368  1
  Ti  Ti10  1  0.35332704  0.02742573  0.38856604  1
  Ti  Ti11  1  0.31975959  -0.09936386  0.66910555  1
  Ti  Ti12  1  0.32846596  0.28100473  -0.01286497  1
  Ti  Ti13  1  0.32094435  0.33852508  0.41204568  1
  Ti  Ti14  1  0.32716726  0.34409503  0.64993422  1
  Ti  Ti15  1  0.32964975  0.67181320  0.02333850  1
  Ti  Ti16  1  0.33058363  0.63757481  0.35223624  1
  Ti  Ti17  1  0.33838091  0.59608508  0.64335455  1
  Ti  Ti18  1  0.60814886  -0.02695052  -0.04286856  1
  Ti  Ti19  1  0.59362243  -0.01555886  0.30751808  1
  Ti  Ti20  1  0.71600411  0.03960484  0.81007765  1
  Ti  Ti21  1  0.64236948  0.35404974  0.03360676  1
  Ti  Ti22  1  0.66364453  0.31801755  0.40704188  1
  Ti  Ti23  1  0.67156778  0.24444566  0.65814295  1
  Ti  Ti24  1  0.68037150  0.67072756  -0.02421294  1
  Ti  Ti25  1  0.66969812  0.63098212  0.30935655  1
  Ti  Ti26  1  0.69489379  0.58472461  0.64224976  1
  Ti  Ti27  1  0.06171169  0.07086246  0.13648172  1
  Ti  Ti28  1  0.03646349  0.10830034  0.46321180  1
  Ti  Ti29  1  -0.04666440  0.12629103  0.77243033  1
  Ti  Ti30  1  -0.05327029  0.52991284  0.17565254  1
  Ti  Ti31  1  -0.04454466  0.51606029  0.45720293  1
  Ti  Ti32  1  0.03365351  0.48719535  0.74125628  1
  Ti  Ti33  1  0.05313215  0.81524497  0.21310056  1
  Ti  Ti34  1  -0.06510206  0.83322737  0.52515268  1
  Ti  Ti35  1  -0.05879731  0.82527750  0.77786639  1
  Ti  Ti36  1  0.35777704  0.27502635  0.21006236  1
  Ti  Ti37  1  0.23589421  0.16601933  0.46952347  1
  Ti  Ti38  1  0.28853738  0.08133912  0.77235017  1
  Ti  Ti39  1  0.32050770  0.46888886  0.09525669  1
  Ti  Ti40  1  0.17346948  0.51650437  0.51424050  1
  Ti  Ti41  1  0.27802804  0.46427930  0.80551227  1
  Ti  Ti42  1  0.35801593  0.82270676  0.15806634  1
  Ti  Ti43  1  0.37433346  0.76583341  0.53211051  1
  Ti  Ti44  1  0.35704087  0.91355459  0.84684471  1
  Ti  Ti45  1  0.73823358  0.21529386  0.11291371  1
  Ti  Ti46  1  0.68764720  0.13143328  0.45425970  1
  Ti  Ti47  1  0.68882237  0.26638427  0.86954576  1
  Ti  Ti48  1  0.65320487  0.50656321  0.13718346  1
  Ti  Ti49  1  0.67440884  0.49335977  0.44066894  1
  Ti  Ti50  1  0.71029555  0.49015876  0.84370093  1
  Ti  Ti51  1  0.56938113  0.83271812  0.11379270  1
  Ti  Ti52  1  0.63538715  0.80546630  0.41469347  1
  Ti  Ti53  1  0.71703708  0.85063219  0.84765496  1
  Ti  Ti54  1  0.26099019  0.02100489  0.21653195  1
  Ti  Ti55  1  0.20612744  0.01340141  0.56299727  1
  Ti  Ti56  1  0.11265121  0.02633542  0.88924001  1
  Ti  Ti57  1  0.18507363  0.33431377  0.14054013  1
  Ti  Ti58  1  0.15815880  0.31971334  0.53855610  1
  Ti  Ti59  1  0.17199432  0.29570093  0.81279162  1
  Ti  Ti60  1  0.16010713  0.65183737  0.12695767  1
  Ti  Ti61  1  0.10072463  0.73171997  0.51355423  1
  Ti  Ti62  1  0.13593174  0.67179065  0.90826201  1
  Ti  Ti63  1  0.45224918  0.11525713  0.23862244  1
  Ti  Ti64  1  0.49366305  0.07844471  0.52423261  1
  Ti  Ti65  1  0.50299295  0.00382235  0.74825722  1
  Ti  Ti66  1  0.49527082  0.40376572  0.18482108  1
  Ti  Ti67  1  0.50404171  0.29915279  0.50959585  1
  Ti  Ti68  1  0.44186497  0.38514320  0.83874836  1
  Ti  Ti69  1  0.49994168  0.68612233  0.26792016  1
  Ti  Ti70  1  0.52026448  0.65898148  0.64602926  1
  Ti  Ti71  1  0.45165336  0.60894540  0.82370906  1
  Ti  Ti72  1  0.83807359  0.03983258  0.15722114  1
  Ti  Ti73  1  0.69107015  -0.03454120  0.51995383  1
  Ti  Ti74  1  0.89397934  -0.02234213  0.88976388  1
  Ti  Ti75  1  0.89367059  0.32273834  0.18876574  1
  Ti  Ti76  1  0.86241110  0.38327731  0.59357135  1
  Ti  Ti77  1  0.87777044  0.30973517  0.84874244  1
  Ti  Ti78  1  0.89365525  0.72458347  0.20351116  1
  Ti  Ti79  1  0.80000810  0.68479219  0.47984755  1
  Ti  Ti80  1  0.79713866  0.69517098  0.78917387  1
  Ti  Ti81  1  0.15014693  0.19426842  -0.00710668  1
  Ti  Ti82  1  0.12257716  0.12703712  0.30550408  1
  Ti  Ti83  1  0.09669662  0.17374297  0.63891591  1
  Ti  Ti84  1  0.08593423  0.47806279  0.02872019  1
  Ti  Ti85  1  0.18508650  0.46071554  0.32658255  1
  Ti  Ti86  1  0.16676021  0.60057621  0.68301995  1
  Ti  Ti87  1  0.22560169  0.85357291  -0.02930978  1
  Ti  Ti88  1  0.23541330  0.85312812  0.33440232  1
  Ti  Ti89  1  0.11426658  0.86524133  0.66247506  1
  Ti  Ti90  1  0.51765685  0.20462386  -0.04025359  1
  Ti  Ti91  1  0.59939707  0.22517848  0.25436585  1
  Ti  Ti92  1  0.46165626  0.18598502  0.68788531  1
  Ti  Ti93  1  0.50945326  0.54101347  0.01498317  1
  Ti  Ti94  1  0.46746472  0.49450062  0.37668970  1
  Ti  Ti95  1  0.54180361  0.47513626  0.58118676  1
  Ti  Ti96  1  0.45181817  0.84152346  -0.02018590  1
  Ti  Ti97  1  0.43480015  0.84736132  0.34851795  1
  Ti  Ti98  1  0.53959074  0.85605805  0.61291978  1
  Ti  Ti99  1  0.83612804  0.14327287  -0.04034408  1
  Ti  Ti100  1  0.79248144  0.20550438  0.30385486  1
  Ti  Ti101  1  0.80731851  0.09901289  0.61483933  1
  Ti  Ti102  1  0.88778284  0.46220556  -0.01429802  1
  Ti  Ti103  1  0.79560489  0.45702275  0.29293317  1
  Ti  Ti104  1  0.87766105  0.55856627  0.66336067  1
  Ti  Ti105  1  0.85236983  0.79963418  -0.01814925  1
  Ti  Ti106  1  0.77325165  0.89684053  0.26285786  1
  Ti  Ti107  1  0.82451824  0.91548468  0.68695418  1
  Co  Co108  1  0.25141016  0.19278723  0.66226642  1
  Co  Co109  1  0.35868267  0.06408785  0.61666470  1
  Co  Co110  1  0.67956436  0.76494869  0.70177944  1
  Co  Co111  1  0.63223924  0.72513108  0.55421946  1
  Co  Co112  1  0.88805440  0.87892829  0.13321645  1
  Co  Co113  1  0.33820993  0.75046885  0.88524093  1
  Co  Co114  1  0.68272632  0.94036317  0.13478388  1
  Co  Co115  1  0.81531124  0.30511854  1.00251202  1
  Co  Co116  1  1.03432497  0.43490387  0.58377508  1
  Co  Co117  1  0.32655557  0.26547994  0.80688486  1
  Co  Co118  1  0.94113755  0.75342333  0.36969510  1
  Co  Co119  1  0.68900298  0.08044144  0.04849210  1
  Co  Co120  1  0.16588591  0.76019156  0.78032417  1
  Co  Co121  1  0.68618804  0.38408563  0.56719316  1
  Co  Co122  1  0.77573652  0.24931365  0.52162033  1
  Co  Co123  1  0.78317059  0.03690756  0.34978102  1
  Co  Co124  1  0.65985143  0.92955731  0.69563006  1
  Co  Co125  1  0.36452260  0.22146734  0.55145589  1
  Co  Co126  1  0.22179288  0.85234229  0.50524619  1
  Co  Co127  1  0.96721635  0.44996831  0.31216047  1
  Co  Co128  1  0.22308619  0.55250052  -0.01183011  1
  Co  Co129  1  0.27006429  0.62797625  0.81319283  1
  Co  Co130  1  0.48164903  0.32568211  0.33721206  1
  Co  Co131  1  0.63003327  0.80306187  0.25482653  1
  Co  Co132  1  0.07381280  0.39740270  0.42676501  1
  Co  Co133  1  0.77968953  0.74055024  0.32083994  1
  Co  Co134  1  1.02513859  0.38996832  0.88867061  1
  Co  Co135  1  0.18618497  0.00209866  0.39809287  1
  Co  Co136  1  0.54917604  0.17401911  0.39686543  1
  Co  Co137  1  0.49377477  0.72427517  0.43150247  1
  Co  Co138  1  0.42232591  0.15108600  0.84084316  1
  Co  Co139  1  0.39826971  0.19329065  0.39702324  1
  Co  Co140  1  0.36869031  0.51906364  0.93757909  1
  Co  Co141  1  0.17104874  0.41105385  0.67760644  1
  Co  Co142  1  0.54416421  0.27256064  0.79756758  1
  Co  Co143  1  0.68330664  0.08066580  0.22218626  1
  Co  Co144  1  0.27848593  0.16782719  0.30123137  1
  Co  Co145  1  0.87916976  0.60448087  0.32638396  1
  Co  Co146  1  0.58604211  0.60555501  0.47121011  1
  Co  Co147  1  0.10455346  0.95886535  0.26414522  1
  Co  Co148  1  0.58188982  0.12051271  0.82971447  1
  Co  Co149  1  0.75036960  0.82806895  0.57226777  1
  Co  Co150  1  0.19908411  0.37819763  0.96365343  1
  Co  Co151  1  0.06593941  0.22449570  0.18432352  1
  Co  Co152  1  0.99460528  0.09501189  0.98514739  1
  Co  Co153  1  0.08215864  0.82701355  0.37795546  1
  Co  Co154  1  0.58434989  0.41161805  0.89882052  1
  Co  Co155  1  0.19662329  0.91280249  0.80476081  1
  Co  Co156  1  0.06660580  0.92955367  0.49664378  1
  Co  Co157  1  0.95191486  0.70944483  0.88844468  1
  Co  Co158  1  0.14213846  0.50742861  0.85573038  1
  Co  Co159  1  0.53605379  1.01810011  0.10392566  1
  Co  Co160  1  0.57729623  0.51771023  0.74966603  1
  Co  Co161  1  0.04320465  0.37965144  0.19091819  1
  Ni  Ni162  1  0.43199312  0.95538226  0.22470194  1
  Ni  Ni163  1  0.87970591  0.16037227  0.43682391  1
  Ni  Ni164  1  0.82772038  0.64660270  0.05557776  1
  Ni  Ni165  1  0.46727405  0.69337387  0.10305507  1
  Ni  Ni166  1  0.45892833  1.02862505  0.93439611  1
  Ni  Ni167  1  0.02171319  0.60346791  0.58321002  1
  Ni  Ni168  1  0.80353011  0.51375775  0.51839205  1
  Ni  Ni169  1  0.60719592  0.45035355  0.29608289  1
  Ni  Ni170  1  0.52868285  0.92955979  0.46172630  1
  Ni  Ni171  1  1.00874114  0.96647240  0.76894127  1
  Ni  Ni172  1  0.24586634  0.66531165  0.49241675  1
  Ni  Ni173  1  -0.02047744  0.27146803  0.52659845  1
  Ni  Ni174  1  0.91814381  0.17443499  0.11777063  1
  Ni  Ni175  1  0.77930690  0.95076818  1.00223206  1
  Ni  Ni176  1  -0.00642905  0.55579318  0.89607619  1
  Ni  Ni177  1  0.51555257  0.25135620  0.11917674  1
  Ni  Ni178  1  0.26115524  0.71932118  0.23113106  1
  Ni  Ni179  1  0.84510130  0.35897347  0.41827316  1
  Ni  Ni180  1  0.06249175  0.84554610  0.89555746  1
  Ni  Ni181  1  0.75698631  0.38067782  0.72813887  1
  Ni  Ni182  1  0.86802739  0.72962269  0.64140769  1
  Ni  Ni183  1  0.09862724  0.78250090  0.04752321  1
  Ni  Ni184  1  0.46071028  0.37668441  0.01838160  1
  Ni  Ni185  1  0.79876238  0.43496073  0.11445862  1
  Ni  Ni186  1  0.82972979  0.59516357  0.90806865  1
  Ni  Ni187  1  0.80472824  0.86822526  0.42294330  1
  Ni  Ni188  1  0.13777227  0.03903758  0.71640676  1
  Ni  Ni189  1  0.02805595  0.22292041  0.87663526  1
  Ni  Ni190  1  0.69659450  0.34866293  0.20810714  1
  Ni  Ni191  1  0.52123245  0.69972731  0.94787513  1
  Ni  Ni192  1  0.19498981  0.88303549  0.14092654  1
  Ni  Ni193  1  0.34195046  0.43534652  0.27006777  1
  Ni  Ni194  1  0.42123664  0.60108767  0.50166101  1
  Ni  Ni195  1  0.39616201  0.14709910  0.08044192  1
  Ni  Ni196  1  0.88135465  0.46704272  0.80821675  1
  Ni  Ni197  1  0.79412818  0.17145766  0.78266620  1
  Ni  Ni198  1  0.78282800  0.59621946  0.19368152  1
  Ni  Ni199  1  0.36580746  0.45204322  0.52833644  1
  Ni  Ni200  1  0.41847066  0.56010646  0.19576324  1
  Ni  Ni201  1  0.24288687  0.74830410  0.63971592  1
  Ni  Ni202  1  0.87371000  0.00142385  0.48911830  1
  Ni  Ni203  1  0.29703226  0.11418813  0.94367393  1
  Ni  Ni204  1  0.74455649  0.77613753  0.13002345  1
  Ni  Ni205  1  0.62461448  0.66721075  0.13880234  1
  Ni  Ni206  1  0.11342886  0.51922814  0.19892539  1
  Ni  Ni207  1  0.61802711  0.08438868  0.64619407  1
  Ni  Ni208  1  0.87120901  0.24109557  0.66496001  1
  Ni  Ni209  1  0.16716874  0.29176443  0.32838349  1
  Ni  Ni210  1  0.19266254  0.02386102  0.03877027  1
  Ni  Ni211  1  0.23440925  0.16615981  0.13358676  1
  Ni  Ni212  1  0.37674834  0.93078358  0.51509994  1
  Ni  Ni213  1  0.39610755  0.75490805  0.72232899  1
  Ni  Ni214  1  0.42844781  0.47671955  0.69811917  1
  Ni  Ni215  1  0.94673719  0.12213941  0.28157290  1
