# generated using pymatgen
data_Ti2CoNi
_symmetry_space_group_name_H-M   'P 1'
_cell_length_a   14.63853845
_cell_length_b   14.55890219
_cell_length_c   14.57447584
_cell_angle_alpha   90.11174401
_cell_angle_beta   89.91932331
_cell_angle_gamma   89.99429094
_symmetry_Int_Tables_number   1
_chemical_formula_structural   Ti2CoNi
_chemical_formula_sum   'Ti108 Co54 Ni54'
_cell_volume   3106.11858445
_cell_formula_units_Z   54
loop_
 _symmetry_equiv_pos_site_id
 _symmetry_equiv_pos_as_xyz
  1  'x, y, z'
loop_
 _atom_site_type_symbol
 _atom_site_label
 _atom_site_symmetry_multiplicity
 _atom_site_fract_x
 _atom_site_fract_y
 _atom_site_fract_z
 _atom_site_occupancy
  Ti  Ti0  1  -0.01822992  0.03605962  0.11093909  1
  Ti  Ti1  1  0.06819637  0.04476193  0.32577605  1
  Ti  Ti2  1  0.00818084  -0.07408758  0.63139656  1
  Ti  Ti3  1  0.05598983  0.31878111  0.09057423  1
  Ti  Ti4  1  -0.03184660  0.34894572  0.33804671  1
  Ti  Ti5  1  -0.05524406  0.31173295  0.69777593  1
  Ti  Ti6  1  0.00966337  0.59177483  -0.06190803  1
  Ti  Ti7  1  -0.02099973  0.65001157  0.34814893  1
  Ti  Ti8  1  -0.01650656  0.64224202  0.73888956  1
  Ti  Ti9  1  0.37569113  -0.00113947  -0.09433319  1
  Ti  Ti10  1  0.31348810  -0.06108723  0.40948639  1
  Ti  Ti11  1  0.30496299  -0.01946865  0.72411602  1
  Ti  Ti12  1  0.36472126  0.24245121  0.02801518  1
  Ti  Ti13  1  0.32372919  0.29115168  0.38391175  1
  Ti  Ti14  1  0.37824166  0.29764148  0.67110728  1
  Ti  Ti15  1  0.31698469  0.71443773  -0.02364897  1
  Ti  Ti16  1  0.34230103  0.62969624  0.27633485  1
  Ti  Ti17  1  0.31244686  0.65096426  0.70971056  1
  Ti  Ti18  1  0.65856657  0.03030814  0.08835984  1
  Ti  Ti19  1  0.74289352  0.01485764  0.30780235  1
  Ti  Ti20  1  0.67002203  -0.02591847  0.62059002  1
  Ti  Ti21  1  0.62691590  0.30894104  -0.04817083  1
  Ti  Ti22  1  0.64719603  0.37504197  0.35337569  1
  Ti  Ti23  1  0.64531295  0.30996933  0.66620330  1
  Ti  Ti24  1  0.74990657  0.64298941  -0.03675621  1
  Ti  Ti25  1  0.71023649  0.59655212  0.31118725  1
  Ti  Ti26  1  0.66369980  0.74913518  0.74481064  1
  Ti  Ti27  1  -0.01749638  0.19671504  0.23136642  1
  Ti  Ti28  1  0.01368772  0.12876715  0.60161328  1
  Ti  Ti29  1  0.02843612  0.13512676  0.79916695  1
  Ti  Ti30  1  0.04571853  0.58848806  0.16236833  1
  Ti  Ti31  1  -0.08583665  0.61484124  0.54293583  1
  Ti  Ti32  1  0.08675415  0.47843282  0.80224992  1
  Ti  Ti33  1  -0.04132325  0.85636836  0.05508165  1
  Ti  Ti34  1  -0.06814124  0.80666227  0.47896087  1
  Ti  Ti35  1  -0.01624784  0.81180142  0.85494178  1
  Ti  Ti36  1  0.29163007  0.11595014  0.14908339  1
  Ti  Ti37  1  0.37948782  0.11533577  0.48283737  1
  Ti  Ti38  1  0.29651799  0.19139267  0.84845459  1
  Ti  Ti39  1  0.25951712  0.49408070  0.18892962  1
  Ti  Ti40  1  0.29563297  0.49390830  0.47742872  1
  Ti  Ti41  1  0.25852056  0.53404538  0.86305174  1
  Ti  Ti42  1  0.33862142  0.87739235  0.08462171  1
  Ti  Ti43  1  0.34064123  0.75920389  0.41528436  1
  Ti  Ti44  1  0.41081016  0.80577359  0.81854701  1
  Ti  Ti45  1  0.62381321  0.18230945  0.23938470  1
  Ti  Ti46  1  0.69646087  0.22592202  0.48199145  1
  Ti  Ti47  1  0.60851194  0.11525401  0.90164144  1
  Ti  Ti48  1  0.74721606  0.52593827  0.12351728  1
  Ti  Ti49  1  0.71274598  0.47649673  0.52454380  1
  Ti  Ti50  1  0.59207373  0.43690484  0.81034524  1
  Ti  Ti51  1  0.69682995  0.87102797  0.17721759  1
  Ti  Ti52  1  0.70373258  0.88609276  0.43683838  1
  Ti  Ti53  1  0.66957287  0.93370315  0.84070045  1
  Ti  Ti54  1  0.16675199  -0.01872723  0.13862607  1
  Ti  Ti55  1  0.17876519  0.04929542  0.51474316  1
  Ti  Ti56  1  0.13796306  -0.07669180  0.81805513  1
  Ti  Ti57  1  0.23809348  0.29754241  0.19763132  1
  Ti  Ti58  1  0.11895221  0.35871476  0.45679422  1
  Ti  Ti59  1  0.13801699  0.29457801  0.89445021  1
  Ti  Ti60  1  0.20788410  0.69132438  0.13632848  1
  Ti  Ti61  1  0.09969698  0.67784518  0.52673624  1
  Ti  Ti62  1  0.16651050  0.71656886  0.85109136  1
  Ti  Ti63  1  0.49036410  -0.02692506  0.19095930  1
  Ti  Ti64  1  0.50413317  -0.05268833  0.45210041  1
  Ti  Ti65  1  0.50749273  0.01628843  0.75805703  1
  Ti  Ti66  1  0.45311822  0.34899497  0.20539715  1
  Ti  Ti67  1  0.48064716  0.45559217  0.49325287  1
  Ti  Ti68  1  0.44167817  0.31755114  0.86174176  1
  Ti  Ti69  1  0.56291713  0.65501040  0.18360301  1
  Ti  Ti70  1  0.56556616  0.64987295  0.57329021  1
  Ti  Ti71  1  0.57258460  0.62045261  0.87230511  1
  Ti  Ti72  1  0.80861922  0.13433711  0.14732771  1
  Ti  Ti73  1  0.92472225  0.01467743  0.45657851  1
  Ti  Ti74  1  0.81318990  0.06218985  0.80180779  1
  Ti  Ti75  1  0.87268960  0.33822228  0.14831558  1
  Ti  Ti76  1  0.91325308  0.25103553  0.50740908  1
  Ti  Ti77  1  0.78779938  0.36573747  0.80939016  1
  Ti  Ti78  1  0.83187574  0.72378262  0.12677734  1
  Ti  Ti79  1  0.76322212  0.76186461  0.58383105  1
  Ti  Ti80  1  0.78358898  0.58687761  0.79253177  1
  Ti  Ti81  1  0.10501913  0.11904811  -0.01296781  1
  Ti  Ti82  1  0.24260114  0.11218007  0.33184749  1
  Ti  Ti83  1  0.18764907  0.20941965  0.67412621  1
  Ti  Ti84  1  0.16203227  0.46091161  0.02435226  1
  Ti  Ti85  1  0.15220642  0.55474305  0.33723031  1
  Ti  Ti86  1  0.19397165  0.44404401  0.65689047  1
  Ti  Ti87  1  0.14739894  0.83589785  0.01029104  1
  Ti  Ti88  1  0.16826121  0.88327292  0.30670063  1
  Ti  Ti89  1  0.19091257  0.87887491  0.59042804  1
  Ti  Ti90  1  0.51220755  0.16339749  0.08899739  1
  Ti  Ti91  1  0.51225239  0.21774946  0.39395741  1
  Ti  Ti92  1  0.53300987  0.16318023  0.60000896  1
  Ti  Ti93  1  0.44765219  0.49655190  -0.02913638  1
  Ti  Ti94  1  0.51588734  0.51482594  0.28950655  1
  Ti  Ti95  1  0.46299432  0.53785958  0.70268552  1
  Ti  Ti96  1  0.50084759  0.73607429  0.01165079  1
  Ti  Ti97  1  0.52766076  0.74964028  0.38282543  1
  Ti  Ti98  1  0.42061298  0.81885589  0.60468182  1
  Ti  Ti99  1  0.81770798  0.22356695  -0.03470743  1
  Ti  Ti100  1  0.80602174  0.20278489  0.33307538  1
  Ti  Ti101  1  0.78958198  0.18244293  0.65142377  1
  Ti  Ti102  1  0.85712286  0.43781867  -0.02516237  1
  Ti  Ti103  1  0.85323946  0.50120249  0.37690177  1
  Ti  Ti104  1  0.88316144  0.48310472  0.66311502  1
  Ti  Ti105  1  0.77054975  0.86073966  -0.01743601  1
  Ti  Ti106  1  0.82973990  0.78681636  0.31100095  1
  Ti  Ti107  1  0.83856657  0.87514566  0.73191952  1
  Co  Co108  1  0.09013429  0.32089708  0.74588867  1
  Co  Co109  1  0.52267602  0.01115933  0.99287696  1
  Co  Co110  1  0.57581856  0.32607550  0.51691916  1
  Co  Co111  1  0.59304756  0.89590375  0.30857941  1
  Co  Co112  1  0.35568056  0.96752246  0.56641555  1
  Co  Co113  1  0.16272431  0.70436323  0.29481270  1
  Co  Co114  1  0.40817008  0.05512163  0.32814769  1
  Co  Co115  1  -0.01696071  0.24972840  0.92031947  1
  Co  Co116  1  0.24630804  0.34522813  0.77809572  1
  Co  Co117  1  0.45162861  0.14686762  0.92134246  1
  Co  Co118  1  0.86289295  0.61531377  0.23870878  1
  Co  Co119  1  0.07705008  0.92615419  0.45538112  1
  Co  Co120  1  0.96804694  0.97989814  0.78496755  1
  Co  Co121  1  0.43431078  0.54282905  0.14457381  1
  Co  Co122  1  0.89795296  0.05087008  0.27099417  1
  Co  Co123  1  0.03733992  0.96186157  0.94361639  1
  Co  Co124  1  0.08710382  0.17892219  0.46176853  1
  Co  Co125  1  0.38439845  0.03902151  0.06337478  1
  Co  Co126  1  0.87963528  0.21110798  0.80635184  1
  Co  Co127  1  0.24421889  0.63685290  0.44613243  1
  Co  Co128  1  0.92982967  0.90942098  0.33633319  1
  Co  Co129  1  0.41807039  0.29600056  0.51433610  1
  Co  Co130  1  0.75863013  0.60804402  0.62311685  1
  Co  Co131  1  0.83402770  0.98996195  0.05944804  1
  Co  Co132  1  0.64304123  0.10430613  0.71502551  1
  Co  Co133  1  0.49176338  0.70170020  0.71831378  1
  Co  Co134  1  0.03783292  0.71345562  0.05061341  1
  Co  Co135  1  0.07492013  0.29237160  0.58870330  1
  Co  Co136  1  0.42837580  0.86207066  0.29873733  1
  Co  Co137  1  0.82331743  0.66672399  0.42527475  1
  Co  Co138  1  0.16177618  0.62787710  0.99134562  1
  Co  Co139  1  0.18007404  0.79567687  0.44550992  1
  Co  Co140  1  0.95528674  0.19211167  0.06786552  1
  Co  Co141  1  0.75282533  1.06408327  0.95342986  1
  Co  Co142  1  0.27324850  0.86041527  0.89592995  1
  Co  Co143  1  0.39921311  0.63135077  0.56944478  1
  Co  Co144  1  0.92669315  0.08932096  0.93515660  1
  Co  Co145  1  0.23707382  0.20426104  0.50011155  1
  Co  Co146  1  0.85729487  0.90440844  0.18734944  1
  Co  Co147  1  0.97968994  0.74710668  0.20769331  1
  Co  Co148  1  0.48805451  0.34842280  1.02429077  1
  Co  Co149  1  0.57866232  0.45889071  0.62272602  1
  Co  Co150  1  0.62691460  0.58697724  0.72024189  1
  Co  Co151  1  0.73387444  0.36515411  0.06397907  1
  Co  Co152  1  0.31153785  -0.03396948  0.22920335  1
  Co  Co153  1  0.03897078  0.79689692  0.35517539  1
  Co  Co154  1  0.52172033  0.88928050  0.88878775  1
  Co  Co155  1  0.95327274  0.15725819  0.38632078  1
  Co  Co156  1  0.72235496  0.45957613  0.69392795  1
  Co  Co157  1  0.79832261  0.76745648  0.84340060  1
  Co  Co158  1  0.80065379  0.34481678  0.59534397  1
  Co  Co159  1  0.68304588  0.19603064  0.06825836  1
  Co  Co160  1  0.64049622  0.45361820  0.20824666  1
  Co  Co161  1  0.59351741  0.31465234  0.13841566  1
  Ni  Ni162  1  0.80679537  0.35169037  0.42405982  1
  Ni  Ni163  1  0.20505129  0.25398493  0.03928418  1
  Ni  Ni164  1  0.42297412  0.15320038  0.75546859  1
  Ni  Ni165  1  0.15101592  0.61157875  0.71259075  1
  Ni  Ni166  1  0.59630100  0.56309860  0.42904209  1
  Ni  Ni167  1  0.02002769  0.50129610  0.41493323  1
  Ni  Ni168  1  0.09622027  0.42210976  0.21663668  1
  Ni  Ni169  1  0.34344825  0.40330403  0.08356812  1
  Ni  Ni170  1  0.55850808  0.23598987  0.78333249  1
  Ni  Ni171  1  0.40522665  0.63227227  0.85812772  1
  Ni  Ni172  1  0.89862748  0.71661883  0.96462854  1
  Ni  Ni173  1  0.87952629  0.04112839  0.64549658  1
  Ni  Ni174  1  0.90246002  0.57235479  0.07164414  1
  Ni  Ni175  1  0.18728757  0.08013657  0.83132460  1
  Ni  Ni176  1  0.82419067  0.91870267  0.55996278  1
  Ni  Ni177  1  0.71798968  0.21507539  0.81530246  1
  Ni  Ni178  1  0.22437740  0.99648008  -0.02023158  1
  Ni  Ni179  1  0.28933125  0.79957968  0.23634462  1
  Ni  Ni180  1  0.37269131  0.45090832  0.33376589  1
  Ni  Ni181  1  0.67347515  0.70983211  0.45446945  1
  Ni  Ni182  1  0.27207291  0.73763605  0.57353147  1
  Ni  Ni183  1  0.04704279  0.52547984  0.60999041  1
  Ni  Ni184  1  0.69412007  0.48000772  0.93874856  1
  Ni  Ni185  1  0.55058315  0.86365664  0.71242971  1
  Ni  Ni186  1  0.66506487  0.72806495  0.07614672  1
  Ni  Ni187  1  0.29172787  0.37676329  0.93285038  1
  Ni  Ni188  1  0.39434003  0.20147272  0.24909257  1
  Ni  Ni189  1  0.93905467  0.76716136  0.64291011  1
  Ni  Ni190  1  0.13388464  0.03501838  0.68189668  1
  Ni  Ni191  1  0.57122504  0.05624891  0.32514134  1
  Ni  Ni192  1  0.58875434  0.57104169  0.04018984  1
  Ni  Ni193  1  0.59389869  0.87606075  0.04012278  1
  Ni  Ni194  1  0.37009597  0.44263993  0.78630289  1
  Ni  Ni195  1  0.93888702  0.47514583  0.22638629  1
  Ni  Ni196  1  0.31852096  0.12053895  0.63677837  1
  Ni  Ni197  1  0.63977513  0.77469795  0.91286602  1
  Ni  Ni198  1  0.02956390  0.90340373  0.20851849  1
  Ni  Ni199  1  0.26582656  0.34725937  0.55210067  1
  Ni  Ni200  1  0.25827368  0.81233536  0.73218796  1
  Ni  Ni201  1  0.66405445  0.75194168  0.28690772  1
  Ni  Ni202  1  0.78291236  0.08007255  0.49876463  1
  Ni  Ni203  1  0.94376763  0.41538553  0.52274019  1
  Ni  Ni204  1  0.12485787  0.15442152  0.15854306  1
  Ni  Ni205  1  0.73245753  0.30727231  0.21976294  1
  Ni  Ni206  1  0.09223688  0.77837403  0.70779225  1
  Ni  Ni207  1  0.21468294  0.40056850  0.32700352  1
  Ni  Ni208  1  0.61727603  0.07093111  0.48228692  1
  Ni  Ni209  1  0.92218328  0.48158063  0.82581805  1
  Ni  Ni210  1  0.12726057  0.24885196  0.31598240  1
  Ni  Ni211  1  0.30277167  0.55722184  0.03518790  1
  Ni  Ni212  1  1.02022388  0.40999112  0.94511466  1
  Ni  Ni213  1  0.40581949  0.72206626  0.14835317  1
  Ni  Ni214  1  0.59125104  0.82348149  0.55363245  1
  Ni  Ni215  1  0.43007323  0.60428210  0.41465994  1
