# generated using pymatgen
data_Ti2CoNi
_symmetry_space_group_name_H-M   'P 1'
_cell_length_a   14.50727184
_cell_length_b   14.58397888
_cell_length_c   14.54193909
_cell_angle_alpha   89.98902088
_cell_angle_beta   89.92065316
_cell_angle_gamma   89.80103544
_symmetry_Int_Tables_number   1
_chemical_formula_structural   Ti2CoNi
_chemical_formula_sum   'Ti108 Co54 Ni54'
_cell_volume   3076.67097445
_cell_formula_units_Z   54
loop_
 _symmetry_equiv_pos_site_id
 _symmetry_equiv_pos_as_xyz
  1  'x, y, z'
loop_
 _atom_site_type_symbol
 _atom_site_label
 _atom_site_symmetry_multiplicity
 _atom_site_fract_x
 _atom_site_fract_y
 _atom_site_fract_z
 _atom_site_occupancy
  Ti  Ti0  1  -0.03723791  -0.00065129  0.04626839  1
  Ti  Ti1  1  0.01383943  -0.07061098  0.25188923  1
  Ti  Ti2  1  0.00928188  0.06180398  0.72856504  1
  Ti  Ti3  1  -0.06851913  0.30405025  0.06446421  1
  Ti  Ti4  1  0.03375133  0.41707010  0.29863276  1
  Ti  Ti5  1  0.03394202  0.38584107  0.61686675  1
  Ti  Ti6  1  0.03530198  0.74116099  -0.04658686  1
  Ti  Ti7  1  -0.04479685  0.57381531  0.36023590  1
  Ti  Ti8  1  0.02529046  0.73015891  0.76354146  1
  Ti  Ti9  1  0.30066117  0.04184652  0.07025411  1
  Ti  Ti10  1  0.34199043  0.09374073  0.37006477  1
  Ti  Ti11  1  0.35347263  -0.05363285  0.54911392  1
  Ti  Ti12  1  0.32280559  0.27486556  0.01212203  1
  Ti  Ti13  1  0.29436505  0.29319098  0.38376542  1
  Ti  Ti14  1  0.34485305  0.28661188  0.65274082  1
  Ti  Ti15  1  0.36247961  0.72010912  -0.05957120  1
  Ti  Ti16  1  0.42734852  0.65858694  0.29306266  1
  Ti  Ti17  1  0.25277945  0.61245253  0.64958500  1
  Ti  Ti18  1  0.60714274  0.00424208  0.06517526  1
  Ti  Ti19  1  0.62448743  -0.08109327  0.24230792  1
  Ti  Ti20  1  0.64052058  0.08436299  0.71320786  1
  Ti  Ti21  1  0.68472062  0.32779806  -0.05607018  1
  Ti  Ti22  1  0.73834582  0.30480982  0.41302484  1
  Ti  Ti23  1  0.63473703  0.29920468  0.74008689  1
  Ti  Ti24  1  0.66209606  0.60065527  0.05266235  1
  Ti  Ti25  1  0.66388823  0.72226815  0.26504565  1
  Ti  Ti26  1  0.76428244  0.68781678  0.60147368  1
  Ti  Ti27  1  0.02348473  0.12615956  0.17867254  1
  Ti  Ti28  1  0.03351991  0.13843783  0.49635059  1
  Ti  Ti29  1  -0.03204946  0.26954175  0.80991307  1
  Ti  Ti30  1  0.05216284  0.45781597  0.08346519  1
  Ti  Ti31  1  0.04717067  0.54889101  0.52520090  1
  Ti  Ti32  1  -0.08120690  0.56804803  0.89281227  1
  Ti  Ti33  1  -0.02183719  0.74746913  0.13913473  1
  Ti  Ti34  1  0.03913072  0.83680779  0.54048958  1
  Ti  Ti35  1  0.01296166  0.91899671  0.87596494  1
  Ti  Ti36  1  0.35173229  0.18654135  0.17885646  1
  Ti  Ti37  1  0.45019349  0.21685352  0.48525871  1
  Ti  Ti38  1  0.39029966  0.12136878  0.88828877  1
  Ti  Ti39  1  0.32759011  0.50754767  0.20455726  1
  Ti  Ti40  1  0.25388540  0.47482686  0.49954165  1
  Ti  Ti41  1  0.36055496  0.46070844  0.77151207  1
  Ti  Ti42  1  0.32438015  0.82130441  0.22536858  1
  Ti  Ti43  1  0.35153925  0.75310815  0.46016939  1
  Ti  Ti44  1  0.31492710  0.83707425  0.80947650  1
  Ti  Ti45  1  0.69379402  0.16725656  0.09712160  1
  Ti  Ti46  1  0.74758664  0.11853436  0.49538591  1
  Ti  Ti47  1  0.58761665  0.16723316  0.88430622  1
  Ti  Ti48  1  0.67530260  0.51468949  0.23183843  1
  Ti  Ti49  1  0.64469636  0.47170846  0.45186407  1
  Ti  Ti50  1  0.71688637  0.57874200  0.77413590  1
  Ti  Ti51  1  0.60025265  0.78897322  0.08970316  1
  Ti  Ti52  1  0.79248204  0.86267118  0.50962436  1
  Ti  Ti53  1  0.61995154  0.81980262  0.84200084  1
  Ti  Ti54  1  0.18153479  0.02647600  0.24710047  1
  Ti  Ti55  1  0.18939703  0.00805944  0.47970150  1
  Ti  Ti56  1  0.17860281  0.02217215  0.83198488  1
  Ti  Ti57  1  0.22546485  0.34369805  0.18578771  1
  Ti  Ti58  1  0.17525186  0.28039048  0.54966391  1
  Ti  Ti59  1  0.16534027  0.32987351  0.76207075  1
  Ti  Ti60  1  0.15894688  0.65582318  0.16690549  1
  Ti  Ti61  1  0.18153824  0.66807533  0.48245767  1
  Ti  Ti62  1  0.20718040  0.68080669  0.81351223  1
  Ti  Ti63  1  0.49596674  0.08480140  0.21391013  1
  Ti  Ti64  1  0.59533617  -0.05766397  0.51946231  1
  Ti  Ti65  1  0.48437734  -0.05026400  0.77267180  1
  Ti  Ti66  1  0.46356719  0.33500566  0.18901252  1
  Ti  Ti67  1  0.45739021  0.40596324  0.52057140  1
  Ti  Ti68  1  0.46542310  0.32988748  0.87709126  1
  Ti  Ti69  1  0.45636210  0.61139862  0.05874154  1
  Ti  Ti70  1  0.52352721  0.63556744  0.52960547  1
  Ti  Ti71  1  0.52147436  0.63389300  0.83389633  1
  Ti  Ti72  1  0.81851834  0.02397422  0.20367690  1
  Ti  Ti73  1  0.89500496  0.00770078  0.42853073  1
  Ti  Ti74  1  0.82544204  -0.03668379  0.86474301  1
  Ti  Ti75  1  0.74912867  0.33068929  0.19003779  1
  Ti  Ti76  1  0.89512596  0.25799795  0.51130250  1
  Ti  Ti77  1  0.81688279  0.40637617  0.81692937  1
  Ti  Ti78  1  0.84632238  0.59961373  0.18046657  1
  Ti  Ti79  1  0.91252631  0.69819166  0.47989442  1
  Ti  Ti80  1  0.75981053  0.70132557  0.91611639  1
  Ti  Ti81  1  0.07861106  0.20412753  -0.00907966  1
  Ti  Ti82  1  0.07428489  0.24173564  0.32477942  1
  Ti  Ti83  1  0.17839322  0.11731589  0.64040900  1
  Ti  Ti84  1  0.22504862  0.53507393  0.00948354  1
  Ti  Ti85  1  0.14424982  0.57348439  0.33401083  1
  Ti  Ti86  1  0.07898132  0.54826929  0.72767354  1
  Ti  Ti87  1  0.20499059  0.88723987  -0.02322895  1
  Ti  Ti88  1  0.15741149  0.85981462  0.38527729  1
  Ti  Ti89  1  0.18110286  0.91358148  0.67198613  1
  Ti  Ti90  1  0.50350887  0.19699815  0.04207105  1
  Ti  Ti91  1  0.58429737  0.10161501  0.38409981  1
  Ti  Ti92  1  0.43780006  0.09619955  0.65446170  1
  Ti  Ti93  1  0.54014352  0.48065424  -0.04923937  1
  Ti  Ti94  1  0.49827700  0.48385898  0.31297030  1
  Ti  Ti95  1  0.54683774  0.51667627  0.68525930  1
  Ti  Ti96  1  0.45967553  0.88208904  -0.02399878  1
  Ti  Ti97  1  0.47259107  0.91125764  0.35719538  1
  Ti  Ti98  1  0.49689820  0.77686299  0.69054585  1
  Ti  Ti99  1  0.85703401  0.15945518  -0.01925792  1
  Ti  Ti100  1  0.76720334  0.16643673  0.30521983  1
  Ti  Ti101  1  0.81933017  0.17078985  0.68860780  1
  Ti  Ti102  1  0.83778627  0.47160464  0.04727308  1
  Ti  Ti103  1  0.82015972  0.45210128  0.34025983  1
  Ti  Ti104  1  0.88514147  0.52897804  0.64265917  1
  Ti  Ti105  1  0.84915134  0.84045823  0.00110550  1
  Ti  Ti106  1  0.81012636  0.84188480  0.30350135  1
  Ti  Ti107  1  0.86020818  0.91752247  0.68697717  1
  Co  Co108  1  0.06801631  0.72006318  0.38701967  1
  Co  Co109  1  -0.01303863  0.43987139  0.77894267  1
  Co  Co110  1  0.80804551  0.55529607  0.47720145  1
  Co  Co111  1  0.06918671  0.04677824  0.35823747  1
  Co  Co112  1  0.13048336  0.79316613  0.08484220  1
  Co  Co113  1  0.47902865  0.36946020  0.69854365  1
  Co  Co114  1  0.72929553  0.42669873  0.68209579  1
  Co  Co115  1  0.46547194  0.92491912  0.14892961  1
  Co  Co116  1  0.45694348  0.04653618  0.48630523  1
  Co  Co117  1  0.02580884  1.07615651  0.91005437  1
  Co  Co118  1  0.64981390  0.85266309  0.39004919  1
  Co  Co119  1  0.06273397  0.29928014  0.16095994  1
  Co  Co120  1  0.56171504  0.71094674  0.96063440  1
  Co  Co121  1  0.73296874  -0.00685560  0.37718181  1
  Co  Co122  1  0.31158576  0.58411206  0.38566630  1
  Co  Co123  1  0.53263611  0.24146035  0.62216449  1
  Co  Co124  1  0.73615755  0.72452733  0.43355813  1
  Co  Co125  1  0.47152345  0.20522831  0.76868114  1
  Co  Co126  1  0.22191731  0.90915521  0.14292848  1
  Co  Co127  1  0.45192224  0.04937252  0.02987067  1
  Co  Co128  1  0.16669019  0.33841432  0.03683715  1
  Co  Co129  1  0.88056046  0.34218455  0.66656602  1
  Co  Co130  1  0.12695456  0.80895761  0.24051336  1
  Co  Co131  1  0.68373169  0.54867616  0.59257997  1
  Co  Co132  1  1.02412082  0.88696738  0.70979608  1
  Co  Co133  1  0.22543168  0.12493890  0.94536486  1
  Co  Co134  1  0.60605923  0.22426537  0.23544303  1
  Co  Co135  1  0.60693006  0.24998718  0.46986050  1
  Co  Co136  1  0.09085237  0.35230166  0.89990492  1
  Co  Co137  1  0.72997046  0.87860377  0.12898090  1
  Co  Co138  1  0.42705616  0.77072969  0.10116555  1
  Co  Co139  1  0.74266487  1.00004980  0.59517381  1
  Co  Co140  1  0.52408580  0.75035028  0.40409197  1
  Co  Co141  1  0.37033703  0.43733082  0.37912143  1
  Co  Co142  1  0.73124425  0.51234500  0.92106230  1
  Co  Co143  1  0.19187846  0.17565522  0.10529694  1
  Co  Co144  1  0.61496246  0.44132113  0.81674319  1
  Co  Co145  1  0.50768659  0.79136430  0.24174992  1
  Co  Co146  1  0.12384010  0.02257256  0.05303819  1
  Co  Co147  1  0.19988488  0.70067613  0.97427021  1
  Co  Co148  1  0.62931734  0.77705622  0.54616200  1
  Co  Co149  1  0.68723410  0.44147947  0.06420366  1
  Co  Co150  1  0.79042701  0.40288471  0.53440861  1
  Co  Co151  1  0.61186299  0.38247024  0.58144034  1
  Co  Co152  1  0.12233383  0.18338409  0.81820807  1
  Co  Co153  1  0.65709382  0.06797208  0.23647579  1
  Co  Co154  1  0.55126247  0.61586726  0.19627518  1
  Co  Co155  1  0.71588902  0.25509172  0.59729793  1
  Co  Co156  1  0.08220804  0.68195466  0.61944065  1
  Co  Co157  1  0.47321528  0.82539787  0.53829309  1
  Co  Co158  1  0.14637412  0.83725026  0.82483309  1
  Co  Co159  1  0.59364960  0.10847063  0.56025260  1
  Co  Co160  1  0.55401905  0.01099740  0.89698536  1
  Co  Co161  1  0.78960927  0.62353182  0.33021305  1
  Ni  Ni162  1  0.75654059  0.78735595  0.74603250  1
  Ni  Ni163  1  0.21820710  0.43074491  0.32629270  1
  Ni  Ni164  1  0.94349722  0.40085650  0.92994383  1
  Ni  Ni165  1  0.00591465  0.21410161  0.64906953  1
  Ni  Ni166  1  0.05247354  0.99289755  0.58346168  1
  Ni  Ni167  1  0.10803215  0.39730446  0.45128531  1
  Ni  Ni168  1  0.37259931  0.66354761  0.75769499  1
  Ni  Ni169  1  0.78820001  0.01149178  0.03601057  1
  Ni  Ni170  1  0.32715314  -0.01423395  0.72580382  1
  Ni  Ni171  1  0.86447304  0.65367063  0.76385178  1
  Ni  Ni172  1  0.61491237  0.61533315  0.38094746  1
  Ni  Ni173  1  0.45704773  0.22884423  0.31811254  1
  Ni  Ni174  1  0.31076221  0.91880013  0.37860918  1
  Ni  Ni175  1  0.89150278  0.80338212  0.83804218  1
  Ni  Ni176  1  0.90855679  0.41149089  0.19450620  1
  Ni  Ni177  1  0.34803013  0.81825169  0.64894066  1
  Ni  Ni178  1  0.30786679  0.14524724  0.53550653  1
  Ni  Ni179  1  0.21818111  0.18272377  0.26657952  1
  Ni  Ni180  1  0.94083618  0.42055366  0.45895287  1
  Ni  Ni181  1  0.93261586  0.13283980  0.32674884  1
  Ni  Ni182  1  0.89596966  0.29440552  0.32645335  1
  Ni  Ni183  1  0.21263047  0.78980353  0.57418719  1
  Ni  Ni184  1  0.63611417  0.89349010  0.67982376  1
  Ni  Ni185  1  0.26567890  0.39932796  0.91540074  1
  Ni  Ni186  1  0.90172927  0.07044654  0.58645390  1
  Ni  Ni187  1  0.01266615  0.57180127  0.20629751  1
  Ni  Ni188  1  0.62265217  0.36792134  0.30802507  1
  Ni  Ni189  1  0.37007083  0.55772268  0.90260796  1
  Ni  Ni190  1  0.77262742  0.72287119  0.09681521  1
  Ni  Ni191  1  0.31095683  0.66000383  0.11231777  1
  Ni  Ni192  1  0.85768311  0.18753772  0.15650218  1
  Ni  Ni193  1  0.72346062  0.08550558  0.89699257  1
  Ni  Ni194  1  0.33553430  0.97209020  0.90563307  1
  Ni  Ni195  1  0.21199221  0.51505611  0.81711548  1
  Ni  Ni196  1  0.68260334  0.91702821  0.95505060  1
  Ni  Ni197  1  0.23133094  0.43372622  0.65563781  1
  Ni  Ni198  1  0.08750698  0.58265617  0.90770225  1
  Ni  Ni199  1  0.93585108  0.72755221  0.29313177  1
  Ni  Ni200  1  0.39388060  0.52639980  0.61536854  1
  Ni  Ni201  1  0.88925181  0.11290567  0.82967427  1
  Ni  Ni202  1  0.98220740  0.60424626  0.04521036  1
  Ni  Ni203  1  0.95418440  0.85336468  0.39821410  1
  Ni  Ni204  1  0.89111881  0.88377970  0.15493723  1
  Ni  Ni205  1  0.38275335  0.44467278  0.02973780  1
  Ni  Ni206  1  0.78158374  0.23589599  0.84299346  1
  Ni  Ni207  1  0.23923290  0.71551963  0.32406827  1
  Ni  Ni208  1  0.28498191  0.13949694  0.75011423  1
  Ni  Ni209  1  0.91796027  0.76316715  0.63779286  1
  Ni  Ni210  1  0.60103391  0.31659237  0.09391732  1
  Ni  Ni211  1  0.34874465  0.99849623  0.23746873  1
  Ni  Ni212  1  0.18553531  0.16369446  0.42481737  1
  Ni  Ni213  1  0.62545678  0.68455233  0.68754225  1
  Ni  Ni214  1  0.31444737  0.27218603  0.82780644  1
  Ni  Ni215  1  0.52798634  0.46972218  0.12206986  1
