# generated using pymatgen
data_Ti2CoNi
_symmetry_space_group_name_H-M   'P 1'
_cell_length_a   14.63834796
_cell_length_b   14.62220712
_cell_length_c   14.59148141
_cell_angle_alpha   90.09458483
_cell_angle_beta   90.38637194
_cell_angle_gamma   90.41838930
_symmetry_Int_Tables_number   1
_chemical_formula_structural   Ti2CoNi
_chemical_formula_sum   'Ti108 Co54 Ni54'
_cell_volume   3123.07419900
_cell_formula_units_Z   54
loop_
 _symmetry_equiv_pos_site_id
 _symmetry_equiv_pos_as_xyz
  1  'x, y, z'
loop_
 _atom_site_type_symbol
 _atom_site_label
 _atom_site_symmetry_multiplicity
 _atom_site_fract_x
 _atom_site_fract_y
 _atom_site_fract_z
 _atom_site_occupancy
  Ti  Ti0  1  -0.05001988  0.01196842  -0.02693258  1
  Ti  Ti1  1  0.10402492  -0.03305722  0.35871791  1
  Ti  Ti2  1  -0.01411884  0.00793162  0.67420230  1
  Ti  Ti3  1  -0.03915424  0.31056799  -0.02128885  1
  Ti  Ti4  1  0.04240437  0.33542413  0.38195322  1
  Ti  Ti5  1  0.00066125  0.37942483  0.61172784  1
  Ti  Ti6  1  0.04044584  0.65723520  0.05239286  1
  Ti  Ti7  1  -0.11581854  0.65499073  0.34295264  1
  Ti  Ti8  1  0.05241405  0.70613380  0.65550556  1
  Ti  Ti9  1  0.34240255  0.07769329  -0.02554729  1
  Ti  Ti10  1  0.31655911  -0.01234999  0.29456792  1
  Ti  Ti11  1  0.31536590  -0.00485560  0.71238608  1
  Ti  Ti12  1  0.31286165  0.28969126  -0.03027847  1
  Ti  Ti13  1  0.33732345  0.28817788  0.29781467  1
  Ti  Ti14  1  0.27077176  0.34461785  0.75061594  1
  Ti  Ti15  1  0.32574600  0.64188520  -0.08598720  1
  Ti  Ti16  1  0.29886561  0.56897704  0.35962247  1
  Ti  Ti17  1  0.25841370  0.69141371  0.70222790  1
  Ti  Ti18  1  0.64092572  -0.01638669  -0.07814790  1
  Ti  Ti19  1  0.68174282  -0.04400960  0.33381926  1
  Ti  Ti20  1  0.61470963  0.03585394  0.65621672  1
  Ti  Ti21  1  0.58999977  0.38637875  -0.01782862  1
  Ti  Ti22  1  0.65039175  0.30900493  0.33045125  1
  Ti  Ti23  1  0.70416820  0.35019041  0.66389073  1
  Ti  Ti24  1  0.63975160  0.68765575  0.12535547  1
  Ti  Ti25  1  0.67656828  0.64077104  0.34999219  1
  Ti  Ti26  1  0.75457636  0.64158958  0.63697075  1
  Ti  Ti27  1  0.02313422  0.20738093  0.17533508  1
  Ti  Ti28  1  0.07793728  0.14184031  0.44125713  1
  Ti  Ti29  1  0.04348208  0.12929265  0.82157821  1
  Ti  Ti30  1  0.02103251  0.48723057  0.14481610  1
  Ti  Ti31  1  -0.06608974  0.56063116  0.56627708  1
  Ti  Ti32  1  0.06588253  0.45478574  0.80683142  1
  Ti  Ti33  1  -0.08216151  0.78937519  0.16662951  1
  Ti  Ti34  1  0.05132890  0.85089431  0.51098717  1
  Ti  Ti35  1  -0.04892018  0.74440884  0.82688797  1
  Ti  Ti36  1  0.40630026  0.16722275  0.14991059  1
  Ti  Ti37  1  0.32502548  0.16614950  0.52596746  1
  Ti  Ti38  1  0.38309896  0.17204616  0.81559994  1
  Ti  Ti39  1  0.31416964  0.45672826  0.09903794  1
  Ti  Ti40  1  0.34663685  0.53361940  0.55759788  1
  Ti  Ti41  1  0.37577464  0.51460467  0.78004152  1
  Ti  Ti42  1  0.28958501  0.74071986  0.21082588  1
  Ti  Ti43  1  0.41919595  0.85419527  0.45392929  1
  Ti  Ti44  1  0.34666604  0.89911952  0.89515165  1
  Ti  Ti45  1  0.65341861  0.15437938  0.16929828  1
  Ti  Ti46  1  0.68296300  0.13355189  0.44788239  1
  Ti  Ti47  1  0.62098793  0.20232719  0.86585332  1
  Ti  Ti48  1  0.69846614  0.49157210  0.16550071  1
  Ti  Ti49  1  0.59041118  0.43451271  0.48197316  1
  Ti  Ti50  1  0.64234536  0.57942870  0.91543011  1
  Ti  Ti51  1  0.70299944  0.87290944  0.09321007  1
  Ti  Ti52  1  0.66611077  0.76857773  0.51419481  1
  Ti  Ti53  1  0.70025482  0.89206345  0.76941038  1
  Ti  Ti54  1  0.16215938  -0.06635633  0.16289191  1
  Ti  Ti55  1  0.25743828  -0.05802161  0.49012572  1
  Ti  Ti56  1  0.14837731  0.01774063  0.96931724  1
  Ti  Ti57  1  0.14210510  0.35526079  0.08852331  1
  Ti  Ti58  1  0.23188462  0.40020895  0.43062775  1
  Ti  Ti59  1  0.13410952  0.29360370  0.88998155  1
  Ti  Ti60  1  0.18026355  0.58140808  0.19219151  1
  Ti  Ti61  1  0.23030892  0.73006889  0.48765661  1
  Ti  Ti62  1  0.11907659  0.65188959  0.84766910  1
  Ti  Ti63  1  0.50490517  -0.01763419  0.25207589  1
  Ti  Ti64  1  0.55436349  -0.01851227  0.47776868  1
  Ti  Ti65  1  0.50628486  -0.06430592  0.78380688  1
  Ti  Ti66  1  0.49565543  0.43814506  0.19221437  1
  Ti  Ti67  1  0.41811948  0.33892891  0.51388502  1
  Ti  Ti68  1  0.46407848  0.34329067  0.80556929  1
  Ti  Ti69  1  0.45017343  0.65320552  0.09521795  1
  Ti  Ti70  1  0.44168487  0.68273957  0.52325669  1
  Ti  Ti71  1  0.59621152  0.72231878  0.78428240  1
  Ti  Ti72  1  0.85685335  0.06551961  0.19140679  1
  Ti  Ti73  1  0.81680272  0.03895032  0.55725415  1
  Ti  Ti74  1  0.83301741  0.05722566  0.79135436  1
  Ti  Ti75  1  0.84918993  0.29054835  0.13002974  1
  Ti  Ti76  1  0.79023050  0.31615088  0.49919337  1
  Ti  Ti77  1  0.80830096  0.28425740  0.83884231  1
  Ti  Ti78  1  0.86327281  0.60251282  0.15692704  1
  Ti  Ti79  1  0.88940385  0.73871045  0.51208781  1
  Ti  Ti80  1  0.83310659  0.59104797  0.86455264  1
  Ti  Ti81  1  0.19686965  0.17413557  0.06980466  1
  Ti  Ti82  1  0.17965621  0.13314551  0.26151410  1
  Ti  Ti83  1  0.09729130  0.18295096  0.63466381  1
  Ti  Ti84  1  0.17611125  0.53210951  -0.01684285  1
  Ti  Ti85  1  0.07623799  0.53770295  0.35026971  1
  Ti  Ti86  1  0.13905261  0.53196112  0.64500778  1
  Ti  Ti87  1  0.13643306  0.82377710  -0.04195649  1
  Ti  Ti88  1  0.09444937  0.80139962  0.26872285  1
  Ti  Ti89  1  0.15703394  0.89289768  0.67131102  1
  Ti  Ti90  1  0.54570280  0.11747837  0.01365050  1
  Ti  Ti91  1  0.48929720  0.19963132  0.39761364  1
  Ti  Ti92  1  0.55976729  0.21069650  0.66938804  1
  Ti  Ti93  1  0.43649974  0.47667919  -0.03283571  1
  Ti  Ti94  1  0.49154803  0.57978982  0.36849743  1
  Ti  Ti95  1  0.55021778  0.53327232  0.65682764  1
  Ti  Ti96  1  0.51110273  0.83018881  0.00829252  1
  Ti  Ti97  1  0.47087416  0.78683906  0.26297057  1
  Ti  Ti98  1  0.42552087  0.80866901  0.68563474  1
  Ti  Ti99  1  0.78053154  0.13472579  -0.02434150  1
  Ti  Ti100  1  0.88129408  0.16659410  0.39005251  1
  Ti  Ti101  1  0.88000118  0.21912801  0.66847392  1
  Ti  Ti102  1  0.78426900  0.42404632  -0.00236957  1
  Ti  Ti103  1  0.84320021  0.36690716  0.30802790  1
  Ti  Ti104  1  0.85681548  0.45095178  0.71501615  1
  Ti  Ti105  1  0.81375115  0.81348803  -0.06621821  1
  Ti  Ti106  1  0.91151566  0.87804170  0.36153647  1
  Ti  Ti107  1  0.82389813  0.83778225  0.65023599  1
  Co  Co108  1  0.17181871  0.67763808  0.34471755  1
  Co  Co109  1  0.69088811  0.54888488  0.74409293  1
  Co  Co110  1  0.36028439  0.88239798  0.17871087  1
  Co  Co111  1  0.41866434  0.00694937  0.10087958  1
  Co  Co112  1  0.20187654  0.56240428  0.48865671  1
  Co  Co113  1  0.62679283  0.34064719  0.79849641  1
  Co  Co114  1  0.91002071  0.50997500  0.02760072  1
  Co  Co115  1  0.82124219  0.01924956  0.37419927  1
  Co  Co116  1  0.61150349  0.59577225  0.50455458  1
  Co  Co117  1  0.50174089  0.13032975  0.53930095  1
  Co  Co118  1  0.42543007  0.33378471  0.08949313  1
  Co  Co119  1  0.38549765  0.41442734  0.65611394  1
  Co  Co120  1  0.39704767  0.25348074  0.66042373  1
  Co  Co121  1  0.12316261  0.32564744  0.70528234  1
  Co  Co122  1  0.28079144  0.29279349  0.14910158  1
  Co  Co123  1  0.21765533  0.54215291  0.79605909  1
  Co  Co124  1  0.07180451  0.46663793  0.49642737  1
  Co  Co125  1  0.26977122  0.04841250  0.13642458  1
  Co  Co126  1  0.80439476  0.90592112  0.23791364  1
  Co  Co127  1  0.25940444  0.77277298  0.84478653  1
  Co  Co128  1  0.55441521  0.48073101  0.81475544  1
  Co  Co129  1  0.08762609  1.00781352  0.54640879  1
  Co  Co130  1  0.73030022  0.18684844  0.59209536  1
  Co  Co131  1  0.43248938  0.95740662  0.59152252  1
  Co  Co132  1  0.78883210  0.60086414  0.46984084  1
  Co  Co133  1  0.78652878  0.73937759  0.07570146  1
  Co  Co134  1  0.22419794  0.41191709  0.59319010  1
  Co  Co135  1  0.56296645  0.26300642  0.08809670  1
  Co  Co136  1  0.76416127  0.73309835  0.78401254  1
  Co  Co137  1  0.91050249  0.43027089  0.87436773  1
  Co  Co138  1  0.22194850  0.06480900  0.58985505  1
  Co  Co139  1  0.10987262  0.79917787  0.79006349  1
  Co  Co140  1  0.96200183  1.00409620  0.45049982  1
  Co  Co141  1  0.95109401  0.27606495  0.49799122  1
  Co  Co142  1  0.75414909  0.58791145  1.02949077  1
  Co  Co143  1  0.22973271  0.07993732  0.41474858  1
  Co  Co144  1  0.90128664  0.68256455  0.99041963  1
  Co  Co145  1  0.14900215  0.05021930  0.73557598  1
  Co  Co146  1  0.86393561  0.92851215  0.08512666  1
  Co  Co147  1  0.51809377  0.09029715  0.82351546  1
  Co  Co148  1  -0.00766160  0.57578972  0.90668779  1
  Co  Co149  1  0.47820382  0.98147788  0.94886184  1
  Co  Co150  1  0.06390308  0.16937666  0.98343311  1
  Co  Co151  1  0.43641079  0.09256754  0.68008687  1
  Co  Co152  1  0.05080584  0.44393248  -0.02060971  1
  Co  Co153  1  0.91625286  0.17655388  0.88810176  1
  Co  Co154  1  0.92186941  0.15652701  0.05500422  1
  Co  Co155  1  0.75222349  0.48382690  0.58080695  1
  Co  Co156  1  0.60151811  0.27153755  0.51133418  1
  Co  Co157  1  0.79735047  0.52654117  0.29932612  1
  Co  Co158  1  0.79332625  0.97034096  0.93316760  1
  Co  Co159  1  0.12653010  0.30093858  0.52705372  1
  Co  Co160  1  0.37210703  0.71039863  0.36993729  1
  Co  Co161  1  0.73669712  0.44965432  0.41915318  1
  Ni  Ni162  1  0.15763646  0.75814243  0.11275838  1
  Ni  Ni163  1  0.65614554  0.76406173  0.94743280  1
  Ni  Ni164  1  0.76710573  0.73061480  0.23462690  1
  Ni  Ni165  1  0.40328761  0.03998431  0.42997460  1
  Ni  Ni166  1  0.50769442  0.27025674  0.24184658  1
  Ni  Ni167  1  0.77308341  0.21098094  0.27084097  1
  Ni  Ni168  1  0.70474089  0.92576085  0.55250338  1
  Ni  Ni169  1  0.29760381  0.83304515  0.60148426  1
  Ni  Ni170  1  0.25738347  0.83770908  0.34491487  1
  Ni  Ni171  1  0.95718154  0.12585783  0.55835480  1
  Ni  Ni172  1  0.57554081  0.82654446  0.38890455  1
  Ni  Ni173  1  0.25823662  0.43613444  0.25610787  1
  Ni  Ni174  1  0.70551882  0.27172130  1.00181387  1
  Ni  Ni175  1  0.90729256  0.45544864  0.44136707  1
  Ni  Ni176  1  0.28456343  0.63104078  0.07809921  1
  Ni  Ni177  1  0.46961062  0.25480812  0.95117627  1
  Ni  Ni178  1  0.20114078  0.93413459  0.83471048  1
  Ni  Ni179  1  0.61690795  0.48191162  0.30816670  1
  Ni  Ni180  1  0.56676964  0.70161263  0.62660619  1
  Ni  Ni181  1  0.74334161  0.43809712  0.84171665  1
  Ni  Ni182  1  0.15262320  0.30340120  0.25265397  1
  Ni  Ni183  1  0.06888680  0.64624199  0.50686255  1
  Ni  Ni184  1  0.01932753  0.73377331  0.39028704  1
  Ni  Ni185  1  0.56811827  0.53939963  0.06510598  1
  Ni  Ni186  1  0.99875471  0.08610386  0.29377671  1
  Ni  Ni187  1  0.53694312  0.36782644  0.64224599  1
  Ni  Ni188  1  0.21609209  0.14581702  0.87770368  1
  Ni  Ni189  1  0.27422635  0.43085615  0.90326664  1
  Ni  Ni190  1  0.37434472  0.56611862  0.21646038  1
  Ni  Ni191  1  0.57153780  0.97109697  0.09859830  1
  Ni  Ni192  1  0.62986884  0.82663271  0.23527411  1
  Ni  Ni193  1  0.71340120  0.14981440  0.74343638  1
  Ni  Ni194  1  0.03577935  0.94318185  0.84041788  1
  Ni  Ni195  1  0.72593285  0.03143380  0.08427788  1
  Ni  Ni196  1  0.21086176  0.23910963  0.40008104  1
  Ni  Ni197  1  0.97067428  0.58156967  0.73890366  1
  Ni  Ni198  1  0.69463707  0.33068499  0.15674456  1
  Ni  Ni199  1  0.76097417  0.79707343  0.38086934  1
  Ni  Ni200  1  0.98865370  0.35668042  0.22580469  1
  Ni  Ni201  1  0.59381657  0.11367003  0.31201001  1
  Ni  Ni202  1  0.43252527  0.76404120  0.85210518  1
  Ni  Ni203  1  0.25622163  0.17621371  0.70545184  1
  Ni  Ni204  1  0.57439647  0.86700052  0.63242539  1
  Ni  Ni205  1  0.40731803  0.42978765  0.36736446  1
  Ni  Ni206  1  0.27135533  0.91258663  0.04273309  1
  Ni  Ni207  1  0.97683340  0.30420140  0.78169108  1
  Ni  Ni208  1  0.98395426  0.84797221  0.68640545  1
  Ni  Ni209  1  0.87718017  0.89986827  0.80153327  1
  Ni  Ni210  1  0.02456445  0.64919544  0.23510238  1
  Ni  Ni211  1  0.34928915  0.77270219  0.01998884  1
  Ni  Ni212  1  0.48709446  0.61587845  0.87781869  1
  Ni  Ni213  1  0.42768515  0.64604282  0.70457166  1
  Ni  Ni214  1  -0.01946382  0.93741568  0.21525534  1
  Ni  Ni215  1  0.05400103  0.05369565  0.11806210  1
