# generated using pymatgen
data_Ti2CoNi
_symmetry_space_group_name_H-M   'P 1'
_cell_length_a   14.56619857
_cell_length_b   14.60099301
_cell_length_c   14.62462267
_cell_angle_alpha   89.80001428
_cell_angle_beta   89.92474749
_cell_angle_gamma   89.79509392
_symmetry_Int_Tables_number   1
_chemical_formula_structural   Ti2CoNi
_chemical_formula_sum   'Ti108 Co54 Ni54'
_cell_volume   3110.33737080
_cell_formula_units_Z   54
loop_
 _symmetry_equiv_pos_site_id
 _symmetry_equiv_pos_as_xyz
  1  'x, y, z'
loop_
 _atom_site_type_symbol
 _atom_site_label
 _atom_site_symmetry_multiplicity
 _atom_site_fract_x
 _atom_site_fract_y
 _atom_site_fract_z
 _atom_site_occupancy
  Ti  Ti0  1  -0.04826707  -0.01874210  0.03649495  1
  Ti  Ti1  1  0.04995969  0.00282508  0.36926603  1
  Ti  Ti2  1  0.01585653  0.03333067  0.69922310  1
  Ti  Ti3  1  0.00506019  0.37138640  0.08688120  1
  Ti  Ti4  1  0.01160657  0.19497780  0.37710231  1
  Ti  Ti5  1  0.03140111  0.38343386  0.63457232  1
  Ti  Ti6  1  0.05734910  0.70476335  -0.04314798  1
  Ti  Ti7  1  0.04222058  0.69811609  0.31243036  1
  Ti  Ti8  1  0.01263774  0.57473519  0.67021260  1
  Ti  Ti9  1  0.28972176  0.08205789  -0.01427990  1
  Ti  Ti10  1  0.35856881  -0.10929848  0.35180900  1
  Ti  Ti11  1  0.27145275  -0.08793183  0.60698274  1
  Ti  Ti12  1  0.40309764  0.37582010  -0.05670682  1
  Ti  Ti13  1  0.31806347  0.31047292  0.37903820  1
  Ti  Ti14  1  0.33606259  0.30526706  0.72193834  1
  Ti  Ti15  1  0.27231175  0.60300177  -0.03274422  1
  Ti  Ti16  1  0.41876835  0.69808159  0.30799886  1
  Ti  Ti17  1  0.34388295  0.61938739  0.73458329  1
  Ti  Ti18  1  0.76024759  0.06246425  -0.02661970  1
  Ti  Ti19  1  0.61588909  0.02458527  0.40003444  1
  Ti  Ti20  1  0.65618249  0.03883562  0.60785535  1
  Ti  Ti21  1  0.62802742  0.39122717  -0.02099437  1
  Ti  Ti22  1  0.65043387  0.30843292  0.33079728  1
  Ti  Ti23  1  0.75928336  0.34261210  0.65733768  1
  Ti  Ti24  1  0.70878173  0.58602896  0.01357909  1
  Ti  Ti25  1  0.64491096  0.67178484  0.28392804  1
  Ti  Ti26  1  0.62467463  0.68296335  0.69104841  1
  Ti  Ti27  1  -0.01276655  0.11589688  0.18123624  1
  Ti  Ti28  1  -0.05088811  0.20832145  0.62956128  1
  Ti  Ti29  1  0.02306788  0.23675341  0.83351490  1
  Ti  Ti30  1  -0.01437942  0.55292213  0.19513706  1
  Ti  Ti31  1  -0.02043352  0.50485414  0.48088321  1
  Ti  Ti32  1  -0.03531935  0.49602617  0.85989163  1
  Ti  Ti33  1  -0.04340248  0.86065833  0.21764593  1
  Ti  Ti34  1  0.02080419  0.82566030  0.50294654  1
  Ti  Ti35  1  -0.01503190  0.76401401  0.77449931  1
  Ti  Ti36  1  0.34702684  0.17824035  0.16961896  1
  Ti  Ti37  1  0.38527292  0.15680353  0.47935235  1
  Ti  Ti38  1  0.28552497  0.11719719  0.77834606  1
  Ti  Ti39  1  0.31691565  0.47224527  0.12500136  1
  Ti  Ti40  1  0.33922981  0.45027649  0.52884650  1
  Ti  Ti41  1  0.26339681  0.47608975  0.83389449  1
  Ti  Ti42  1  0.33024499  0.79377665  0.17101066  1
  Ti  Ti43  1  0.30149194  0.75420540  0.46877290  1
  Ti  Ti44  1  0.33326252  0.90902011  0.87776327  1
  Ti  Ti45  1  0.68554693  0.12366298  0.23395103  1
  Ti  Ti46  1  0.72947067  0.23745444  0.49229813  1
  Ti  Ti47  1  0.64401220  0.15232042  0.77915200  1
  Ti  Ti48  1  0.63618147  0.45133390  0.17073250  1
  Ti  Ti49  1  0.74702058  0.47115979  0.46821375  1
  Ti  Ti50  1  0.62602357  0.57948442  0.85343748  1
  Ti  Ti51  1  0.64471614  0.82011540  0.12583779  1
  Ti  Ti52  1  0.68873737  0.84562734  0.52712982  1
  Ti  Ti53  1  0.64819735  0.83210420  0.82884499  1
  Ti  Ti54  1  0.24773633  -0.00192683  0.19860808  1
  Ti  Ti55  1  0.23659445  0.03261015  0.44489728  1
  Ti  Ti56  1  0.08811469  0.00502809  0.89048841  1
  Ti  Ti57  1  0.20268822  0.32981880  0.15603383  1
  Ti  Ti58  1  0.12177467  0.36298393  0.38474923  1
  Ti  Ti59  1  0.20945875  0.28883683  0.85751491  1
  Ti  Ti60  1  0.10961391  0.72468179  0.13968270  1
  Ti  Ti61  1  0.22773449  0.61621642  0.57525282  1
  Ti  Ti62  1  0.18911888  0.72026457  0.80066560  1
  Ti  Ti63  1  0.56962100  0.05101454  0.09347541  1
  Ti  Ti64  1  0.44953645  -0.01440204  0.56829468  1
  Ti  Ti65  1  0.45614179  0.07612294  0.85745852  1
  Ti  Ti66  1  0.54328497  0.25588276  0.13676941  1
  Ti  Ti67  1  0.46387259  0.31602980  0.58224734  1
  Ti  Ti68  1  0.53658396  0.32094507  0.77006592  1
  Ti  Ti69  1  0.45507865  0.59934986  0.15611745  1
  Ti  Ti70  1  0.55433204  0.60039484  0.44206390  1
  Ti  Ti71  1  0.49162575  0.72595301  0.85812464  1
  Ti  Ti72  1  0.78790210  -0.04098283  0.13951914  1
  Ti  Ti73  1  0.82926717  -0.00757713  0.50324083  1
  Ti  Ti74  1  0.86883233  -0.06520392  0.80297088  1
  Ti  Ti75  1  0.84239886  0.41804935  0.20221513  1
  Ti  Ti76  1  0.90296362  0.33206819  0.46830228  1
  Ti  Ti77  1  0.77892233  0.37166036  0.85344925  1
  Ti  Ti78  1  0.81979247  0.64256249  0.15708115  1
  Ti  Ti79  1  0.79978310  0.66796473  0.50107585  1
  Ti  Ti80  1  0.87181467  0.67796707  0.94597230  1
  Ti  Ti81  1  0.13373525  0.17742534  0.08699659  1
  Ti  Ti82  1  0.17342019  0.15592019  0.28152841  1
  Ti  Ti83  1  0.16783475  0.14481205  0.60052890  1
  Ti  Ti84  1  0.13064927  0.52675000  0.06846085  1
  Ti  Ti85  1  0.22406333  0.57146948  0.38061260  1
  Ti  Ti86  1  0.20724912  0.43749914  0.66696339  1
  Ti  Ti87  1  0.22752408  0.80420737  0.00189325  1
  Ti  Ti88  1  0.16001088  0.85574763  0.29573753  1
  Ti  Ti89  1  0.10739276  0.86288915  0.68854927  1
  Ti  Ti90  1  0.55453871  0.22544410  -0.05544157  1
  Ti  Ti91  1  0.48473349  0.20375104  0.32242733  1
  Ti  Ti92  1  0.46415880  0.14697876  0.67775073  1
  Ti  Ti93  1  0.51502595  0.54751842  -0.00200638  1
  Ti  Ti94  1  0.41958599  0.48128321  0.31435422  1
  Ti  Ti95  1  0.51614703  0.50221662  0.61535181  1
  Ti  Ti96  1  0.47344894  0.84889757  0.01920914  1
  Ti  Ti97  1  0.55331917  0.84777514  0.32607750  1
  Ti  Ti98  1  0.53930752  0.85501139  0.67400080  1
  Ti  Ti99  1  0.89518702  0.20161499  -0.00552864  1
  Ti  Ti100  1  0.84226603  0.21809439  0.30125745  1
  Ti  Ti101  1  0.84161662  0.18214650  0.79150401  1
  Ti  Ti102  1  0.84994663  0.47436656  0.02038218  1
  Ti  Ti103  1  0.87094085  0.56913089  0.34219811  1
  Ti  Ti104  1  0.78653429  0.55454596  0.68901921  1
  Ti  Ti105  1  0.78396023  0.84278165  -0.02353308  1
  Ti  Ti106  1  0.76663597  0.90909806  0.32966950  1
  Ti  Ti107  1  0.80008774  0.76782722  0.68825902  1
  Co  Co108  1  0.27007618  0.25106683  0.01293881  1
  Co  Co109  1  0.75903165  0.05174300  0.73965912  1
  Co  Co110  1  0.53633500  0.88485866  0.48502621  1
  Co  Co111  1  0.82488957  0.11373226  0.13288142  1
  Co  Co112  1  0.87589092  0.05327949  0.63738071  1
  Co  Co113  1  0.15271507  0.15151050  0.92943676  1
  Co  Co114  1  0.44443742  1.00705695  1.00456890  1
  Co  Co115  1  0.10155345  0.71176005  0.62517364  1
  Co  Co116  1  0.39773884  0.45125557  0.71815298  1
  Co  Co117  1  0.89896665  0.01789633  0.26532732  1
  Co  Co118  1  0.72468969  0.28865588  0.18804973  1
  Co  Co119  1  0.50424937  0.58837058  0.74823577  1
  Co  Co120  1  0.58300645  0.72516037  0.54441456  1
  Co  Co121  1  0.88273675  0.15772011  0.48915676  1
  Co  Co122  1  0.25974358  0.75486388  0.65405375  1
  Co  Co123  1  0.14522555  0.27778662  0.69328884  1
  Co  Co124  1  0.26220520  0.65697758  0.11486446  1
  Co  Co125  1  0.51648363  0.45326836  0.84681870  1
  Co  Co126  1  0.63054201  0.91779112  -0.00600596  1
  Co  Co127  1  0.93954409  0.34438255  0.92400556  1
  Co  Co128  1  0.31727236  0.58923216  0.24729689  1
  Co  Co129  1  0.16152906  0.58189808  0.73337770  1
  Co  Co130  1  0.19572422  0.19694641  0.43442682  1
  Co  Co131  1  0.06201756  0.86111359  0.04353109  1
  Co  Co132  1  0.57598849  0.99831067  0.75055463  1
  Co  Co133  1  0.23454962  0.72226336  0.29293007  1
  Co  Co134  1  0.59982297  0.06609449  0.92997545  1
  Co  Co135  1  0.36712363  0.32899242  0.21552850  1
  Co  Co136  1  0.95776015  0.40041409  0.32653932  1
  Co  Co137  1  0.73501132  0.53600024  0.26879111  1
  Co  Co138  1  0.25433923  0.43560888  0.28282073  1
  Co  Co139  1  0.40893231  0.57083963  0.88283289  1
  Co  Co140  1  0.40926917  0.81602077  0.58041956  1
  Co  Co141  1  0.06265327  0.54106037  0.35385493  1
  Co  Co142  1  0.68330687  0.18754489  0.06639587  1
  Co  Co143  1  0.20234152  0.33914403  0.53496951  1
  Co  Co144  1  0.08552642  0.40461664  0.79773716  1
  Co  Co145  1  0.94780586  0.84022280  0.92422397  1
  Co  Co146  1  0.72702907  0.90682778  0.68264791  1
  Co  Co147  1  0.09880373  0.30330932  0.97992485  1
  Co  Co148  1  0.03812325  0.10202559  0.50778091  1
  Co  Co149  1  0.51325663  0.36168572  0.26377532  1
  Co  Co150  1  0.46500851  0.75014320  0.44301561  1
  Co  Co151  1  0.77134192  0.17484208  0.63314827  1
  Co  Co152  1  0.38988547  0.22986508  0.85976379  1
  Co  Co153  1  0.30672550  0.23947865  0.58352886  1
  Co  Co154  1  0.91099656  0.79587881  0.07766962  1
  Co  Co155  1  0.71769334  0.76162555  0.39173378  1
  Co  Co156  1  0.15965293  0.58338570  0.22252313  1
  Co  Co157  1  0.79110637  0.38152949  0.34709018  1
  Co  Co158  1  0.07425910  0.97549896  0.19831356  1
  Co  Co159  1  0.06139642  0.26409578  0.52260928  1
  Co  Co160  1  0.31763170  0.07418625  0.61786457  1
  Co  Co161  1  0.70778133  0.96774625  0.85590423  1
  Ni  Ni162  1  0.11003250  0.84764300  0.87053862  1
  Ni  Ni163  1  0.40867086  0.69288197  0.02288452  1
  Ni  Ni164  1  0.89297115  0.26274692  0.15077879  1
  Ni  Ni165  1  0.78728170  0.79373261  0.20347535  1
  Ni  Ni166  1  0.50720914  0.06301801  0.25042946  1
  Ni  Ni167  1  0.61312298  0.23325986  0.62751555  1
  Ni  Ni168  1  0.63442375  0.95758863  0.22952059  1
  Ni  Ni169  1  0.64920928  0.46188608  0.73242492  1
  Ni  Ni170  1  0.12016549  0.55538065  0.89125008  1
  Ni  Ni171  1  0.56059735  0.25773167  0.46234730  1
  Ni  Ni172  1  0.42297175  0.17911653  0.02278058  1
  Ni  Ni173  1  0.38173469  0.59174284  0.44634595  1
  Ni  Ni174  1  0.60835889  0.47388836  0.34449594  1
  Ni  Ni175  1  0.14140518  0.48618961  0.51231636  1
  Ni  Ni176  1  0.74669928  0.69666910  0.83531647  1
  Ni  Ni177  1  0.72032808  0.22990993  0.91278582  1
  Ni  Ni178  1  0.92753933  0.88792007  0.63832770  1
  Ni  Ni179  1  0.89406290  0.63236296  0.78150595  1
  Ni  Ni180  1  0.93422237  0.71429809  0.61061384  1
  Ni  Ni181  1  0.48852536  0.40072552  0.43869026  1
  Ni  Ni182  1  0.04895389  0.27318274  0.22832363  1
  Ni  Ni183  1  0.18175956  0.87678587  0.45330029  1
  Ni  Ni184  1  0.62757850  0.38870804  0.54711068  1
  Ni  Ni185  1  0.87570312  0.45324214  0.59822130  1
  Ni  Ni186  1  0.45690776  0.91866688  0.18101452  1
  Ni  Ni187  1  0.92301427  0.89558830  0.38720227  1
  Ni  Ni188  1  0.63287494  0.73598036  0.97447998  1
  Ni  Ni189  1  0.97817296  0.57596869  0.03195321  1
  Ni  Ni190  1  0.14004827  0.01227557  0.05193383  1
  Ni  Ni191  1  0.91483660  0.34851400  0.75126942  1
  Ni  Ni192  1  0.97038561  0.66601285  0.45846993  1
  Ni  Ni193  1  0.22806637  0.41512808  0.98829205  1
  Ni  Ni194  1  0.38329169  0.80988464  0.74328123  1
  Ni  Ni195  1  0.12662934  0.12809717  0.76780367  1
  Ni  Ni196  1  0.66553606  0.57467989  0.57243184  1
  Ni  Ni197  1  0.50284913  0.75867654  0.17363274  1
  Ni  Ni198  1  0.93626813  0.07178710  0.87780785  1
  Ni  Ni199  1  0.09416469  0.43334775  0.22943271  1
  Ni  Ni200  1  0.10220973  0.96972383  0.55898999  1
  Ni  Ni201  1  0.42560042  0.65077401  0.59015039  1
  Ni  Ni202  1  0.76028706  0.10426135  0.39073060  1
  Ni  Ni203  1  0.31496238  0.92902709  0.06287647  1
  Ni  Ni204  1  0.39509607  -0.02279405  0.73311236  1
  Ni  Ni205  1  0.13806198  0.71031893  0.44730242  1
  Ni  Ni206  1  0.33333681  0.73584662  0.88283686  1
  Ni  Ni207  1  0.78381925  0.32890468  0.03829587  1
  Ni  Ni208  1  0.45021435  0.01524593  0.40060423  1
  Ni  Ni209  1  0.78828386  0.53517162  0.86834978  1
  Ni  Ni210  1  0.33510445  0.10147682  0.31825728  1
  Ni  Ni211  1  0.54324453  0.11572537  0.51795590  1
  Ni  Ni212  1  0.61888856  0.64012035  0.12919719  1
  Ni  Ni213  1  0.47674643  0.41637204  0.10583919  1
  Ni  Ni214  1  0.21411237  0.96391514  0.77012242  1
  Ni  Ni215  1  0.87571385  0.74474744  0.33544589  1
