# generated using pymatgen
data_Ti2CoNi
_symmetry_space_group_name_H-M   'P 1'
_cell_length_a   14.43955699
_cell_length_b   14.50984340
_cell_length_c   14.60035453
_cell_angle_alpha   89.99630215
_cell_angle_beta   89.79512385
_cell_angle_gamma   89.83882456
_symmetry_Int_Tables_number   1
_chemical_formula_structural   Ti2CoNi
_chemical_formula_sum   'Ti108 Co54 Ni54'
_cell_volume   3058.97199254
_cell_formula_units_Z   54
loop_
 _symmetry_equiv_pos_site_id
 _symmetry_equiv_pos_as_xyz
  1  'x, y, z'
loop_
 _atom_site_type_symbol
 _atom_site_label
 _atom_site_symmetry_multiplicity
 _atom_site_fract_x
 _atom_site_fract_y
 _atom_site_fract_z
 _atom_site_occupancy
  Ti  Ti0  1  0.00618629  0.03565861  -0.04673429  1
  Ti  Ti1  1  -0.03645383  0.04459363  0.38386211  1
  Ti  Ti2  1  0.01085367  -0.00121371  0.59073382  1
  Ti  Ti3  1  0.02374752  0.33610135  0.05989552  1
  Ti  Ti4  1  0.02389424  0.31996858  0.30572477  1
  Ti  Ti5  1  0.05106044  0.32707758  0.65088218  1
  Ti  Ti6  1  -0.02130419  0.63811763  -0.03253987  1
  Ti  Ti7  1  0.04913247  0.68604511  0.30415112  1
  Ti  Ti8  1  0.00387174  0.56409586  0.66368662  1
  Ti  Ti9  1  0.41822228  -0.00755205  0.02703337  1
  Ti  Ti10  1  0.31111619  0.05345877  0.39087547  1
  Ti  Ti11  1  0.38315185  -0.00874842  0.67009182  1
  Ti  Ti12  1  0.28130297  0.40320922  -0.00844143  1
  Ti  Ti13  1  0.33775544  0.39133123  0.34755373  1
  Ti  Ti14  1  0.42273943  0.31416188  0.69492446  1
  Ti  Ti15  1  0.29106947  0.70448680  0.01666444  1
  Ti  Ti16  1  0.32263916  0.73157833  0.35072292  1
  Ti  Ti17  1  0.32614740  0.65482528  0.64773423  1
  Ti  Ti18  1  0.71985346  -0.04876130  0.03092307  1
  Ti  Ti19  1  0.59877138  0.03234731  0.33296459  1
  Ti  Ti20  1  0.62094844  -0.06903091  0.68993387  1
  Ti  Ti21  1  0.63609522  0.25984456  0.02702977  1
  Ti  Ti22  1  0.63289852  0.29906960  0.24149962  1
  Ti  Ti23  1  0.72310717  0.38939049  0.65967261  1
  Ti  Ti24  1  0.72659839  0.76266009  0.00043945  1
  Ti  Ti25  1  0.69614955  0.72109951  0.32624099  1
  Ti  Ti26  1  0.69726062  0.70411518  0.63685442  1
  Ti  Ti27  1  0.06633777  0.17004659  0.12976187  1
  Ti  Ti28  1  0.00673458  0.22249561  0.49783717  1
  Ti  Ti29  1  -0.01199440  0.18480053  0.81513059  1
  Ti  Ti30  1  -0.05538815  0.56253090  0.14326415  1
  Ti  Ti31  1  -0.02721889  0.42593997  0.48558354  1
  Ti  Ti32  1  -0.03705097  0.41310289  0.79055837  1
  Ti  Ti33  1  -0.01502487  0.78777101  0.17069299  1
  Ti  Ti34  1  -0.03230627  0.73434013  0.53682345  1
  Ti  Ti35  1  -0.00777418  0.84959196  0.84725129  1
  Ti  Ti36  1  0.35764582  0.21309225  0.22982955  1
  Ti  Ti37  1  0.32191926  0.20121745  0.55333162  1
  Ti  Ti38  1  0.33645781  0.17668621  0.80846939  1
  Ti  Ti39  1  0.29941046  0.54497276  0.15038335  1
  Ti  Ti40  1  0.40215901  0.40878515  0.51555109  1
  Ti  Ti41  1  0.31104530  0.56899272  0.81334097  1
  Ti  Ti42  1  0.37996583  0.81160047  0.16291352  1
  Ti  Ti43  1  0.29294084  0.82683016  0.59297208  1
  Ti  Ti44  1  0.31155106  0.91492520  0.83438127  1
  Ti  Ti45  1  0.63440743  0.09993514  0.16406663  1
  Ti  Ti46  1  0.67714075  0.08079781  0.51678364  1
  Ti  Ti47  1  0.67662663  0.14969408  0.87621645  1
  Ti  Ti48  1  0.73962093  0.55239315  0.13311766  1
  Ti  Ti49  1  0.67909309  0.42572535  0.42147825  1
  Ti  Ti50  1  0.64129752  0.42779889  0.87248891  1
  Ti  Ti51  1  0.63867750  0.82496359  0.18073055  1
  Ti  Ti52  1  0.60195588  0.75480866  0.47987098  1
  Ti  Ti53  1  0.61825854  0.89954244  0.87509368  1
  Ti  Ti54  1  0.10173945  -0.00040815  0.23001005  1
  Ti  Ti55  1  0.20786146  -0.00147087  0.54798495  1
  Ti  Ti56  1  0.18159508  0.06755181  0.85821964  1
  Ti  Ti57  1  0.21146973  0.29330878  0.13651276  1
  Ti  Ti58  1  0.16927996  0.37592966  0.45991871  1
  Ti  Ti59  1  0.13688342  0.30038800  0.84465691  1
  Ti  Ti60  1  0.12004338  0.65228353  0.09630339  1
  Ti  Ti61  1  0.18976955  0.69582907  0.46159550  1
  Ti  Ti62  1  0.15848971  0.69855138  0.88566698  1
  Ti  Ti63  1  0.41450420  0.02943912  0.21580179  1
  Ti  Ti64  1  0.54125910  -0.07017207  0.47688247  1
  Ti  Ti65  1  0.50253971  0.04645388  0.83213372  1
  Ti  Ti66  1  0.47784476  0.46091993  0.12655265  1
  Ti  Ti67  1  0.58780775  0.32501382  0.56168943  1
  Ti  Ti68  1  0.52236433  0.25696861  0.83733239  1
  Ti  Ti69  1  0.55455125  0.66266966  0.21577331  1
  Ti  Ti70  1  0.43059415  0.61406952  0.49276449  1
  Ti  Ti71  1  0.52461121  0.70211296  0.76527243  1
  Ti  Ti72  1  0.87214850  0.07724105  0.15860959  1
  Ti  Ti73  1  0.84866264  -0.06324545  0.53539064  1
  Ti  Ti74  1  0.89155157  0.00777836  0.78943116  1
  Ti  Ti75  1  0.79601615  0.36071008  0.09817290  1
  Ti  Ti76  1  0.80601520  0.28249229  0.51234514  1
  Ti  Ti77  1  0.81986340  0.25717302  0.78606604  1
  Ti  Ti78  1  0.84730512  0.65908194  0.25115100  1
  Ti  Ti79  1  0.79317197  0.63349754  0.46687357  1
  Ti  Ti80  1  0.72715904  0.62445174  0.82649328  1
  Ti  Ti81  1  0.24709055  0.20891186  -0.02256557  1
  Ti  Ti82  1  0.14567264  0.16621483  0.31843580  1
  Ti  Ti83  1  0.10545451  0.13022524  0.68670004  1
  Ti  Ti84  1  0.08118079  0.47722035  -0.05624490  1
  Ti  Ti85  1  0.22206173  0.53971541  0.33848288  1
  Ti  Ti86  1  0.17877182  0.50137633  0.63194569  1
  Ti  Ti87  1  0.15199388  0.88893333  0.05445650  1
  Ti  Ti88  1  0.19179023  0.83476109  0.25050842  1
  Ti  Ti89  1  0.14366704  0.81143391  0.71241560  1
  Ti  Ti90  1  0.44456378  0.18855333  -0.01364543  1
  Ti  Ti91  1  0.44795844  0.23990515  0.41327953  1
  Ti  Ti92  1  0.60553024  0.13912432  0.69530189  1
  Ti  Ti93  1  0.52337017  0.57152448  -0.05639179  1
  Ti  Ti94  1  0.47301973  0.51956526  0.33788374  1
  Ti  Ti95  1  0.50030527  0.49168631  0.71972734  1
  Ti  Ti96  1  0.53463840  0.79786182  0.02920477  1
  Ti  Ti97  1  0.47713750  0.87045133  0.31364034  1
  Ti  Ti98  1  0.48672944  0.79507551  0.61498836  1
  Ti  Ti99  1  0.86965653  0.19921429  -0.01497736  1
  Ti  Ti100  1  0.76947883  0.14016985  0.32463151  1
  Ti  Ti101  1  0.81003476  0.07914321  0.66588055  1
  Ti  Ti102  1  0.85244199  0.49914475  -0.03484749  1
  Ti  Ti103  1  0.85197495  0.46670838  0.33055786  1
  Ti  Ti104  1  0.81824283  0.55124308  0.66272988  1
  Ti  Ti105  1  0.90571187  0.85672574  0.02260807  1
  Ti  Ti106  1  0.83628281  0.86662980  0.30900772  1
  Ti  Ti107  1  0.81573428  0.85823226  0.69665693  1
  Co  Co108  1  0.89133460  0.57168710  0.82088588  1
  Co  Co109  1  0.98821444  0.13881957  0.26581590  1
  Co  Co110  1  0.01470965  0.48520068  0.33717939  1
  Co  Co111  1  0.51523242  0.35605981  0.99006484  1
  Co  Co112  1  0.65682352  0.29028559  0.75443308  1
  Co  Co113  1  0.97178672  0.86302681  0.66829812  1
  Co  Co114  1  0.28877495  0.94605304  0.14150372  1
  Co  Co115  1  0.16784699  0.25152686  0.56189489  1
  Co  Co116  1  0.60884781  0.65208333  0.06437327  1
  Co  Co117  1  0.45940214  0.33532100  0.24926182  1
  Co  Co118  1  0.53322224  0.17542857  0.29071563  1
  Co  Co119  1  0.75228274  0.31987619  0.92648415  1
  Co  Co120  1  0.00185764  0.88562240  0.29025184  1
  Co  Co121  1  0.86133100  0.70205143  0.69853833  1
  Co  Co122  1  0.36130818  0.49312088  0.64457389  1
  Co  Co123  1  0.65357690  0.53692596  0.70731531  1
  Co  Co124  1  0.31145182  0.40232590  0.19336240  1
  Co  Co125  1  0.72957978  0.20676199  0.62634942  1
  Co  Co126  1  0.12437371  0.68541098  0.59705537  1
  Co  Co127  1  0.52915071  0.19131902  0.55712696  1
  Co  Co128  1  0.17036744  0.86745174  0.89551019  1
  Co  Co129  1  0.67991040  0.91072006  0.54581096  1
  Co  Co130  1  0.21506784  0.56535086  -0.02819421  1
  Co  Co131  1  0.00197189  0.70797080  0.76548357  1
  Co  Co132  1  0.52611030  0.03032473  0.59526066  1
  Co  Co133  1  0.51003542  0.21080649  0.13983789  1
  Co  Co134  1  0.33939011  0.05739579  0.91467326  1
  Co  Co135  1  0.32366833  0.12307209  0.09502668  1
  Co  Co136  1  0.31612953  0.90820229  0.30642504  1
  Co  Co137  1  0.38767407  0.30627924  0.08288168  1
  Co  Co138  1  0.21864591  0.25179966  0.71754803  1
  Co  Co139  1  0.69638849  0.56787955  0.96223428  1
  Co  Co140  1  0.63123378  0.22605994  0.42363949  1
  Co  Co141  1  0.79587234  0.42846727  0.79445453  1
  Co  Co142  1  0.05025944  0.56988673  0.82241347  1
  Co  Co143  1  0.53654029  0.37449304  0.38485974  1
  Co  Co144  1  0.59927830  0.59302629  0.42759824  1
  Co  Co145  1  0.48398621  0.87473639  0.76011013  1
  Co  Co146  1  0.10198415  0.81100389  0.38798906  1
  Co  Co147  1  0.59619749  0.70780488  0.90077839  1
  Co  Co148  1  0.78159611  0.81614079  0.46230142  1
  Co  Co149  1  0.25179559  0.07922005  0.23518117  1
  Co  Co150  1  0.26883416  0.10879840  0.67736681  1
  Co  Co151  1  0.42901345  0.72302069  0.91883079  1
  Co  Co152  1  0.65297941  0.87259769  0.34494133  1
  Co  Co153  1  0.75919909  0.21565275  0.14827387  1
  Co  Co154  1  0.17181050  0.64536903  0.73701555  1
  Co  Co155  1  0.12187143  0.44439704  0.76229549  1
  Co  Co156  1  0.37504674  0.31228252  0.89380323  1
  Co  Co157  1  0.37906824  0.96244032  0.51364127  1
  Co  Co158  1  0.91017797  0.74600582  0.38051681  1
  Co  Co159  1  0.46166442  0.88664806  0.91082010  1
  Co  Co160  1  0.64540392  0.44399680  0.04881037  1
  Co  Co161  1  0.49665332  0.71235440  0.36096238  1
  Ni  Ni162  1  0.72164194  0.78634223  0.80212554  1
  Ni  Ni163  1  0.27083516  0.53664478  0.50069523  1
  Ni  Ni164  1  0.91679194  0.20361188  0.64730475  1
  Ni  Ni165  1  0.55838602  0.63054188  0.59974740  1
  Ni  Ni166  1  0.24643676  0.87621552  0.44124479  1
  Ni  Ni167  1  0.91313260  0.25101361  0.17471993  1
  Ni  Ni168  1  0.17115955  0.06136362  0.06282785  1
  Ni  Ni169  1  0.72618510  0.11231319  0.03029516  1
  Ni  Ni170  1  0.10393937  0.53779920  0.22407383  1
  Ni  Ni171  1  0.27353897  0.36079238  0.61294843  1
  Ni  Ni172  1  0.89158500  0.39220827  0.63903124  1
  Ni  Ni173  1  0.59449523  0.46040028  0.23607076  1
  Ni  Ni174  1  0.47214701  0.08414533  0.44822701  1
  Ni  Ni175  1  0.19881939  0.32495273  0.29565502  1
  Ni  Ni176  1  0.69663601  0.53131969  0.55105740  1
  Ni  Ni177  1  0.28297793  0.22355317  0.39077971  1
  Ni  Ni178  1  0.81511386  0.88770322  0.89300935  1
  Ni  Ni179  1  0.15076734  0.45802251  0.09873111  1
  Ni  Ni180  1  0.35433942  0.77860217  0.75353391  1
  Ni  Ni181  1  0.28718824  0.38680925  0.77403924  1
  Ni  Ni182  1  0.43801298  0.66265647  0.08228244  1
  Ni  Ni183  1  0.07942437  0.19386769  0.96128841  1
  Ni  Ni184  1  0.85576592  0.69279193  0.07252786  1
  Ni  Ni185  1  0.76333194  -0.01099669  0.40039949  1
  Ni  Ni186  1  0.84075263  0.04288210  0.93966231  1
  Ni  Ni187  1  0.86383557  0.72640103  0.87500722  1
  Ni  Ni188  1  0.71637270  0.01552636  0.80261056  1
  Ni  Ni189  1  0.23488369  0.68446538  0.20594648  1
  Ni  Ni190  1  0.11328366  0.85425134  0.54922080  1
  Ni  Ni191  1  0.37617359  0.53222253  0.00028268  1
  Ni  Ni192  1  0.90106924  0.23133155  0.36758293  1
  Ni  Ni193  1  0.70628722  0.55118553  0.30523653  1
  Ni  Ni194  1  0.44039927  0.15223749  0.68177001  1
  Ni  Ni195  1  0.85833551  0.10876906  0.50256573  1
  Ni  Ni196  1  1.00430964  0.98761429  0.10283077  1
  Ni  Ni197  1  0.80136358  0.83466590  0.15367911  1
  Ni  Ni198  1  0.94085780  0.40884676  0.19051565  1
  Ni  Ni199  1  0.19969347  0.96433483  0.70630379  1
  Ni  Ni200  1  0.39870791  0.63937130  0.24502466  1
  Ni  Ni201  1  0.42825169  0.45225652  0.85870664  1
  Ni  Ni202  1  0.53960246  0.48255174  0.54679713  1
  Ni  Ni203  1  0.74001868  0.97898731  0.22734068  1
  Ni  Ni204  1  0.76980973  0.31879453  0.33699262  1
  Ni  Ni205  1  0.94271844  0.59453398  0.42430761  1
  Ni  Ni206  1  0.04901209  0.78448100  -0.00968222  1
  Ni  Ni207  1  0.92347598  0.34772100  0.92842049  1
  Ni  Ni208  1  0.14322255  0.11485295  0.46810245  1
  Ni  Ni209  1  0.97750330  0.88715141  0.44978280  1
  Ni  Ni210  1  0.41271205  0.81104566  0.46661426  1
  Ni  Ni211  1  0.54369869  0.95033456  0.11857123  1
  Ni  Ni212  1  0.05525521  -0.01490683  0.77687724  1
  Ni  Ni213  1  0.32549103  0.85774202  0.99220949  1
  Ni  Ni214  1  0.10284640  0.54714246  0.47402681  1
  Ni  Ni215  1  0.57156987  0.07028691  0.98521375  1
