# generated using pymatgen
data_Ti2CoNi
_symmetry_space_group_name_H-M   'P 1'
_cell_length_a   14.56977719
_cell_length_b   14.62702404
_cell_length_c   14.56224978
_cell_angle_alpha   90.23464355
_cell_angle_beta   90.02476479
_cell_angle_gamma   90.21830237
_symmetry_Int_Tables_number   1
_chemical_formula_structural   Ti2CoNi
_chemical_formula_sum   'Ti108 Co54 Ni54'
_cell_volume   3103.34832297
_cell_formula_units_Z   54
loop_
 _symmetry_equiv_pos_site_id
 _symmetry_equiv_pos_as_xyz
  1  'x, y, z'
loop_
 _atom_site_type_symbol
 _atom_site_label
 _atom_site_symmetry_multiplicity
 _atom_site_fract_x
 _atom_site_fract_y
 _atom_site_fract_z
 _atom_site_occupancy
  Ti  Ti0  1  -0.09715133  -0.02566668  0.04039349  1
  Ti  Ti1  1  -0.01269737  0.00532651  0.43676953  1
  Ti  Ti2  1  -0.04308151  0.08149150  0.68054923  1
  Ti  Ti3  1  -0.03934816  0.31779898  -0.02587045  1
  Ti  Ti4  1  0.08295230  0.41371854  0.31709170  1
  Ti  Ti5  1  -0.02040101  0.26594189  0.64980584  1
  Ti  Ti6  1  -0.02620831  0.65135310  0.03324423  1
  Ti  Ti7  1  0.07126243  0.62312667  0.33226207  1
  Ti  Ti8  1  0.03825243  0.60715316  0.71654144  1
  Ti  Ti9  1  0.34286981  -0.07846385  -0.01364683  1
  Ti  Ti10  1  0.34571928  0.05226566  0.36246379  1
  Ti  Ti11  1  0.39713314  -0.02290468  0.54437156  1
  Ti  Ti12  1  0.26492785  0.35435086  -0.00960867  1
  Ti  Ti13  1  0.33117848  0.34595394  0.40642968  1
  Ti  Ti14  1  0.39783042  0.38398100  0.64153219  1
  Ti  Ti15  1  0.33772966  0.72501317  -0.11343612  1
  Ti  Ti16  1  0.25355426  0.75870890  0.32552515  1
  Ti  Ti17  1  0.38920754  0.60348975  0.71806099  1
  Ti  Ti18  1  0.71447109  -0.00253339  0.04042182  1
  Ti  Ti19  1  0.66409976  0.01133325  0.35183385  1
  Ti  Ti20  1  0.73334163  0.03519566  0.70074292  1
  Ti  Ti21  1  0.60449934  0.32639056  0.06751753  1
  Ti  Ti22  1  0.61091155  0.32780230  0.26582305  1
  Ti  Ti23  1  0.64466404  0.37804524  0.72175264  1
  Ti  Ti24  1  0.69467015  0.68927337  -0.08643084  1
  Ti  Ti25  1  0.69397117  0.65195355  0.40786953  1
  Ti  Ti26  1  0.65294136  0.72970575  0.67881989  1
  Ti  Ti27  1  -0.04054519  0.17640625  0.13102599  1
  Ti  Ti28  1  -0.01401680  0.21030568  0.44350244  1
  Ti  Ti29  1  0.06478482  0.18126350  0.82523635  1
  Ti  Ti30  1  0.02239692  0.51481889  0.16285155  1
  Ti  Ti31  1  -0.04059914  0.49834615  0.44167297  1
  Ti  Ti32  1  0.02701824  0.41420597  0.77740221  1
  Ti  Ti33  1  -0.00618112  0.84505272  0.15857732  1
  Ti  Ti34  1  -0.03527388  0.82243895  0.46895196  1
  Ti  Ti35  1  0.02426326  0.85958887  0.86654573  1
  Ti  Ti36  1  0.29125841  0.08991603  0.17811979  1
  Ti  Ti37  1  0.38713462  0.18665709  0.51547393  1
  Ti  Ti38  1  0.31275186  0.17162695  0.90088670  1
  Ti  Ti39  1  0.35253484  0.52940712  0.12274142  1
  Ti  Ti40  1  0.26671703  0.47515911  0.52932380  1
  Ti  Ti41  1  0.33866003  0.49534423  0.86543572  1
  Ti  Ti42  1  0.32046606  0.80657243  0.15085866  1
  Ti  Ti43  1  0.34302367  0.77507893  0.50732833  1
  Ti  Ti44  1  0.31725221  0.89126880  0.78140335  1
  Ti  Ti45  1  0.64656068  0.13186774  0.18946790  1
  Ti  Ti46  1  0.71590592  0.15989276  0.49474815  1
  Ti  Ti47  1  0.64710490  0.18655227  0.81539753  1
  Ti  Ti48  1  0.69988948  0.56880960  0.09135255  1
  Ti  Ti49  1  0.71142273  0.48000954  0.54536227  1
  Ti  Ti50  1  0.72351556  0.50160776  0.85591945  1
  Ti  Ti51  1  0.67535225  0.74039173  0.15028111  1
  Ti  Ti52  1  0.63280184  0.83634339  0.46325116  1
  Ti  Ti53  1  0.62960866  0.87456207  0.85447464  1
  Ti  Ti54  1  0.09994310  0.03485097  0.12713448  1
  Ti  Ti55  1  0.18134920  -0.09056383  0.50427666  1
  Ti  Ti56  1  0.16150020  0.01436009  0.90026594  1
  Ti  Ti57  1  0.18716326  0.30331497  0.18178198  1
  Ti  Ti58  1  0.14700233  0.33544274  0.48455832  1
  Ti  Ti59  1  0.22084484  0.31935502  0.79025199  1
  Ti  Ti60  1  0.19511312  0.63533731  0.15348135  1
  Ti  Ti61  1  0.17643519  0.64568334  0.58525503  1
  Ti  Ti62  1  0.12061964  0.68378956  0.86770831  1
  Ti  Ti63  1  0.51546757  0.02023728  0.09710064  1
  Ti  Ti64  1  0.59435039  0.02510682  0.55271936  1
  Ti  Ti65  1  0.47236954  0.02560484  0.88161537  1
  Ti  Ti66  1  0.42666939  0.33518295  0.15817037  1
  Ti  Ti67  1  0.51982699  0.35946819  0.45173056  1
  Ti  Ti68  1  0.44295828  0.33382034  0.86114314  1
  Ti  Ti69  1  0.51594120  0.65439496  0.19660251  1
  Ti  Ti70  1  0.47675343  0.64399098  0.41571394  1
  Ti  Ti71  1  0.54306410  0.60218841  0.82745287  1
  Ti  Ti72  1  0.90330457  -0.01159587  0.24606259  1
  Ti  Ti73  1  0.83284114  -0.00495556  0.55816025  1
  Ti  Ti74  1  0.82887225  -0.03321072  0.84418049  1
  Ti  Ti75  1  0.88140562  0.35901264  0.18447401  1
  Ti  Ti76  1  0.82499809  0.32855459  0.50079278  1
  Ti  Ti77  1  0.77431569  0.29827847  0.87405397  1
  Ti  Ti78  1  0.85944583  0.64504620  0.21896330  1
  Ti  Ti79  1  0.91743883  0.65774503  0.56180262  1
  Ti  Ti80  1  0.82627557  0.67521522  0.76569068  1
  Ti  Ti81  1  0.13954691  0.20535171  0.01656002  1
  Ti  Ti82  1  0.14586646  0.15187096  0.30747366  1
  Ti  Ti83  1  0.22573402  0.14113071  0.67899079  1
  Ti  Ti84  1  0.12993144  0.48503109  0.01444315  1
  Ti  Ti85  1  0.26430927  0.52873904  0.32165314  1
  Ti  Ti86  1  0.21111415  0.47863163  0.69836499  1
  Ti  Ti87  1  0.14824239  0.77607532  0.02758262  1
  Ti  Ti88  1  0.09153187  0.84769587  0.33182667  1
  Ti  Ti89  1  0.13588597  0.83659185  0.70703886  1
  Ti  Ti90  1  0.54408576  0.17627844  -0.03308575  1
  Ti  Ti91  1  0.46516121  0.20218159  0.31206795  1
  Ti  Ti92  1  0.45289362  0.11646601  0.68439439  1
  Ti  Ti93  1  0.54577737  0.49968377  -0.01572716  1
  Ti  Ti94  1  0.47057908  0.48275903  0.29916409  1
  Ti  Ti95  1  0.54330364  0.58840049  0.59600561  1
  Ti  Ti96  1  0.53605718  0.84772054  0.02178316  1
  Ti  Ti97  1  0.49550313  0.87316884  0.23543624  1
  Ti  Ti98  1  0.54168154  0.90056802  0.68421835  1
  Ti  Ti99  1  0.86398390  0.13474091  -0.05861165  1
  Ti  Ti100  1  0.81154003  0.18583647  0.28623950  1
  Ti  Ti101  1  0.78729149  0.24322312  0.67323975  1
  Ti  Ti102  1  0.77313421  0.41416890  0.02350681  1
  Ti  Ti103  1  0.76755318  0.47694052  0.34035619  1
  Ti  Ti104  1  0.90409165  0.47532696  0.62585947  1
  Ti  Ti105  1  0.85695183  0.79673064  -0.06552826  1
  Ti  Ti106  1  0.78585176  0.82629533  0.29038752  1
  Ti  Ti107  1  0.87019213  0.83170268  0.64030623  1
  Co  Co108  1  0.95606237  0.68273327  0.87299703  1
  Co  Co109  1  0.20804851  0.92425166  0.08022821  1
  Co  Co110  1  0.68382170  0.35928376  0.41211570  1
  Co  Co111  1  0.75569623  1.00164571  0.21502582  1
  Co  Co112  1  0.66681792  0.31424618  0.56549132  1
  Co  Co113  1  0.89862717  0.54029810  0.77683654  1
  Co  Co114  1  0.15712633  0.80724059  0.18800302  1
  Co  Co115  1  0.07676382  0.48807295  0.59805533  1
  Co  Co116  1  0.52130300  0.24409447  0.56353957  1
  Co  Co117  1  0.26969148  0.29647810  0.59016503  1
  Co  Co118  1  0.26039630  0.06792882  0.52790591  1
  Co  Co119  1  0.02149764  0.10443100  -0.01103312  1
  Co  Co120  1  0.54781085  0.43105132  0.59990324  1
  Co  Co121  1  0.37438676  0.95840554  0.15663684  1
  Co  Co122  1  0.65756307  0.54976680  0.71446300  1
  Co  Co123  1  0.50171495  0.73385336  0.90965493  1
  Co  Co124  1  0.81166958  0.69103340  0.05643173  1
  Co  Co125  1  0.45932578  0.87105742  0.85555515  1
  Co  Co126  1  0.83995652  0.57829380  0.94200696  1
  Co  Co127  1  0.81163299  0.11661291  0.11974221  1
  Co  Co128  1  0.96594373  0.92625255  0.72874116  1
  Co  Co129  1  0.98054961  0.02633811  0.85877354  1
  Co  Co130  1  0.18231173  0.47019180  0.17913512  1
  Co  Co131  1  0.50600647  0.08993884  0.44042768  1
  Co  Co132  1  -0.01808643  0.75779743  0.73600666  1
  Co  Co133  1  0.11941262  0.08414610  0.45416534  1
  Co  Co134  1  0.72417606  0.43543559  0.18672833  1
  Co  Co135  1  0.16234248  0.48985624  0.85603648  1
  Co  Co136  1  0.92245242  0.49301932  0.28291753  1
  Co  Co137  1  0.19576211  0.85342988  0.89379442  1
  Co  Co138  1  0.05219597  0.92475276  1.01060677  1
  Co  Co139  1  0.57781464  0.66295665  0.02730348  1
  Co  Co140  1  0.83728530  0.13747709  0.78554148  1
  Co  Co141  1  0.59816208  0.22038378  0.40925782  1
  Co  Co142  1  0.93005892  0.27419439  0.80770689  1
  Co  Co143  1  0.87378358  0.15574646  0.54773331  1
  Co  Co144  1  0.29348871  0.22065843  0.08423139  1
  Co  Co145  1  0.86350394  0.52141732  0.10924871  1
  Co  Co146  1  0.40481234  0.10598892  0.02743846  1
  Co  Co147  1  0.73151782  0.26992844  0.16566056  1
  Co  Co148  1  0.80676739  0.40601044  0.72322197  1
  Co  Co149  1  0.59161008  0.51748922  0.43011342  1
  Co  Co150  1  0.87966868  0.42275780  0.87688945  1
  Co  Co151  1  0.50564805  0.18920322  0.14055415  1
  Co  Co152  1  0.12752433  0.33463648  0.65360190  1
  Co  Co153  1  0.13389678  0.52177500  0.44619159  1
  Co  Co154  1  0.25318837  0.07083891  1.01993419  1
  Co  Co155  1  0.11491340  0.18738737  0.57835872  1
  Co  Co156  1  0.42450428  0.27036711  1.01019712  1
  Co  Co157  1  0.49566092  0.46085475  0.76259346  1
  Co  Co158  1  0.41165980  0.59934565  0.96796623  1
  Co  Co159  1  1.05093189  0.75934287  0.59215442  1
  Co  Co160  1  0.40652810  0.43018053  0.00738693  1
  Co  Co161  1  0.82731769  0.26276648  0.04410727  1
  Ni  Ni162  1  0.82552150  0.84480733  0.12658535  1
  Ni  Ni163  1  0.64637031  0.57389288  0.26342351  1
  Ni  Ni164  1  0.70267391  0.88585974  0.61213802  1
  Ni  Ni165  1  0.51859907  0.75345385  0.56377892  1
  Ni  Ni166  1  0.24426730  0.96844635  0.65320809  1
  Ni  Ni167  1  0.23838796  0.61574202  0.78547492  1
  Ni  Ni168  1  0.35630345  0.24245596  0.73216023  1
  Ni  Ni169  1  0.97635498  0.12320137  0.30415609  1
  Ni  Ni170  1  0.32608181  0.05563458  0.78560806  1
  Ni  Ni171  1  0.23819755  0.61238825  -0.02422012  1
  Ni  Ni172  1  0.00615874  0.53087573  0.90567340  1
  Ni  Ni173  1  0.75872049  0.83172017  0.76794625  1
  Ni  Ni174  1  0.42327512  0.77359457  0.33811214  1
  Ni  Ni175  1  0.30392377  0.22867977  0.28165333  1
  Ni  Ni176  1  0.11008070  0.33860767  0.91298330  1
  Ni  Ni177  1  0.35749518  0.64940879  0.24331976  1
  Ni  Ni178  1  0.70907491  0.83246306  1.00834579  1
  Ni  Ni179  1  0.23833514  0.20181932  0.43933721  1
  Ni  Ni180  1  0.32249834  0.89628717  0.39301803  1
  Ni  Ni181  1  0.10724489  0.02378918  0.74048738  1
  Ni  Ni182  1  0.51764713  0.27741997  0.72331414  1
  Ni  Ni183  1  0.63012394  0.16771200  0.64963159  1
  Ni  Ni184  1  0.26956840  0.63429810  0.43919621  1
  Ni  Ni185  1  0.70334735  0.17175833  0.99979741  1
  Ni  Ni186  1  0.04796629  0.35099335  0.11062320  1
  Ni  Ni187  1  0.49609906  0.92735848  0.40580045  1
  Ni  Ni188  1  0.80084859  0.91898300  0.42099580  1
  Ni  Ni189  1  0.64341192  0.90253495  0.16423160  1
  Ni  Ni190  1  0.87066361  0.62501572  0.38549061  1
  Ni  Ni191  1  0.39443056  0.84293771  0.64352205  1
  Ni  Ni192  1  0.49324858  0.74528787  0.74159884  1
  Ni  Ni193  1  0.65086652  0.04152804  0.89736867  1
  Ni  Ni194  1  0.99179749  0.36378505  0.51884627  1
  Ni  Ni195  1  0.28251551  0.73648584  0.68201685  1
  Ni  Ni196  1  0.83763440  0.07558529  0.40102260  1
  Ni  Ni197  1  0.61231728  0.76927987  0.30704256  1
  Ni  Ni198  1  0.50573982  0.04289785  0.27276663  1
  Ni  Ni199  1  0.30979412  0.39432002  0.24891296  1
  Ni  Ni200  1  0.03489239  0.94019913  0.58587138  1
  Ni  Ni201  1  0.89871331  0.33565650  0.35194672  1
  Ni  Ni202  1  0.07845676  0.99723028  0.28307325  1
  Ni  Ni203  1  0.42911692  0.72814361  0.06606972  1
  Ni  Ni204  1  0.57830201  1.04380194  0.75281408  1
  Ni  Ni205  1  0.02538912  0.26909775  0.26004945  1
  Ni  Ni206  1  0.41774443  0.49338513  0.46625204  1
  Ni  Ni207  1  0.76758753  0.61715180  0.61687129  1
  Ni  Ni208  1  0.61039113  0.36393968  0.89364133  1
  Ni  Ni209  1  0.94514459  0.75946909  0.31557702  1
  Ni  Ni210  1  0.23244886  -0.05720656  0.25298403  1
  Ni  Ni211  1  0.13073648  0.73088084  0.45131623  1
  Ni  Ni212  1  0.04051628  0.69178602  0.18625351  1
  Ni  Ni213  1  0.55553031  0.46943327  0.15679213  1
  Ni  Ni214  1  0.80788326  0.75971023  0.46134467  1
  Ni  Ni215  1  0.37116181  0.62010248  0.56181278  1
