# generated using pymatgen
data_Ti2CoNi
_symmetry_space_group_name_H-M   'P 1'
_cell_length_a   14.48785387
_cell_length_b   14.48980534
_cell_length_c   14.52652019
_cell_angle_alpha   90.08025094
_cell_angle_beta   90.09437305
_cell_angle_gamma   89.71865209
_symmetry_Int_Tables_number   1
_chemical_formula_structural   Ti2CoNi
_chemical_formula_sum   'Ti108 Co54 Ni54'
_cell_volume   3049.45306806
_cell_formula_units_Z   54
loop_
 _symmetry_equiv_pos_site_id
 _symmetry_equiv_pos_as_xyz
  1  'x, y, z'
loop_
 _atom_site_type_symbol
 _atom_site_label
 _atom_site_symmetry_multiplicity
 _atom_site_fract_x
 _atom_site_fract_y
 _atom_site_fract_z
 _atom_site_occupancy
  Ti  Ti0  1  0.03156182  -0.05891603  0.01011036  1
  Ti  Ti1  1  -0.02808426  -0.02288620  0.36451184  1
  Ti  Ti2  1  -0.01597247  -0.08504880  0.64240221  1
  Ti  Ti3  1  -0.05986971  0.29707044  0.00074963  1
  Ti  Ti4  1  -0.04299126  0.34077371  0.30134312  1
  Ti  Ti5  1  -0.00674849  0.34484820  0.65754392  1
  Ti  Ti6  1  0.02038773  0.72164660  0.07002720  1
  Ti  Ti7  1  0.01510465  0.60787286  0.35285108  1
  Ti  Ti8  1  -0.03097169  0.60910703  0.68090860  1
  Ti  Ti9  1  0.30052270  0.11193289  -0.00403411  1
  Ti  Ti10  1  0.29914572  0.03502531  0.36145950  1
  Ti  Ti11  1  0.25692082  0.05399025  0.65931713  1
  Ti  Ti12  1  0.26395953  0.28504937  -0.04301434  1
  Ti  Ti13  1  0.27307422  0.35564527  0.37928826  1
  Ti  Ti14  1  0.37003562  0.34565632  0.69986722  1
  Ti  Ti15  1  0.42633623  0.64568370  0.06110611  1
  Ti  Ti16  1  0.32744228  0.66620137  0.28091732  1
  Ti  Ti17  1  0.31141895  0.63215175  0.63772435  1
  Ti  Ti18  1  0.65760850  -0.01194679  -0.05277524  1
  Ti  Ti19  1  0.58345321  0.01977652  0.33093437  1
  Ti  Ti20  1  0.68272253  0.07305971  0.61057185  1
  Ti  Ti21  1  0.78599836  0.44522977  -0.00261370  1
  Ti  Ti22  1  0.69607178  0.33205252  0.31138134  1
  Ti  Ti23  1  0.64247127  0.35886285  0.70983016  1
  Ti  Ti24  1  0.62044195  0.60972560  0.03776069  1
  Ti  Ti25  1  0.64157521  0.70577339  0.36420906  1
  Ti  Ti26  1  0.63001200  0.68133313  0.66633894  1
  Ti  Ti27  1  0.00018163  0.20899481  0.18061899  1
  Ti  Ti28  1  -0.08748474  0.19620456  0.57115476  1
  Ti  Ti29  1  0.02009816  0.11717598  0.85109919  1
  Ti  Ti30  1  -0.03537348  0.43068082  0.13643637  1
  Ti  Ti31  1  0.03879066  0.45042153  0.47281584  1
  Ti  Ti32  1  0.04938641  0.50367284  0.80697865  1
  Ti  Ti33  1  0.02250714  0.87094405  0.20033067  1
  Ti  Ti34  1  0.03412008  0.80639499  0.47350223  1
  Ti  Ti35  1  -0.07693184  0.78368655  0.76744471  1
  Ti  Ti36  1  0.39258204  0.19012238  0.17348492  1
  Ti  Ti37  1  0.35166464  0.17529882  0.48551539  1
  Ti  Ti38  1  0.35718952  0.18172260  0.81734165  1
  Ti  Ti39  1  0.36934769  0.48492397  0.16835494  1
  Ti  Ti40  1  0.39566950  0.49418452  0.49536033  1
  Ti  Ti41  1  0.37248481  0.59183795  0.84892852  1
  Ti  Ti42  1  0.34991900  0.93171277  0.10450234  1
  Ti  Ti43  1  0.33945782  0.91919442  0.52955292  1
  Ti  Ti44  1  0.32918943  0.85036076  0.75705520  1
  Ti  Ti45  1  0.70075290  0.08865312  0.08812330  1
  Ti  Ti46  1  0.66663368  0.15004630  0.41260416  1
  Ti  Ti47  1  0.72488552  0.14330644  0.88378907  1
  Ti  Ti48  1  0.66299469  0.44687235  0.17342616  1
  Ti  Ti49  1  0.69543439  0.49412651  0.61191955  1
  Ti  Ti50  1  0.60003169  0.47868688  0.89386671  1
  Ti  Ti51  1  0.65061338  0.76431564  0.19180372  1
  Ti  Ti52  1  0.70674079  0.88682704  0.45414857  1
  Ti  Ti53  1  0.67439089  0.84427291  0.79352470  1
  Ti  Ti54  1  0.23180265  0.08531117  0.19824773  1
  Ti  Ti55  1  0.13211650  0.02161770  0.49589736  1
  Ti  Ti56  1  0.18168814  -0.01255993  0.88146056  1
  Ti  Ti57  1  0.12300382  0.34733122  0.09554036  1
  Ti  Ti58  1  0.15719585  0.31228034  0.54929814  1
  Ti  Ti59  1  0.21426205  0.44870546  0.86123250  1
  Ti  Ti60  1  0.21008463  0.68122889  0.14557849  1
  Ti  Ti61  1  0.19314806  0.70485006  0.46031880  1
  Ti  Ti62  1  0.19909353  0.64347113  0.79263758  1
  Ti  Ti63  1  0.58377485  -0.06124615  0.14847757  1
  Ti  Ti64  1  0.50499935  0.03742839  0.51054267  1
  Ti  Ti65  1  0.49193689  -0.05185815  0.84510967  1
  Ti  Ti66  1  0.53689541  0.29604714  0.12345131  1
  Ti  Ti67  1  0.56760352  0.28430023  0.47653867  1
  Ti  Ti68  1  0.51814996  0.28455861  0.86463467  1
  Ti  Ti69  1  0.52966579  0.60659199  0.21755555  1
  Ti  Ti70  1  0.47247579  0.68516579  0.50631720  1
  Ti  Ti71  1  0.49449486  0.74404224  0.76509036  1
  Ti  Ti72  1  0.80321939  0.00116588  0.21274752  1
  Ti  Ti73  1  0.85042166  0.02064376  0.51514405  1
  Ti  Ti74  1  0.87764474  0.01071728  0.84886064  1
  Ti  Ti75  1  0.82357222  0.28072157  0.17343979  1
  Ti  Ti76  1  0.82796668  0.33976539  0.45299865  1
  Ti  Ti77  1  0.85431598  0.29767783  0.83386400  1
  Ti  Ti78  1  0.82745036  0.69979539  0.18146813  1
  Ti  Ti79  1  0.87604702  0.60384649  0.50399359  1
  Ti  Ti80  1  0.85943349  0.72492839  0.94080533  1
  Ti  Ti81  1  0.10090677  0.13711234  0.03823885  1
  Ti  Ti82  1  0.10077751  0.16015157  0.35575343  1
  Ti  Ti83  1  0.12534870  0.19503134  0.71834000  1
  Ti  Ti84  1  0.12800897  0.57948098  0.00612417  1
  Ti  Ti85  1  0.18573403  0.51470696  0.26490053  1
  Ti  Ti86  1  0.13312653  0.53802056  0.62711872  1
  Ti  Ti87  1  0.16707889  0.77480367  -0.06281824  1
  Ti  Ti88  1  0.23460807  0.85487613  0.26625036  1
  Ti  Ti89  1  0.11329822  0.74412317  0.65334310  1
  Ti  Ti90  1  0.48700735  0.07746138  0.02901724  1
  Ti  Ti91  1  0.46488656  0.15870866  0.34666913  1
  Ti  Ti92  1  0.45096495  0.14223095  0.67188276  1
  Ti  Ti93  1  0.42498693  0.43196887  -0.01295311  1
  Ti  Ti94  1  0.56231671  0.47229628  0.38733740  1
  Ti  Ti95  1  0.48936951  0.54277171  0.70850532  1
  Ti  Ti96  1  0.51264987  0.76947186  -0.05483478  1
  Ti  Ti97  1  0.46644714  0.83759382  0.28457781  1
  Ti  Ti98  1  0.56854829  0.87028936  0.61004091  1
  Ti  Ti99  1  0.72964102  0.26735707  0.02516858  1
  Ti  Ti100  1  0.86321292  0.17834205  0.35286402  1
  Ti  Ti101  1  0.76664963  0.20817262  0.71097185  1
  Ti  Ti102  1  0.93457053  0.55216801  0.00052930  1
  Ti  Ti103  1  0.74933504  0.50869520  0.35412933  1
  Ti  Ti104  1  0.86290227  0.44603025  0.71616103  1
  Ti  Ti105  1  0.82950489  0.86579737  0.07997502  1
  Ti  Ti106  1  0.85641000  0.82953862  0.32539407  1
  Ti  Ti107  1  0.78672819  0.77183061  0.61922990  1
  Co  Co108  1  0.56155973  0.25397831  0.28674983  1
  Co  Co109  1  0.08692880  0.15236688  0.57755020  1
  Co  Co110  1  0.87763368  0.58933235  0.82919606  1
  Co  Co111  1  0.72179367  0.93173658  0.62262154  1
  Co  Co112  1  0.82056105  0.01667399  0.00116141  1
  Co  Co113  1  0.72146637  0.01142438  0.78862985  1
  Co  Co114  1  0.75541117  0.46666163  0.82805987  1
  Co  Co115  1  0.61798973  0.22257819  0.60265960  1
  Co  Co116  1  0.15833148  0.83393188  0.09622618  1
  Co  Co117  1  0.41619682  0.23128440  0.98546115  1
  Co  Co118  1  0.65587329  0.57933533  0.77348565  1
  Co  Co119  1  0.69018096  0.31683327  0.86776134  1
  Co  Co120  1  0.79954047  0.44278094  0.21320923  1
  Co  Co121  1  0.44083161  0.97249996  0.65021637  1
  Co  Co122  1  0.78480089  0.70525276  0.78683120  1
  Co  Co123  1  0.72603642  0.73124557  0.02723534  1
  Co  Co124  1  0.52245912  0.62514987  0.87754861  1
  Co  Co125  1  0.92085700  0.44454105  0.87586512  1
  Co  Co126  1  0.63202662  0.84448974  0.02527327  1
  Co  Co127  1  0.14492498  0.25892785  0.24827963  1
  Co  Co128  1  0.23739496  0.28881204  0.79946954  1
  Co  Co129  1  0.88430730  0.86953565  0.49374351  1
  Co  Co130  1  0.13737609  0.97881537  0.32563618  1
  Co  Co131  1  0.73501000  0.59786685  0.92638867  1
  Co  Co132  1  0.36088079  0.32841141  0.09000779  1
  Co  Co133  1  0.19986764  0.18884583  0.46516286  1
  Co  Co134  1  0.82778365  0.89951001  0.73895495  1
  Co  Co135  1  0.18216573  0.14102258  0.87417037  1
  Co  Co136  1  0.68043295  0.38691351  0.49470477  1
  Co  Co137  1  0.03977855  0.66918998  0.89814389  1
  Co  Co138  1  0.79386911  0.57890596  0.08945174  1
  Co  Co139  1  0.43382334  0.34749546  0.41532378  1
  Co  Co140  1  0.04069073  0.63562026  0.51067444  1
  Co  Co141  1  0.79662054  0.60154241  0.66706174  1
  Co  Co142  1  0.38128073  0.31623191  0.25682653  1
  Co  Co143  1  0.22536301  0.22717401  0.12346566  1
  Co  Co144  1  0.89083633  0.55940692  0.22389882  1
  Co  Co145  1  0.43392932  1.01804030  0.21340993  1
  Co  Co146  1  0.07895242  0.78444287  0.80210043  1
  Co  Co147  1  0.29007600  0.20189654  0.31192743  1
  Co  Co148  1  0.93682115  0.08864057  0.25479799  1
  Co  Co149  1  0.65324114  0.73134900  0.88562377  1
  Co  Co150  1  0.96862714  0.82161259  0.93947488  1
  Co  Co151  1  0.25253643  0.37597959  0.19852241  1
  Co  Co152  1  0.85297671  0.06635953  0.67895643  1
  Co  Co153  1  0.61939534  0.19197898  0.76424112  1
  Co  Co154  1  0.62193662  0.37115981  1.00959485  1
  Co  Co155  1  0.03012311  0.93453187  0.83509949  1
  Co  Co156  1  0.37265733  0.48557202  0.32134195  1
  Co  Co157  1  0.18921220  0.87042953  0.74951397  1
  Co  Co158  1  0.10836363  0.01939865  0.71551812  1
  Co  Co159  1  0.52432352  0.10677405  0.85198063  1
  Co  Co160  1  0.79942193  0.74314475  0.43711255  1
  Co  Co161  1  0.78881056  0.87982047  0.91030355  1
  Ni  Ni162  1  0.33134288  0.94454118  0.93767304  1
  Ni  Ni163  1  0.26091325  0.56573494  0.41080549  1
  Ni  Ni164  1  0.98006159  0.71385399  0.23663646  1
  Ni  Ni165  1  0.64334355  0.75651166  0.51700009  1
  Ni  Ni166  1  0.67366213  0.59804911  0.49440201  1
  Ni  Ni167  1  0.55548723  0.12792671  0.17170271  1
  Ni  Ni168  1  0.44524183  0.27073957  0.57138192  1
  Ni  Ni169  1  0.05988436  0.58098701  0.16479841  1
  Ni  Ni170  1  0.89768624  0.48755603  0.35883196  1
  Ni  Ni171  1  0.93944648  0.19599295  0.72692162  1
  Ni  Ni172  1  0.19864767  0.87901529  0.42518354  1
  Ni  Ni173  1  0.08043021  0.28574589  0.89533972  1
  Ni  Ni174  1  0.10532232  0.37725980  0.34869163  1
  Ni  Ni175  1  0.52287376  0.47949730  0.09163323  1
  Ni  Ni176  1  0.34493221  0.78361890  0.16692866  1
  Ni  Ni177  1  0.26747653  0.77645880  0.58519975  1
  Ni  Ni178  1  0.70386228  0.15369550  0.24970997  1
  Ni  Ni179  1  0.20538669  0.99226757  0.06316133  1
  Ni  Ni180  1  0.43779206  0.79084737  0.62148521  1
  Ni  Ni181  1  0.06746266  0.02456988  0.17645504  1
  Ni  Ni182  1  0.53382246  0.84958521  0.44371759  1
  Ni  Ni183  1  0.92689963  0.99195899  0.11505004  1
  Ni  Ni184  1  0.43251283  0.42670709  0.81571578  1
  Ni  Ni185  1  0.09175939  0.78874624  0.33060436  1
  Ni  Ni186  1  0.34298800  0.75390474  0.86921326  1
  Ni  Ni187  1  0.57813447  1.01967541  0.73306653  1
  Ni  Ni188  1  0.75631641  0.01295552  0.36648710  1
  Ni  Ni189  1  0.88057302  0.44188080  0.54637847  1
  Ni  Ni190  1  0.87655972  0.17077058  0.92793311  1
  Ni  Ni191  1  0.49963314  0.77870458  0.11936271  1
  Ni  Ni192  1  0.58459034  0.19822662  -0.00922358  1
  Ni  Ni193  1  0.54797387  0.54758497  0.55446412  1
  Ni  Ni194  1  0.69097016  0.60856504  0.24246998  1
  Ni  Ni195  1  0.24839714  0.46058995  0.54871797  1
  Ni  Ni196  1  0.49903164  0.40913926  0.62598046  1
  Ni  Ni197  1  0.25188557  0.46639463  1.04424255  1
  Ni  Ni198  1  0.34552073  0.81941847  0.38996457  1
  Ni  Ni199  1  -0.01051228  0.10835746  0.44508698  1
  Ni  Ni200  1  0.28348166  0.63306771  -0.01544072  1
  Ni  Ni201  1  0.76667817  0.20077823  0.52470254  1
  Ni  Ni202  1  0.43970071  -0.02994010  0.37951725  1
  Ni  Ni203  1  1.01377604  0.27607724  0.45377856  1
  Ni  Ni204  1  0.51489856  0.42830558  0.26051686  1
  Ni  Ni205  1  0.15681876  0.39763493  0.71452739  1
  Ni  Ni206  1  0.46849766  0.68345628  0.34365431  1
  Ni  Ni207  1  0.36507553  0.02535228  0.78887124  1
  Ni  Ni208  1  0.15487781  0.88903769  0.60013784  1
  Ni  Ni209  1  0.49320405  -0.08590838  0.01360679  1
  Ni  Ni210  1  0.68990771  0.88654743  0.27687781  1
  Ni  Ni211  1  0.04447289  0.43271500  -0.02145660  1
  Ni  Ni212  1  0.94831851  0.75681328  0.60843276  1
  Ni  Ni213  1  0.28787026  0.50236370  0.73313017  1
  Ni  Ni214  1  0.87718857  0.16212145  0.08754139  1
  Ni  Ni215  1  0.27824480  0.21621454  0.63623432  1
