# generated using pymatgen
data_Ti2CoNi
_symmetry_space_group_name_H-M   'P 1'
_cell_length_a   14.61059642
_cell_length_b   14.64168656
_cell_length_c   14.61120553
_cell_angle_alpha   90.03836053
_cell_angle_beta   90.24640945
_cell_angle_gamma   90.12164763
_symmetry_Int_Tables_number   1
_chemical_formula_structural   Ti2CoNi
_chemical_formula_sum   'Ti108 Co54 Ni54'
_cell_volume   3125.64754924
_cell_formula_units_Z   54
loop_
 _symmetry_equiv_pos_site_id
 _symmetry_equiv_pos_as_xyz
  1  'x, y, z'
loop_
 _atom_site_type_symbol
 _atom_site_label
 _atom_site_symmetry_multiplicity
 _atom_site_fract_x
 _atom_site_fract_y
 _atom_site_fract_z
 _atom_site_occupancy
  Ti  Ti0  1  0.04820424  -0.02039159  -0.02078113  1
  Ti  Ti1  1  0.06878680  0.04034182  0.28440553  1
  Ti  Ti2  1  0.04304912  0.00547851  0.67435423  1
  Ti  Ti3  1  0.00838374  0.31762205  -0.05224494  1
  Ti  Ti4  1  0.04044130  0.34243098  0.33806438  1
  Ti  Ti5  1  -0.03336760  0.36158299  0.65127715  1
  Ti  Ti6  1  -0.08918622  0.66792153  0.05917238  1
  Ti  Ti7  1  0.04845963  0.69129549  0.33446545  1
  Ti  Ti8  1  -0.05585595  0.71776063  0.70454321  1
  Ti  Ti9  1  0.30938877  0.01915840  -0.00288158  1
  Ti  Ti10  1  0.29106138  0.02360707  0.35150514  1
  Ti  Ti11  1  0.26966564  0.04997144  0.65568692  1
  Ti  Ti12  1  0.28010163  0.24518257  -0.00939749  1
  Ti  Ti13  1  0.26593906  0.33126622  0.28334089  1
  Ti  Ti14  1  0.31819861  0.35081858  0.69505502  1
  Ti  Ti15  1  0.35184679  0.59626168  -0.03741245  1
  Ti  Ti16  1  0.35352772  0.61045834  0.34236772  1
  Ti  Ti17  1  0.39185864  0.64929041  0.67910139  1
  Ti  Ti18  1  0.69906951  -0.07808448  -0.03416647  1
  Ti  Ti19  1  0.64803448  0.04806573  0.33925972  1
  Ti  Ti20  1  0.57541893  -0.01366085  0.62681057  1
  Ti  Ti21  1  0.62163173  0.38616017  0.00044136  1
  Ti  Ti22  1  0.70572436  0.29874955  0.34120038  1
  Ti  Ti23  1  0.69902323  0.26853107  0.70628482  1
  Ti  Ti24  1  0.65977342  0.72655642  0.06461065  1
  Ti  Ti25  1  0.69372237  0.62110623  0.32271540  1
  Ti  Ti26  1  0.66707789  0.67722074  0.63377183  1
  Ti  Ti27  1  -0.06380912  0.18151616  0.19507747  1
  Ti  Ti28  1  -0.03767001  0.25569968  0.49247457  1
  Ti  Ti29  1  -0.00576573  0.14194910  0.84593788  1
  Ti  Ti30  1  0.08334462  0.58508943  0.13400700  1
  Ti  Ti31  1  0.06626370  0.47617423  0.51251354  1
  Ti  Ti32  1  -0.00555719  0.44778579  0.81936415  1
  Ti  Ti33  1  -0.08749511  0.88710930  0.09747623  1
  Ti  Ti34  1  -0.08692549  0.78508405  0.48598725  1
  Ti  Ti35  1  0.02233286  0.85465473  0.81706664  1
  Ti  Ti36  1  0.37922541  0.17227886  0.14017337  1
  Ti  Ti37  1  0.41103380  0.09189866  0.52420776  1
  Ti  Ti38  1  0.29659607  0.16032818  0.81344952  1
  Ti  Ti39  1  0.36402561  0.49373681  0.17913892  1
  Ti  Ti40  1  0.33890340  0.48438468  0.47718233  1
  Ti  Ti41  1  0.32905530  0.49173267  0.81413386  1
  Ti  Ti42  1  0.37457728  0.88574588  0.11514383  1
  Ti  Ti43  1  0.33863710  0.76711235  0.54032179  1
  Ti  Ti44  1  0.31875729  0.83927906  0.89078084  1
  Ti  Ti45  1  0.68037394  0.13992163  0.15304947  1
  Ti  Ti46  1  0.70280476  0.16288074  0.52182306  1
  Ti  Ti47  1  0.65370118  0.18426984  0.94253006  1
  Ti  Ti48  1  0.65178300  0.46957418  0.20688422  1
  Ti  Ti49  1  0.69405107  0.48305611  0.57577662  1
  Ti  Ti50  1  0.64159225  0.53710897  0.78011900  1
  Ti  Ti51  1  0.68857982  0.82624251  0.26813483  1
  Ti  Ti52  1  0.69777475  0.78914458  0.46692868  1
  Ti  Ti53  1  0.68666719  0.83403862  0.77018662  1
  Ti  Ti54  1  0.18648269  0.05169832  0.13908496  1
  Ti  Ti55  1  0.11086202  -0.00828939  0.47262836  1
  Ti  Ti56  1  0.19184275  -0.02587852  0.81447415  1
  Ti  Ti57  1  0.06818865  0.36307400  0.15697605  1
  Ti  Ti58  1  0.28461151  0.27273415  0.52021398  1
  Ti  Ti59  1  0.18201501  0.35852010  0.84910087  1
  Ti  Ti60  1  0.28846368  0.67451343  0.14546252  1
  Ti  Ti61  1  0.08060401  0.66521611  0.54021082  1
  Ti  Ti62  1  0.07606055  0.70313559  0.95217722  1
  Ti  Ti63  1  0.52855147  -0.02236655  0.21771709  1
  Ti  Ti64  1  0.46501737  -0.08481013  0.45914269  1
  Ti  Ti65  1  0.58536032  0.02041334  0.82529357  1
  Ti  Ti66  1  0.51319208  0.33081860  0.15227960  1
  Ti  Ti67  1  0.46958628  0.31689065  0.55510096  1
  Ti  Ti68  1  0.53867407  0.37524530  0.81640593  1
  Ti  Ti69  1  0.49605791  0.60603715  0.09126399  1
  Ti  Ti70  1  0.51521440  0.69158412  0.38042209  1
  Ti  Ti71  1  0.45438661  0.71346076  0.86068526  1
  Ti  Ti72  1  0.74243334  -0.04035974  0.15350891  1
  Ti  Ti73  1  0.81478050  -0.01608307  0.50220424  1
  Ti  Ti74  1  0.78910638  0.06445980  0.85815351  1
  Ti  Ti75  1  0.85959145  0.40543932  0.21424327  1
  Ti  Ti76  1  0.79272226  0.34304204  0.51432387  1
  Ti  Ti77  1  0.85820879  0.28672925  0.80378757  1
  Ti  Ti78  1  0.88199962  0.60905245  0.24516577  1
  Ti  Ti79  1  0.79948320  0.61754554  0.47106995  1
  Ti  Ti80  1  0.82679888  0.56130118  0.87806279  1
  Ti  Ti81  1  0.07955091  0.18405149  0.05006692  1
  Ti  Ti82  1  0.15809748  0.19995774  0.39229783  1
  Ti  Ti83  1  0.11303008  0.15677650  0.58408026  1
  Ti  Ti84  1  0.15305275  0.55013299  -0.11172088  1
  Ti  Ti85  1  0.17211596  0.51841907  0.31885520  1
  Ti  Ti86  1  0.18579386  0.56526670  0.68716684  1
  Ti  Ti87  1  0.19783931  0.85580234  0.07975553  1
  Ti  Ti88  1  0.16105750  0.86420892  0.30896259  1
  Ti  Ti89  1  0.09982708  0.82829741  0.61957681  1
  Ti  Ti90  1  0.46066704  0.11586100  -0.06931397  1
  Ti  Ti91  1  0.52078371  0.20973060  0.39637378  1
  Ti  Ti92  1  0.54267908  0.17498967  0.64534641  1
  Ti  Ti93  1  0.43310864  0.42929432  -0.01030374  1
  Ti  Ti94  1  0.53438434  0.48262635  0.42248687  1
  Ti  Ti95  1  0.45760167  0.48135077  0.63889048  1
  Ti  Ti96  1  0.49020889  0.91306001  -0.03238339  1
  Ti  Ti97  1  0.45248531  0.76226981  0.22248494  1
  Ti  Ti98  1  0.50936240  0.80899108  0.66919278  1
  Ti  Ti99  1  0.82068016  0.23757586  0.00281676  1
  Ti  Ti100  1  0.82794379  0.11859497  0.35220108  1
  Ti  Ti101  1  0.85385784  0.08279657  0.67504560  1
  Ti  Ti102  1  0.79724881  0.51154312  0.05478751  1
  Ti  Ti103  1  0.87087065  0.45311688  0.38981217  1
  Ti  Ti104  1  0.84363289  0.54144520  0.69157080  1
  Ti  Ti105  1  0.79602275  0.76636866  -0.04986279  1
  Ti  Ti106  1  0.94547259  0.87249865  0.30761134  1
  Ti  Ti107  1  0.87018970  0.89079570  0.67572912  1
  Co  Co108  1  0.34716416  0.18918133  0.39327814  1
  Co  Co109  1  0.69767277  0.46431631  0.39965314  1
  Co  Co110  1  0.46165563  0.05963011  0.35693040  1
  Co  Co111  1  0.87169027  0.95165107  -0.04064385  1
  Co  Co112  1  -0.01948392  0.55167448  0.96316448  1
  Co  Co113  1  0.10276239  0.69492543  0.76119893  1
  Co  Co114  1  0.20742669  0.26266509  0.13671153  1
  Co  Co115  1  0.87117495  0.40448287  0.95042025  1
  Co  Co116  1  0.13402899  0.11337755  0.75511140  1
  Co  Co117  1  0.34989942  0.80335937  0.73115523  1
  Co  Co118  1  0.88484396  0.01181098  0.23312380  1
  Co  Co119  1  0.95604465  0.48640780  0.10572654  1
  Co  Co120  1  0.53429221  0.53682338  0.92806073  1
  Co  Co121  1  0.46089790  0.03858012  0.08508127  1
  Co  Co122  1  0.89718640  0.47299629  0.54996037  1
  Co  Co123  1  0.23171699  0.89104620  0.66555810  1
  Co  Co124  1  0.63615072  0.54433206  0.05009859  1
  Co  Co125  1  0.13650948  0.21665196  0.87760124  1
  Co  Co126  1  0.75155485  0.35851179  0.08763158  1
  Co  Co127  1  0.73899844  0.61890725  0.16331217  1
  Co  Co128  1  0.98374175  0.60229858  0.81096763  1
  Co  Co129  1  0.58181028  0.69006217  0.77000551  1
  Co  Co130  1  0.78621114  0.69653505  0.78219016  1
  Co  Co131  1  0.01660971  0.53959762  0.66349897  1
  Co  Co132  1  0.80082711  0.75377525  0.60996253  1
  Co  Co133  1  0.95713859  0.09597490  0.53764928  1
  Co  Co134  1  0.72893245  0.34424881  0.89060713  1
  Co  Co135  1  0.83667217  0.86595807  0.83026050  1
  Co  Co136  1  0.28649272  0.81077890  0.23340542  1
  Co  Co137  1  0.56960992  0.07651424  0.49067949  1
  Co  Co138  1  0.07130233  0.82611746  0.44572378  1
  Co  Co139  1  0.33824576  1.01996790  0.19413446  1
  Co  Co140  1  0.92463841  0.31827282  0.09186421  1
  Co  Co141  1  0.09485904  0.20080335  0.23209718  1
  Co  Co142  1  0.93158649  0.73075128  0.88075440  1
  Co  Co143  1  0.40057291  0.91046407  0.30155143  1
  Co  Co144  1  0.36212000  0.77659565  0.37641589  1
  Co  Co145  1  0.19940170  0.24458263  0.69584933  1
  Co  Co146  1  0.74817804  0.41947087  0.75029364  1
  Co  Co147  1  0.00737702  0.04836123  0.12722728  1
  Co  Co148  1  0.47056044  0.55457166  0.78932507  1
  Co  Co149  1  0.79020338  0.93349750  0.34623039  1
  Co  Co150  1  0.55420182  0.84616863  0.34664922  1
  Co  Co151  1  0.91884117  0.63411810  0.57003402  1
  Co  Co152  1  0.94673342  1.00648080  0.39597240  1
  Co  Co153  1  0.41522530  0.27337126  0.26580600  1
  Co  Co154  1  0.21634826  0.56210335  0.04914795  1
  Co  Co155  1  0.09728509  0.43934725  0.00266393  1
  Co  Co156  1  -0.00493753  0.16132021  0.36622947  1
  Co  Co157  1  0.36468140  0.99843790  0.84657890  1
  Co  Co158  1  0.22843844  0.71742267  0.65053791  1
  Co  Co159  1  0.34747613  0.34377573  0.12045902  1
  Co  Co160  1  0.60753240  0.03727149  1.02214353  1
  Co  Co161  1  0.76887776  0.06868398  0.02648553  1
  Ni  Ni162  1  0.36849290  0.19560887  0.65477214  1
  Ni  Ni163  1  0.82892554  0.74628905  0.34124050  1
  Ni  Ni164  1  1.00930606  0.49935902  0.27568972  1
  Ni  Ni165  1  0.06599561  0.90210875  0.16878827  1
  Ni  Ni166  1  0.15389580  0.85124447  0.92097824  1
  Ni  Ni167  1  0.41229279  0.74998395  0.02842969  1
  Ni  Ni168  1  0.12421645  0.40596089  0.70278246  1
  Ni  Ni169  1  0.98857594  0.19365691  0.68573974  1
  Ni  Ni170  1  0.24629808  0.09782961  0.49653725  1
  Ni  Ni171  1  0.25572393  0.89034860  0.46084936  1
  Ni  Ni172  1  0.11687826  0.31831721  0.55788409  1
  Ni  Ni173  1  0.53760744  0.16100696  0.23670104  1
  Ni  Ni174  1  0.78680683  0.25057637  0.20283940  1
  Ni  Ni175  1  0.45027716  0.60783934  0.51849738  1
  Ni  Ni176  1  0.56874043  0.86156647  0.10590635  1
  Ni  Ni177  1  0.48722383  0.27662547  0.94781544  1
  Ni  Ni178  1  0.96968121  0.74887590  0.19453684  1
  Ni  Ni179  1  0.48115477  0.89329953  0.80038398  1
  Ni  Ni180  1  -0.02592462  0.92751392  0.54057830  1
  Ni  Ni181  1  0.56892412  0.20183847  0.80573121  1
  Ni  Ni182  1  0.17353128  0.08512728  0.95164782  1
  Ni  Ni183  1  0.96650421  0.58570929  0.42324489  1
  Ni  Ni184  1  0.40702619  0.35132281  0.40491878  1
  Ni  Ni185  1  0.21673474  0.59783244  0.47596520  1
  Ni  Ni186  1  0.62552289  0.33259997  0.49429036  1
  Ni  Ni187  1  0.92655440  0.10914471  0.99535150  1
  Ni  Ni188  1  0.26648556  0.42230540  0.98515016  1
  Ni  Ni189  1  0.80402319  0.77263968  0.15421830  1
  Ni  Ni190  1  0.18699108  0.38282632  0.42490832  1
  Ni  Ni191  1  0.27268444  0.66657498  0.81316114  1
  Ni  Ni192  1  0.55418108  0.35997894  0.31497282  1
  Ni  Ni193  1  0.23097436  0.44059727  0.58275557  1
  Ni  Ni194  1  0.59559031  0.69258427  0.21143132  1
  Ni  Ni195  1  0.59225072  0.38755800  0.65551731  1
  Ni  Ni196  1  0.13109296  0.74176355  0.17940495  1
  Ni  Ni197  1  0.84562216  0.23048954  0.61693901  1
  Ni  Ni198  1  0.93658318  0.99610505  0.81163871  1
  Ni  Ni199  1  0.71161918  0.89339874  0.61066700  1
  Ni  Ni200  1  0.35838823  0.32996933  0.86109430  1
  Ni  Ni201  1  0.24042491  0.71596906  0.98140068  1
  Ni  Ni202  1  0.65289252  -0.05788196  0.45946776  1
  Ni  Ni203  1  0.38573287  0.92526799  0.61151179  1
  Ni  Ni204  1  0.62638849  0.60942595  0.48422937  1
  Ni  Ni205  1  0.21369932  0.68911981  0.31736790  1
  Ni  Ni206  1  0.59841418  0.79749218  0.90688050  1
  Ni  Ni207  1  0.20971085  0.43907453  0.15396467  1
  Ni  Ni208  1  0.49974449  0.56539857  0.26117895  1
  Ni  Ni209  1  0.54001646  0.74965856  0.52781930  1
  Ni  Ni210  1  0.67416677  0.64624934  0.90854645  1
  Ni  Ni211  1  0.25233633  0.15567900  0.25570434  1
  Ni  Ni212  1  0.68826699  0.09190865  0.70976537  1
  Ni  Ni213  1  0.54143726  0.18651260  0.07105325  1
  Ni  Ni214  1  0.87726795  0.28305632  0.34347359  1
  Ni  Ni215  1  0.44136784  0.05421458  0.71503521  1
