# generated using pymatgen
data_Ti2CoNi
_symmetry_space_group_name_H-M   'P 1'
_cell_length_a   14.60276406
_cell_length_b   14.61674965
_cell_length_c   14.60147759
_cell_angle_alpha   89.97629064
_cell_angle_beta   90.02928732
_cell_angle_gamma   89.77585798
_symmetry_Int_Tables_number   1
_chemical_formula_structural   Ti2CoNi
_chemical_formula_sum   'Ti108 Co54 Ni54'
_cell_volume   3116.58707641
_cell_formula_units_Z   54
loop_
 _symmetry_equiv_pos_site_id
 _symmetry_equiv_pos_as_xyz
  1  'x, y, z'
loop_
 _atom_site_type_symbol
 _atom_site_label
 _atom_site_symmetry_multiplicity
 _atom_site_fract_x
 _atom_site_fract_y
 _atom_site_fract_z
 _atom_site_occupancy
  Ti  Ti0  1  0.06671239  -0.00800179  0.03630925  1
  Ti  Ti1  1  0.00791627  -0.05196349  0.21666259  1
  Ti  Ti2  1  0.06378632  0.02986656  0.68039742  1
  Ti  Ti3  1  -0.03521978  0.38997192  0.00233057  1
  Ti  Ti4  1  0.01888375  0.36207734  0.34216345  1
  Ti  Ti5  1  -0.02234558  0.30584117  0.70509427  1
  Ti  Ti6  1  0.01031449  0.68912876  0.02884399  1
  Ti  Ti7  1  0.01921104  0.67190046  0.44942666  1
  Ti  Ti8  1  -0.04434780  0.64270438  0.65146938  1
  Ti  Ti9  1  0.32858293  0.04051098  -0.02608435  1
  Ti  Ti10  1  0.34610060  -0.04324756  0.35842421  1
  Ti  Ti11  1  0.35057118  -0.05362311  0.63662881  1
  Ti  Ti12  1  0.30918165  0.31617925  0.05209936  1
  Ti  Ti13  1  0.30329982  0.33452180  0.37587417  1
  Ti  Ti14  1  0.31627783  0.33054554  0.59003904  1
  Ti  Ti15  1  0.32571997  0.61027729  0.01649194  1
  Ti  Ti16  1  0.18234908  0.66744634  0.33799471  1
  Ti  Ti17  1  0.35704552  0.72973373  0.65507850  1
  Ti  Ti18  1  0.75227855  0.06182287  0.00577124  1
  Ti  Ti19  1  0.66173673  -0.12733570  0.34254224  1
  Ti  Ti20  1  0.68406431  0.00068196  0.64495285  1
  Ti  Ti21  1  0.66683995  0.35943014  0.08864573  1
  Ti  Ti22  1  0.68020573  0.37717690  0.40720235  1
  Ti  Ti23  1  0.68440210  0.32224807  0.61858659  1
  Ti  Ti24  1  0.69290969  0.68688265  0.03806480  1
  Ti  Ti25  1  0.62754802  0.68897897  0.29868218  1
  Ti  Ti26  1  0.62024080  0.69293422  0.70260706  1
  Ti  Ti27  1  0.06185910  0.13046420  0.16142475  1
  Ti  Ti28  1  -0.03105360  0.16996227  0.42789424  1
  Ti  Ti29  1  0.07585729  0.17188365  0.81635071  1
  Ti  Ti30  1  -0.03670771  0.54243448  0.17851083  1
  Ti  Ti31  1  -0.02790039  0.48123467  0.48622689  1
  Ti  Ti32  1  -0.00428810  0.57187059  0.87481918  1
  Ti  Ti33  1  -0.06324252  0.77674481  0.17845866  1
  Ti  Ti34  1  -0.00658184  0.85872477  0.49145940  1
  Ti  Ti35  1  -0.04527793  0.77439569  0.84009589  1
  Ti  Ti36  1  0.39035901  0.15063194  0.13726634  1
  Ti  Ti37  1  0.40666665  0.17547903  0.55738449  1
  Ti  Ti38  1  0.27626874  0.19692139  0.84396765  1
  Ti  Ti39  1  0.32756390  0.57609933  0.20988820  1
  Ti  Ti40  1  0.39191587  0.47955724  0.47995666  1
  Ti  Ti41  1  0.28794578  0.50011852  0.87570850  1
  Ti  Ti42  1  0.30582606  0.90223465  0.14452339  1
  Ti  Ti43  1  0.33780088  0.76129391  0.44757168  1
  Ti  Ti44  1  0.31372870  0.88672762  0.84247449  1
  Ti  Ti45  1  0.61388072  0.20292109  0.20488924  1
  Ti  Ti46  1  0.65016592  0.08954994  0.43076349  1
  Ti  Ti47  1  0.65253531  0.20676172  0.86549086  1
  Ti  Ti48  1  0.62154695  0.49936300  0.24839680  1
  Ti  Ti49  1  0.66085024  0.53420533  0.58973169  1
  Ti  Ti50  1  0.61405820  0.49892330  0.78606645  1
  Ti  Ti51  1  0.64538177  0.83656477  0.13585211  1
  Ti  Ti52  1  0.66521052  0.72484300  0.51101523  1
  Ti  Ti53  1  0.60201180  0.87990727  0.79283744  1
  Ti  Ti54  1  0.21762013  0.04417275  0.24598841  1
  Ti  Ti55  1  0.15415193  0.06424657  0.46385441  1
  Ti  Ti56  1  0.11486342  -0.09969907  0.84485486  1
  Ti  Ti57  1  0.11436593  0.31979544  0.15509343  1
  Ti  Ti58  1  0.11425350  0.33968238  0.52253561  1
  Ti  Ti59  1  0.17454876  0.35090645  0.74665030  1
  Ti  Ti60  1  0.15911362  0.60939180  0.11439039  1
  Ti  Ti61  1  0.22311969  0.62717731  0.52165279  1
  Ti  Ti62  1  0.24333014  0.71799445  0.82135625  1
  Ti  Ti63  1  0.58664791  0.00959483  0.18247413  1
  Ti  Ti64  1  0.50868190  0.02437545  0.54143131  1
  Ti  Ti65  1  0.40375453  0.05046176  0.80074456  1
  Ti  Ti66  1  0.44169660  0.42424191  0.15938075  1
  Ti  Ti67  1  0.49012777  0.31481934  0.42785306  1
  Ti  Ti68  1  0.44894872  0.34398401  0.88102539  1
  Ti  Ti69  1  0.50363180  0.60631159  0.09964967  1
  Ti  Ti70  1  0.48700761  0.63458350  0.54498964  1
  Ti  Ti71  1  0.54400865  0.69075169  0.89264951  1
  Ti  Ti72  1  0.80057132  -0.05898055  0.16740282  1
  Ti  Ti73  1  0.82095352  0.02621644  0.45614974  1
  Ti  Ti74  1  0.83679948  0.03924203  0.79404427  1
  Ti  Ti75  1  0.82970986  0.25444279  0.16710089  1
  Ti  Ti76  1  0.89440119  0.31547274  0.53084422  1
  Ti  Ti77  1  0.82196009  0.28965017  0.89895962  1
  Ti  Ti78  1  0.78907391  0.62273615  0.22110685  1
  Ti  Ti79  1  0.82903029  0.60211507  0.48742484  1
  Ti  Ti80  1  0.75043375  0.72041482  0.82219927  1
  Ti  Ti81  1  0.16013521  0.19970733  0.00875139  1
  Ti  Ti82  1  0.14995145  0.22801105  0.33113328  1
  Ti  Ti83  1  0.18106275  0.19429992  0.64967654  1
  Ti  Ti84  1  0.14343719  0.45632039  -0.03626262  1
  Ti  Ti85  1  0.15952047  0.47871303  0.26986387  1
  Ti  Ti86  1  0.16496424  0.54502144  0.71384892  1
  Ti  Ti87  1  0.21351612  0.77111746  0.01890304  1
  Ti  Ti88  1  0.16271358  0.88012525  0.34016579  1
  Ti  Ti89  1  0.08371817  0.79601914  0.65943281  1
  Ti  Ti90  1  0.55926516  0.14213566  0.02089806  1
  Ti  Ti91  1  0.46568713  0.13140777  0.35170379  1
  Ti  Ti92  1  0.52793469  0.17367525  0.72032610  1
  Ti  Ti93  1  0.55394794  0.47642295  -0.01953379  1
  Ti  Ti94  1  0.46077189  0.60502596  0.33275801  1
  Ti  Ti95  1  0.46518378  0.44717689  0.67666001  1
  Ti  Ti96  1  0.47718983  0.83495608  0.05369612  1
  Ti  Ti97  1  0.47185576  0.84057406  0.27914849  1
  Ti  Ti98  1  0.51586329  0.83058906  0.62375375  1
  Ti  Ti99  1  0.93594332  0.13234980  -0.03837537  1
  Ti  Ti100  1  0.87745778  0.08781258  0.27772443  1
  Ti  Ti101  1  0.85036591  0.14194587  0.61459930  1
  Ti  Ti102  1  0.81167782  0.51100011  -0.03699426  1
  Ti  Ti103  1  0.85003430  0.45083630  0.31794601  1
  Ti  Ti104  1  0.82816703  0.48307633  0.68293217  1
  Ti  Ti105  1  0.78518049  0.86884271  -0.05122377  1
  Ti  Ti106  1  0.85494994  0.85432732  0.35393329  1
  Ti  Ti107  1  0.86386447  0.91272208  0.62060983  1
  Co  Co108  1  0.76531994  0.78051534  0.23429820  1
  Co  Co109  1  0.51680559  0.74658434  0.42413408  1
  Co  Co110  1  0.60805549  0.23245645  0.36372622  1
  Co  Co111  1  0.25508334  0.91786360  0.48723882  1
  Co  Co112  1  0.81772160  0.78023664  0.07907454  1
  Co  Co113  1  0.65377146  0.36532739  0.91754871  1
  Co  Co114  1  0.28990531  0.54048419  0.36857348  1
  Co  Co115  1  0.33608727  0.14946828  0.69224346  1
  Co  Co116  1  0.27035128  0.34180529  0.89553257  1
  Co  Co117  1  0.04753469  0.83838963  0.98368622  1
  Co  Co118  1  0.22723626  0.05112612  0.77261102  1
  Co  Co119  1  0.72974796  0.54431278  0.37223671  1
  Co  Co120  1  -0.01977773  0.22836430  0.25666888  1
  Co  Co121  1  0.09856072  0.83157824  0.14028124  1
  Co  Co122  1  0.52507410  0.99923197  0.70135768  1
  Co  Co123  1  1.00596432  0.54792109  0.33648344  1
  Co  Co124  1  0.42897651  0.43587360  0.31631817  1
  Co  Co125  1  0.07533559  0.46354877  0.10895181  1
  Co  Co126  1  0.74853046  0.17399378  0.31990535  1
  Co  Co127  1  0.35413712  0.73162934  0.29047712  1
  Co  Co128  1  0.45486580  0.00039166  0.06163340  1
  Co  Co129  1  0.39783681  0.29291327  0.73037619  1
  Co  Co130  1  0.21548150  0.45600156  0.56985621  1
  Co  Co131  1  0.21061935  0.92113558  -0.00588341  1
  Co  Co132  1  0.13352963  0.49640356  0.42889562  1
  Co  Co133  1  0.86254922  0.60452086  0.79199567  1
  Co  Co134  1  0.94662499  0.36975284  0.18280145  1
  Co  Co135  1  0.90904039  0.68366327  0.32418345  1
  Co  Co136  1  0.39040501  0.45203386  0.00457041  1
  Co  Co137  1  0.74043184  0.10563862  0.16038939  1
  Co  Co138  1  0.85814121  0.68830964  0.93841712  1
  Co  Co139  1  0.85762090  0.61389719  0.07766919  1
  Co  Co140  1  0.14523029  0.77940722  0.46665724  1
  Co  Co141  1  0.20451622  0.90610887  0.70711519  1
  Co  Co142  1  0.21601555  0.06236572  0.08670769  1
  Co  Co143  1  0.71727901  0.01520927  0.29805774  1
  Co  Co144  1  0.11858869  0.92654389  0.56110547  1
  Co  Co145  1  0.58777404  0.57944694  0.43073616  1
  Co  Co146  1  0.02647841  0.80813098  0.32663067  1
  Co  Co147  1  0.08347585  0.56685163  0.57110683  1
  Co  Co148  1  0.30845766  0.43385626  0.72789940  1
  Co  Co149  1  0.57275909  0.35275019  0.25889904  1
  Co  Co150  1  0.42636766  0.88834020  0.48859136  1
  Co  Co151  1  0.90951300  0.07519385  0.11421597  1
  Co  Co152  1  0.25012358  0.46705611  0.10342860  1
  Co  Co153  1  0.70067270  0.82908714  0.65121422  1
  Co  Co154  1  0.22970368  0.04684346  0.60739138  1
  Co  Co155  1  0.72145095  0.22025541  1.02635937  1
  Co  Co156  1  0.51337077  0.72443944  0.18846993  1
  Co  Co157  1  0.76477377  0.71901170  0.38795436  1
  Co  Co158  1  0.33648612  0.05787869  0.47899420  1
  Co  Co159  1  0.27757208  0.36001144  0.22294949  1
  Co  Co160  1  0.36101026  0.73680071  0.11977899  1
  Co  Co161  1  0.23575803  0.79864329  0.59561351  1
  Ni  Ni162  1  0.15468173  0.62641150  0.93091347  1
  Ni  Ni163  1  0.15919723  0.06111843  0.91765440  1
  Ni  Ni164  1  0.49081081  0.60833277  0.71993922  1
  Ni  Ni165  1  0.79167054  0.44047536  0.51119855  1
  Ni  Ni166  1  0.76184728  0.21622090  0.48385565  1
  Ni  Ni167  1  0.22005285  0.75193297  0.20133139  1
  Ni  Ni168  1  0.04814352  0.43067209  0.80933392  1
  Ni  Ni169  1  0.43811925  0.57402372  0.89511788  1
  Ni  Ni170  1  0.99885314  0.45776736  0.65099868  1
  Ni  Ni171  1  0.05839736  0.67562901  0.22811880  1
  Ni  Ni172  1  0.48937939  0.29235820  0.07011604  1
  Ni  Ni173  1  0.52729999  -0.02254279  0.36270974  1
  Ni  Ni174  1  0.97562051  0.24167392  0.07400521  1
  Ni  Ni175  1  0.40820545  0.19427562  0.95639558  1
  Ni  Ni176  1  0.42932805  0.26860417  0.25253679  1
  Ni  Ni177  1  1.00058318  0.02385947  0.85647757  1
  Ni  Ni178  1  0.55126862  0.06682920  0.86819086  1
  Ni  Ni179  1  0.63326690  0.16093587  0.58736666  1
  Ni  Ni180  1  0.73725984  0.19199771  0.72438778  1
  Ni  Ni181  1  0.80593386  0.45234471  0.14764214  1
  Ni  Ni182  1  0.02529860  0.18764017  0.58630341  1
  Ni  Ni183  1  0.33953224  0.59932944  0.76362346  1
  Ni  Ni184  1  0.34384229  0.55567627  0.61417958  1
  Ni  Ni185  1  0.67518637  0.53438032  0.09188755  1
  Ni  Ni186  1  0.67750607  0.57787923  0.91014159  1
  Ni  Ni187  1  0.85541339  0.28856651  0.35996161  1
  Ni  Ni188  1  0.59260561  0.88739264  0.49278873  1
  Ni  Ni189  1  0.38276362  0.75168778  0.94128981  1
  Ni  Ni190  1  0.08767198  0.30604976  0.90967892  1
  Ni  Ni191  1  0.55174362  0.43854460  0.52335669  1
  Ni  Ni192  1  0.69498431  0.99240780  0.85939730  1
  Ni  Ni193  1  0.47231586  0.91052991  0.90253600  1
  Ni  Ni194  1  0.06665390  0.08103464  0.31836023  1
  Ni  Ni195  1  0.73746219  0.36902778  0.77458736  1
  Ni  Ni196  1  0.91158930  0.92451669  0.04421829  1
  Ni  Ni197  1  0.60573502  0.97119413  0.00629881  1
  Ni  Ni198  1  0.97164802  0.97376058  0.38041713  1
  Ni  Ni199  1  0.75071640  0.88175055  0.49791821  1
  Ni  Ni200  1  0.97417742  0.03122276  0.53838052  1
  Ni  Ni201  1  0.24525254  0.21000032  0.48203562  1
  Ni  Ni202  1  0.44609945  0.77466644  0.78820161  1
  Ni  Ni203  1  0.79705773  0.87785382  0.77484754  1
  Ni  Ni204  1  0.30731081  0.15319125  0.33190778  1
  Ni  Ni205  1  0.78296160  0.66571502  0.64724862  1
  Ni  Ni206  1  0.96316100  0.90890236  0.74809137  1
  Ni  Ni207  1  0.86100368  0.75949988  0.52781648  1
  Ni  Ni208  1  0.42251284  1.01352777  0.22497888  1
  Ni  Ni209  1  0.23561710  0.20287697  0.17914418  1
  Ni  Ni210  1  0.57190140  0.33341935  0.76364661  1
  Ni  Ni211  1  0.08522908  0.68174853  0.78108100  1
  Ni  Ni212  1  0.62468841  0.82012453  0.95203553  1
  Ni  Ni213  1  0.88735661  0.43167179  0.83164485  1
  Ni  Ni214  1  0.51353907  0.30029371  0.60184952  1
  Ni  Ni215  1  0.90278495  0.18656943  0.79251916  1
