# generated using pymatgen
data_Ti2CoNi
_symmetry_space_group_name_H-M   'P 1'
_cell_length_a   14.64141288
_cell_length_b   14.62062556
_cell_length_c   14.65706181
_cell_angle_alpha   89.43002539
_cell_angle_beta   90.02115287
_cell_angle_gamma   89.71253218
_symmetry_Int_Tables_number   1
_chemical_formula_structural   Ti2CoNi
_chemical_formula_sum   'Ti108 Co54 Ni54'
_cell_volume   3137.39259953
_cell_formula_units_Z   54
loop_
 _symmetry_equiv_pos_site_id
 _symmetry_equiv_pos_as_xyz
  1  'x, y, z'
loop_
 _atom_site_type_symbol
 _atom_site_label
 _atom_site_symmetry_multiplicity
 _atom_site_fract_x
 _atom_site_fract_y
 _atom_site_fract_z
 _atom_site_occupancy
  Ti  Ti0  1  0.03590295  0.03397686  -0.08923176  1
  Ti  Ti1  1  0.03278104  -0.03415593  0.27875666  1
  Ti  Ti2  1  -0.00157318  0.07469372  0.65777320  1
  Ti  Ti3  1  -0.00440375  0.31316786  0.01100765  1
  Ti  Ti4  1  0.06959995  0.31620623  0.29514862  1
  Ti  Ti5  1  0.05416735  0.35801433  0.70267784  1
  Ti  Ti6  1  -0.02680865  0.66612761  0.11748529  1
  Ti  Ti7  1  0.01451533  0.73733117  0.32207739  1
  Ti  Ti8  1  0.00935652  0.69131056  0.66212934  1
  Ti  Ti9  1  0.28967368  -0.02154336  0.00789606  1
  Ti  Ti10  1  0.31900214  0.04711664  0.27337479  1
  Ti  Ti11  1  0.30831238  0.03896324  0.72534501  1
  Ti  Ti12  1  0.33139412  0.29787285  0.02332219  1
  Ti  Ti13  1  0.44458388  0.35348021  0.31923748  1
  Ti  Ti14  1  0.27074803  0.34583074  0.61868007  1
  Ti  Ti15  1  0.24786427  0.62888096  0.00634946  1
  Ti  Ti16  1  0.37239092  0.70225503  0.38003000  1
  Ti  Ti17  1  0.36678149  0.66202253  0.69451254  1
  Ti  Ti18  1  0.66775489  -0.07200129  -0.02576167  1
  Ti  Ti19  1  0.72296032  0.08348121  0.34723679  1
  Ti  Ti20  1  0.67533272  0.02955718  0.65132919  1
  Ti  Ti21  1  0.70460421  0.39763846  -0.02482090  1
  Ti  Ti22  1  0.65213932  0.30030292  0.29910205  1
  Ti  Ti23  1  0.69988940  0.29461204  0.67726930  1
  Ti  Ti24  1  0.59541942  0.73173534  0.07334728  1
  Ti  Ti25  1  0.69516097  0.65738227  0.41548570  1
  Ti  Ti26  1  0.68033744  0.67463258  0.61139837  1
  Ti  Ti27  1  -0.00495839  0.13424421  0.21912623  1
  Ti  Ti28  1  0.03947302  0.15083556  0.46640745  1
  Ti  Ti29  1  -0.02055239  0.20433087  0.82001727  1
  Ti  Ti30  1  0.00135542  0.45520023  0.15530343  1
  Ti  Ti31  1  0.03276154  0.44468899  0.53163335  1
  Ti  Ti32  1  -0.00068764  0.49278242  0.83815517  1
  Ti  Ti33  1  -0.07788400  0.84813541  0.16906501  1
  Ti  Ti34  1  -0.00465606  0.93787628  0.46978640  1
  Ti  Ti35  1  -0.02624738  0.87942267  0.80169533  1
  Ti  Ti36  1  0.36271577  0.11595430  0.09457714  1
  Ti  Ti37  1  0.31034317  0.13178339  0.44343728  1
  Ti  Ti38  1  0.33630784  0.13882877  0.89529433  1
  Ti  Ti39  1  0.38536692  0.45201080  0.14523481  1
  Ti  Ti40  1  0.32964453  0.49058148  0.43334856  1
  Ti  Ti41  1  0.37083605  0.44728335  0.82364001  1
  Ti  Ti42  1  0.38736108  0.73047623  0.20077687  1
  Ti  Ti43  1  0.25559953  0.82270903  0.54643601  1
  Ti  Ti44  1  0.35893604  0.72936537  0.88340839  1
  Ti  Ti45  1  0.58118153  0.09116380  0.11550063  1
  Ti  Ti46  1  0.74615319  0.18624713  0.51522896  1
  Ti  Ti47  1  0.64093352  0.16740026  0.81532280  1
  Ti  Ti48  1  0.69429100  0.54499295  0.09485179  1
  Ti  Ti49  1  0.66786241  0.47019073  0.53517252  1
  Ti  Ti50  1  0.64688980  0.54125027  0.76192470  1
  Ti  Ti51  1  0.67232625  0.79478560  0.23713146  1
  Ti  Ti52  1  0.64090510  0.84585848  0.48198849  1
  Ti  Ti53  1  0.64341849  0.83712965  0.77701710  1
  Ti  Ti54  1  0.09127754  -0.05214365  0.08570238  1
  Ti  Ti55  1  0.17461205  0.01095380  0.56793964  1
  Ti  Ti56  1  0.20067562  -0.07524790  0.86114697  1
  Ti  Ti57  1  0.19408682  0.37017303  0.15284305  1
  Ti  Ti58  1  0.20733950  0.32364355  0.43998792  1
  Ti  Ti59  1  0.23769377  0.30631684  0.83904137  1
  Ti  Ti60  1  0.14526440  0.65350804  0.18979497  1
  Ti  Ti61  1  0.18712242  0.66262339  0.43097202  1
  Ti  Ti62  1  0.13030034  0.63658296  0.83552265  1
  Ti  Ti63  1  0.43308678  -0.06664863  0.16577160  1
  Ti  Ti64  1  0.50476987  -0.00317442  0.55622569  1
  Ti  Ti65  1  0.47860621  0.01988341  0.86509592  1
  Ti  Ti66  1  0.53646427  0.30392692  0.12183219  1
  Ti  Ti67  1  0.54033246  0.31339057  0.54260580  1
  Ti  Ti68  1  0.56810215  0.35557549  0.84666225  1
  Ti  Ti69  1  0.51956996  0.59514110  0.17601018  1
  Ti  Ti70  1  0.48031539  0.73000388  0.53299876  1
  Ti  Ti71  1  0.55810526  0.68263760  0.88003110  1
  Ti  Ti72  1  0.74979803  -0.01801475  0.16074521  1
  Ti  Ti73  1  0.80708209  -0.03793300  0.49156641  1
  Ti  Ti74  1  0.80560307  -0.02361582  0.80550850  1
  Ti  Ti75  1  0.80985702  0.41228314  0.21305330  1
  Ti  Ti76  1  0.85200952  0.39892595  0.44736624  1
  Ti  Ti77  1  0.79441558  0.24327573  0.89796575  1
  Ti  Ti78  1  0.80689063  0.70443073  0.04054398  1
  Ti  Ti79  1  0.92686746  0.68060027  0.49592237  1
  Ti  Ti80  1  0.84769886  0.64167421  0.85879575  1
  Ti  Ti81  1  0.16893627  0.17096871  0.00923349  1
  Ti  Ti82  1  0.16595485  0.15664543  0.30250649  1
  Ti  Ti83  1  0.15377750  0.18043220  0.71990530  1
  Ti  Ti84  1  0.10485661  0.51154388  0.01222441  1
  Ti  Ti85  1  0.13028520  0.49579574  0.34425074  1
  Ti  Ti86  1  0.17807240  0.52504851  0.68151268  1
  Ti  Ti87  1  0.24976558  0.80265755  0.07047508  1
  Ti  Ti88  1  0.17008901  0.85922844  0.36568630  1
  Ti  Ti89  1  0.13018171  0.81167747  0.72590701  1
  Ti  Ti90  1  0.49752225  0.20620057  -0.03277335  1
  Ti  Ti91  1  0.51644402  0.12409300  0.30390867  1
  Ti  Ti92  1  0.41598493  0.18540444  0.59991048  1
  Ti  Ti93  1  0.43229748  0.56048071  -0.01989816  1
  Ti  Ti94  1  0.56581227  0.51924780  0.34208323  1
  Ti  Ti95  1  0.47551736  0.51823174  0.61911637  1
  Ti  Ti96  1  0.47823132  0.85364394  -0.02823205  1
  Ti  Ti97  1  0.50857363  0.86577871  0.33804002  1
  Ti  Ti98  1  0.39996256  0.86930338  0.65569557  1
  Ti  Ti99  1  0.83172886  0.18187843  0.09336037  1
  Ti  Ti100  1  0.84778593  0.23917929  0.31167840  1
  Ti  Ti101  1  0.82349581  0.15108607  0.70891051  1
  Ti  Ti102  1  0.87786859  0.51062421  0.00886183  1
  Ti  Ti103  1  0.84454811  0.57817056  0.33064708  1
  Ti  Ti104  1  0.84341055  0.46354764  0.66913762  1
  Ti  Ti105  1  0.87633258  0.93237136  -0.01123228  1
  Ti  Ti106  1  0.83411956  0.79792597  0.36652125  1
  Ti  Ti107  1  0.83582543  0.77984318  0.70599270  1
  Co  Co108  1  -0.00476956  0.61725893  0.95763591  1
  Co  Co109  1  0.83577966  0.31292221  0.58988971  1
  Co  Co110  1  0.47964475  0.13590936  0.46287172  1
  Co  Co111  1  0.84778427  0.56616046  0.16410920  1
  Co  Co112  1  0.87704637  0.94299259  0.32347536  1
  Co  Co113  1  0.94936034  0.41879574  0.31958086  1
  Co  Co114  1  0.68379871  0.76570352  0.94088611  1
  Co  Co115  1  0.09842244  0.81947975  0.19878026  1
  Co  Co116  1  0.58351571  0.89563482  0.11230382  1
  Co  Co117  1  0.11979270  0.27506023  0.57549016  1
  Co  Co118  1  0.19822117  0.48644726  0.52453045  1
  Co  Co119  1  0.40899966  0.53257941  0.28518581  1
  Co  Co120  1  0.24943538  0.17349943  0.58614495  1
  Co  Co121  1  0.37724830  0.30489872  0.47537138  1
  Co  Co122  1  0.87880023  0.09456530  0.55246553  1
  Co  Co123  1  0.92086301  0.82573267  0.56935980  1
  Co  Co124  1  0.97359083  0.23375726  0.63038630  1
  Co  Co125  1  0.71004797  0.69038774  0.78699496  1
  Co  Co126  1  0.46680959  0.57472939  0.79939184  1
  Co  Co127  1  0.83348752  0.72014783  0.22198747  1
  Co  Co128  1  0.93473340  1.00980762  0.11948735  1
  Co  Co129  1  0.89495329  0.23139274  0.46446615  1
  Co  Co130  1  0.81471840  0.82133939  0.87299873  1
  Co  Co131  1  0.87277086  0.31043971  0.74602441  1
  Co  Co132  1  0.59469974  -0.01420200  0.24781872  1
  Co  Co133  1  0.47562871  0.79809451  0.78565978  1
  Co  Co134  1  0.44774718  0.38955714  -0.02879277  1
  Co  Co135  1  0.99842694  0.52827080  0.67923070  1
  Co  Co136  1  0.06876843  0.87278878  0.94552873  1
  Co  Co137  1  0.10116343  0.73489142  0.03957604  1
  Co  Co138  1  0.23973342  0.75556291  0.26839189  1
  Co  Co139  1  0.89809085  0.08496055  0.39254069  1
  Co  Co140  1  0.41658163  0.28557087  0.84730991  1
  Co  Co141  1  0.29429701  0.58949376  0.83361292  1
  Co  Co142  1  0.98215413  0.55056243  0.41837169  1
  Co  Co143  1  0.84396878  0.35702895  0.05364627  1
  Co  Co144  1  0.41410743  0.86577610  0.47607338  1
  Co  Co145  1  0.78343571  0.76298123  0.52166558  1
  Co  Co146  1  0.35094695  0.87179008  0.30565276  1
  Co  Co147  1  0.27303549  0.41869082  0.28617437  1
  Co  Co148  1  0.46758032  0.01600790  0.02365803  1
  Co  Co149  1  0.65773611  0.23287991  0.99211899  1
  Co  Co150  1  0.74958868  0.07909652  0.00568401  1
  Co  Co151  1  0.56831094  0.82989347  0.62562312  1
  Co  Co152  1  0.74650820  0.83587170  0.09334712  1
  Co  Co153  1  0.59709863  0.15998824  0.59909442  1
  Co  Co154  1  0.34070785  1.00916045  0.57136654  1
  Co  Co155  1  0.84734308  0.08024443  0.23880024  1
  Co  Co156  1  -0.01443752  0.71342854  0.81561135  1
  Co  Co157  1  0.26520118  0.59394336  0.29316782  1
  Co  Co158  1  0.02511830  0.31482118  0.44447460  1
  Co  Co159  1  0.54575559  0.67710395  0.69915214  1
  Co  Co160  1  0.58875348  0.41429114  0.68333776  1
  Co  Co161  1  0.60359340  0.08328804  0.95288411  1
  Ni  Ni162  1  0.17974740  0.07226626  0.15758024  1
  Ni  Ni163  1  0.53124698  0.25816179  0.71584094  1
  Ni  Ni164  1  0.70864610  0.91529966  0.34352482  1
  Ni  Ni165  1  -0.00556459  0.14466764  0.03306809  1
  Ni  Ni166  1  0.17675690  0.46433008  0.85116068  1
  Ni  Ni167  1  0.36442310  0.90716013  0.84418484  1
  Ni  Ni168  1  0.54921722  0.69778901  0.32923948  1
  Ni  Ni169  1  0.23374137  0.52558686  0.14156667  1
  Ni  Ni170  1  0.57398896  0.50600237  0.91444411  1
  Ni  Ni171  1  0.19406981  0.76700222  0.90508877  1
  Ni  Ni172  1  0.87740892  0.96091409  0.65519598  1
  Ni  Ni173  1  0.04437220  0.91105088  0.62994004  1
  Ni  Ni174  1  0.55737879  0.59635124  0.48859386  1
  Ni  Ni175  1  0.24683779  0.92070097  0.18165342  1
  Ni  Ni176  1  0.09371273  0.23631288  0.13875185  1
  Ni  Ni177  1  0.08397910  0.78148208  0.51535355  1
  Ni  Ni178  1  0.73084545  0.87694188  0.62573654  1
  Ni  Ni179  1  0.52491531  0.94906630  0.72299046  1
  Ni  Ni180  1  0.28748170  0.46305498  0.98387059  1
  Ni  Ni181  1  0.73877571  0.40004734  0.80277241  1
  Ni  Ni182  1  0.69830173  0.16363876  0.20240153  1
  Ni  Ni183  1  0.13954412  0.02640294  0.40158125  1
  Ni  Ni184  1  0.61126500  0.21323825  0.42739682  1
  Ni  Ni185  1  0.70640423  0.59711050  0.93815428  1
  Ni  Ni186  1  0.49434539  0.10443549  0.72510344  1
  Ni  Ni187  1  0.32647002  0.62944028  0.53362770  1
  Ni  Ni188  1  0.42005407  0.36726746  0.68641514  1
  Ni  Ni189  1  0.88228961  0.38670824  0.89107858  1
  Ni  Ni190  1  0.71969147  0.45558096  0.35767466  1
  Ni  Ni191  1  0.33114306  0.21031673  0.73487949  1
  Ni  Ni192  1  0.08246618  0.60540341  0.54038309  1
  Ni  Ni193  1  -0.00148350  0.57759850  0.26161434  1
  Ni  Ni194  1  0.70426621  0.31239086  0.12919518  1
  Ni  Ni195  1  0.48619813  0.44581647  0.46371794  1
  Ni  Ni196  1  0.94307209  0.77175356  0.96624674  1
  Ni  Ni197  1  0.94241511  0.29920002  0.18258039  1
  Ni  Ni198  1  0.42166661  0.21748265  0.20561006  1
  Ni  Ni199  1  0.19677386  0.68742178  0.63118016  1
  Ni  Ni200  1  0.62617855  0.43992540  0.21139676  1
  Ni  Ni201  1  0.28543425  0.79682680  0.74744470  1
  Ni  Ni202  1  0.28671390  0.96097575  0.42763613  1
  Ni  Ni203  1  0.11339281  0.00636805  0.74778861  1
  Ni  Ni204  1  0.25852661  0.21655811  0.17248862  1
  Ni  Ni205  1  0.59052309  1.00782902  0.41716214  1
  Ni  Ni206  1  0.30945921  0.25525510  0.32288977  1
  Ni  Ni207  1  0.81154191  0.55392266  0.51367591  1
  Ni  Ni208  1  0.18544207  0.09746601  0.86330680  1
  Ni  Ni209  1  0.41949816  0.71245491  0.04239821  1
  Ni  Ni210  1  0.54897302  0.46264092  0.07074100  1
  Ni  Ni211  1  0.87552921  0.09547752  0.89981513  1
  Ni  Ni212  1  0.64510695  0.00415167  0.81792542  1
  Ni  Ni213  1  0.68883403  0.62015547  0.24497789  1
  Ni  Ni214  1  0.16641776  0.35012773  -0.01062335  1
  Ni  Ni215  1  0.07197431  0.32878867  0.86325785  1
