# generated using pymatgen
data_Ti2CoNi
_symmetry_space_group_name_H-M   'P 1'
_cell_length_a   14.62781718
_cell_length_b   14.61009493
_cell_length_c   14.66527309
_cell_angle_alpha   90.10344928
_cell_angle_beta   89.99527095
_cell_angle_gamma   89.70506554
_symmetry_Int_Tables_number   1
_chemical_formula_structural   Ti2CoNi
_chemical_formula_sum   'Ti108 Co54 Ni54'
_cell_volume   3134.12456017
_cell_formula_units_Z   54
loop_
 _symmetry_equiv_pos_site_id
 _symmetry_equiv_pos_as_xyz
  1  'x, y, z'
loop_
 _atom_site_type_symbol
 _atom_site_label
 _atom_site_symmetry_multiplicity
 _atom_site_fract_x
 _atom_site_fract_y
 _atom_site_fract_z
 _atom_site_occupancy
  Ti  Ti0  1  0.07341474  -0.06714048  -0.03422122  1
  Ti  Ti1  1  -0.07393149  0.00115712  0.39093170  1
  Ti  Ti2  1  0.01964551  -0.02344862  0.66018766  1
  Ti  Ti3  1  0.02138306  0.36253693  0.02126804  1
  Ti  Ti4  1  0.01704764  0.27820493  0.35916746  1
  Ti  Ti5  1  0.01758845  0.37475092  0.69155891  1
  Ti  Ti6  1  -0.06397022  0.66360958  0.02794167  1
  Ti  Ti7  1  0.08626968  0.64563681  0.27602848  1
  Ti  Ti8  1  -0.00674330  0.71730191  0.70618597  1
  Ti  Ti9  1  0.26871067  -0.00054455  0.03264996  1
  Ti  Ti10  1  0.31121173  0.08231025  0.35296472  1
  Ti  Ti11  1  0.25434881  0.05948634  0.69623271  1
  Ti  Ti12  1  0.34048563  0.31202667  -0.07189879  1
  Ti  Ti13  1  0.31525692  0.30112461  0.34620839  1
  Ti  Ti14  1  0.36068781  0.26910356  0.69935874  1
  Ti  Ti15  1  0.33377027  0.63357406  0.16029880  1
  Ti  Ti16  1  0.27983870  0.72820962  0.33919700  1
  Ti  Ti17  1  0.43897128  0.70876342  0.68601828  1
  Ti  Ti18  1  0.63289708  0.04292670  -0.01527698  1
  Ti  Ti19  1  0.60428603  0.00406697  0.36080253  1
  Ti  Ti20  1  0.67289395  -0.04393372  0.55998608  1
  Ti  Ti21  1  0.70171539  0.38811253  -0.02851568  1
  Ti  Ti22  1  0.61286850  0.31779698  0.36822163  1
  Ti  Ti23  1  0.60813902  0.37275200  0.66400947  1
  Ti  Ti24  1  0.63159370  0.68914921  -0.02631391  1
  Ti  Ti25  1  0.72615454  0.62149681  0.40216884  1
  Ti  Ti26  1  0.66681659  0.68947135  0.72835736  1
  Ti  Ti27  1  -0.04215565  0.18162768  0.13696632  1
  Ti  Ti28  1  0.01986748  0.14344805  0.49522263  1
  Ti  Ti29  1  0.06888683  0.23657710  0.87204137  1
  Ti  Ti30  1  -0.00188318  0.49699760  0.15634853  1
  Ti  Ti31  1  0.02653667  0.45234368  0.49299460  1
  Ti  Ti32  1  -0.06790364  0.52359026  0.79693073  1
  Ti  Ti33  1  0.02462124  0.82221196  0.13180938  1
  Ti  Ti34  1  -0.03557953  0.83835424  0.50949969  1
  Ti  Ti35  1  -0.02400681  0.79915554  0.89077552  1
  Ti  Ti36  1  0.34971167  0.14520942  0.13257786  1
  Ti  Ti37  1  0.23219848  0.19553252  0.51844649  1
  Ti  Ti38  1  0.35942513  0.04447907  0.87144238  1
  Ti  Ti39  1  0.44150404  0.47117696  0.18519566  1
  Ti  Ti40  1  0.33808304  0.49393753  0.56073214  1
  Ti  Ti41  1  0.33840640  0.52519591  0.76092473  1
  Ti  Ti42  1  0.34014899  0.85450267  0.15964356  1
  Ti  Ti43  1  0.37735929  0.87516695  0.46264936  1
  Ti  Ti44  1  0.36901124  0.82973522  0.83161170  1
  Ti  Ti45  1  0.69927959  0.17806041  0.10524160  1
  Ti  Ti46  1  0.70559790  0.17865712  0.48012290  1
  Ti  Ti47  1  0.70056161  0.12519264  0.75830697  1
  Ti  Ti48  1  0.67726171  0.54466174  0.10132767  1
  Ti  Ti49  1  0.64623919  0.47521506  0.48682581  1
  Ti  Ti50  1  0.67028838  0.51305189  0.80830285  1
  Ti  Ti51  1  0.63687546  0.85476229  0.24489015  1
  Ti  Ti52  1  0.70463464  0.80223395  0.43564306  1
  Ti  Ti53  1  0.69060656  0.85380528  0.85766814  1
  Ti  Ti54  1  0.20203067  0.00910803  0.20125143  1
  Ti  Ti55  1  0.19223147  -0.09760296  0.49815982  1
  Ti  Ti56  1  0.16355195  0.06320472  0.87107170  1
  Ti  Ti57  1  0.12485672  0.32545959  0.20940864  1
  Ti  Ti58  1  0.18928455  0.38152059  0.46183355  1
  Ti  Ti59  1  0.20716015  0.35648982  0.77779365  1
  Ti  Ti60  1  0.14947519  0.63664421  0.09981967  1
  Ti  Ti61  1  0.14008060  0.63474405  0.51893442  1
  Ti  Ti62  1  0.16201710  0.75493741  0.81339462  1
  Ti  Ti63  1  0.56047102  0.05104761  0.17001564  1
  Ti  Ti64  1  0.48022578  0.04379282  0.50525467  1
  Ti  Ti65  1  0.51932582  -0.04927100  0.85745605  1
  Ti  Ti66  1  0.54948769  0.29133009  0.18160910  1
  Ti  Ti67  1  0.51517445  0.24771541  0.56233995  1
  Ti  Ti68  1  0.53335703  0.33379786  0.86813591  1
  Ti  Ti69  1  0.54164371  0.67018245  0.20343643  1
  Ti  Ti70  1  0.55122610  0.65554998  0.49375743  1
  Ti  Ti71  1  0.46160259  0.65302574  0.87518415  1
  Ti  Ti72  1  0.90333868  -0.00199584  0.18353149  1
  Ti  Ti73  1  0.83839302  0.05761457  0.57441298  1
  Ti  Ti74  1  0.89408234  -0.04383840  0.82973846  1
  Ti  Ti75  1  0.83297739  0.30993758  0.08365783  1
  Ti  Ti76  1  0.84054618  0.33605843  0.40916501  1
  Ti  Ti77  1  0.81961756  0.26844905  0.84574329  1
  Ti  Ti78  1  0.79899064  0.71162289  0.24775787  1
  Ti  Ti79  1  0.86590446  0.56230181  0.50852196  1
  Ti  Ti80  1  0.82286411  0.66860065  0.84605480  1
  Ti  Ti81  1  0.14081432  0.17696275  0.06030260  1
  Ti  Ti82  1  0.13061799  0.05355741  0.37684608  1
  Ti  Ti83  1  0.12828965  0.20162815  0.68954747  1
  Ti  Ti84  1  0.11025861  0.53669998  -0.04336015  1
  Ti  Ti85  1  0.25827485  0.50205300  0.32859535  1
  Ti  Ti86  1  0.14055890  0.55514559  0.73393221  1
  Ti  Ti87  1  0.27781742  0.75642667  0.00730114  1
  Ti  Ti88  1  0.12282184  0.84879193  0.31848706  1
  Ti  Ti89  1  0.28125219  0.82258061  0.65529778  1
  Ti  Ti90  1  0.47654366  0.17230425  -0.00571647  1
  Ti  Ti91  1  0.46792959  0.16061700  0.29545957  1
  Ti  Ti92  1  0.48816585  0.08743412  0.70395258  1
  Ti  Ti93  1  0.40995036  0.49330873  -0.03054290  1
  Ti  Ti94  1  0.45178708  0.45342342  0.38248248  1
  Ti  Ti95  1  0.53833244  0.55016138  0.65515916  1
  Ti  Ti96  1  0.53786307  0.86705107  0.07154907  1
  Ti  Ti97  1  0.45965241  0.85268503  0.29674506  1
  Ti  Ti98  1  0.49843688  0.89238048  0.63356498  1
  Ti  Ti99  1  0.82955425  0.10750263  -0.05174607  1
  Ti  Ti100  1  0.80473193  0.16841511  0.27726802  1
  Ti  Ti101  1  0.84229096  0.24695501  0.63014959  1
  Ti  Ti102  1  0.87507341  0.48588542  -0.00184818  1
  Ti  Ti103  1  0.88761668  0.51319145  0.30830677  1
  Ti  Ti104  1  0.78062432  0.46923756  0.66081739  1
  Ti  Ti105  1  0.82132342  0.84159654  0.10181301  1
  Ti  Ti106  1  0.80249775  0.89710949  0.30659240  1
  Ti  Ti107  1  0.80923356  0.76096041  0.59472866  1
  Co  Co108  1  0.96362832  0.13346754  0.30551605  1
  Co  Co109  1  0.22976844  0.92348571  0.77876809  1
  Co  Co110  1  0.16572178  0.51682393  0.20439468  1
  Co  Co111  1  0.28194763  0.50914317  0.06547052  1
  Co  Co112  1  0.85851462  0.91859915  0.64967473  1
  Co  Co113  1  0.27726965  0.16546586  0.97205586  1
  Co  Co114  1  0.23974756  0.20246065  0.23156506  1
  Co  Co115  1  0.71905748  1.02763057  0.23649160  1
  Co  Co116  1  0.20307142  0.75717160  0.19402871  1
  Co  Co117  1  0.63092320  0.10963247  0.60782510  1
  Co  Co118  1  0.63826607  0.17120725  0.28032106  1
  Co  Co119  1  0.15530711  0.42115792  0.08307840  1
  Co  Co120  1  0.79243742  0.04726808  0.09271274  1
  Co  Co121  1  0.17205092  0.87721213  0.09492712  1
  Co  Co122  1  0.42519488  0.72655529  0.41980101  1
  Co  Co123  1  0.97482274  0.67606507  0.54714654  1
  Co  Co124  1  0.09598781  0.14144497  0.22469987  1
  Co  Co125  1  0.75722911  0.03969373  0.40085278  1
  Co  Co126  1  0.56040052  0.16019485  0.42886357  1
  Co  Co127  1  0.04781747  -0.02916578  0.49548972  1
  Co  Co128  1  0.52786517  0.79605143  0.91383310  1
  Co  Co129  1  0.08527535  0.43090998  0.84471293  1
  Co  Co130  1  0.40052334  0.64169985  0.55551786  1
  Co  Co131  1  0.71132757  0.85544329  0.69609835  1
  Co  Co132  1  0.95519122  0.24283985  0.76271867  1
  Co  Co133  1  0.81783891  0.90798352  0.48352427  1
  Co  Co134  1  0.56307850  0.11030064  0.85538819  1
  Co  Co135  1  0.61971484  0.98217044  0.73062260  1
  Co  Co136  1  0.76908175  0.95489391  0.95956999  1
  Co  Co137  1  0.22222306  0.88567394  0.92731518  1
  Co  Co138  1  0.27656742  0.74656925  0.51133129  1
  Co  Co139  1  0.26987963  0.29157198  0.08714568  1
  Co  Co140  1  0.71273301  0.57308621  0.24979844  1
  Co  Co141  1  0.07187293  0.90241140  0.79606327  1
  Co  Co142  1  0.25744674  0.64570360  0.64449638  1
  Co  Co143  1  1.00341167  0.58200677  0.40281899  1
  Co  Co144  1  0.57054934  0.56358338  0.34206160  1
  Co  Co145  1  0.56583301  0.23154161  0.73700543  1
  Co  Co146  1  0.68301964  0.20823312  0.91792487  1
  Co  Co147  1  0.55600715  0.80626486  0.75568038  1
  Co  Co148  1  0.30559464  0.68326915  0.79221453  1
  Co  Co149  1  0.38219946  -0.04555177  0.72482870  1
  Co  Co150  1  0.29350133  0.60018221  0.44509563  1
  Co  Co151  1  0.84886077  0.79940076  0.76246962  1
  Co  Co152  1  0.91941738  0.94508581  0.01662592  1
  Co  Co153  1  0.29128946  0.40853136  0.19438891  1
  Co  Co154  1  0.38920890  0.28661485  0.20498636  1
  Co  Co155  1  0.85781754  0.59604530  0.15110635  1
  Co  Co156  1  0.02384612  0.07788615  0.79595172  1
  Co  Co157  1  0.43020047  0.34659874  0.05860802  1
  Co  Co158  1  0.15087191  0.06582578  0.57044248  1
  Co  Co159  1  0.16333492  0.21784869  0.37402388  1
  Co  Co160  1  0.68679463  0.92710127  0.10923063  1
  Co  Co161  1  0.98578802  0.14357049  0.64431979  1
  Ni  Ni162  1  0.04535136  0.73592283  0.40941995  1
  Ni  Ni163  1  0.92920027  0.34704801  0.23086920  1
  Ni  Ni164  1  0.86799688  0.16968387  0.43828885  1
  Ni  Ni165  1  -0.00616539  0.53961883  0.63776542  1
  Ni  Ni166  1  0.89011421  0.39331139  0.56515354  1
  Ni  Ni167  1  0.60003354  0.44089072  0.24455959  1
  Ni  Ni168  1  0.93246663  0.23871303  -0.03258054  1
  Ni  Ni169  1  0.42653713  0.19421900  0.83137291  1
  Ni  Ni170  1  0.86461750  0.09868251  0.74586823  1
  Ni  Ni171  1  0.49914516  0.49113530  0.81182975  1
  Ni  Ni172  1  0.71686152  0.31273866  0.22171392  1
  Ni  Ni173  1  0.26855960  0.61545960  0.93463402  1
  Ni  Ni174  1  0.02521400  0.64399678  0.86522411  1
  Ni  Ni175  1  0.57808558  0.73233060  0.34854707  1
  Ni  Ni176  1  0.87232181  0.72240912  0.40525285  1
  Ni  Ni177  1  0.04036433  0.97479251  0.26002196  1
  Ni  Ni178  1  0.32987248  0.98919775  0.56757372  1
  Ni  Ni179  1  0.35655027  0.32681366  0.52553735  1
  Ni  Ni180  1  0.95082975  0.81910196  0.28183531  1
  Ni  Ni181  1  0.25517531  0.19536199  0.81295531  1
  Ni  Ni182  1  0.25172961  0.46220225  0.89557558  1
  Ni  Ni183  1  1.00556715  0.09399041  0.96370774  1
  Ni  Ni184  1  0.58767702  0.28607718  0.02671931  1
  Ni  Ni185  1  0.50364726  0.58884975  0.06841139  1
  Ni  Ni186  1  0.74470367  0.56511256  0.94455399  1
  Ni  Ni187  1  0.73257320  0.44110342  0.34224589  1
  Ni  Ni188  1  0.67742532  0.74467565  0.12263087  1
  Ni  Ni189  1  0.84743106  0.62445514  0.67802198  1
  Ni  Ni190  1  0.22877825  0.37866142  0.62224963  1
  Ni  Ni191  1  0.58378392  0.51194212  0.95151406  1
  Ni  Ni192  1  0.06249196  0.29248106  0.54893874  1
  Ni  Ni193  1  0.61878575  0.77635259  0.58755341  1
  Ni  Ni194  1  0.37162496  0.14419229  0.59648421  1
  Ni  Ni195  1  0.54712633  0.86627741  0.45695683  1
  Ni  Ni196  1  0.44532499  0.01690013  0.05037534  1
  Ni  Ni197  1  0.82566058  0.80381685  0.94410729  1
  Ni  Ni198  1  0.11061256  0.80864729  0.62698305  1
  Ni  Ni199  1  0.40066459  1.00143173  0.22565669  1
  Ni  Ni200  1  0.39195442  0.88275480  0.98246774  1
  Ni  Ni201  1  0.49815625  0.41956450  0.53561127  1
  Ni  Ni202  1  0.39801254  0.19060598  0.44640406  1
  Ni  Ni203  1  0.17670098  0.32525531  0.95331682  1
  Ni  Ni204  1  0.80190498  0.44633420  0.17250271  1
  Ni  Ni205  1  0.72899902  0.34122436  0.53293642  1
  Ni  Ni206  1  0.40622703  0.60396380  0.31257391  1
  Ni  Ni207  1  0.44007730  0.73476643  0.05067304  1
  Ni  Ni208  1  0.10556594  0.74482599  -0.01789069  1
  Ni  Ni209  1  0.68667879  0.34189169  0.80158791  1
  Ni  Ni210  1  0.05675407  0.02393913  0.10434512  1
  Ni  Ni211  1  0.06818331  0.44745707  0.32319444  1
  Ni  Ni212  1  0.93759793  0.37727962  0.87237382  1
  Ni  Ni213  1  0.28323935  0.91634191  0.32571561  1
  Ni  Ni214  1  0.43759513  0.40826705  0.68476380  1
  Ni  Ni215  1  0.70712507  0.61219171  0.57850744  1
