# generated using pymatgen
data_Ti2CoNi
_symmetry_space_group_name_H-M   'P 1'
_cell_length_a   14.56438058
_cell_length_b   14.60991470
_cell_length_c   14.67198095
_cell_angle_alpha   90.03603507
_cell_angle_beta   90.21571196
_cell_angle_gamma   89.83097813
_symmetry_Int_Tables_number   1
_chemical_formula_structural   Ti2CoNi
_chemical_formula_sum   'Ti108 Co54 Ni54'
_cell_volume   3121.93174227
_cell_formula_units_Z   54
loop_
 _symmetry_equiv_pos_site_id
 _symmetry_equiv_pos_as_xyz
  1  'x, y, z'
loop_
 _atom_site_type_symbol
 _atom_site_label
 _atom_site_symmetry_multiplicity
 _atom_site_fract_x
 _atom_site_fract_y
 _atom_site_fract_z
 _atom_site_occupancy
  Ti  Ti0  1  0.03841371  -0.07863397  0.00116945  1
  Ti  Ti1  1  0.00166024  0.03309746  0.39127052  1
  Ti  Ti2  1  -0.08579629  0.06662813  0.71253030  1
  Ti  Ti3  1  0.04692346  0.33933487  0.03345955  1
  Ti  Ti4  1  -0.03575045  0.33140165  0.31210560  1
  Ti  Ti5  1  0.07779009  0.31426625  0.63410763  1
  Ti  Ti6  1  -0.03910336  0.61093824  -0.02712559  1
  Ti  Ti7  1  0.01138723  0.58895466  0.34327475  1
  Ti  Ti8  1  0.02216896  0.66706880  0.66263138  1
  Ti  Ti9  1  0.29783201  0.03556433  0.01153496  1
  Ti  Ti10  1  0.28443662  -0.02422975  0.34721386  1
  Ti  Ti11  1  0.33545397  -0.03331865  0.64396027  1
  Ti  Ti12  1  0.34485196  0.32404419  -0.01026909  1
  Ti  Ti13  1  0.36158219  0.26313726  0.30910188  1
  Ti  Ti14  1  0.29080294  0.35032196  0.66540767  1
  Ti  Ti15  1  0.34312449  0.54072253  -0.00910930  1
  Ti  Ti16  1  0.32749369  0.69325986  0.28652748  1
  Ti  Ti17  1  0.30918949  0.64879977  0.67678241  1
  Ti  Ti18  1  0.72278099  -0.07843521  0.03142403  1
  Ti  Ti19  1  0.66996020  -0.04602234  0.35235547  1
  Ti  Ti20  1  0.70060920  -0.00686657  0.61245794  1
  Ti  Ti21  1  0.65260433  0.27949636  -0.07197050  1
  Ti  Ti22  1  0.67129056  0.33229659  0.27216999  1
  Ti  Ti23  1  0.70047414  0.30239476  0.70175147  1
  Ti  Ti24  1  0.76555648  0.67726559  0.02349130  1
  Ti  Ti25  1  0.66438841  0.74373854  0.34482840  1
  Ti  Ti26  1  0.58814044  0.66978409  0.67402500  1
  Ti  Ti27  1  -0.03388705  0.20489200  0.16143821  1
  Ti  Ti28  1  -0.07832048  0.21913667  0.46821957  1
  Ti  Ti29  1  0.00126797  0.21492127  0.89738572  1
  Ti  Ti30  1  0.05720410  0.45202673  0.19293663  1
  Ti  Ti31  1  0.08978076  0.49590540  0.49890604  1
  Ti  Ti32  1  -0.03566501  0.50314115  0.77403667  1
  Ti  Ti33  1  0.09151244  0.79547909  0.14915938  1
  Ti  Ti34  1  0.01268594  0.84346766  0.58694764  1
  Ti  Ti35  1  -0.04796855  0.87162126  0.78931523  1
  Ti  Ti36  1  0.43709298  0.14145415  0.17737487  1
  Ti  Ti37  1  0.30501443  0.22779620  0.50416751  1
  Ti  Ti38  1  0.34555316  0.17409735  0.83480151  1
  Ti  Ti39  1  0.39127676  0.41808646  0.17924470  1
  Ti  Ti40  1  0.30917156  0.51639610  0.51749640  1
  Ti  Ti41  1  0.27357139  0.49155050  0.81061213  1
  Ti  Ti42  1  0.29218748  0.87858958  0.18134099  1
  Ti  Ti43  1  0.38704043  0.87494258  0.49227102  1
  Ti  Ti44  1  0.31898383  0.91304507  0.84925820  1
  Ti  Ti45  1  0.62773931  0.18840626  0.12747835  1
  Ti  Ti46  1  0.62512101  0.17532894  0.56263135  1
  Ti  Ti47  1  0.65862302  0.10602941  0.81157710  1
  Ti  Ti48  1  0.74207609  0.52578993  0.16865956  1
  Ti  Ti49  1  0.62263998  0.57728316  0.51430775  1
  Ti  Ti50  1  0.62321282  0.49635904  0.93935519  1
  Ti  Ti51  1  0.63702867  0.77475922  0.12813159  1
  Ti  Ti52  1  0.68623275  0.81637408  0.52439202  1
  Ti  Ti53  1  0.69052338  0.82844112  0.85434326  1
  Ti  Ti54  1  0.10387956  0.04426810  0.22257618  1
  Ti  Ti55  1  0.16963554  -0.07012689  0.50841125  1
  Ti  Ti56  1  0.08574325  0.02763875  0.81752757  1
  Ti  Ti57  1  0.14754864  0.26519345  0.22096386  1
  Ti  Ti58  1  0.09962783  0.27137100  0.45274364  1
  Ti  Ti59  1  0.17855786  0.28738466  0.80560356  1
  Ti  Ti60  1  0.23974742  0.67521280  0.10921230  1
  Ti  Ti61  1  0.10262531  0.72150459  0.46100334  1
  Ti  Ti62  1  0.21691769  0.67800853  0.88297657  1
  Ti  Ti63  1  0.58278441  -0.00687966  0.18436934  1
  Ti  Ti64  1  0.45516932  0.07579084  0.53348581  1
  Ti  Ti65  1  0.52424310  -0.05612503  0.76669358  1
  Ti  Ti66  1  0.59914984  0.38498408  0.09218200  1
  Ti  Ti67  1  0.58053376  0.37428604  0.55696233  1
  Ti  Ti68  1  0.53366692  0.38465150  0.78339995  1
  Ti  Ti69  1  0.49157468  0.61020504  0.19935821  1
  Ti  Ti70  1  0.47133421  0.68808249  0.41129735  1
  Ti  Ti71  1  0.50332797  0.74148228  0.82948899  1
  Ti  Ti72  1  0.77575805  0.04459783  0.16435281  1
  Ti  Ti73  1  0.83804726  -0.03287625  0.46739455  1
  Ti  Ti74  1  0.80901676  0.01616842  0.88448810  1
  Ti  Ti75  1  0.84106890  0.36009461  0.16146424  1
  Ti  Ti76  1  0.79086838  0.40114196  0.51655029  1
  Ti  Ti77  1  0.82983244  0.35045090  0.85048133  1
  Ti  Ti78  1  0.93145096  0.63038522  0.16959587  1
  Ti  Ti79  1  0.89273127  0.59004350  0.52389056  1
  Ti  Ti80  1  0.85785075  0.71409432  0.84770098  1
  Ti  Ti81  1  0.14528039  0.14799515  0.05671526  1
  Ti  Ti82  1  0.21108426  0.14568402  0.35186773  1
  Ti  Ti83  1  0.15533815  0.10336814  0.63565151  1
  Ti  Ti84  1  0.11484398  0.51968411  0.02375048  1
  Ti  Ti85  1  0.21040498  0.53249426  0.30394534  1
  Ti  Ti86  1  0.13637304  0.48046960  0.68631429  1
  Ti  Ti87  1  0.22237866  0.83656659  -0.00134359  1
  Ti  Ti88  1  0.11908563  0.87536051  0.31920020  1
  Ti  Ti89  1  0.18336422  0.82316170  0.71028556  1
  Ti  Ti90  1  0.52443306  0.11213955  -0.01682789  1
  Ti  Ti91  1  0.54683130  0.16479980  0.34897186  1
  Ti  Ti92  1  0.44844773  0.24877241  0.64685895  1
  Ti  Ti93  1  0.49998136  0.64529251  -0.01465982  1
  Ti  Ti94  1  0.49417068  0.40012067  0.37539794  1
  Ti  Ti95  1  0.44286900  0.50167373  0.67308094  1
  Ti  Ti96  1  0.42772418  0.84581701  0.02519169  1
  Ti  Ti97  1  0.50210760  0.82042610  0.22991918  1
  Ti  Ti98  1  0.42930455  0.80091431  0.65740331  1
  Ti  Ti99  1  0.85512640  0.14129261  0.02610006  1
  Ti  Ti100  1  0.82301058  0.15565802  0.33572352  1
  Ti  Ti101  1  0.88787049  0.26958116  0.66828678  1
  Ti  Ti102  1  0.80416371  0.53864460  -0.10889173  1
  Ti  Ti103  1  0.75832642  0.54274910  0.36917477  1
  Ti  Ti104  1  0.78487874  0.48770654  0.67923550  1
  Ti  Ti105  1  0.89388760  0.80939930  0.10540466  1
  Ti  Ti106  1  0.85615203  0.82480256  0.32216160  1
  Ti  Ti107  1  0.77416802  0.78287931  0.69379301  1
  Co  Co108  1  0.19735819  0.36156913  0.09374464  1
  Co  Co109  1  -0.05857203  0.72692861  0.44190532  1
  Co  Co110  1  0.65311351  0.43023554  0.41378736  1
  Co  Co111  1  0.16298345  0.63400349  0.73658103  1
  Co  Co112  1  0.57056548  0.07565239  0.66578207  1
  Co  Co113  1  0.01055147  0.06268190  0.08595671  1
  Co  Co114  1  0.69602154  0.10946292  -0.01215624  1
  Co  Co115  1  0.48746157  0.26557040  0.05831181  1
  Co  Co116  1  0.10019607  0.41666388  0.34992561  1
  Co  Co117  1  0.56168718  0.93626466  0.04195578  1
  Co  Co118  1  0.39228163  0.60670954  0.83593041  1
  Co  Co119  1  0.53549399  0.76433872  0.53841199  1
  Co  Co120  1  0.69115806  0.43720218  0.80601560  1
  Co  Co121  1  0.22467431  0.42889244  0.94807841  1
  Co  Co122  1  0.17299956  0.96380592  0.10078594  1
  Co  Co123  1  0.64751596  0.63962756  0.22919154  1
  Co  Co124  1  0.62602998  -0.02578896  0.90017307  1
  Co  Co125  1  0.76068503  0.94584312  0.75566657  1
  Co  Co126  1  0.56469799  0.46552785  0.23090285  1
  Co  Co127  1  0.09095464  0.40169338  0.87378689  1
  Co  Co128  1  0.48832090  0.40120300  0.94786893  1
  Co  Co129  1  0.88702665  0.96614228  0.06941086  1
  Co  Co130  1  0.65692934  0.66114216  0.90552738  1
  Co  Co131  1  0.61184051  0.83419808  0.68886248  1
  Co  Co132  1  0.23263887  0.32541050  0.38368061  1
  Co  Co133  1  0.52273526  0.93006977  0.58328952  1
  Co  Co134  1  0.85181589  0.09563432  0.56070951  1
  Co  Co135  1  0.35364243  0.72116662  0.95732616  1
  Co  Co136  1  0.42596436  -0.00049400  0.09631834  1
  Co  Co137  1  0.77823477  0.70022841  0.45660841  1
  Co  Co138  1  1.00005495  0.75298792  0.28148212  1
  Co  Co139  1  0.54847242  0.56759754  0.80488420  1
  Co  Co140  1  0.11958787  0.10558539  0.47671928  1
  Co  Co141  1  0.74386245  0.63953309  0.60039887  1
  Co  Co142  1  0.71393407  0.09161964  0.44494995  1
  Co  Co143  1  0.98862788  0.33970102  0.77405781  1
  Co  Co144  1  0.86859323  0.62582098  0.71220655  1
  Co  Co145  1  0.16936696  0.61925310  0.57629014  1
  Co  Co146  1  0.88327364  0.74743484  0.59038848  1
  Co  Co147  1  0.61897078  0.49109068  0.66485162  1
  Co  Co148  1  0.04948791  0.18661271  0.74625487  1
  Co  Co149  1  0.62588679  0.59101345  0.07468654  1
  Co  Co150  1  0.85839109  0.65365628  0.31882265  1
  Co  Co151  1  0.20887905  0.38164143  0.53164391  1
  Co  Co152  1  0.09705762  0.61141871  0.17539547  1
  Co  Co153  1  0.76434887  0.14096758  0.69548107  1
  Co  Co154  1  -0.01935868  0.91042604  0.21655493  1
  Co  Co155  1  0.78397761  0.72339904  0.19360162  1
  Co  Co156  1  0.18695076  0.26861036  0.96199963  1
  Co  Co157  1  0.24641580  0.38637889  0.24225066  1
  Co  Co158  1  0.99578689  0.87745191  0.42315604  1
  Co  Co159  1  0.71105796  0.61643567  0.76586660  1
  Co  Co160  1  0.92459154  0.06076713  0.22671961  1
  Co  Co161  1  0.48303166  0.49825707  0.07204194  1
  Ni  Ni162  1  0.90892874  0.49007052  0.08539300  1
  Ni  Ni163  1  0.09330460  0.56309378  0.86325712  1
  Ni  Ni164  1  0.47975863  0.24446461  0.47521111  1
  Ni  Ni165  1  0.24764569  0.77843323  0.56732600  1
  Ni  Ni166  1  0.86602719  0.92253736  0.63055367  1
  Ni  Ni167  1  0.05379245  0.72788523  0.81592835  1
  Ni  Ni168  1  0.94505258  0.43698646  0.93567742  1
  Ni  Ni169  1  0.33771619  0.76307153  0.79691700  1
  Ni  Ni170  1  0.39286775  0.72114047  0.12720883  1
  Ni  Ni171  1  0.13280779  0.87103608  0.86002494  1
  Ni  Ni172  1  0.58641222  0.79336563  0.97377482  1
  Ni  Ni173  1  0.40305421  0.53927687  0.33794383  1
  Ni  Ni174  1  0.85237078  0.86547539  0.93550696  1
  Ni  Ni175  1  0.57758884  0.57046204  0.35690114  1
  Ni  Ni176  1  0.16332322  0.70833082  0.28910849  1
  Ni  Ni177  1  0.42732369  0.98274999  0.25514420  1
  Ni  Ni178  1  0.77932076  0.21429405  0.18405535  1
  Ni  Ni179  1  0.38709330  0.84065126  0.33423412  1
  Ni  Ni180  1  0.56593243  0.22038178  0.74855948  1
  Ni  Ni181  1  0.96177693  0.04515121  0.92407073  1
  Ni  Ni182  1  0.44303694  0.63182847  0.56844940  1
  Ni  Ni183  1  0.77293617  0.23923972  0.54187666  1
  Ni  Ni184  1  0.50963788  0.29844017  0.22511089  1
  Ni  Ni185  1  0.24648578  0.80565595  0.40509895  1
  Ni  Ni186  1  0.98337277  0.77510116  0.95115134  1
  Ni  Ni187  1  0.93333694  0.44513163  0.43108022  1
  Ni  Ni188  1  0.37148485  0.35196492  0.81466601  1
  Ni  Ni189  1  0.00447980  0.16566660  0.59288774  1
  Ni  Ni190  1  0.80679634  0.33670049  0.36651593  1
  Ni  Ni191  1  0.30576842  0.16126325  0.66692396  1
  Ni  Ni192  1  0.24037100  0.51124666  0.13577370  1
  Ni  Ni193  1  0.38754655  0.10958812  0.37249717  1
  Ni  Ni194  1  0.10409938  0.69068791  0.01079466  1
  Ni  Ni195  1  0.76233723  0.42447073  0.01820523  1
  Ni  Ni196  1  0.45175799  0.98418220  0.91938940  1
  Ni  Ni197  1  0.67543828  0.11425575  0.27999333  1
  Ni  Ni198  1  0.24355732  1.02926881  0.76347858  1
  Ni  Ni199  1  -0.00012287  1.00647878  0.56078883  1
  Ni  Ni200  1  0.74185725  0.88656595  0.20591664  1
  Ni  Ni201  1  0.48688472  0.25039093  0.88964433  1
  Ni  Ni202  1  0.27597787  0.07684584  0.18844013  1
  Ni  Ni203  1  0.42728613  0.07640526  0.73510245  1
  Ni  Ni204  1  0.87769669  0.30108655  0.00901328  1
  Ni  Ni205  1  0.24497033  0.63850266  0.42927426  1
  Ni  Ni206  1  0.88602609  0.48724916  0.26881631  1
  Ni  Ni207  1  0.28723911  0.05362456  0.50235440  1
  Ni  Ni208  1  0.19741603  0.12332733  0.89310259  1
  Ni  Ni209  1  0.54044645  0.86183392  0.40543030  1
  Ni  Ni210  1  0.65767718  0.26883844  0.42655380  1
  Ni  Ni211  1  0.40581525  0.37997526  0.53524607  1
  Ni  Ni212  1  0.80799576  0.18897626  0.86144750  1
  Ni  Ni213  1  0.02612408  0.17543484  0.32097353  1
  Ni  Ni214  1  0.95492470  0.44071423  0.60731866  1
  Ni  Ni215  1  0.30672424  0.24213659  0.13706188  1
