# generated using pymatgen
data_Ti2CoNi
_symmetry_space_group_name_H-M   'P 1'
_cell_length_a   14.59879957
_cell_length_b   14.62854496
_cell_length_c   14.63813310
_cell_angle_alpha   90.07603315
_cell_angle_beta   90.05838211
_cell_angle_gamma   89.83263973
_symmetry_Int_Tables_number   1
_chemical_formula_structural   Ti2CoNi
_chemical_formula_sum   'Ti108 Co54 Ni54'
_cell_volume   3126.09023465
_cell_formula_units_Z   54
loop_
 _symmetry_equiv_pos_site_id
 _symmetry_equiv_pos_as_xyz
  1  'x, y, z'
loop_
 _atom_site_type_symbol
 _atom_site_label
 _atom_site_symmetry_multiplicity
 _atom_site_fract_x
 _atom_site_fract_y
 _atom_site_fract_z
 _atom_site_occupancy
  Ti  Ti0  1  0.04923922  -0.05845632  0.06197578  1
  Ti  Ti1  1  0.01945203  -0.08413218  0.28431569  1
  Ti  Ti2  1  0.03056694  -0.01391709  0.58700252  1
  Ti  Ti3  1  -0.04440728  0.30568593  0.06395468  1
  Ti  Ti4  1  -0.00903417  0.29201417  0.29194461  1
  Ti  Ti5  1  0.03078660  0.22976368  0.66104435  1
  Ti  Ti6  1  0.04760634  0.61173072  -0.00464141  1
  Ti  Ti7  1  -0.02935988  0.59181122  0.42202355  1
  Ti  Ti8  1  0.12204301  0.68898461  0.66130526  1
  Ti  Ti9  1  0.36418273  0.02152165  0.11353875  1
  Ti  Ti10  1  0.30490640  -0.12329916  0.27550937  1
  Ti  Ti11  1  0.36203865  -0.01295226  0.59705005  1
  Ti  Ti12  1  0.32968487  0.29480804  -0.03687582  1
  Ti  Ti13  1  0.28500764  0.38420124  0.42219613  1
  Ti  Ti14  1  0.31974979  0.33127324  0.71305524  1
  Ti  Ti15  1  0.27062363  0.63886619  0.03566411  1
  Ti  Ti16  1  0.38226711  0.65709217  0.29094873  1
  Ti  Ti17  1  0.32407371  0.62675499  0.61682816  1
  Ti  Ti18  1  0.67397760  -0.04140396  -0.01212773  1
  Ti  Ti19  1  0.61274847  0.04727428  0.32161113  1
  Ti  Ti20  1  0.68905091  -0.06605394  0.62775453  1
  Ti  Ti21  1  0.66460612  0.34874792  -0.12592837  1
  Ti  Ti22  1  0.66233122  0.38386504  0.37054693  1
  Ti  Ti23  1  0.67436229  0.29399897  0.67579901  1
  Ti  Ti24  1  0.62665072  0.72353873  0.06137036  1
  Ti  Ti25  1  0.66714639  0.73870030  0.30538819  1
  Ti  Ti26  1  0.64200200  0.66711256  0.68821116  1
  Ti  Ti27  1  -0.02069207  0.10552387  0.19035506  1
  Ti  Ti28  1  -0.08567420  0.18003216  0.49789933  1
  Ti  Ti29  1  -0.02974386  0.22741573  0.84162781  1
  Ti  Ti30  1  -0.07358725  0.49937961  0.10654621  1
  Ti  Ti31  1  0.06003375  0.40553612  0.52729899  1
  Ti  Ti32  1  0.02474553  0.49858907  0.80303281  1
  Ti  Ti33  1  -0.05515431  0.78161383  0.14906529  1
  Ti  Ti34  1  -0.03670576  0.82177186  0.46436391  1
  Ti  Ti35  1  -0.02280632  0.80672171  0.82891103  1
  Ti  Ti36  1  0.32113573  0.19642760  0.25647673  1
  Ti  Ti37  1  0.37512070  0.16413742  0.46441497  1
  Ti  Ti38  1  0.38389471  0.16852769  0.82076892  1
  Ti  Ti39  1  0.28584955  0.47912666  0.23209417  1
  Ti  Ti40  1  0.43324268  0.49929125  0.51311195  1
  Ti  Ti41  1  0.33741304  0.59664927  0.83735351  1
  Ti  Ti42  1  0.25496071  0.84377400  0.08939065  1
  Ti  Ti43  1  0.30308162  0.86738660  0.45752428  1
  Ti  Ti44  1  0.31894675  0.88010087  0.78728163  1
  Ti  Ti45  1  0.66700385  0.14947485  0.11381954  1
  Ti  Ti46  1  0.62328800  0.10853420  0.50687986  1
  Ti  Ti47  1  0.60234980  0.16725740  0.78607142  1
  Ti  Ti48  1  0.69571599  0.45123214  0.17977739  1
  Ti  Ti49  1  0.63685669  0.57186582  0.47575505  1
  Ti  Ti50  1  0.68608278  0.57137565  0.86545140  1
  Ti  Ti51  1  0.72312113  0.88301818  0.17060702  1
  Ti  Ti52  1  0.66653583  0.78442647  0.48473029  1
  Ti  Ti53  1  0.71087653  0.78012105  0.88770946  1
  Ti  Ti54  1  0.17705714  0.02159205  0.20339780  1
  Ti  Ti55  1  0.20259487  0.02971236  0.47709082  1
  Ti  Ti56  1  0.17782407  0.09686491  0.88834919  1
  Ti  Ti57  1  0.12342404  0.31592077  0.15582765  1
  Ti  Ti58  1  0.20047691  0.25844057  0.55370033  1
  Ti  Ti59  1  0.14931713  0.33381055  0.83997736  1
  Ti  Ti60  1  0.10171652  0.65311784  0.18938403  1
  Ti  Ti61  1  0.16917016  0.56174282  0.50677603  1
  Ti  Ti62  1  0.15007294  0.68825759  0.85696701  1
  Ti  Ti63  1  0.54379141  -0.01433334  0.16045792  1
  Ti  Ti64  1  0.46036988  -0.00083457  0.42097546  1
  Ti  Ti65  1  0.46817405  -0.02142585  0.92297211  1
  Ti  Ti66  1  0.44857024  0.37460186  0.10376261  1
  Ti  Ti67  1  0.54607061  0.27478035  0.53962766  1
  Ti  Ti68  1  0.45748514  0.41690777  0.86106696  1
  Ti  Ti69  1  0.56231540  0.61234234  0.21055683  1
  Ti  Ti70  1  0.49774176  0.69500519  0.53855369  1
  Ti  Ti71  1  0.45298579  0.73380158  0.75181006  1
  Ti  Ti72  1  0.78207221  0.07991645  0.26050116  1
  Ti  Ti73  1  0.83478968  -0.03492323  0.49663287  1
  Ti  Ti74  1  0.88726766  0.04464710  0.80568527  1
  Ti  Ti75  1  0.75454787  0.30485499  0.06551134  1
  Ti  Ti76  1  0.79160650  0.39381415  0.57225716  1
  Ti  Ti77  1  0.84162967  0.36699647  0.77840889  1
  Ti  Ti78  1  0.78529863  0.64456505  0.18399055  1
  Ti  Ti79  1  0.92338036  0.67879628  0.59785345  1
  Ti  Ti80  1  0.87166142  0.66524213  0.89401816  1
  Ti  Ti81  1  0.22396933  0.17726494  0.06914636  1
  Ti  Ti82  1  0.07712495  0.11884413  0.36563903  1
  Ti  Ti83  1  0.18577172  0.08293491  0.65964697  1
  Ti  Ti84  1  0.14779412  0.41833753  0.00681346  1
  Ti  Ti85  1  0.10845725  0.47030664  0.33167737  1
  Ti  Ti86  1  0.20345310  0.51382841  0.72633713  1
  Ti  Ti87  1  0.16412082  0.86717121  -0.07423371  1
  Ti  Ti88  1  0.17297933  0.73973852  0.36336603  1
  Ti  Ti89  1  0.19762663  0.87585638  0.62455132  1
  Ti  Ti90  1  0.51145065  0.15007588  -0.00638638  1
  Ti  Ti91  1  0.51699122  0.22943707  0.33099320  1
  Ti  Ti92  1  0.48396656  0.13277399  0.64930494  1
  Ti  Ti93  1  0.46564702  0.56981408  0.01465441  1
  Ti  Ti94  1  0.49225148  0.47632335  0.32206371  1
  Ti  Ti95  1  0.55779263  0.45049427  0.67358329  1
  Ti  Ti96  1  0.42265856  0.80167994  0.01294326  1
  Ti  Ti97  1  0.49509608  0.82036139  0.34468645  1
  Ti  Ti98  1  0.50612732  0.95394105  0.73989230  1
  Ti  Ti99  1  0.87773685  0.13955141  0.01340579  1
  Ti  Ti100  1  0.81669275  0.27582118  0.36205385  1
  Ti  Ti101  1  0.76870958  0.12110458  0.62900227  1
  Ti  Ti102  1  0.86618738  0.48139087  -0.06597059  1
  Ti  Ti103  1  0.85845958  0.48239167  0.30119865  1
  Ti  Ti104  1  0.84947876  0.54469202  0.70986985  1
  Ti  Ti105  1  0.87331361  0.92270004  -0.01053346  1
  Ti  Ti106  1  0.84414296  0.80759478  0.31763900  1
  Ti  Ti107  1  0.84125616  0.86509116  0.71072925  1
  Co  Co108  1  0.28529231  0.33278248  0.13314621  1
  Co  Co109  1  0.21000295  1.00756681  0.04135444  1
  Co  Co110  1  0.48448434  0.59223335  0.65962921  1
  Co  Co111  1  0.14868329  0.18265245  0.24061170  1
  Co  Co112  1  0.72644311  0.92094402  0.33649712  1
  Co  Co113  1  0.71661201  0.03476206  0.75556983  1
  Co  Co114  1  0.77259821  0.09565725  0.43085384  1
  Co  Co115  1  0.26725767  0.72562368  0.73926176  1
  Co  Co116  1  0.17628245  0.97839471  0.77367774  1
  Co  Co117  1  0.93059508  0.09601360  0.65053891  1
  Co  Co118  1  0.45444348  0.68448501  0.90886351  1
  Co  Co119  1  0.52155119  0.56913676  0.81452698  1
  Co  Co120  1  0.33982101  0.03701921  0.74965401  1
  Co  Co121  1  0.66648073  0.20420341  0.37709476  1
  Co  Co122  1  0.78249196  0.92738322  0.85587149  1
  Co  Co123  1  0.16465128  0.93535681  0.34843455  1
  Co  Co124  1  0.52766341  0.65405538  0.38084627  1
  Co  Co125  1  0.61521032  0.41648024  0.51915456  1
  Co  Co126  1  1.00369151  0.09359670  0.92866594  1
  Co  Co127  1  0.50532589  0.26728554  0.88334049  1
  Co  Co128  1  0.05222206  0.09341508  0.76640622  1
  Co  Co129  1  0.29847549  0.75977638  0.90589533  1
  Co  Co130  1  0.72936169  0.45042775  0.00226549  1
  Co  Co131  1  0.04209634  0.95539876  0.87662349  1
  Co  Co132  1  0.75312491  0.62517764  1.00493895  1
  Co  Co133  1  0.58036783  0.47477239  0.94435545  1
  Co  Co134  1  0.21871303  0.32627191  0.29061245  1
  Co  Co135  1  0.12080236  0.85854086  0.48471696  1
  Co  Co136  1  0.84914579  0.20002014  0.17035290  1
  Co  Co137  1  0.56154869  0.87297664  0.05093701  1
  Co  Co138  1  0.79292596  0.77762833  0.05232071  1
  Co  Co139  1  0.06787330  0.69813014  0.49852213  1
  Co  Co140  1  0.00992851  -0.00881368  0.43330845  1
  Co  Co141  1  0.62881891  0.55604177  0.07374760  1
  Co  Co142  1  0.42424232  0.52782701  0.16854019  1
  Co  Co143  1  0.01925378  0.43160303  0.20693206  1
  Co  Co144  1  1.01252077  0.80971212  0.63180861  1
  Co  Co145  1  0.55138919  0.78713245  0.19523481  1
  Co  Co146  1  0.90222059  0.64797570  0.06003776  1
  Co  Co147  1  0.39284738  0.34951182  0.26981244  1
  Co  Co148  1  0.95889937  0.78369642  0.98576361  1
  Co  Co149  1  0.41619976  0.69203391  0.12900998  1
  Co  Co150  1  0.91426913  0.13817907  0.33898101  1
  Co  Co151  1  0.33782810  0.10452165  0.96439957  1
  Co  Co152  1  0.73544140  0.25148264  0.51783447  1
  Co  Co153  1  0.41754978  0.86390685  0.17070794  1
  Co  Co154  1  0.87961466  0.97754798  0.33953118  1
  Co  Co155  1  0.99709528  0.93945207  0.72813222  1
  Co  Co156  1  0.60540810  0.03350509  0.86898752  1
  Co  Co157  1  0.64801788  0.88847828  0.78279936  1
  Co  Co158  1  0.10577052  0.30517411  0.40878657  1
  Co  Co159  1  0.63897440  0.94473914  0.46227200  1
  Co  Co160  1  0.07641182  0.14830691  0.52545213  1
  Co  Co161  1  0.22794246  0.19406548  0.39960938  1
  Ni  Ni162  1  0.56517209  0.34432620  0.21362775  1
  Ni  Ni163  1  0.17402705  0.53254926  0.89634169  1
  Ni  Ni164  1  0.13736602  0.36995944  0.67679492  1
  Ni  Ni165  1  0.37391988  0.30882257  0.55564772  1
  Ni  Ni166  1  0.97815350  0.65388687  0.75774002  1
  Ni  Ni167  1  0.27323074  0.44596297  0.58378382  1
  Ni  Ni168  1  0.70983142  0.27221525  0.23235147  1
  Ni  Ni169  1  0.58755316  0.31418504  0.02584885  1
  Ni  Ni170  1  0.32657254  0.16979394  0.63393416  1
  Ni  Ni171  1  0.36547925  0.71332582  0.44419998  1
  Ni  Ni172  1  0.85359254  0.36130301  0.19323889  1
  Ni  Ni173  1  0.04295570  0.54305009  0.63765797  1
  Ni  Ni174  1  0.69684827  0.56169913  0.31563113  1
  Ni  Ni175  1  0.30082508  0.03835284  0.34451665  1
  Ni  Ni176  1  0.49620743  0.29609130  0.71720823  1
  Ni  Ni177  1  0.77952850  0.03453770  0.09496421  1
  Ni  Ni178  1  0.15552794  0.51100931  0.13729566  1
  Ni  Ni179  1  1.01109908  0.74088528  0.31753525  1
  Ni  Ni180  1  0.07821719  0.11160561  0.06639457  1
  Ni  Ni181  1  0.56690909  0.81668028  0.64120526  1
  Ni  Ni182  1  -0.04762537  0.60632591  0.24566751  1
  Ni  Ni183  1  0.38500618  0.19866666  0.09734544  1
  Ni  Ni184  1  0.20364730  0.21589856  0.74572882  1
  Ni  Ni185  1  0.09091450  0.24836020  0.97615713  1
  Ni  Ni186  1  0.90934662  0.50814019  0.55041053  1
  Ni  Ni187  1  0.10755359  0.76295619  0.05225757  1
  Ni  Ni188  1  0.78521981  0.49811331  0.44543194  1
  Ni  Ni189  1  0.86238419  0.25712481  0.65625513  1
  Ni  Ni190  1  0.96473125  0.39864676  0.67054390  1
  Ni  Ni191  1  0.12720118  0.82909779  0.76196507  1
  Ni  Ni192  1  0.31711668  0.47040763  0.03337385  1
  Ni  Ni193  1  0.52268185  0.17931823  0.17475333  1
  Ni  Ni194  1  0.93196869  0.39252486  0.42584098  1
  Ni  Ni195  1  0.38238740  0.48218889  0.71595728  1
  Ni  Ni196  1  0.76668724  0.62476917  0.57173134  1
  Ni  Ni197  1  0.90258739  0.95375819  0.16388433  1
  Ni  Ni198  1  0.81008819  0.66584838  0.40471805  1
  Ni  Ni199  1  0.36011434  0.80818478  0.62072903  1
  Ni  Ni200  1  0.79818957  0.70206124  0.73650250  1
  Ni  Ni201  1  0.22721173  0.73152374  0.53107026  1
  Ni  Ni202  1  0.29045007  0.42662641  0.86667627  1
  Ni  Ni203  1  0.53271324  -0.01544001  0.57911940  1
  Ni  Ni204  1  0.31756518  0.93027001  0.95366930  1
  Ni  Ni205  1  0.99525810  0.37626073  0.91461844  1
  Ni  Ni206  1  0.46123551  0.35598570  0.42637456  1
  Ni  Ni207  1  0.29801358  0.55782749  0.40316401  1
  Ni  Ni208  1  0.70937586  0.46107253  0.73601068  1
  Ni  Ni209  1  0.81184234  0.79726931  0.55681482  1
  Ni  Ni210  1  0.44420122  0.07370728  0.27320005  1
  Ni  Ni211  1  0.25955194  0.71488701  0.19641604  1
  Ni  Ni212  1  0.53728159  0.82582604  0.88126603  1
  Ni  Ni213  1  0.83796342  0.29568383  0.92681849  1
  Ni  Ni214  1  0.47334650  0.85459432  0.50734487  1
  Ni  Ni215  1  0.13502583  0.82644598  0.20906583  1
