# generated using pymatgen
data_Ti2CoNi
_symmetry_space_group_name_H-M   'P 1'
_cell_length_a   14.67827960
_cell_length_b   14.61054843
_cell_length_c   14.54808028
_cell_angle_alpha   90.02510389
_cell_angle_beta   90.38582615
_cell_angle_gamma   89.83475179
_symmetry_Int_Tables_number   1
_chemical_formula_structural   Ti2CoNi
_chemical_formula_sum   'Ti108 Co54 Ni54'
_cell_volume   3119.86406596
_cell_formula_units_Z   54
loop_
 _symmetry_equiv_pos_site_id
 _symmetry_equiv_pos_as_xyz
  1  'x, y, z'
loop_
 _atom_site_type_symbol
 _atom_site_label
 _atom_site_symmetry_multiplicity
 _atom_site_fract_x
 _atom_site_fract_y
 _atom_site_fract_z
 _atom_site_occupancy
  Ti  Ti0  1  0.07014670  -0.03949149  -0.00348649  1
  Ti  Ti1  1  0.02139106  0.04438605  0.28272898  1
  Ti  Ti2  1  0.06749436  0.01165863  0.68107961  1
  Ti  Ti3  1  0.05086665  0.32707991  -0.05275500  1
  Ti  Ti4  1  -0.01064203  0.32361256  0.36404638  1
  Ti  Ti5  1  -0.09645062  0.35037839  0.67078279  1
  Ti  Ti6  1  -0.00326392  0.71083611  0.06585410  1
  Ti  Ti7  1  -0.08330448  0.73522113  0.37419758  1
  Ti  Ti8  1  -0.03919455  0.63460968  0.67494324  1
  Ti  Ti9  1  0.28034169  -0.02049687  -0.09594774  1
  Ti  Ti10  1  0.28939392  0.00286437  0.36661032  1
  Ti  Ti11  1  0.43110088  -0.01921343  0.65494146  1
  Ti  Ti12  1  0.25253882  0.31785538  -0.02362906  1
  Ti  Ti13  1  0.35065780  0.31952203  0.34559340  1
  Ti  Ti14  1  0.32434056  0.30288378  0.61385146  1
  Ti  Ti15  1  0.39974577  0.68307044  0.04666783  1
  Ti  Ti16  1  0.40246828  0.72530915  0.34150460  1
  Ti  Ti17  1  0.33791840  0.65492351  0.67483059  1
  Ti  Ti18  1  0.66589416  0.03200216  0.00681876  1
  Ti  Ti19  1  0.76526180  0.03627749  0.30360400  1
  Ti  Ti20  1  0.63458333  -0.03360482  0.67040627  1
  Ti  Ti21  1  0.69974748  0.35458964  0.02652062  1
  Ti  Ti22  1  0.60950098  0.33118159  0.31464766  1
  Ti  Ti23  1  0.66089323  0.27250458  0.68480007  1
  Ti  Ti24  1  0.68222980  0.69010905  -0.02799879  1
  Ti  Ti25  1  0.65637329  0.67942490  0.25346680  1
  Ti  Ti26  1  0.75560911  0.64276971  0.67150906  1
  Ti  Ti27  1  -0.00429993  0.15746268  0.10021766  1
  Ti  Ti28  1  0.01034069  0.15673587  0.53577786  1
  Ti  Ti29  1  -0.10685382  0.10293048  0.77792063  1
  Ti  Ti30  1  -0.00677809  0.49695418  0.15039018  1
  Ti  Ti31  1  0.01134990  0.47543149  0.52382939  1
  Ti  Ti32  1  0.03249947  0.50120287  0.85492798  1
  Ti  Ti33  1  0.02596741  0.84102796  0.24485248  1
  Ti  Ti34  1  0.00367045  0.80273378  0.56050809  1
  Ti  Ti35  1  -0.02769362  0.79575425  0.76886963  1
  Ti  Ti36  1  0.37030160  0.23463087  0.12863302  1
  Ti  Ti37  1  0.36078515  0.13915485  0.48145789  1
  Ti  Ti38  1  0.34176730  0.16695250  0.91323412  1
  Ti  Ti39  1  0.32340500  0.50834897  0.10162782  1
  Ti  Ti40  1  0.23315355  0.56128159  0.52846637  1
  Ti  Ti41  1  0.28688721  0.53856903  0.83047204  1
  Ti  Ti42  1  0.28987805  0.77720041  0.18249424  1
  Ti  Ti43  1  0.37282931  0.79749258  0.54638871  1
  Ti  Ti44  1  0.27959374  0.80094851  0.77501831  1
  Ti  Ti45  1  0.64161947  0.20232715  0.15209694  1
  Ti  Ti46  1  0.63234060  0.23282546  0.49984234  1
  Ti  Ti47  1  0.68763398  0.10944036  0.80065776  1
  Ti  Ti48  1  0.68883973  0.51071260  0.14666258  1
  Ti  Ti49  1  0.66190064  0.45140689  0.45894397  1
  Ti  Ti50  1  0.63736674  0.52185538  0.90264211  1
  Ti  Ti51  1  0.69829793  0.88759749  0.13835336  1
  Ti  Ti52  1  0.66752441  0.89197240  0.48345564  1
  Ti  Ti53  1  0.62577024  0.73713703  0.79651784  1
  Ti  Ti54  1  0.19378613  -0.05682232  0.20331340  1
  Ti  Ti55  1  0.19829708  0.06597533  0.55177520  1
  Ti  Ti56  1  0.12281510  -0.09810656  0.81859405  1
  Ti  Ti57  1  0.17626239  0.24814197  0.13355860  1
  Ti  Ti58  1  0.19279284  0.37676381  0.49792637  1
  Ti  Ti59  1  0.20815456  0.37330043  0.79484700  1
  Ti  Ti60  1  0.15448138  0.63947860  0.13787926  1
  Ti  Ti61  1  0.10526806  0.64631939  0.41055783  1
  Ti  Ti62  1  0.13066913  0.67768528  0.85615063  1
  Ti  Ti63  1  0.44648804  0.00086793  0.19527884  1
  Ti  Ti64  1  0.53996904  0.04927612  0.50144871  1
  Ti  Ti65  1  0.51095010  0.04165710  0.86592947  1
  Ti  Ti66  1  0.48119875  0.41258820  0.19365569  1
  Ti  Ti67  1  0.48605009  0.35789747  0.50417988  1
  Ti  Ti68  1  0.53979474  0.39940953  0.77406464  1
  Ti  Ti69  1  0.48219891  0.62118983  0.20865797  1
  Ti  Ti70  1  0.54294693  0.73770721  0.45710403  1
  Ti  Ti71  1  0.46928586  0.58214288  0.80991687  1
  Ti  Ti72  1  0.87511467  -0.00066792  0.04103353  1
  Ti  Ti73  1  0.88998151  0.03021704  0.45317181  1
  Ti  Ti74  1  0.77681904  -0.06662685  0.86636034  1
  Ti  Ti75  1  0.88027481  0.30472469  0.19742041  1
  Ti  Ti76  1  0.84529141  0.43756441  0.44896053  1
  Ti  Ti77  1  0.81135274  0.25934808  0.86393691  1
  Ti  Ti78  1  0.84712279  0.61822390  0.19365247  1
  Ti  Ti79  1  0.76485287  0.63556822  0.46701228  1
  Ti  Ti80  1  0.90445871  0.66229401  0.88385361  1
  Ti  Ti81  1  0.13820734  0.13456010  -0.04341457  1
  Ti  Ti82  1  0.20936607  0.17365301  0.29931799  1
  Ti  Ti83  1  0.14564659  0.21207581  0.67465509  1
  Ti  Ti84  1  0.15768224  0.43857405  0.09936297  1
  Ti  Ti85  1  0.20822824  0.50467002  0.28932009  1
  Ti  Ti86  1  0.10684223  0.48095756  0.67184617  1
  Ti  Ti87  1  0.23648901  0.80057215  -0.01772364  1
  Ti  Ti88  1  0.24088196  0.81704460  0.39412965  1
  Ti  Ti89  1  0.17997733  0.87254353  0.58910443  1
  Ti  Ti90  1  0.51044183  0.12961232  0.05715590  1
  Ti  Ti91  1  0.60089730  0.13068693  0.32242272  1
  Ti  Ti92  1  0.44564552  0.22151830  0.74382413  1
  Ti  Ti93  1  0.48820288  0.50102700  0.00853375  1
  Ti  Ti94  1  0.47974933  0.53926233  0.40888832  1
  Ti  Ti95  1  0.44336426  0.49969374  0.62224685  1
  Ti  Ti96  1  0.46665121  0.83913393  -0.05508092  1
  Ti  Ti97  1  0.55094367  0.83806407  0.26892123  1
  Ti  Ti98  1  0.52786377  0.68463068  0.63808439  1
  Ti  Ti99  1  0.80665651  0.18722989  0.05759598  1
  Ti  Ti100  1  0.80983073  0.21389585  0.40949526  1
  Ti  Ti101  1  0.79814223  0.15048485  0.60130062  1
  Ti  Ti102  1  0.82342732  0.47204679  -0.07500727  1
  Ti  Ti103  1  0.95891088  0.54328137  0.34323566  1
  Ti  Ti104  1  0.73804946  0.45221545  0.72333336  1
  Ti  Ti105  1  0.82645521  0.80370125  0.02057068  1
  Ti  Ti106  1  0.78958253  0.85384889  0.30703852  1
  Ti  Ti107  1  0.79891145  0.84573849  0.68189705  1
  Co  Co108  1  0.91979914  0.37377811  0.84050143  1
  Co  Co109  1  0.11512014  0.76212482  0.69383669  1
  Co  Co110  1  0.73196154  0.70893130  0.12362702  1
  Co  Co111  1  0.86515359  0.45150474  0.25880655  1
  Co  Co112  1  0.69200513  0.35795857  0.84943216  1
  Co  Co113  1  0.05228312  0.35784080  0.74755285  1
  Co  Co114  1  0.75757288  0.54438360  0.32625827  1
  Co  Co115  1  0.39859564  0.91437714  0.80672107  1
  Co  Co116  1  0.21028546  0.72511072  0.53548983  1
  Co  Co117  1  0.88517142  0.95274702  0.20811037  1
  Co  Co118  1  0.27599908  0.63671957  0.38706912  1
  Co  Co119  1  0.28477843  0.23124768  0.77490947  1
  Co  Co120  1  0.91968890  0.02507675  0.62077550  1
  Co  Co121  1  0.57750933  0.77058072  0.09202460  1
  Co  Co122  1  0.07719112  0.80735935  0.42023048  1
  Co  Co123  1  0.61917227  0.61041137  0.39403689  1
  Co  Co124  1  0.60180775  0.41509947  0.61003566  1
  Co  Co125  1  0.39414298  0.63460042  0.51464075  1
  Co  Co126  1  0.05021108  0.06070869  0.83976111  1
  Co  Co127  1  0.75237983  0.60434475  0.82801559  1
  Co  Co128  1  0.37084687  0.88282152  0.28289063  1
  Co  Co129  1  0.58280400  0.61016493  0.07980233  1
  Co  Co130  1  0.62394119  0.57867772  0.55902657  1
  Co  Co131  1  0.39919312  0.36395498  0.02813264  1
  Co  Co132  1  0.13182068  0.81620785  0.10679985  1
  Co  Co133  1  0.76536624  0.35535830  0.33591428  1
  Co  Co134  1  0.67280124  0.75275187  0.57756988  1
  Co  Co135  1  0.16249732  0.73338670  0.27527189  1
  Co  Co136  1  0.78378128  0.00492661  0.71830282  1
  Co  Co137  1  0.06712420  0.79550397  0.94476289  1
  Co  Co138  1  0.76624205  0.05910504  0.14693319  1
  Co  Co139  1  0.08372446  0.63329677  0.57809915  1
  Co  Co140  1  0.20025596  0.08586707  0.78661288  1
  Co  Co141  1  0.55871690  0.37029337  0.93791817  1
  Co  Co142  1  0.94904858  0.90505927  0.37666293  1
  Co  Co143  1  0.93617918  0.94688176  0.77081415  1
  Co  Co144  1  0.30332491  0.07433318  0.20021577  1
  Co  Co145  1  0.29324228  0.36986397  0.18301806  1
  Co  Co146  1  0.54379888  0.31018001  0.08763205  1
  Co  Co147  1  0.51743853  0.67220368  0.93372011  1
  Co  Co148  1  0.04418854  0.21274171  0.25412100  1
  Co  Co149  1  0.69306221  0.76132652  0.39458777  1
  Co  Co150  1  0.47394629  0.23853587  0.94675387  1
  Co  Co151  1  0.44132269  0.81726351  0.14830017  1
  Co  Co152  1  0.60056160  0.49310990  0.28278385  1
  Co  Co153  1  0.93146875  0.86420610  0.91656346  1
  Co  Co154  1  0.97040706  0.87370413  0.08702301  1
  Co  Co155  1  0.87239162  0.78070642  0.18803867  1
  Co  Co156  1  0.13751578  0.23224603  0.83905703  1
  Co  Co157  1  0.31723712  0.13193745  0.64378850  1
  Co  Co158  1  0.79300058  0.09742935  0.92356295  1
  Co  Co159  1  0.61377281  0.02434043  0.18509275  1
  Co  Co160  1  0.36754926  0.07057311  0.78276163  1
  Co  Co161  1  0.60562217  0.55752682  0.72287336  1
  Ni  Ni162  1  0.46101519  0.90350481  0.42927256  1
  Ni  Ni163  1  0.64748071  0.85938790  0.95487406  1
  Ni  Ni164  1  0.47550905  0.20581684  0.57837185  1
  Ni  Ni165  1  0.84863032  0.74792684  0.56297543  1
  Ni  Ni166  1  0.11207969  0.10455427  0.41274056  1
  Ni  Ni167  1  0.89814952  0.58035304  0.02772405  1
  Ni  Ni168  1  0.37644986  0.39076795  0.76271125  1
  Ni  Ni169  1  0.48496440  0.22076389  0.40586647  1
  Ni  Ni170  1  0.32308889  0.95660566  0.52651623  1
  Ni  Ni171  1  0.56032616  0.88863929  0.79466279  1
  Ni  Ni172  1  0.22001806  0.22106628  0.46604694  1
  Ni  Ni173  1  0.34468596  0.68838752  0.88367068  1
  Ni  Ni174  1  0.40261682  0.02289244  0.00833151  1
  Ni  Ni175  1  0.89803861  0.31836104  0.01155852  1
  Ni  Ni176  1  0.60719392  0.96867061  0.34890933  1
  Ni  Ni177  1  0.37230125  0.48780945  0.29386369  1
  Ni  Ni178  1  0.83691153  0.44590425  0.09669006  1
  Ni  Ni179  1  0.89290125  0.13004589  0.23097021  1
  Ni  Ni180  1  0.00849991  0.66786709  0.23860982  1
  Ni  Ni181  1  0.70415338  0.07977311  0.46169617  1
  Ni  Ni182  1  0.23597258  0.61723849  0.98915172  1
  Ni  Ni183  1  0.53661573  0.93791133  0.06036000  1
  Ni  Ni184  1  0.18623758  0.61797122  0.70897916  1
  Ni  Ni185  1  0.45253164  0.75523114  0.78105258  1
  Ni  Ni186  1  0.13437340  0.08272631  0.14125950  1
  Ni  Ni187  1  0.84652151  0.51333563  0.60108386  1
  Ni  Ni188  1  0.91039727  0.28718055  0.51592958  1
  Ni  Ni189  1  0.98467487  0.22648300  0.79048530  1
  Ni  Ni190  1  0.48944634  0.23193364  0.23959687  1
  Ni  Ni191  1  0.75651601  0.33737700  0.56152966  1
  Ni  Ni192  1  0.77818052  0.97583173  0.56367401  1
  Ni  Ni193  1  0.65081049  0.20091229  0.96739031  1
  Ni  Ni194  1  0.58291518  0.23262205  0.82707765  1
  Ni  Ni195  1  0.95026706  0.15860822  0.94042080  1
  Ni  Ni196  1  0.56509073  0.11549639  0.68057816  1
  Ni  Ni197  1  0.34515895  0.45176649  0.46358190  1
  Ni  Ni198  1  0.93523881  0.62323169  0.49960869  1
  Ni  Ni199  1  0.04777663  0.96968150  0.51090078  1
  Ni  Ni200  1  0.75642237  0.20879317  0.25631996  1
  Ni  Ni201  1  0.13033116  0.94734105  0.36708701  1
  Ni  Ni202  1  0.27608152  0.46590870  0.65912301  1
  Ni  Ni203  1  0.18031564  0.47044567  0.93709491  1
  Ni  Ni204  1  0.30750778  0.62363721  0.22474937  1
  Ni  Ni205  1  0.53183436  0.85600692  0.58893714  1
  Ni  Ni206  1  0.09521288  0.44950571  0.38315475  1
  Ni  Ni207  1  0.31618169  0.91881811  0.08924630  1
  Ni  Ni208  1  0.78689728  0.76931069  0.83910086  1
  Ni  Ni209  1  0.26472234  0.95956208  0.70587463  1
  Ni  Ni210  1  0.44607712  0.06499860  0.34994091  1
  Ni  Ni211  1  0.27087496  0.11710950  0.05090517  1
  Ni  Ni212  1  0.88817374  0.51998831  0.76541360  1
  Ni  Ni213  1  0.02837602  0.32930405  0.12311968  1
  Ni  Ni214  1  0.05819748  0.31817213  0.57741614  1
  Ni  Ni215  1  0.06656646  0.56787770  1.00540801  1
