# generated using pymatgen
data_Ti2CoNi
_symmetry_space_group_name_H-M   'P 1'
_cell_length_a   14.64637938
_cell_length_b   14.59175108
_cell_length_c   14.61538272
_cell_angle_alpha   89.98997445
_cell_angle_beta   89.85842245
_cell_angle_gamma   90.05921265
_symmetry_Int_Tables_number   1
_chemical_formula_structural   Ti2CoNi
_chemical_formula_sum   'Ti108 Co54 Ni54'
_cell_volume   3123.53458814
_cell_formula_units_Z   54
loop_
 _symmetry_equiv_pos_site_id
 _symmetry_equiv_pos_as_xyz
  1  'x, y, z'
loop_
 _atom_site_type_symbol
 _atom_site_label
 _atom_site_symmetry_multiplicity
 _atom_site_fract_x
 _atom_site_fract_y
 _atom_site_fract_z
 _atom_site_occupancy
  Ti  Ti0  1  -0.00372013  0.05151733  0.04322106  1
  Ti  Ti1  1  -0.03588083  0.07705518  0.33880333  1
  Ti  Ti2  1  0.00290586  -0.04166984  0.63534701  1
  Ti  Ti3  1  0.05071250  0.30987368  -0.05393622  1
  Ti  Ti4  1  -0.06241149  0.27033074  0.36380263  1
  Ti  Ti5  1  0.01849107  0.41194045  0.69785487  1
  Ti  Ti6  1  0.04202804  0.66795981  0.00184117  1
  Ti  Ti7  1  -0.02603341  0.74930367  0.31984216  1
  Ti  Ti8  1  -0.01921159  0.62186164  0.62933150  1
  Ti  Ti9  1  0.32432394  0.04752764  -0.06922273  1
  Ti  Ti10  1  0.25410869  -0.00057435  0.29112933  1
  Ti  Ti11  1  0.34468022  0.03372133  0.71932905  1
  Ti  Ti12  1  0.33527849  0.44006112  0.03515106  1
  Ti  Ti13  1  0.40030553  0.32334173  0.30734468  1
  Ti  Ti14  1  0.40276793  0.29849432  0.63830605  1
  Ti  Ti15  1  0.28487542  0.66130947  0.00471093  1
  Ti  Ti16  1  0.35621062  0.69263850  0.35880749  1
  Ti  Ti17  1  0.32562762  0.66343012  0.66397736  1
  Ti  Ti18  1  0.70896069  -0.02573476  0.03472492  1
  Ti  Ti19  1  0.63822968  -0.00971931  0.26203280  1
  Ti  Ti20  1  0.58621816  0.03045058  0.66377185  1
  Ti  Ti21  1  0.67965131  0.31522006  -0.07785128  1
  Ti  Ti22  1  0.62417232  0.37005390  0.33567224  1
  Ti  Ti23  1  0.63171730  0.36575293  0.64504096  1
  Ti  Ti24  1  0.55745489  0.65011292  0.04311231  1
  Ti  Ti25  1  0.69486980  0.67660482  0.36382592  1
  Ti  Ti26  1  0.65548435  0.61075768  0.69694535  1
  Ti  Ti27  1  0.02018092  0.20484218  0.19368299  1
  Ti  Ti28  1  0.06203316  0.14631927  0.49184508  1
  Ti  Ti29  1  0.06072925  0.21149575  0.76675093  1
  Ti  Ti30  1  -0.03342759  0.51193318  0.13093807  1
  Ti  Ti31  1  0.08421014  0.45147674  0.51863095  1
  Ti  Ti32  1  -0.03327526  0.55276218  0.83628958  1
  Ti  Ti33  1  -0.00640132  0.83032175  0.14007030  1
  Ti  Ti34  1  -0.05619016  0.81329362  0.50950639  1
  Ti  Ti35  1  -0.00021869  0.88948350  0.95170909  1
  Ti  Ti36  1  0.27449527  0.11846005  0.11396991  1
  Ti  Ti37  1  0.35994935  0.19295325  0.44998538  1
  Ti  Ti38  1  0.34725591  0.23146357  0.82923669  1
  Ti  Ti39  1  0.33096334  0.50028296  0.22729386  1
  Ti  Ti40  1  0.34741190  0.53711815  0.53538484  1
  Ti  Ti41  1  0.29455309  0.52479839  0.84978478  1
  Ti  Ti42  1  0.32756663  0.83039461  0.16724544  1
  Ti  Ti43  1  0.36585302  0.95642939  0.49933059  1
  Ti  Ti44  1  0.34750070  0.82973050  0.89197065  1
  Ti  Ti45  1  0.68007963  0.23310134  0.20070894  1
  Ti  Ti46  1  0.71532644  0.15112039  0.53318300  1
  Ti  Ti47  1  0.65359996  0.09911703  0.85935942  1
  Ti  Ti48  1  0.75642800  0.47719267  0.22691610  1
  Ti  Ti49  1  0.62554730  0.51514245  0.50795011  1
  Ti  Ti50  1  0.75093881  0.52182780  0.84780124  1
  Ti  Ti51  1  0.65314110  0.79956385  0.16717790  1
  Ti  Ti52  1  0.62253713  0.86836860  0.49139933  1
  Ti  Ti53  1  0.68174688  0.88582807  0.84273214  1
  Ti  Ti54  1  0.14872926  -0.05955294  0.11418892  1
  Ti  Ti55  1  0.16684218  -0.04859949  0.48698835  1
  Ti  Ti56  1  0.09278735  -0.02398836  0.82193645  1
  Ti  Ti57  1  0.18229365  0.33107344  0.11203627  1
  Ti  Ti58  1  0.20806125  0.26705798  0.55054052  1
  Ti  Ti59  1  0.20688449  0.34686487  0.74797115  1
  Ti  Ti60  1  0.09662074  0.65274639  0.18465266  1
  Ti  Ti61  1  0.17195092  0.65394501  0.39110522  1
  Ti  Ti62  1  0.06266035  0.74937352  0.80873588  1
  Ti  Ti63  1  0.43795683  -0.00458122  0.21199367  1
  Ti  Ti64  1  0.54100914  0.08591416  0.48034512  1
  Ti  Ti65  1  0.50400842  -0.09282117  0.80510333  1
  Ti  Ti66  1  0.49880251  0.28359699  0.11947702  1
  Ti  Ti67  1  0.52954809  0.29406001  0.48018947  1
  Ti  Ti68  1  0.47393837  0.37008367  0.85542837  1
  Ti  Ti69  1  0.42057707  0.66864069  0.16628241  1
  Ti  Ti70  1  0.52101756  0.66128285  0.43307604  1
  Ti  Ti71  1  0.47139704  0.69100075  0.85350060  1
  Ti  Ti72  1  0.89082718  0.01712737  0.18337393  1
  Ti  Ti73  1  0.87692831  0.02839447  0.51285136  1
  Ti  Ti74  1  0.85717855  0.03497869  0.88175823  1
  Ti  Ti75  1  0.86289618  0.32961066  0.12570664  1
  Ti  Ti76  1  0.76573740  0.33938727  0.46715351  1
  Ti  Ti77  1  0.87768332  0.35391849  0.87110422  1
  Ti  Ti78  1  0.87587750  0.67363422  0.13944461  1
  Ti  Ti79  1  0.86012519  0.64804222  0.45400306  1
  Ti  Ti80  1  0.86710862  0.72164561  0.82531742  1
  Ti  Ti81  1  0.20781084  0.20751117  -0.05911932  1
  Ti  Ti82  1  0.19881645  0.21429240  0.32042497  1
  Ti  Ti83  1  0.14834081  0.07298095  0.66058346  1
  Ti  Ti84  1  0.12804951  0.49202745  0.00325122  1
  Ti  Ti85  1  0.12077637  0.47544779  0.30702007  1
  Ti  Ti86  1  0.16266810  0.54759734  0.71324336  1
  Ti  Ti87  1  0.17200357  0.81853482  -0.05315684  1
  Ti  Ti88  1  0.16411068  0.82349849  0.27796617  1
  Ti  Ti89  1  0.22007316  0.84451841  0.68920958  1
  Ti  Ti90  1  0.49608531  0.17753299  -0.04124301  1
  Ti  Ti91  1  0.52000006  0.16253973  0.29786982  1
  Ti  Ti92  1  0.49563163  0.17306086  0.75030743  1
  Ti  Ti93  1  0.57822316  0.45892633  -0.00061926  1
  Ti  Ti94  1  0.46336778  0.47303597  0.40041134  1
  Ti  Ti95  1  0.47971519  0.53122579  0.73594851  1
  Ti  Ti96  1  0.56258817  0.83121105  -0.01794356  1
  Ti  Ti97  1  0.51473722  0.81232018  0.29387387  1
  Ti  Ti98  1  0.51394097  0.76739667  0.63219488  1
  Ti  Ti99  1  0.80431985  0.17206058  0.00872149  1
  Ti  Ti100  1  0.78691973  0.12744954  0.34493532  1
  Ti  Ti101  1  0.83357759  0.13019767  0.69367661  1
  Ti  Ti102  1  0.79410651  0.47047827  0.02822296  1
  Ti  Ti103  1  0.91841904  0.46473057  0.41217119  1
  Ti  Ti104  1  0.84071455  0.44520608  0.64631327  1
  Ti  Ti105  1  0.75276562  0.76170848  0.00983643  1
  Ti  Ti106  1  0.83698299  0.91341516  0.35748699  1
  Ti  Ti107  1  0.81952454  0.87155056  0.67523914  1
  Co  Co108  1  0.62119571  0.52906000  0.14664838  1
  Co  Co109  1  0.13599601  0.70199897  0.67184614  1
  Co  Co110  1  0.77958682  0.28218220  0.61912418  1
  Co  Co111  1  0.77099422  0.20660661  0.82772825  1
  Co  Co112  1  0.46157589  0.50983286  0.10603268  1
  Co  Co113  1  0.94913037  0.89206899  0.78924009  1
  Co  Co114  1  1.00951180  0.95020896  0.44308305  1
  Co  Co115  1  -0.02918221  0.06335167  0.77041107  1
  Co  Co116  1  0.55007156  0.92581994  0.12129192  1
  Co  Co117  1  0.43869361  0.93289585  0.98497031  1
  Co  Co118  1  -0.02405450  0.78169926  0.67566334  1
  Co  Co119  1  0.72145866  0.65103576  0.16960818  1
  Co  Co120  1  0.93980227  0.41306494  0.25651971  1
  Co  Co121  1  0.95454814  0.21529165  0.03525800  1
  Co  Co122  1  0.05499958  0.12123358  0.91019776  1
  Co  Co123  1  0.07095429  0.31051618  0.43869301  1
  Co  Co124  1  0.96311050  0.45731918  0.97333552  1
  Co  Co125  1  0.25360945  0.83476605  0.41459747  1
  Co  Co126  1  0.61209660  0.27053475  0.78377978  1
  Co  Co127  1  0.92967871  0.34747243  0.53888357  1
  Co  Co128  1  0.24578766  0.36850981  0.25515107  1
  Co  Co129  1  0.50035677  0.60988461  0.59163514  1
  Co  Co130  1  0.75744517  0.49739911  0.40524913  1
  Co  Co131  1  0.87723197  0.19056280  0.49849369  1
  Co  Co132  1  0.83218728  0.71764739  0.61542648  1
  Co  Co133  1  0.90918363  0.28770033  0.71310569  1
  Co  Co134  1  0.02411253  0.36086754  0.10677488  1
  Co  Co135  1  0.53865895  0.40628779  0.21150243  1
  Co  Co136  1  0.08507743  0.32821963  0.27365400  1
  Co  Co137  1  0.87732857  0.60302446  -0.02929765  1
  Co  Co138  1  0.28903688  0.90961431  0.03327716  1
  Co  Co139  1  0.09743429  0.83723779  0.57937369  1
  Co  Co140  1  0.47829694  0.55492853  0.26565496  1
  Co  Co141  1  0.17421218  0.76899946  0.10268293  1
  Co  Co142  1  0.06378138  0.28097204  0.61210216  1
  Co  Co143  1  0.91392191  0.76070147  0.99281601  1
  Co  Co144  1  0.16471531  1.01307599  0.97014227  1
  Co  Co145  1  0.57073957  0.01822132  0.97449946  1
  Co  Co146  1  0.61995427  0.53244511  0.32925830  1
  Co  Co147  1  0.63820240  0.87350825  0.67242095  1
  Co  Co148  1  0.56539961  0.10046340  0.14957454  1
  Co  Co149  1  0.61534423  0.43619064  0.79421763  1
  Co  Co150  1  0.72684940  0.74822738  0.74199755  1
  Co  Co151  1  0.83076293  0.59628225  0.72141437  1
  Co  Co152  1  0.09228107  0.79135539  0.42556142  1
  Co  Co153  1  0.58324762  0.56723595  0.87353015  1
  Co  Co154  1  0.20758974  0.10750980  0.81616174  1
  Co  Co155  1  0.98252831  0.13924308  0.62965087  1
  Co  Co156  1  0.41701469  0.76632079  0.02706051  1
  Co  Co157  1  0.92375643  0.19724736  0.86422746  1
  Co  Co158  1  0.57771469  0.67298612  0.24698592  1
  Co  Co159  1  0.75606717  0.35875381  0.76376963  1
  Co  Co160  1  0.42901854  0.06901963  0.06727604  1
  Co  Co161  1  0.46469196  0.05312810  0.84985296  1
  Ni  Ni162  1  0.57563414  0.20621322  0.61157149  1
  Ni  Ni163  1  1.02529862  0.61354546  0.46304815  1
  Ni  Ni164  1  -0.00436517  0.58323448  0.29986140  1
  Ni  Ni165  1  0.25842532  0.67799589  0.22163844  1
  Ni  Ni166  1  0.36364001  0.28255972  0.98870272  1
  Ni  Ni167  1  0.35043406  0.43550466  0.71710719  1
  Ni  Ni168  1  0.12347252  0.06148602  0.36499626  1
  Ni  Ni169  1  0.24867871  0.94240984  0.82307853  1
  Ni  Ni170  1  0.12584127  0.07636792  0.20379595  1
  Ni  Ni171  1  0.83815203  0.60047266  0.29104761  1
  Ni  Ni172  1  0.80831886  0.76555659  0.28276945  1
  Ni  Ni173  1  0.26667661  0.09147787  0.54709845  1
  Ni  Ni174  1  0.22012318  0.36473756  0.41382510  1
  Ni  Ni175  1  0.37203007  0.88654631  0.32957404  1
  Ni  Ni176  1  0.48528868  0.43893021  0.57872862  1
  Ni  Ni177  1  0.26321080  0.70042161  0.81249518  1
  Ni  Ni178  1  0.33479595  0.28435730  0.15089366  1
  Ni  Ni179  1  0.44641555  0.81220452  0.46226413  1
  Ni  Ni180  1  0.10015511  0.44580194  0.84352506  1
  Ni  Ni181  1  0.82933095  0.87089012  0.89891942  1
  Ni  Ni182  1  0.39535197  0.05756098  0.37006927  1
  Ni  Ni183  1  0.45686034  0.93085035  0.63459271  1
  Ni  Ni184  1  0.73115224  0.00636993  0.73945272  1
  Ni  Ni185  1  0.64346428  0.18799930  0.03834130  1
  Ni  Ni186  1  0.68008741  0.35808842  0.09465354  1
  Ni  Ni187  1  0.64605110  0.71391385  0.88080371  1
  Ni  Ni188  1  0.35872567  0.16054079  0.25170961  1
  Ni  Ni189  1  0.79184854  0.32120474  0.29635394  1
  Ni  Ni190  1  0.51900669  0.95346838  0.38496360  1
  Ni  Ni191  1  0.77375229  0.90493665  0.19650641  1
  Ni  Ni192  1  0.65772337  0.70045775  0.54657432  1
  Ni  Ni193  1  0.70673314  0.60212716  1.00093477  1
  Ni  Ni194  1  0.68665349  0.01553066  0.42191351  1
  Ni  Ni195  1  0.21658001  0.55166887  0.12329271  1
  Ni  Ni196  1  0.72821085  0.97898779  0.57520286  1
  Ni  Ni197  1  0.86401190  0.90945310  0.05347264  1
  Ni  Ni198  1  0.14557804  0.61204223  0.88084806  1
  Ni  Ni199  1  0.23419736  0.42759055  0.59481707  1
  Ni  Ni200  1  0.17681614  0.58695988  0.55183215  1
  Ni  Ni201  1  0.77012313  0.56809728  0.56485434  1
  Ni  Ni202  1  0.73430239  0.08077864  0.15637982  1
  Ni  Ni203  1  0.37547694  0.81091555  0.72862804  1
  Ni  Ni204  1  0.85530043  0.18307783  0.20397043  1
  Ni  Ni205  1  0.27079787  0.19193044  0.68636849  1
  Ni  Ni206  1  0.27999043  0.51433559  0.38255143  1
  Ni  Ni207  1  0.36373018  0.36390051  0.48966552  1
  Ni  Ni208  1  0.11692391  0.16382604  0.06494068  1
  Ni  Ni209  1  0.42560208  0.11911297  0.59500884  1
  Ni  Ni210  1  0.43374129  0.54290519  0.93911558  1
  Ni  Ni211  1  0.65278378  0.20883208  0.38470529  1
  Ni  Ni212  1  0.77602301  0.79819536  0.46938646  1
  Ni  Ni213  1  0.23386004  0.74152724  0.53852787  1
  Ni  Ni214  1  0.22703762  0.37169490  0.92221348  1
  Ni  Ni215  1  0.03816720  0.93993988  0.26543193  1
