# generated using pymatgen
data_Ti2CoNi
_symmetry_space_group_name_H-M   'P 1'
_cell_length_a   14.48510089
_cell_length_b   14.49002650
_cell_length_c   14.49104759
_cell_angle_alpha   89.93891477
_cell_angle_beta   89.88558126
_cell_angle_gamma   90.16347687
_symmetry_Int_Tables_number   1
_chemical_formula_structural   Ti2CoNi
_chemical_formula_sum   'Ti108 Co54 Ni54'
_cell_volume   3041.49848143
_cell_formula_units_Z   54
loop_
 _symmetry_equiv_pos_site_id
 _symmetry_equiv_pos_as_xyz
  1  'x, y, z'
loop_
 _atom_site_type_symbol
 _atom_site_label
 _atom_site_symmetry_multiplicity
 _atom_site_fract_x
 _atom_site_fract_y
 _atom_site_fract_z
 _atom_site_occupancy
  Ti  Ti0  1  -0.02488260  0.03377777  0.03059665  1
  Ti  Ti1  1  0.05297741  0.02910917  0.28718704  1
  Ti  Ti2  1  0.04320232  0.02673528  0.65290711  1
  Ti  Ti3  1  0.00609416  0.46266316  0.02744114  1
  Ti  Ti4  1  0.05106179  0.29062911  0.35352013  1
  Ti  Ti5  1  0.01789089  0.23097225  0.70556254  1
  Ti  Ti6  1  0.06390182  0.64461135  0.08503218  1
  Ti  Ti7  1  -0.05419557  0.71133872  0.29324497  1
  Ti  Ti8  1  -0.02577119  0.61384400  0.65243508  1
  Ti  Ti9  1  0.34170203  -0.04541600  -0.05300274  1
  Ti  Ti10  1  0.34195436  -0.07564176  0.30347293  1
  Ti  Ti11  1  0.33738444  0.01543343  0.73707241  1
  Ti  Ti12  1  0.35953262  0.25477709  0.00868554  1
  Ti  Ti13  1  0.36588327  0.38730311  0.25249073  1
  Ti  Ti14  1  0.33461750  0.34332894  0.63531360  1
  Ti  Ti15  1  0.39356390  0.63485577  0.09083919  1
  Ti  Ti16  1  0.36574299  0.72511774  0.30853503  1
  Ti  Ti17  1  0.27427081  0.65778291  0.67230911  1
  Ti  Ti18  1  0.58402297  -0.13597081  0.00857774  1
  Ti  Ti19  1  0.62506969  -0.01740318  0.37444058  1
  Ti  Ti20  1  0.56932911  -0.04292634  0.66651689  1
  Ti  Ti21  1  0.66307418  0.33266315  -0.07871103  1
  Ti  Ti22  1  0.69135704  0.33689374  0.28668965  1
  Ti  Ti23  1  0.70547632  0.25820493  0.72771355  1
  Ti  Ti24  1  0.64387747  0.66800727  0.00125171  1
  Ti  Ti25  1  0.71830661  0.80726121  0.29224574  1
  Ti  Ti26  1  0.60580668  0.68852117  0.59266284  1
  Ti  Ti27  1  -0.03931834  0.18104156  0.19008449  1
  Ti  Ti28  1  0.00003979  0.13516548  0.45422237  1
  Ti  Ti29  1  -0.00825376  0.22938319  0.88769822  1
  Ti  Ti30  1  0.02777094  0.49689217  0.28832737  1
  Ti  Ti31  1  -0.06484601  0.42885404  0.47339036  1
  Ti  Ti32  1  0.01155385  0.41596676  0.80145805  1
  Ti  Ti33  1  0.01595535  0.84568020  0.03632278  1
  Ti  Ti34  1  -0.03875661  0.85636044  0.55956926  1
  Ti  Ti35  1  -0.02856769  0.83783525  0.85451533  1
  Ti  Ti36  1  0.30360238  0.10276117  0.18684874  1
  Ti  Ti37  1  0.30104037  0.16437272  0.47600886  1
  Ti  Ti38  1  0.29843533  0.12983301  0.86629246  1
  Ti  Ti39  1  0.26664938  0.49056723  0.11152636  1
  Ti  Ti40  1  0.36670636  0.51490225  0.53239859  1
  Ti  Ti41  1  0.35634217  0.49199951  0.90256475  1
  Ti  Ti42  1  0.42675600  0.83382181  0.15254722  1
  Ti  Ti43  1  0.31560043  0.84047584  0.48118640  1
  Ti  Ti44  1  0.26013768  0.81509832  0.82798065  1
  Ti  Ti45  1  0.71355637  0.13319599  0.19190963  1
  Ti  Ti46  1  0.63659925  0.23393111  0.53738232  1
  Ti  Ti47  1  0.68564008  0.12693457  0.89215949  1
  Ti  Ti48  1  0.68284080  0.49176800  0.16695558  1
  Ti  Ti49  1  0.66439624  0.46792197  0.47276438  1
  Ti  Ti50  1  0.56734686  0.48742527  0.87467845  1
  Ti  Ti51  1  0.63901788  0.96687917  0.16270369  1
  Ti  Ti52  1  0.70666336  0.79725012  0.47221021  1
  Ti  Ti53  1  0.77596475  0.88818639  0.78557548  1
  Ti  Ti54  1  0.14818649  -0.06242317  0.12804473  1
  Ti  Ti55  1  0.11619291  -0.00915972  0.48427077  1
  Ti  Ti56  1  0.15146152  -0.00952752  0.81736774  1
  Ti  Ti57  1  0.16290258  0.34037684  0.11668355  1
  Ti  Ti58  1  0.20776702  0.33027457  0.45294524  1
  Ti  Ti59  1  0.20033901  0.30890575  0.80512566  1
  Ti  Ti60  1  0.22845471  0.67839721  0.19521340  1
  Ti  Ti61  1  0.11972673  0.69665459  0.54517158  1
  Ti  Ti62  1  0.10936444  0.70570827  0.90981361  1
  Ti  Ti63  1  0.50764521  0.12132854  0.15747799  1
  Ti  Ti64  1  0.45085468  0.02548071  0.45204028  1
  Ti  Ti65  1  0.52264309  0.01568803  0.87622617  1
  Ti  Ti66  1  0.56424011  0.30624244  0.10424064  1
  Ti  Ti67  1  0.50452049  0.38405099  0.55446868  1
  Ti  Ti68  1  0.52501269  0.32333594  0.73778535  1
  Ti  Ti69  1  0.53449828  0.66152150  0.25236672  1
  Ti  Ti70  1  0.46214678  0.66314985  0.45944725  1
  Ti  Ti71  1  0.56569964  0.68440687  0.81455628  1
  Ti  Ti72  1  0.82280260  -0.10662260  0.12738373  1
  Ti  Ti73  1  0.77434826  0.06206418  0.48951799  1
  Ti  Ti74  1  0.96779529  0.04741318  0.83505573  1
  Ti  Ti75  1  0.88016543  0.39107060  0.13447087  1
  Ti  Ti76  1  0.82350188  0.25495562  0.56356054  1
  Ti  Ti77  1  0.81870626  0.44161351  0.85749934  1
  Ti  Ti78  1  0.78368261  0.65569303  0.16534009  1
  Ti  Ti79  1  0.84004982  0.60441970  0.52367514  1
  Ti  Ti80  1  0.86721351  0.66475598  0.82637724  1
  Ti  Ti81  1  0.14740276  0.19812686  -0.00537604  1
  Ti  Ti82  1  0.14369296  0.19866948  0.24366061  1
  Ti  Ti83  1  0.19014481  0.13910892  0.66645929  1
  Ti  Ti84  1  0.14653122  0.50093449  -0.07967615  1
  Ti  Ti85  1  0.23021359  0.52873620  0.32824698  1
  Ti  Ti86  1  0.14162180  0.51874058  0.69901842  1
  Ti  Ti87  1  0.24885965  0.79665075  0.04741291  1
  Ti  Ti88  1  0.16652959  0.83024846  0.34560556  1
  Ti  Ti89  1  0.09893970  0.78243635  0.70732096  1
  Ti  Ti90  1  0.52324656  0.21651125  -0.08450909  1
  Ti  Ti91  1  0.48066886  0.22641154  0.34108367  1
  Ti  Ti92  1  0.43391015  0.13364430  0.62109387  1
  Ti  Ti93  1  0.53336449  0.48921493  0.06221592  1
  Ti  Ti94  1  0.49118052  0.51268348  0.36731256  1
  Ti  Ti95  1  0.58151382  0.51741258  0.69046112  1
  Ti  Ti96  1  0.43000989  0.79244696  -0.04339903  1
  Ti  Ti97  1  0.50601962  0.83828662  0.36576095  1
  Ti  Ti98  1  0.42773492  0.79134649  0.69977649  1
  Ti  Ti99  1  0.81899253  0.22285825  0.03852203  1
  Ti  Ti100  1  0.84876833  0.11218184  0.33737809  1
  Ti  Ti101  1  0.84381970  0.13412606  0.74506476  1
  Ti  Ti102  1  0.84265082  0.55112513  0.00978075  1
  Ti  Ti103  1  0.83247617  0.52351579  0.31671257  1
  Ti  Ti104  1  0.81329968  0.42808901  0.62746138  1
  Ti  Ti105  1  0.80200256  0.78484567  -0.02562326  1
  Ti  Ti106  1  0.86621998  0.89255288  0.33867132  1
  Ti  Ti107  1  0.80541991  0.76763792  0.65109470  1
  Co  Co108  1  0.73287747  0.11120434  0.61764065  1
  Co  Co109  1  0.09262793  0.76155396  0.19093865  1
  Co  Co110  1  0.09878369  0.65643572  0.30247833  1
  Co  Co111  1  0.02503085  0.33249523  0.20014891  1
  Co  Co112  1  0.60045030  0.03216216  1.03074662  1
  Co  Co113  1  0.46775481  0.79101981  0.54816825  1
  Co  Co114  1  0.64700346  0.82550871  0.70081376  1
  Co  Co115  1  0.17191928  0.93028656  0.66807265  1
  Co  Co116  1  0.72703935  0.54288827  0.61780644  1
  Co  Co117  1  0.84186089  0.09579702  0.93459135  1
  Co  Co118  1  0.53682906  0.72784349  0.09355315  1
  Co  Co119  1  0.81915351  0.25294826  0.87553343  1
  Co  Co120  1  0.74570754  0.97905495  0.28102005  1
  Co  Co121  1  1.01594927  0.28044618  0.05109904  1
  Co  Co122  1  0.45771462  0.97374627  0.09263247  1
  Co  Co123  1  -0.04343336  0.54751505  0.88695910  1
  Co  Co124  1  0.10281856  0.44356323  0.40768495  1
  Co  Co125  1  0.09590349  0.34435663  0.93198302  1
  Co  Co126  1  0.69804961  0.95276637  0.90367614  1
  Co  Co127  1  0.86966330  0.93566580  -0.06002355  1
  Co  Co128  1  0.20099244  0.55836082  0.48692595  1
  Co  Co129  1  0.90277840  0.27295496  0.42192262  1
  Co  Co130  1  0.64040565  0.18618043  0.05056758  1
  Co  Co131  1  0.15161351  0.16106567  0.41601295  1
  Co  Co132  1  0.19445443  0.37823821  0.27838198  1
  Co  Co133  1  0.48348226  0.99321933  0.27559193  1
  Co  Co134  1  0.90198783  0.35747266  0.95876781  1
  Co  Co135  1  0.27012704  0.81172868  0.62631547  1
  Co  Co136  1  0.57906708  0.90959862  0.51754034  1
  Co  Co137  1  0.70562683  0.75066616  0.85603563  1
  Co  Co138  1  0.06844565  0.52021332  0.54591688  1
  Co  Co139  1  0.40454179  0.39600614  0.08928265  1
  Co  Co140  1  0.88615118  0.31407557  0.73730769  1
  Co  Co141  1  0.71310176  0.34439391  0.12314090  1
  Co  Co142  1  0.12132736  0.52497853  0.16029381  1
  Co  Co143  1  0.75244531  0.04342001  0.05242806  1
  Co  Co144  1  0.48137580  0.37406645  0.94263384  1
  Co  Co145  1  0.60013157  0.07027759  0.53502926  1
  Co  Co146  1  0.26444057  0.98914990  0.43877067  1
  Co  Co147  1  0.78393085  0.39124882  0.42038345  1
  Co  Co148  1  0.87611074  0.53424573  0.72689467  1
  Co  Co149  1  0.14048662  0.84906724  0.53254922  1
  Co  Co150  1  0.04133573  0.64126643  0.78900850  1
  Co  Co151  1  0.94961089  0.76281588  0.69413055  1
  Co  Co152  1  0.67018401  0.37728638  0.62017779  1
  Co  Co153  1  0.74310654  0.22665283  0.40553334  1
  Co  Co154  1  0.88863219  0.36719643  0.28828995  1
  Co  Co155  1  0.82487447  0.24018233  0.23227540  1
  Co  Co156  1  0.56090084  0.84765649  0.20854133  1
  Co  Co157  1  0.46396003  0.23238583  0.50820157  1
  Co  Co158  1  0.70448787  0.65448534  0.71799404  1
  Co  Co159  1  0.68639569  0.41655644  0.77578368  1
  Co  Co160  1  0.28060218  0.03626682  0.58683766  1
  Co  Co161  1  0.20505019  0.62064394  0.03357755  1
  Ni  Ni162  1  -0.01256276  0.88771077  0.19325632  1
  Ni  Ni163  1  0.89362676  0.02441303  0.20553490  1
  Ni  Ni164  1  0.55106302  0.36269277  0.39942797  1
  Ni  Ni165  1  0.61529177  0.64331221  0.42389841  1
  Ni  Ni166  1  0.90966012  0.74019884  0.12748220  1
  Ni  Ni167  1  0.31266813  0.67477990  0.94455142  1
  Ni  Ni168  1  0.92588002  0.55967529  0.15860598  1
  Ni  Ni169  1  0.71217799  0.47085532  -0.00964503  1
  Ni  Ni170  1  0.94889528  0.69617075  0.98263216  1
  Ni  Ni171  1  0.38152364  0.56532029  0.23502961  1
  Ni  Ni172  1  0.14192664  0.31145910  0.64927457  1
  Ni  Ni173  1  0.72298768  0.59253262  0.87449351  1
  Ni  Ni174  1  0.73329018  0.92160844  0.59189181  1
  Ni  Ni175  1  0.45445060  0.15001223  0.79682454  1
  Ni  Ni176  1  0.31375069  0.96866002  0.12013149  1
  Ni  Ni177  1  0.38228992  0.09123500  0.33319697  1
  Ni  Ni178  1  0.92510701  0.91906268  0.71826314  1
  Ni  Ni179  1  0.52519412  0.43028895  0.22641547  1
  Ni  Ni180  1  0.04833834  0.28161228  0.53750516  1
  Ni  Ni181  1  0.41356820  0.93066059  0.59404792  1
  Ni  Ni182  1  0.58791553  0.14877642  0.71191194  1
  Ni  Ni183  1  0.21412652  0.06308792  0.32259205  1
  Ni  Ni184  1  0.42542824  0.89063478  0.80647324  1
  Ni  Ni185  1  0.39666390  0.24675591  0.17578236  1
  Ni  Ni186  1  0.80857380  0.68596270  0.37519794  1
  Ni  Ni187  1  0.44372034  0.63660116  0.64945827  1
  Ni  Ni188  1  0.36922136  0.34705731  0.81289208  1
  Ni  Ni189  1  0.48476988  0.61782146  0.94531555  1
  Ni  Ni190  1  0.29043116  0.11368264  0.03149498  1
  Ni  Ni191  1  0.44430776  0.08102850  -0.00733463  1
  Ni  Ni192  1  0.42813992  0.47707519  0.72068565  1
  Ni  Ni193  1  0.14152738  0.10782217  0.12383128  1
  Ni  Ni194  1  0.99968778  0.58553542  0.41304433  1
  Ni  Ni195  1  0.33057424  0.21524791  0.72446445  1
  Ni  Ni196  1  0.15213323  0.88018762  0.94415670  1
  Ni  Ni197  1  0.63116222  0.16231613  0.33257254  1
  Ni  Ni198  1  0.29683306  0.23669043  0.31231210  1
  Ni  Ni199  1  0.26342710  0.83426657  0.19640822  1
  Ni  Ni200  1  0.02091216  0.84277138  0.39727415  1
  Ni  Ni201  1  0.31378733  0.67764692  0.50854232  1
  Ni  Ni202  1  0.14748099  0.02301698  0.98734417  1
  Ni  Ni203  1  0.68861715  0.60788370  0.29366831  1
  Ni  Ni204  1  0.69645467  0.79452950  0.11586273  1
  Ni  Ni205  1  0.93386588  0.98754873  0.45390713  1
  Ni  Ni206  1  0.92192929  0.11644899  0.59317198  1
  Ni  Ni207  1  0.38991727  0.66747380  0.80546882  1
  Ni  Ni208  1  0.70969593  0.02062029  0.74599290  1
  Ni  Ni209  1  0.38545632  0.35077608  0.42775783  1
  Ni  Ni210  1  0.26949766  0.38384185  0.98168430  1
  Ni  Ni211  1  0.99592823  0.41475214  0.64302122  1
  Ni  Ni212  1  0.56859414  0.85936621  0.84387297  1
  Ni  Ni213  1  0.22304779  0.42638916  0.57854801  1
  Ni  Ni214  1  0.11363207  0.14087130  0.81853832  1
  Ni  Ni215  1  0.21826260  0.61267522  0.83072961  1
