# generated using pymatgen
data_Ti2CoNi
_symmetry_space_group_name_H-M   'P 1'
_cell_length_a   14.61085184
_cell_length_b   14.55281657
_cell_length_c   14.64561313
_cell_angle_alpha   89.68617573
_cell_angle_beta   90.12250387
_cell_angle_gamma   90.23674797
_symmetry_Int_Tables_number   1
_chemical_formula_structural   Ti2CoNi
_chemical_formula_sum   'Ti108 Co54 Ni54'
_cell_volume   3114.00249557
_cell_formula_units_Z   54
loop_
 _symmetry_equiv_pos_site_id
 _symmetry_equiv_pos_as_xyz
  1  'x, y, z'
loop_
 _atom_site_type_symbol
 _atom_site_label
 _atom_site_symmetry_multiplicity
 _atom_site_fract_x
 _atom_site_fract_y
 _atom_site_fract_z
 _atom_site_occupancy
  Ti  Ti0  1  0.03207492  0.03334989  -0.08207861  1
  Ti  Ti1  1  -0.01541538  -0.02202323  0.31227950  1
  Ti  Ti2  1  0.01833259  0.06089265  0.67626879  1
  Ti  Ti3  1  0.00695804  0.28050346  0.01351355  1
  Ti  Ti4  1  0.10583435  0.29539267  0.34005622  1
  Ti  Ti5  1  0.10746079  0.34139803  0.70760805  1
  Ti  Ti6  1  0.06411315  0.66719427  0.03856680  1
  Ti  Ti7  1  -0.02609848  0.64884252  0.43688887  1
  Ti  Ti8  1  -0.05969727  0.65615847  0.64191389  1
  Ti  Ti9  1  0.29476145  0.03261003  0.04577961  1
  Ti  Ti10  1  0.32980710  0.03284023  0.26116284  1
  Ti  Ti11  1  0.38600981  -0.03690421  0.63650749  1
  Ti  Ti12  1  0.22361214  0.34683648  0.02189830  1
  Ti  Ti13  1  0.31197992  0.32496045  0.40782176  1
  Ti  Ti14  1  0.33172236  0.29785729  0.63653136  1
  Ti  Ti15  1  0.40135339  0.59644613  0.03117561  1
  Ti  Ti16  1  0.31544799  0.71183040  0.31630047  1
  Ti  Ti17  1  0.35818273  0.62303220  0.75664971  1
  Ti  Ti18  1  0.65490781  -0.07672111  -0.00073234  1
  Ti  Ti19  1  0.74281430  -0.00560595  0.30872729  1
  Ti  Ti20  1  0.70736356  0.07745859  0.62582726  1
  Ti  Ti21  1  0.67290370  0.36926130  -0.08822285  1
  Ti  Ti22  1  0.63147399  0.31639811  0.30752154  1
  Ti  Ti23  1  0.71140598  0.31344803  0.71964612  1
  Ti  Ti24  1  0.65443132  0.71864455  0.04870424  1
  Ti  Ti25  1  0.62996104  0.62799071  0.36594312  1
  Ti  Ti26  1  0.60558034  0.69063542  0.56856232  1
  Ti  Ti27  1  -0.03160937  0.11450294  0.10433568  1
  Ti  Ti28  1  0.03485895  0.18517800  0.47749470  1
  Ti  Ti29  1  0.00472561  0.19321695  0.80035219  1
  Ti  Ti30  1  -0.00894846  0.54604734  0.18246101  1
  Ti  Ti31  1  0.07545956  0.51942358  0.52203683  1
  Ti  Ti32  1  -0.06880929  0.54549796  0.83001006  1
  Ti  Ti33  1  -0.06073912  0.78921449  0.17574492  1
  Ti  Ti34  1  0.00809179  0.82606255  0.49755240  1
  Ti  Ti35  1  -0.02299830  0.74510393  0.85365554  1
  Ti  Ti36  1  0.29281824  0.20945062  0.12126626  1
  Ti  Ti37  1  0.36440836  0.12702446  0.45023146  1
  Ti  Ti38  1  0.37263252  0.15137622  0.90480707  1
  Ti  Ti39  1  0.32628794  0.52566560  0.20753621  1
  Ti  Ti40  1  0.27065466  0.58024565  0.49805151  1
  Ti  Ti41  1  0.36194384  0.47141117  0.90853020  1
  Ti  Ti42  1  0.38409161  0.88129916  0.14093807  1
  Ti  Ti43  1  0.34258189  0.79710259  0.48857131  1
  Ti  Ti44  1  0.28491289  0.85322914  0.81901299  1
  Ti  Ti45  1  0.66772150  0.18130023  0.16056009  1
  Ti  Ti46  1  0.70189792  0.21373040  0.46864598  1
  Ti  Ti47  1  0.59390395  0.18617987  0.81846534  1
  Ti  Ti48  1  0.69213765  0.50930223  0.09629827  1
  Ti  Ti49  1  0.72766425  0.44646925  0.48406860  1
  Ti  Ti50  1  0.66096001  0.57557694  0.84755884  1
  Ti  Ti51  1  0.69570482  0.83866529  0.20162897  1
  Ti  Ti52  1  0.60390184  0.89743297  0.43801903  1
  Ti  Ti53  1  0.63082166  0.87571221  0.82261930  1
  Ti  Ti54  1  0.14610672  0.04389646  0.19340146  1
  Ti  Ti55  1  0.18389837  0.01089607  0.53002173  1
  Ti  Ti56  1  0.09378894  -0.09735905  0.78108006  1
  Ti  Ti57  1  0.12641747  0.37698112  0.17202824  1
  Ti  Ti58  1  0.14457288  0.34748748  0.52483033  1
  Ti  Ti59  1  0.25221389  0.34462325  0.82656395  1
  Ti  Ti60  1  0.13459062  0.72418677  0.22213412  1
  Ti  Ti61  1  0.15819438  0.71161287  0.43610942  1
  Ti  Ti62  1  0.16345448  0.69516388  0.80501985  1
  Ti  Ti63  1  0.57699260  0.00981098  0.17828602  1
  Ti  Ti64  1  0.54411935  0.07468343  0.51907077  1
  Ti  Ti65  1  0.46777562  -0.02597866  0.83469865  1
  Ti  Ti66  1  0.48235781  0.27887685  0.12449923  1
  Ti  Ti67  1  0.56481323  0.34234923  0.53104613  1
  Ti  Ti68  1  0.44557662  0.31667709  0.82683735  1
  Ti  Ti69  1  0.53961547  0.57544768  0.17665536  1
  Ti  Ti70  1  0.44875918  0.61484521  0.46325838  1
  Ti  Ti71  1  0.49624787  0.75609260  0.75075323  1
  Ti  Ti72  1  0.79218092  0.02237776  0.09784193  1
  Ti  Ti73  1  0.87280671  -0.03292506  0.58667128  1
  Ti  Ti74  1  0.89522321  -0.05189156  0.80111947  1
  Ti  Ti75  1  0.82371785  0.33252887  0.20988561  1
  Ti  Ti76  1  0.89299784  0.32721781  0.51355869  1
  Ti  Ti77  1  0.87218932  0.31908128  0.85966485  1
  Ti  Ti78  1  0.82597366  0.64134516  0.12466757  1
  Ti  Ti79  1  0.78990990  0.63240939  0.49811784  1
  Ti  Ti80  1  0.77986476  0.77158351  0.89898654  1
  Ti  Ti81  1  0.18402267  0.17423847  -0.07426607  1
  Ti  Ti82  1  0.16845304  0.09271067  0.36793304  1
  Ti  Ti83  1  0.16649355  0.16858047  0.64662167  1
  Ti  Ti84  1  0.21980185  0.55747501  0.02694361  1
  Ti  Ti85  1  0.14934415  0.50212789  0.33969179  1
  Ti  Ti86  1  0.19073751  0.52879820  0.67649740  1
  Ti  Ti87  1  0.24137439  0.78228941  0.02138484  1
  Ti  Ti88  1  0.18303232  0.88641797  0.36035323  1
  Ti  Ti89  1  0.19803802  0.82015220  0.61702978  1
  Ti  Ti90  1  0.52353572  0.08357706  0.00141043  1
  Ti  Ti91  1  0.50008356  0.15971852  0.27574569  1
  Ti  Ti92  1  0.44266050  0.14896392  0.70837393  1
  Ti  Ti93  1  0.52114042  0.42797056  0.01008251  1
  Ti  Ti94  1  0.49578036  0.45446576  0.33979541  1
  Ti  Ti95  1  0.46745376  0.49091171  0.63480060  1
  Ti  Ti96  1  0.45253702  0.77832523  -0.05774968  1
  Ti  Ti97  1  0.51220417  0.75954192  0.24624410  1
  Ti  Ti98  1  0.58548989  0.90072096  0.63885619  1
  Ti  Ti99  1  0.80549897  0.23352037  0.03510466  1
  Ti  Ti100  1  0.86601574  0.11432084  0.41256111  1
  Ti  Ti101  1  0.83048848  0.13596530  0.75918512  1
  Ti  Ti102  1  0.84657823  0.43544931  0.01587995  1
  Ti  Ti103  1  0.88154429  0.48727888  0.35609894  1
  Ti  Ti104  1  0.82084635  0.47268379  0.66941605  1
  Ti  Ti105  1  0.92333084  0.89305887  -0.00852711  1
  Ti  Ti106  1  0.84425546  0.79463644  0.35198573  1
  Ti  Ti107  1  0.78583403  0.79299012  0.68329836  1
  Co  Co108  1  0.90135784  0.72839887  1.00740649  1
  Co  Co109  1  0.59951253  0.72536125  0.89764903  1
  Co  Co110  1  0.78763430  0.46099099  0.83033323  1
  Co  Co111  1  0.77747544  0.34431779  0.37018229  1
  Co  Co112  1  0.31457105  0.11321158  0.61199240  1
  Co  Co113  1  0.12121879  0.21183504  0.10817471  1
  Co  Co114  1  0.06311297  0.75828160  0.69342475  1
  Co  Co115  1  0.17974358  0.91870305  0.07964703  1
  Co  Co116  1  0.38606574  0.87358522  0.31615125  1
  Co  Co117  1  0.15741027  0.44593363  0.92669219  1
  Co  Co118  1  0.08794414  0.88518793  0.22230023  1
  Co  Co119  1  0.63097047  0.03821435  0.86078379  1
  Co  Co120  1  1.00500567  0.96444312  0.11030368  1
  Co  Co121  1  0.45154989  0.93230751  0.48955511  1
  Co  Co122  1  0.27905926  0.19908227  0.76492266  1
  Co  Co123  1  0.00618119  0.25158256  0.62276553  1
  Co  Co124  1  0.78900306  0.83864636  0.06797167  1
  Co  Co125  1  0.72375309  0.03081680  0.47273004  1
  Co  Co126  1  0.26467436  0.67724561  0.62479408  1
  Co  Co127  1  0.42883155  0.66056868  0.61409080  1
  Co  Co128  1  0.48727102  0.76364296  0.40381100  1
  Co  Co129  1  0.10025534  0.85390563  0.92941012  1
  Co  Co130  1  0.55419200  0.59781520  0.71543068  1
  Co  Co131  1  0.21111115  -0.02391153  0.91164429  1
  Co  Co132  1  0.55583480  0.90706960  0.28916362  1
  Co  Co133  1  0.47239280  0.61463557  0.87018909  1
  Co  Co134  1  0.21098890  0.97726695  0.68129954  1
  Co  Co135  1  0.46599658  0.02107621  0.35954067  1
  Co  Co136  1  0.48880772  0.79896126  0.56438413  1
  Co  Co137  1  0.85751148  0.77863585  0.53073780  1
  Co  Co138  1  0.78737554  0.23519637  0.60698507  1
  Co  Co139  1  0.44939573  0.22088951  0.55973041  1
  Co  Co140  1  0.60125394  0.19934760  0.63581048  1
  Co  Co141  1  0.85988056  0.93258667  0.43061245  1
  Co  Co142  1  0.44629296  0.61549950  0.30185283  1
  Co  Co143  1  0.89186409  0.31886617  0.70613584  1
  Co  Co144  1  0.19579522  0.20249940  0.25054165  1
  Co  Co145  1  0.56043824  1.03801567  0.71130205  1
  Co  Co146  1  0.75152452  0.19605563  0.30314655  1
  Co  Co147  1  0.02604204  0.14106218  0.29072795  1
  Co  Co148  1  0.12915652  0.06982338  0.03537447  1
  Co  Co149  1  0.07844289  0.58947682  0.90068957  1
  Co  Co150  1  0.78473096  0.59101505  0.95815021  1
  Co  Co151  1  0.74233176  0.20851111  0.87757587  1
  Co  Co152  1  0.24810255  0.85121627  0.21409051  1
  Co  Co153  1  0.91939535  0.26369286  0.34723524  1
  Co  Co154  1  0.01330935  0.39720357  0.43061479  1
  Co  Co155  1  0.06072644  0.81476140  0.07605537  1
  Co  Co156  1  0.23147288  0.54339176  0.83398041  1
  Co  Co157  1  0.94000966  0.56795341  0.00419034  1
  Co  Co158  1  0.10805922  0.66430859  0.57991848  1
  Co  Co159  1  0.07282109  0.47701716  0.05867126  1
  Co  Co160  1  0.56669741  0.58912730  -0.00079830  1
  Co  Co161  1  0.08343410  0.47731773  0.78691379  1
  Ni  Ni162  1  0.36261150  0.91746080  0.95508865  1
  Ni  Ni163  1  0.27697735  0.36580929  0.24524741  1
  Ni  Ni164  1  0.69070249  0.10581130  -0.00099332  1
  Ni  Ni165  1  0.68264368  0.34219072  0.08930071  1
  Ni  Ni166  1  0.00795549  0.01737652  0.48349678  1
  Ni  Ni167  1  0.16273959  0.56831178  0.18214671  1
  Ni  Ni168  1  0.93804389  0.84504843  0.68392891  1
  Ni  Ni169  1  0.68100098  0.67159491  0.21229665  1
  Ni  Ni170  1  0.70821132  0.76671254  0.43813319  1
  Ni  Ni171  1  0.02137030  0.77924982  0.33426256  1
  Ni  Ni172  1  0.14601172  0.07824852  0.79343323  1
  Ni  Ni173  1  0.31119484  0.69369421  0.15105927  1
  Ni  Ni174  1  0.86465887  0.10503393  0.23602889  1
  Ni  Ni175  1  0.74407329  0.52992433  0.26971577  1
  Ni  Ni176  1  0.66094258  0.72003369  0.74778455  1
  Ni  Ni177  1  0.74327340  -0.03636377  0.73947582  1
  Ni  Ni178  1  0.54096110  0.33656336  0.70036355  1
  Ni  Ni179  1  0.38856096  0.29908481  0.98165103  1
  Ni  Ni180  1  0.99107350  0.45019618  0.65046334  1
  Ni  Ni181  1  0.81726506  0.65131220  0.78358947  1
  Ni  Ni182  1  0.88832370  0.12886366  0.92814896  1
  Ni  Ni183  1  0.99439180  0.42825020  0.92646236  1
  Ni  Ni184  1  0.35510215  0.22195408  0.28152345  1
  Ni  Ni185  1  0.42804763  0.10414304  0.13618062  1
  Ni  Ni186  1  0.98948884  0.40368744  0.26972230  1
  Ni  Ni187  1  0.90350772  0.50711769  0.52234153  1
  Ni  Ni188  1  0.86160083  0.92665166  0.20801876  1
  Ni  Ni189  1  0.53058809  0.22361350  0.42070785  1
  Ni  Ni190  1  0.72610264  0.60769500  0.65161523  1
  Ni  Ni191  1  0.90029842  0.64902826  0.28293832  1
  Ni  Ni192  1  0.97998230  0.26448159  0.18522496  1
  Ni  Ni193  1  0.31438478  0.03692927  0.78933618  1
  Ni  Ni194  1  0.57829619  0.51466984  0.49256242  1
  Ni  Ni195  1  0.52771263  0.46216670  0.82114908  1
  Ni  Ni196  1  0.21652328  0.20031989  0.48745688  1
  Ni  Ni197  1  0.36491836  0.42102701  0.08762580  1
  Ni  Ni198  1  0.32923419  0.49631391  0.36704693  1
  Ni  Ni199  1  0.62077672  0.08876595  0.35896514  1
  Ni  Ni200  1  0.78355358  0.98550349  0.91318843  1
  Ni  Ni201  1  0.09306584  0.30931569  0.87469492  1
  Ni  Ni202  1  0.36025610  0.80311362  0.67269981  1
  Ni  Ni203  1  0.34458684  0.44943785  0.73619230  1
  Ni  Ni204  1  0.90505394  0.13226498  0.57822669  1
  Ni  Ni205  1  0.42292390  0.42976477  0.48861683  1
  Ni  Ni206  1  0.30889524  0.96908035  0.42602505  1
  Ni  Ni207  1  0.58562989  0.24474769  -0.00999756  1
  Ni  Ni208  1  0.72990298  0.88776661  0.55741360  1
  Ni  Ni209  1  0.53969319  0.87098599  0.09447035  1
  Ni  Ni210  1  0.06430580  0.92073602  0.61235519  1
  Ni  Ni211  1  0.47937044  0.72164310  0.09271245  1
  Ni  Ni212  1  0.30874585  0.67527560  0.90886814  1
  Ni  Ni213  1  0.27901697  0.43369480  0.56868834  1
  Ni  Ni214  1  0.56656053  0.41446223  0.18682607  1
  Ni  Ni215  1  0.64760325  0.45952866  0.64169715  1
