# generated using pymatgen
data_Ti2CoNi
_symmetry_space_group_name_H-M   'P 1'
_cell_length_a   14.54692503
_cell_length_b   14.47292739
_cell_length_c   14.45183157
_cell_angle_alpha   89.79405109
_cell_angle_beta   90.12497557
_cell_angle_gamma   89.96670496
_symmetry_Int_Tables_number   1
_chemical_formula_structural   Ti2CoNi
_chemical_formula_sum   'Ti108 Co54 Ni54'
_cell_volume   3042.61191215
_cell_formula_units_Z   54
loop_
 _symmetry_equiv_pos_site_id
 _symmetry_equiv_pos_as_xyz
  1  'x, y, z'
loop_
 _atom_site_type_symbol
 _atom_site_label
 _atom_site_symmetry_multiplicity
 _atom_site_fract_x
 _atom_site_fract_y
 _atom_site_fract_z
 _atom_site_occupancy
  Ti  Ti0  1  0.03433887  0.04726026  0.02713165  1
  Ti  Ti1  1  0.03834144  -0.04336703  0.33026325  1
  Ti  Ti2  1  -0.03768398  -0.01318205  0.70886163  1
  Ti  Ti3  1  -0.01284626  0.30476744  -0.03852335  1
  Ti  Ti4  1  0.08847411  0.30118095  0.31718221  1
  Ti  Ti5  1  0.08907426  0.28722082  0.67825516  1
  Ti  Ti6  1  -0.01487478  0.64566683  -0.05389700  1
  Ti  Ti7  1  -0.00791898  0.64415710  0.38617071  1
  Ti  Ti8  1  0.01986208  0.72827109  0.62784286  1
  Ti  Ti9  1  0.31813650  0.02329568  0.04856530  1
  Ti  Ti10  1  0.40569274  0.03322613  0.37522645  1
  Ti  Ti11  1  0.33805935  0.01889671  0.76930146  1
  Ti  Ti12  1  0.33837280  0.27524721  -0.07163726  1
  Ti  Ti13  1  0.25934494  0.43456347  0.25736438  1
  Ti  Ti14  1  0.41554314  0.30332460  0.62875468  1
  Ti  Ti15  1  0.37593366  0.61847602  -0.04052187  1
  Ti  Ti16  1  0.25878620  0.61530265  0.34225510  1
  Ti  Ti17  1  0.26509720  0.72618921  0.62851886  1
  Ti  Ti18  1  0.62518591  -0.01455635  0.05027077  1
  Ti  Ti19  1  0.59322926  0.04120210  0.35644192  1
  Ti  Ti20  1  0.63115272  -0.03350792  0.64949579  1
  Ti  Ti21  1  0.70474187  0.28978901  0.04940741  1
  Ti  Ti22  1  0.65052128  0.26651391  0.37288629  1
  Ti  Ti23  1  0.64309727  0.31735940  0.68253044  1
  Ti  Ti24  1  0.70862856  0.68924083  -0.08144065  1
  Ti  Ti25  1  0.69192452  0.72124355  0.31694176  1
  Ti  Ti26  1  0.66328322  0.65256380  0.73074773  1
  Ti  Ti27  1  0.06469310  0.16389787  0.19753987  1
  Ti  Ti28  1  -0.02188895  0.23116807  0.46647021  1
  Ti  Ti29  1  -0.05621860  0.18395575  0.81429743  1
  Ti  Ti30  1  -0.05668149  0.50335400  0.21718102  1
  Ti  Ti31  1  0.00968460  0.50736311  0.62402291  1
  Ti  Ti32  1  0.07904133  0.52692790  0.83335899  1
  Ti  Ti33  1  -0.03746838  0.88511695  0.07254572  1
  Ti  Ti34  1  -0.02746524  0.89413982  0.52869542  1
  Ti  Ti35  1  -0.05518822  0.80585505  0.83944942  1
  Ti  Ti36  1  0.38525687  0.19600835  0.10739931  1
  Ti  Ti37  1  0.35956746  0.19836513  0.48003561  1
  Ti  Ti38  1  0.23731897  0.14855530  0.85215741  1
  Ti  Ti39  1  0.31803481  0.49494284  0.10028984  1
  Ti  Ti40  1  0.35360645  0.45164575  0.54472630  1
  Ti  Ti41  1  0.27984930  0.46382693  0.86098128  1
  Ti  Ti42  1  0.43931259  0.80870192  0.18264833  1
  Ti  Ti43  1  0.36781764  0.86040872  0.50283594  1
  Ti  Ti44  1  0.31683657  0.84481398  0.77766511  1
  Ti  Ti45  1  0.70190624  0.19429105  0.21634893  1
  Ti  Ti46  1  0.67154970  0.14176063  0.54690391  1
  Ti  Ti47  1  0.68503947  0.12942959  0.90195937  1
  Ti  Ti48  1  0.66271156  0.54141878  0.20567834  1
  Ti  Ti49  1  0.64271511  0.47837924  0.44652242  1
  Ti  Ti50  1  0.67666439  0.46023283  0.79646804  1
  Ti  Ti51  1  0.62620734  0.75739478  0.12188589  1
  Ti  Ti52  1  0.64390399  0.79259015  0.51026359  1
  Ti  Ti53  1  0.72588610  0.85277601  0.84793092  1
  Ti  Ti54  1  0.23587957  -0.06591843  0.22292512  1
  Ti  Ti55  1  0.19843196  -0.06731893  0.45297018  1
  Ti  Ti56  1  0.14212552  0.03329420  0.77237324  1
  Ti  Ti57  1  0.13437904  0.35994182  0.14150693  1
  Ti  Ti58  1  0.10824774  0.36992777  0.49927714  1
  Ti  Ti59  1  0.15223919  0.31039494  0.86565062  1
  Ti  Ti60  1  0.22138216  0.69203802  0.10422651  1
  Ti  Ti61  1  0.12652259  0.60260584  0.50223831  1
  Ti  Ti62  1  0.23749942  0.67111990  0.80693156  1
  Ti  Ti63  1  0.45026027  -0.01376783  0.19592950  1
  Ti  Ti64  1  0.49078527  0.06376419  0.54981687  1
  Ti  Ti65  1  0.49627446  -0.07766941  0.79769629  1
  Ti  Ti66  1  0.48496309  0.38944061  0.19441350  1
  Ti  Ti67  1  0.45798155  0.33646539  0.42475406  1
  Ti  Ti68  1  0.48949194  0.34859397  0.83034902  1
  Ti  Ti69  1  0.48490511  0.60416296  0.12508938  1
  Ti  Ti70  1  0.45214322  0.67733972  0.47893028  1
  Ti  Ti71  1  0.51220204  0.75254385  0.84929726  1
  Ti  Ti72  1  0.76851390  -0.00298786  0.18004756  1
  Ti  Ti73  1  0.84248210  0.00898370  0.45942735  1
  Ti  Ti74  1  0.78077928  0.05969923  0.76438473  1
  Ti  Ti75  1  0.81162183  0.37087537  0.20927292  1
  Ti  Ti76  1  0.79652169  0.30461023  0.53354858  1
  Ti  Ti77  1  0.85297603  0.35493328  0.81408383  1
  Ti  Ti78  1  0.92194820  0.71335047  0.13161538  1
  Ti  Ti79  1  0.76519039  0.64627980  0.47911439  1
  Ti  Ti80  1  0.84921207  0.54978364  0.83473586  1
  Ti  Ti81  1  0.19248695  0.20999231  0.04073487  1
  Ti  Ti82  1  0.23127992  0.10803784  0.33541005  1
  Ti  Ti83  1  0.20540478  0.13320505  0.62195710  1
  Ti  Ti84  1  0.08511669  0.45133188  -0.01532116  1
  Ti  Ti85  1  0.08634105  0.49482198  0.32483189  1
  Ti  Ti86  1  0.19714219  0.44052016  0.66028258  1
  Ti  Ti87  1  0.17820399  0.85730256  -0.02753689  1
  Ti  Ti88  1  0.14714240  0.77938113  0.30635193  1
  Ti  Ti89  1  0.12368627  0.86118712  0.74571878  1
  Ti  Ti90  1  0.54790067  0.20517585  -0.04566093  1
  Ti  Ti91  1  0.48756995  0.18191123  0.26761832  1
  Ti  Ti92  1  0.51470979  0.11483829  0.75787189  1
  Ti  Ti93  1  0.51878921  0.47860403  -0.00153196  1
  Ti  Ti94  1  0.49796268  0.54487911  0.30771086  1
  Ti  Ti95  1  0.49869559  0.55422099  0.69580320  1
  Ti  Ti96  1  0.44618495  0.90640034  -0.01678850  1
  Ti  Ti97  1  0.51003852  0.85232037  0.34764029  1
  Ti  Ti98  1  0.48595265  0.76544034  0.64636882  1
  Ti  Ti99  1  0.88518057  0.16659967  0.05695124  1
  Ti  Ti100  1  0.91651785  0.10072874  0.34106968  1
  Ti  Ti101  1  0.86796873  0.13591046  0.61106776  1
  Ti  Ti102  1  0.83550050  0.54210245  0.05971231  1
  Ti  Ti103  1  0.81746668  0.55186682  0.33500302  1
  Ti  Ti104  1  0.83071623  0.59107821  0.64859387  1
  Ti  Ti105  1  0.77491217  0.84568312  0.03560493  1
  Ti  Ti106  1  0.88391945  0.77315105  0.33847063  1
  Ti  Ti107  1  0.79962362  0.78449927  0.62838246  1
  Co  Co108  1  -0.04705833  0.42655206  0.09111707  1
  Co  Co109  1  0.31101625  0.76801599  0.91885570  1
  Co  Co110  1  0.24291145  0.73811748  0.45381959  1
  Co  Co111  1  0.93721249  0.46759815  0.93381201  1
  Co  Co112  1  0.38858019  0.20172096  0.78397953  1
  Co  Co113  1  0.92925496  0.28967250  0.66122575  1
  Co  Co114  1  0.81486426  0.42475306  0.66042530  1
  Co  Co115  1  0.74553813  0.99286280  0.92344464  1
  Co  Co116  1  0.76631580  0.39032313  0.37056453  1
  Co  Co117  1  0.72024847  0.50857874  0.94555869  1
  Co  Co118  1  0.30386198  0.95625566  0.91125362  1
  Co  Co119  1  0.94840762  0.37654334  0.54059839  1
  Co  Co120  1  0.94203921  0.04755605  0.18523098  1
  Co  Co121  1  0.39031881  0.72563881  0.34365443  1
  Co  Co122  1  0.52149371  0.16862623  0.42565777  1
  Co  Co123  1  0.86301907  0.19796326  0.21779054  1
  Co  Co124  1  0.84975227  1.01551721  0.04484051  1
  Co  Co125  1  0.85429776  0.93604881  0.29422926  1
  Co  Co126  1  0.65428428  0.14689594  0.71793931  1
  Co  Co127  1  0.36823966  0.13447061  0.65513775  1
  Co  Co128  1  0.01212895  0.38223082  0.80112277  1
  Co  Co129  1  0.16882318  0.05588131  0.12549261  1
  Co  Co130  1  0.07908290  0.65905262  0.22877635  1
  Co  Co131  1  0.53824335  0.69417775  0.25643590  1
  Co  Co132  1  0.06839668  0.75470629  0.08294874  1
  Co  Co133  1  -0.02906546  0.48762731  0.43128503  1
  Co  Co134  1  1.00417937  0.05832100  0.48923303  1
  Co  Co135  1  0.60161326  0.63052656  0.41698906  1
  Co  Co136  1  0.78173604  0.24572283  0.72089634  1
  Co  Co137  1  0.13885116  0.84586957  0.56259955  1
  Co  Co138  1  0.33578541  0.88203371  0.33175646  1
  Co  Co139  1  0.66224926  0.27555145  0.84383714  1
  Co  Co140  1  0.02824140  0.14168239  0.65689650  1
  Co  Co141  1  0.33829758  0.34106226  0.14175614  1
  Co  Co142  1  0.59972016  0.30570772  0.52034556  1
  Co  Co143  1  0.39887604  0.69607726  0.76365625  1
  Co  Co144  1  0.15697685  0.52090196  0.15123889  1
  Co  Co145  1  0.56731627  0.56813907  0.87626563  1
  Co  Co146  1  1.03167677  0.58979756  0.08415754  1
  Co  Co147  1  1.00454288  0.80899600  0.24730304  1
  Co  Co148  1  0.28221322  0.30460505  0.75766711  1
  Co  Co149  1  0.62821410  0.61064180  0.03497214  1
  Co  Co150  1  0.31412642  0.84684366  0.07822394  1
  Co  Co151  1  0.34384951  0.08714732  0.22146085  1
  Co  Co152  1  0.92955701  0.35233854  0.33892126  1
  Co  Co153  1  0.06102428  0.79416454  0.43605957  1
  Co  Co154  1  0.91481888  0.70205016  0.52426846  1
  Co  Co155  1  0.81748461  0.49459949  0.50132441  1
  Co  Co156  1  0.81685426  0.23878838  0.38427407  1
  Co  Co157  1  0.28670679  0.76537916  0.22435273  1
  Co  Co158  1  0.70309071  0.45371317  0.09631916  1
  Co  Co159  1  0.41997570  0.52416833  0.83577087  1
  Co  Co160  1  0.61629772  0.37064479  0.95159358  1
  Co  Co161  1  0.96735328  0.30550317  0.17449970  1
  Ni  Ni162  1  0.54326435  0.03989402  0.90162720  1
  Ni  Ni163  1  0.25304118  0.32229965  0.39929047  1
  Ni  Ni164  1  0.78332494  0.98121338  0.60107762  1
  Ni  Ni165  1  0.88886403  -0.03707323  0.88278080  1
  Ni  Ni166  1  0.61212773  0.41448783  0.29226080  1
  Ni  Ni167  1  0.25261937  0.95024530  0.63641750  1
  Ni  Ni168  1  0.55493930  0.23532925  0.12752152  1
  Ni  Ni169  1  0.22423100  0.47245967  0.44182891  1
  Ni  Ni170  1  0.46570885  0.74774859  0.03178075  1
  Ni  Ni171  1  0.07902573  0.15071137  0.91964853  1
  Ni  Ni172  1  0.96544929  0.62066917  0.74346423  1
  Ni  Ni173  1  0.78300958  0.82509098  0.20774237  1
  Ni  Ni174  1  0.64117206  0.81820106  0.68733494  1
  Ni  Ni175  1  0.08792665  0.92630874  0.16958568  1
  Ni  Ni176  1  0.49440339  0.08026020  0.06239469  1
  Ni  Ni177  1  0.24929816  0.29479134  0.58335174  1
  Ni  Ni178  1  0.32932262  0.03663486  0.50805253  1
  Ni  Ni179  1  0.36671050  0.60611623  0.57574324  1
  Ni  Ni180  1  0.20972024  0.56022986  -0.01317280  1
  Ni  Ni181  1  0.71559097  0.12393057  0.04593148  1
  Ni  Ni182  1  0.81678892  0.90042759  0.72928289  1
  Ni  Ni183  1  0.52829467  0.20493304  0.60927871  1
  Ni  Ni184  1  0.22374792  0.24973330  0.21995990  1
  Ni  Ni185  1  0.18552477  0.03094102  0.95305973  1
  Ni  Ni186  1  0.30561545  0.56366015  0.71786769  1
  Ni  Ni187  1  0.67345024  0.49186658  0.63287277  1
  Ni  Ni188  1  0.35912834  0.61544767  0.22470777  1
  Ni  Ni189  1  0.15151946  0.71024556  0.95290259  1
  Ni  Ni190  1  0.80407918  0.83789806  0.47198163  1
  Ni  Ni191  1  0.07666625  0.11508585  0.35764916  1
  Ni  Ni192  1  0.39172965  0.42177517  0.72246527  1
  Ni  Ni193  1  0.15892903  0.20627908  0.47287754  1
  Ni  Ni194  1  0.39126104  0.11927176  0.93444719  1
  Ni  Ni195  1  0.82198050  0.24612237  0.92048828  1
  Ni  Ni196  1  0.72908637  0.09840428  0.35920393  1
  Ni  Ni197  1  0.05205888  0.94953574  0.88439245  1
  Ni  Ni198  1  0.86127300  0.72364367  0.97029348  1
  Ni  Ni199  1  0.51458320  0.43165768  0.60524491  1
  Ni  Ni200  1  0.23145644  0.38995454  1.02161610  1
  Ni  Ni201  1  0.54213328  0.91859178  0.49870670  1
  Ni  Ni202  1  0.36154789  0.23657269  0.31150366  1
  Ni  Ni203  1  0.47631670  0.31876149  0.01444139  1
  Ni  Ni204  1  0.77251058  0.66110473  0.17019563  1
  Ni  Ni205  1  0.36823075  0.48724779  0.38657054  1
  Ni  Ni206  1  0.14823882  0.61459141  0.67736443  1
  Ni  Ni207  1  0.60522464  0.85436542  0.96374995  1
  Ni  Ni208  1  0.61983659  0.90613705  0.22238426  1
  Ni  Ni209  1  0.69538877  0.89704982  0.35877461  1
  Ni  Ni210  1  0.82618592  0.71266521  0.78452019  1
  Ni  Ni211  1  0.09330543  0.99837649  0.59956889  1
  Ni  Ni212  1  0.42753876  0.94198051  0.63698547  1
  Ni  Ni213  1  0.07897437  0.71753219  0.80639799  1
  Ni  Ni214  1  0.60760533  0.07785628  0.18320985  1
  Ni  Ni215  1  0.59863805  0.65102877  0.57695589  1
