# generated using pymatgen
data_Ti2CoNi
_symmetry_space_group_name_H-M   'P 1'
_cell_length_a   14.45281440
_cell_length_b   14.48066260
_cell_length_c   14.59374937
_cell_angle_alpha   90.54702290
_cell_angle_beta   89.75343317
_cell_angle_gamma   89.81048603
_symmetry_Int_Tables_number   1
_chemical_formula_structural   Ti2CoNi
_chemical_formula_sum   'Ti108 Co54 Ni54'
_cell_volume   3054.08762411
_cell_formula_units_Z   54
loop_
 _symmetry_equiv_pos_site_id
 _symmetry_equiv_pos_as_xyz
  1  'x, y, z'
loop_
 _atom_site_type_symbol
 _atom_site_label
 _atom_site_symmetry_multiplicity
 _atom_site_fract_x
 _atom_site_fract_y
 _atom_site_fract_z
 _atom_site_occupancy
  Ti  Ti0  1  -0.08007770  -0.11054880  0.04561550  1
  Ti  Ti1  1  -0.03357386  0.03743146  0.31594775  1
  Ti  Ti2  1  0.00973696  -0.04390603  0.62590590  1
  Ti  Ti3  1  0.15040482  0.31185745  0.01611180  1
  Ti  Ti4  1  0.00155250  0.33529066  0.29771437  1
  Ti  Ti5  1  -0.02909754  0.32259173  0.62355752  1
  Ti  Ti6  1  0.05670084  0.71459390  -0.01471156  1
  Ti  Ti7  1  -0.02262021  0.69280562  0.32120876  1
  Ti  Ti8  1  -0.03298180  0.61648822  0.63739207  1
  Ti  Ti9  1  0.29174865  0.05701299  -0.00841260  1
  Ti  Ti10  1  0.27903332  -0.03762937  0.30447016  1
  Ti  Ti11  1  0.19510614  0.01911742  0.68324884  1
  Ti  Ti12  1  0.37124493  0.26963638  0.01595892  1
  Ti  Ti13  1  0.35890949  0.41109736  0.35458471  1
  Ti  Ti14  1  0.37145188  0.34838778  0.70732930  1
  Ti  Ti15  1  0.32888211  0.67002132  0.01706590  1
  Ti  Ti16  1  0.35059408  0.59678543  0.36889925  1
  Ti  Ti17  1  0.28435414  0.67833564  0.65963149  1
  Ti  Ti18  1  0.62394348  -0.05436252  -0.00172943  1
  Ti  Ti19  1  0.65563386  -0.01729675  0.22565417  1
  Ti  Ti20  1  0.69383496  0.07139124  0.66361683  1
  Ti  Ti21  1  0.68951986  0.33067008  0.10062637  1
  Ti  Ti22  1  0.70295002  0.35755781  0.32962566  1
  Ti  Ti23  1  0.65385182  0.36909523  0.64697075  1
  Ti  Ti24  1  0.65649887  0.74130806  0.00180295  1
  Ti  Ti25  1  0.64737464  0.72458259  0.38222195  1
  Ti  Ti26  1  0.69871718  0.70930276  0.72490140  1
  Ti  Ti27  1  0.01682240  0.18902140  0.12487123  1
  Ti  Ti28  1  -0.07787094  0.18612176  0.43553780  1
  Ti  Ti29  1  -0.02971243  0.13824733  0.86262900  1
  Ti  Ti30  1  -0.03228543  0.51614454  0.23784776  1
  Ti  Ti31  1  0.05410083  0.47004134  0.56128715  1
  Ti  Ti32  1  0.05458630  0.47426960  0.77140640  1
  Ti  Ti33  1  -0.01379214  0.85345461  0.23841191  1
  Ti  Ti34  1  0.01952348  0.82802657  0.47898222  1
  Ti  Ti35  1  0.01150349  0.84768986  0.82301662  1
  Ti  Ti36  1  0.35795103  0.12990003  0.17050274  1
  Ti  Ti37  1  0.31060909  0.23319421  0.43690403  1
  Ti  Ti38  1  0.36387775  0.10964141  0.80990530  1
  Ti  Ti39  1  0.38361731  0.51324968  0.17594303  1
  Ti  Ti40  1  0.35335939  0.53658304  0.53502908  1
  Ti  Ti41  1  0.40778051  0.47049444  0.83971457  1
  Ti  Ti42  1  0.24234493  0.78010440  0.17091730  1
  Ti  Ti43  1  0.36120233  0.78725637  0.45516945  1
  Ti  Ti44  1  0.33607118  0.88254585  0.71461007  1
  Ti  Ti45  1  0.62487534  0.22436819  0.22669440  1
  Ti  Ti46  1  0.66471982  0.18767752  0.53250400  1
  Ti  Ti47  1  0.68381975  0.10089400  0.88652205  1
  Ti  Ti48  1  0.65382228  0.47402110  0.18072995  1
  Ti  Ti49  1  0.70814764  0.54285671  0.55672018  1
  Ti  Ti50  1  0.64787606  0.48921407  0.82152965  1
  Ti  Ti51  1  0.70574641  0.79323293  0.19072259  1
  Ti  Ti52  1  0.71546887  0.77297356  0.54288639  1
  Ti  Ti53  1  0.58684010  0.82487776  0.81202084  1
  Ti  Ti54  1  0.14594231  0.06786275  0.19541614  1
  Ti  Ti55  1  0.28845581  -0.01957677  0.49345716  1
  Ti  Ti56  1  0.19186460  -0.05446860  0.86624021  1
  Ti  Ti57  1  0.18346269  0.27659280  0.20440240  1
  Ti  Ti58  1  0.19540459  0.31962432  0.54328518  1
  Ti  Ti59  1  0.20666489  0.35521901  0.83959131  1
  Ti  Ti60  1  0.09965767  0.64863545  0.17351329  1
  Ti  Ti61  1  0.20401420  0.66585331  0.48946059  1
  Ti  Ti62  1  0.19892451  0.69788318  0.83243168  1
  Ti  Ti63  1  0.43766145  -0.05122847  0.21123511  1
  Ti  Ti64  1  0.43453628  0.11078345  0.52822981  1
  Ti  Ti65  1  0.50144904  -0.01088852  0.72653261  1
  Ti  Ti66  1  0.48190877  0.34361223  0.17924459  1
  Ti  Ti67  1  0.48439605  0.30942323  0.52113264  1
  Ti  Ti68  1  0.53718370  0.35230948  0.93754057  1
  Ti  Ti69  1  0.51328554  0.72546934  0.16860365  1
  Ti  Ti70  1  0.51903706  0.62982727  0.49524008  1
  Ti  Ti71  1  0.44415946  0.73123548  0.76247540  1
  Ti  Ti72  1  0.79973787  0.07288720  0.15383617  1
  Ti  Ti73  1  0.85822921  0.00226788  0.51680340  1
  Ti  Ti74  1  0.83222380  0.02216506  0.82328552  1
  Ti  Ti75  1  0.90938875  0.35931599  0.09791748  1
  Ti  Ti76  1  0.80615592  0.31772267  0.54095215  1
  Ti  Ti77  1  0.84150397  0.34834265  0.91017830  1
  Ti  Ti78  1  0.80150696  0.62050873  0.14627483  1
  Ti  Ti79  1  0.86120256  0.67334508  0.46536860  1
  Ti  Ti80  1  0.78964192  0.66122794  0.87378476  1
  Ti  Ti81  1  0.10674935  0.09722701  -0.02233591  1
  Ti  Ti82  1  0.15796923  0.09661722  0.42206007  1
  Ti  Ti83  1  0.07987531  0.17682557  0.69447366  1
  Ti  Ti84  1  0.12308214  0.52926004  -0.01031198  1
  Ti  Ti85  1  0.18738674  0.46951308  0.25113887  1
  Ti  Ti86  1  0.22391810  0.48391184  0.67912938  1
  Ti  Ti87  1  0.14633162  0.91718763  0.03038753  1
  Ti  Ti88  1  0.16390771  0.77602132  0.34223927  1
  Ti  Ti89  1  0.11242713  0.77007017  0.61802292  1
  Ti  Ti90  1  0.49621351  0.11313852  -0.04828362  1
  Ti  Ti91  1  0.48031253  0.18999499  0.32458407  1
  Ti  Ti92  1  0.50794684  0.18807859  0.68268738  1
  Ti  Ti93  1  0.55070884  0.55118750  0.00037402  1
  Ti  Ti94  1  0.51688798  0.55605319  0.29111775  1
  Ti  Ti95  1  0.50595717  0.47323383  0.64144105  1
  Ti  Ti96  1  0.47028321  0.79029161  -0.03578668  1
  Ti  Ti97  1  0.50186859  0.97786435  0.39356605  1
  Ti  Ti98  1  0.57937187  0.87310493  0.61113013  1
  Ti  Ti99  1  0.81163706  0.20169942  0.02049253  1
  Ti  Ti100  1  0.75204382  0.14563692  0.35057540  1
  Ti  Ti101  1  0.86467484  0.18081048  0.69706874  1
  Ti  Ti102  1  0.91042667  0.52643855  -0.04953966  1
  Ti  Ti103  1  0.79748304  0.56239183  0.33131639  1
  Ti  Ti104  1  0.82167738  0.43641445  0.73010396  1
  Ti  Ti105  1  0.79599452  0.84935851  -0.11920072  1
  Ti  Ti106  1  0.77544918  0.88997664  0.36903022  1
  Ti  Ti107  1  0.75223038  0.88046521  0.68763444  1
  Co  Co108  1  0.35858879  0.22790749  0.61745272  1
  Co  Co109  1  0.80106942  0.21262616  0.83637148  1
  Co  Co110  1  0.23711350  0.62605054  0.26103695  1
  Co  Co111  1  0.88004752  0.74404436  0.73650108  1
  Co  Co112  1  0.57437643  0.02787881  0.55389747  1
  Co  Co113  1  0.85410515  0.31168919  0.36431428  1
  Co  Co114  1  0.39109719  0.81851669  0.10831662  1
  Co  Co115  1  0.81238648  0.47211905  0.08660805  1
  Co  Co116  1  0.13926948  0.93350656  0.54068002  1
  Co  Co117  1  0.25262321  0.21158604  0.91269916  1
  Co  Co118  1  0.34943740  0.38007178  0.52500796  1
  Co  Co119  1  0.07354690  0.18728095  0.30506749  1
  Co  Co120  1  0.69737580  0.34339341  0.81821684  1
  Co  Co121  1  0.22746363  0.47064100  0.46086593  1
  Co  Co122  1  0.56426116  0.87071216  0.11825448  1
  Co  Co123  1  0.17215833  0.10108975  0.82860500  1
  Co  Co124  1  0.22925441  0.17831041  0.07570559  1
  Co  Co125  1  0.15820217  0.85961047  0.73011246  1
  Co  Co126  1  0.23316692  0.16047272  0.30229951  1
  Co  Co127  1  0.65836471  0.24689564  0.94958331  1
  Co  Co128  1  0.20499071  0.32947942  0.35722888  1
  Co  Co129  1  0.84688573  0.91957800  0.21785508  1
  Co  Co130  1  0.43911564  0.61357430  0.65034221  1
  Co  Co131  1  0.71636923  0.22999575  0.68862347  1
  Co  Co132  1  0.93540562  0.73907369  0.12944535  1
  Co  Co133  1  0.94783252  0.71667398  0.88080765  1
  Co  Co134  1  0.82894227  0.72315951  0.01118839  1
  Co  Co135  1  0.79194192  0.44445471  0.44250516  1
  Co  Co136  1  0.34448818  0.27859390  0.25943082  1
  Co  Co137  1  0.23551245  0.21693237  0.72445245  1
  Co  Co138  1  0.66681961  0.63031463  0.26969966  1
  Co  Co139  1  0.68915953  0.02885251  0.41910489  1
  Co  Co140  1  0.23125447  0.14691963  0.57597364  1
  Co  Co141  1  0.41146882  0.77200152  0.59842741  1
  Co  Co142  1  0.30499086  0.37611478  0.12271387  1
  Co  Co143  1  0.39168494  0.29147909  0.85446812  1
  Co  Co144  1  0.87040071  0.46866556  0.58263208  1
  Co  Co145  1  0.12843851  0.33530888  0.69315294  1
  Co  Co146  1  0.01475287  0.02222495  0.46443383  1
  Co  Co147  1  0.92958909  0.89149460  0.38271399  1
  Co  Co148  1  0.73307525  0.57076844  0.99686205  1
  Co  Co149  1  0.35881634  0.05892117  0.66592208  1
  Co  Co150  1  0.29225079  0.96446696  0.12609983  1
  Co  Co151  1  0.06243001  0.70047166  0.75754795  1
  Co  Co152  1  0.72284267  0.95415257  0.54716857  1
  Co  Co153  1  0.61420022  0.87886799  0.43952799  1
  Co  Co154  1  0.05912971  0.59254426  0.86933545  1
  Co  Co155  1  0.77069047  0.87140019  0.08331774  1
  Co  Co156  1  0.69883679  0.41116067  0.97052828  1
  Co  Co157  1  0.42787126  0.93506527  0.56606973  1
  Co  Co158  1  0.13754231  0.60648738  0.63731378  1
  Co  Co159  1  0.52391675  0.34299856  0.76907730  1
  Co  Co160  1  0.56344816  0.85047717  0.28651079  1
  Co  Co161  1  0.25593458  0.83416477  0.56868189  1
  Ni  Ni162  1  0.83513559  0.42341979  0.23266164  1
  Ni  Ni163  1  0.99443216  0.24186250  -0.02438881  1
  Ni  Ni164  1  0.98604769  0.30612380  0.78834538  1
  Ni  Ni165  1  0.57456389  0.70999852  0.62250428  1
  Ni  Ni166  1  0.52896789  0.09309572  0.17111672  1
  Ni  Ni167  1  0.51413245  -0.05284861  0.87848156  1
  Ni  Ni168  1  0.61133320  0.20605813  0.80279966  1
  Ni  Ni169  1  0.53900913  0.38672529  0.31684606  1
  Ni  Ni170  1  0.36125613  0.09050506  0.36181625  1
  Ni  Ni171  1  0.24909117  0.54423721  0.84674607  1
  Ni  Ni172  1  0.90034263  0.91227280  0.72749547  1
  Ni  Ni173  1  0.95108067  0.52812795  0.41607062  1
  Ni  Ni174  1  0.23503466  0.56789274  0.11424162  1
  Ni  Ni175  1  0.45630667  -0.01983850  0.04606191  1
  Ni  Ni176  1  1.01822650  0.40022414  0.94983469  1
  Ni  Ni177  1  0.66504520  0.96793328  0.79467360  1
  Ni  Ni178  1  0.08299126  0.42913675  0.40524549  1
  Ni  Ni179  1  0.78564521  1.01256215  0.99408869  1
  Ni  Ni180  1  0.86386142  0.83072905  0.55466175  1
  Ni  Ni181  1  0.36729148  0.67975208  0.19468675  1
  Ni  Ni182  1  0.60068864  0.65700905  0.88233624  1
  Ni  Ni183  1  0.27216083  0.43130562  0.98133976  1
  Ni  Ni184  1  0.54079733  0.23735645  0.06600651  1
  Ni  Ni185  1  0.65382110  0.50633079  0.38648342  1
  Ni  Ni186  1  0.37592356  0.81749714  0.28553792  1
  Ni  Ni187  1  0.79287354  0.25468254  0.22165610  1
  Ni  Ni188  1  0.00012752  0.97156108  0.92662206  1
  Ni  Ni189  1  0.05606750  0.42786261  0.11151722  1
  Ni  Ni190  1  0.93223374  0.07955703  1.02456617  1
  Ni  Ni191  1  0.08885931  0.79712742  0.11604111  1
  Ni  Ni192  1  0.57319405  0.60195719  0.73658793  1
  Ni  Ni193  1  0.63494096  0.38412954  0.49205550  1
  Ni  Ni194  1  0.12570744  0.93549432  0.37916723  1
  Ni  Ni195  1  0.36592755  0.94948098  0.89995066  1
  Ni  Ni196  1  0.04895964  0.00974065  0.77163827  1
  Ni  Ni197  1  0.14964988  0.91121443  0.21754244  1
  Ni  Ni198  1  0.32116210  0.79735148  0.85971366  1
  Ni  Ni199  1  0.82055046  0.73689530  0.29235907  1
  Ni  Ni200  1  0.43402863  0.42970477  0.03833420  1
  Ni  Ni201  1  0.49506620  0.47213746  0.45548302  1
  Ni  Ni202  1  0.96884569  0.12133573  0.58800217  1
  Ni  Ni203  1  0.42111924  0.63702978  0.89417463  1
  Ni  Ni204  1  0.08262128  0.21021092  0.51748431  1
  Ni  Ni205  1  0.47628977  0.71744817  0.34837799  1
  Ni  Ni206  1  0.92468016  0.17647343  0.25855036  1
  Ni  Ni207  1  0.66512156  0.10408691  0.06294857  1
  Ni  Ni208  1  0.11332569  0.59663076  0.34577367  1
  Ni  Ni209  1  0.80696348  0.60376660  0.66989307  1
  Ni  Ni210  1  0.91348834  0.57927328  0.79095373  1
  Ni  Ni211  1  0.97614436  0.57792692  0.08978797  1
  Ni  Ni212  1  0.03396856  0.65598913  0.48499642  1
  Ni  Ni213  1  0.63507994  0.63417014  0.11383940  1
  Ni  Ni214  1  0.61372030  0.23401492  0.39656739  1
  Ni  Ni215  1  0.00604577  -0.00240995  0.14118941  1
