# generated using pymatgen
data_Ti2CoNi
_symmetry_space_group_name_H-M   'P 1'
_cell_length_a   14.67250118
_cell_length_b   14.60380090
_cell_length_c   14.61350053
_cell_angle_alpha   89.98613894
_cell_angle_beta   90.03621140
_cell_angle_gamma   89.90459227
_symmetry_Int_Tables_number   1
_chemical_formula_structural   Ti2CoNi
_chemical_formula_sum   'Ti108 Co54 Ni54'
_cell_volume   3131.29233334
_cell_formula_units_Z   54
loop_
 _symmetry_equiv_pos_site_id
 _symmetry_equiv_pos_as_xyz
  1  'x, y, z'
loop_
 _atom_site_type_symbol
 _atom_site_label
 _atom_site_symmetry_multiplicity
 _atom_site_fract_x
 _atom_site_fract_y
 _atom_site_fract_z
 _atom_site_occupancy
  Ti  Ti0  1  0.03809886  -0.03622755  0.01116628  1
  Ti  Ti1  1  0.00302853  0.04751597  0.30630661  1
  Ti  Ti2  1  0.00646233  -0.00462788  0.58713942  1
  Ti  Ti3  1  -0.08344258  0.33039215  0.01193986  1
  Ti  Ti4  1  0.04985368  0.37980350  0.33894320  1
  Ti  Ti5  1  0.05869276  0.33796033  0.63254569  1
  Ti  Ti6  1  0.08534430  0.66087185  0.02433408  1
  Ti  Ti7  1  -0.10805538  0.66273561  0.29633251  1
  Ti  Ti8  1  -0.01173356  0.64900461  0.68340373  1
  Ti  Ti9  1  0.36676840  -0.00429708  0.00651129  1
  Ti  Ti10  1  0.33918984  0.05887021  0.26001728  1
  Ti  Ti11  1  0.35936045  -0.12108262  0.65522541  1
  Ti  Ti12  1  0.35664821  0.30823887  -0.05042534  1
  Ti  Ti13  1  0.32781321  0.25277606  0.27724655  1
  Ti  Ti14  1  0.34886605  0.37146994  0.73537690  1
  Ti  Ti15  1  0.28602710  0.64105066  0.03159381  1
  Ti  Ti16  1  0.30595379  0.67516477  0.38323686  1
  Ti  Ti17  1  0.28141402  0.67953782  0.61888680  1
  Ti  Ti18  1  0.72605467  0.00508352  -0.01388105  1
  Ti  Ti19  1  0.67076615  0.02722536  0.31219630  1
  Ti  Ti20  1  0.62579312  0.09525850  0.69035749  1
  Ti  Ti21  1  0.69419198  0.28952773  0.06271115  1
  Ti  Ti22  1  0.63569936  0.40052017  0.30677441  1
  Ti  Ti23  1  0.71763860  0.26871895  0.62866181  1
  Ti  Ti24  1  0.65047868  0.65796127  0.00382261  1
  Ti  Ti25  1  0.70872890  0.69223350  0.37788112  1
  Ti  Ti26  1  0.69140262  0.62186472  0.72187028  1
  Ti  Ti27  1  0.01308138  0.20331787  0.15867467  1
  Ti  Ti28  1  0.00316188  0.20191527  0.50424912  1
  Ti  Ti29  1  0.07228002  0.18955040  0.78668263  1
  Ti  Ti30  1  0.00228186  0.48767953  0.16814831  1
  Ti  Ti31  1  -0.06847211  0.41263451  0.51267473  1
  Ti  Ti32  1  -0.08749056  0.46393497  0.85673455  1
  Ti  Ti33  1  0.02718753  0.76657069  0.20731224  1
  Ti  Ti34  1  -0.04889503  0.78321783  0.53066139  1
  Ti  Ti35  1  -0.03042364  0.84677530  0.83961697  1
  Ti  Ti36  1  0.29527128  0.15973106  0.09660472  1
  Ti  Ti37  1  0.34098703  0.19850129  0.57577827  1
  Ti  Ti38  1  0.31066235  0.17773055  0.77045013  1
  Ti  Ti39  1  0.35284088  0.57275864  0.20801070  1
  Ti  Ti40  1  0.39635606  0.53233268  0.49146095  1
  Ti  Ti41  1  0.29795216  0.49166680  0.88609639  1
  Ti  Ti42  1  0.31210290  0.82113697  0.09356044  1
  Ti  Ti43  1  0.34817753  0.89681476  0.39847803  1
  Ti  Ti44  1  0.33797772  0.80194639  0.87672329  1
  Ti  Ti45  1  0.60263231  0.14749534  0.18435629  1
  Ti  Ti46  1  0.72723379  0.11505510  0.48023390  1
  Ti  Ti47  1  0.63936094  0.14650186  0.88891464  1
  Ti  Ti48  1  0.66349976  0.48625164  0.12801121  1
  Ti  Ti49  1  0.58608670  0.53557277  0.44693027  1
  Ti  Ti50  1  0.60354722  0.50956908  0.88073466  1
  Ti  Ti51  1  0.69307303  0.85501160  0.20162123  1
  Ti  Ti52  1  0.62859929  0.82176216  0.52789813  1
  Ti  Ti53  1  0.66210667  0.91869834  0.80357288  1
  Ti  Ti54  1  0.18070530  -0.05760742  0.19256377  1
  Ti  Ti55  1  0.22785007  -0.01643167  0.52605804  1
  Ti  Ti56  1  0.20322495  0.05538917  0.88633574  1
  Ti  Ti57  1  0.15653307  0.30589891  0.20841458  1
  Ti  Ti58  1  0.26542809  0.38834403  0.54360313  1
  Ti  Ti59  1  0.14537691  0.38412407  0.79467327  1
  Ti  Ti60  1  0.19019378  0.68497922  0.20634710  1
  Ti  Ti61  1  0.11774908  0.68209890  0.50947835  1
  Ti  Ti62  1  0.08880448  0.55957902  0.84472229  1
  Ti  Ti63  1  0.50640144  -0.13232888  0.13879407  1
  Ti  Ti64  1  0.45560836  0.03991570  0.53215807  1
  Ti  Ti65  1  0.45261069  -0.00080007  0.82283663  1
  Ti  Ti66  1  0.41884274  0.35938941  0.12890770  1
  Ti  Ti67  1  0.54303854  0.31740044  0.46899236  1
  Ti  Ti68  1  0.50862277  0.34996588  0.85174835  1
  Ti  Ti69  1  0.52282870  0.65680658  0.17097838  1
  Ti  Ti70  1  0.43444347  0.73265496  0.50920600  1
  Ti  Ti71  1  0.51636520  0.72927114  0.88025572  1
  Ti  Ti72  1  0.82380177  -0.04189572  0.13872881  1
  Ti  Ti73  1  0.80681387  -0.06071434  0.49496207  1
  Ti  Ti74  1  0.85959392  0.02288670  0.83965089  1
  Ti  Ti75  1  0.85358611  0.35943155  0.24455854  1
  Ti  Ti76  1  0.75935594  0.31641519  0.43877899  1
  Ti  Ti77  1  0.82650783  0.30064812  0.80357607  1
  Ti  Ti78  1  0.73604807  0.66991967  0.17142807  1
  Ti  Ti79  1  0.85360265  0.60771325  0.51077968  1
  Ti  Ti80  1  0.83197954  0.71924354  0.82155806  1
  Ti  Ti81  1  0.12464534  0.20954211  -0.01443973  1
  Ti  Ti82  1  0.19338032  0.16416235  0.39551711  1
  Ti  Ti83  1  0.15492167  0.13448743  0.61530623  1
  Ti  Ti84  1  0.15810608  0.47481666  0.01714886  1
  Ti  Ti85  1  0.20072065  0.51144835  0.34808619  1
  Ti  Ti86  1  0.17055581  0.52266137  0.67216417  1
  Ti  Ti87  1  0.16159864  0.81102190  -0.07820252  1
  Ti  Ti88  1  0.16864898  0.82464704  0.37663718  1
  Ti  Ti89  1  0.13089152  0.85885949  0.68668646  1
  Ti  Ti90  1  0.49585683  0.17995763  0.01727465  1
  Ti  Ti91  1  0.48942810  0.15338128  0.36400007  1
  Ti  Ti92  1  0.51216506  0.26298604  0.66703757  1
  Ti  Ti93  1  0.46257589  0.54000448  0.01552225  1
  Ti  Ti94  1  0.42494462  0.41687183  0.33021811  1
  Ti  Ti95  1  0.55816765  0.47167157  0.66915186  1
  Ti  Ti96  1  0.62727096  0.84966964  -0.00689692  1
  Ti  Ti97  1  0.52910662  0.87833854  0.35291543  1
  Ti  Ti98  1  0.53688711  0.78580421  0.69101517  1
  Ti  Ti99  1  0.91598218  0.12009375  0.00770233  1
  Ti  Ti100  1  0.83131564  0.16798807  0.30753797  1
  Ti  Ti101  1  0.83029847  0.06811304  0.64228692  1
  Ti  Ti102  1  0.83296622  0.55988697  0.02414915  1
  Ti  Ti103  1  0.89887147  0.49463305  0.35262755  1
  Ti  Ti104  1  0.80071673  0.45749691  0.64797809  1
  Ti  Ti105  1  0.92376370  0.79322703  0.01880832  1
  Ti  Ti106  1  0.87538090  0.85209783  0.32562862  1
  Ti  Ti107  1  0.84778186  0.86794529  0.68268775  1
  Co  Co108  1  0.46267087  0.04464982  0.11875783  1
  Co  Co109  1  0.38593850  0.63694584  0.89084818  1
  Co  Co110  1  0.10050813  0.93456200  0.84642909  1
  Co  Co111  1  0.51479758  0.48294281  0.19634420  1
  Co  Co112  1  0.85162100  0.23909704  0.13071207  1
  Co  Co113  1  0.64905645  0.40070988  0.55128487  1
  Co  Co114  1  0.39243315  0.73019673  0.73875756  1
  Co  Co115  1  0.62941810  0.99097792  0.12931009  1
  Co  Co116  1  0.43829372  0.50134810  0.79890281  1
  Co  Co117  1  0.43390319  0.74870705  0.29549167  1
  Co  Co118  1  0.84833249  0.21594955  0.53373307  1
  Co  Co119  1  0.84235599  0.53617574  0.19044519  1
  Co  Co120  1  0.09595629  0.86058373  0.52276761  1
  Co  Co121  1  0.29248215  0.60055711  0.76288783  1
  Co  Co122  1  0.55589566  0.01505641  0.97656725  1
  Co  Co123  1  0.71591513  0.43391285  0.78424725  1
  Co  Co124  1  0.33544935  0.50242972  0.64465617  1
  Co  Co125  1  0.51037093  0.01793924  0.26786711  1
  Co  Co126  1  0.89471614  0.32328512  0.64648963  1
  Co  Co127  1  0.99213846  0.60974669  0.43605977  1
  Co  Co128  1  0.21182128  0.65306617  0.89080182  1
  Co  Co129  1  0.47620465  0.88378994  0.52758587  1
  Co  Co130  1  0.70315133  0.78818636  0.68533214  1
  Co  Co131  1  0.59655766  0.75322995  0.26781249  1
  Co  Co132  1  0.83422340  0.69692138  0.64713863  1
  Co  Co133  1  0.57912786  0.66461453  0.57604237  1
  Co  Co134  1  0.38479631  0.91190794  0.22505536  1
  Co  Co135  1  0.44211160  0.61576868  0.63321392  1
  Co  Co136  1  0.08099773  0.05640273  0.45460843  1
  Co  Co137  1  0.25489044  0.31669973  0.08606532  1
  Co  Co138  1  0.31564177  0.47062078  0.06336462  1
  Co  Co139  1  0.19944199  0.99784209  0.35218035  1
  Co  Co140  1  0.28674787  0.79678403  0.26275510  1
  Co  Co141  1  0.90432978  0.07484885  0.46390811  1
  Co  Co142  1  0.76196323  0.79444160  0.04747730  1
  Co  Co143  1  0.80687514  0.40770979  0.10358325  1
  Co  Co144  1  0.54792453  0.69287690  0.40852837  1
  Co  Co145  1  0.89981282  0.08565568  0.17858952  1
  Co  Co146  1  0.14176950  0.02473029  0.72314731  1
  Co  Co147  1  1.02012688  0.07279255  0.88236171  1
  Co  Co148  1  0.63848740  0.26233381  0.76627648  1
  Co  Co149  1  0.97247605  0.92631423  0.43493333  1
  Co  Co150  1  0.53301867  0.62422399  0.76133607  1
  Co  Co151  1  0.78204458  0.41432833  0.94279914  1
  Co  Co152  1  0.86135418  0.57071941  0.74980749  1
  Co  Co153  1  0.05598795  0.90080628  0.29747599  1
  Co  Co154  1  0.20238767  0.34308985  0.93381767  1
  Co  Co155  1  0.44617380  0.19034224  0.18988338  1
  Co  Co156  1  0.98199112  0.91930700  0.15433519  1
  Co  Co157  1  0.07369775  0.34673883  0.06352408  1
  Co  Co158  1  0.82862169  0.00486853  0.33112257  1
  Co  Co159  1  0.45148656  0.58365382  0.33666460  1
  Co  Co160  1  0.97984684  0.98551262  0.74103191  1
  Co  Co161  1  0.01666691  0.76031230  0.38245609  1
  Ni  Ni162  1  0.75631570  0.47852255  0.44502822  1
  Ni  Ni163  1  0.46493698  0.87562155  0.95762683  1
  Ni  Ni164  1  0.03202577  0.32240564  0.89582079  1
  Ni  Ni165  1  0.75679206  0.57208808  0.87908046  1
  Ni  Ni166  1  0.22445090  0.55234880  0.51065332  1
  Ni  Ni167  1  0.17142814  0.52332404  0.17694447  1
  Ni  Ni168  1  -0.00551483  0.47033740  0.71078510  1
  Ni  Ni169  1  0.44912460  0.10458540  0.68541118  1
  Ni  Ni170  1  0.95693372  0.64938211  0.90273772  1
  Ni  Ni171  1  -0.00418418  0.51243669  0.99678962  1
  Ni  Ni172  1  0.25655606  0.81230317  0.52423254  1
  Ni  Ni173  1  0.71829866  0.26931981  0.23157792  1
  Ni  Ni174  1  0.48689432  0.18223833  0.82762012  1
  Ni  Ni175  1  0.86068783  0.78527394  0.17509320  1
  Ni  Ni176  1  0.26169631  0.92692545  0.79351626  1
  Ni  Ni177  1  0.05994833  0.60086854  0.28700834  1
  Ni  Ni178  1  0.61342172  0.98745982  0.48131646  1
  Ni  Ni179  1  0.08107789  0.72369528  0.80273093  1
  Ni  Ni180  1  0.67507878  0.74537907  0.85163437  1
  Ni  Ni181  1  0.12284010  0.81802631  0.08371235  1
  Ni  Ni182  1  0.03907435  0.53679933  0.56767442  1
  Ni  Ni183  1  0.94420364  0.64499525  0.11500393  1
  Ni  Ni184  1  0.33828618  0.09476433  0.42661477  1
  Ni  Ni185  1  0.21327940  0.28126697  0.67876481  1
  Ni  Ni186  1  0.70694526  0.87022524  0.37719914  1
  Ni  Ni187  1  0.72770481  0.54368478  0.29937554  1
  Ni  Ni188  1  0.91824555  0.29163996  0.39089482  1
  Ni  Ni189  1  0.17330555  0.12561574  0.23327558  1
  Ni  Ni190  1  0.28586296  0.41475190  0.22689303  1
  Ni  Ni191  1  0.57628305  0.16494936  0.53241745  1
  Ni  Ni192  1  0.79807677  0.86902088  0.89842259  1
  Ni  Ni193  1  0.69923889  0.56443849  0.56717441  1
  Ni  Ni194  1  0.74611016  0.12300760  0.09923823  1
  Ni  Ni195  1  0.04826488  0.21119194  0.32302000  1
  Ni  Ni196  1  0.35300195  0.14179012  0.92487695  1
  Ni  Ni197  1  0.21034600  0.94436019  0.01841291  1
  Ni  Ni198  1  0.64545712  0.20888837  0.36356237  1
  Ni  Ni199  1  0.56687265  0.31789861  0.17748076  1
  Ni  Ni200  1  0.76695978  0.14859078  0.77739978  1
  Ni  Ni201  1  0.36993154  0.28127309  0.43760310  1
  Ni  Ni202  1  0.94437586  0.17525164  0.68480911  1
  Ni  Ni203  1  0.13271146  0.07835933  0.08377799  1
  Ni  Ni204  1  0.44312987  0.72438860  0.03399740  1
  Ni  Ni205  1  0.16573160  0.26797063  0.51427519  1
  Ni  Ni206  1  0.42892258  0.37543468  0.57362145  1
  Ni  Ni207  1  0.55184275  0.39546483  0.02124335  1
  Ni  Ni208  1  0.53005679  0.95358584  0.67224379  1
  Ni  Ni209  1  0.78988144  0.20592314  0.94449130  1
  Ni  Ni210  1  0.22485970  0.34800328  0.37456207  1
  Ni  Ni211  1  0.11051739  0.42210156  0.48358659  1
  Ni  Ni212  1  0.65868597  0.32577110  0.90922308  1
  Ni  Ni213  1  0.69740193  0.95180189  0.63369126  1
  Ni  Ni214  1  0.29844341  0.03835609  0.67077702  1
  Ni  Ni215  1  0.78708030  0.77288224  0.50449100  1
