# generated using pymatgen
data_Ti2CoNi
_symmetry_space_group_name_H-M   'P 1'
_cell_length_a   14.59149053
_cell_length_b   14.64242789
_cell_length_c   14.60769995
_cell_angle_alpha   89.82282175
_cell_angle_beta   90.05190386
_cell_angle_gamma   89.72202935
_symmetry_Int_Tables_number   1
_chemical_formula_structural   Ti2CoNi
_chemical_formula_sum   'Ti108 Co54 Ni54'
_cell_volume   3120.95293494
_cell_formula_units_Z   54
loop_
 _symmetry_equiv_pos_site_id
 _symmetry_equiv_pos_as_xyz
  1  'x, y, z'
loop_
 _atom_site_type_symbol
 _atom_site_label
 _atom_site_symmetry_multiplicity
 _atom_site_fract_x
 _atom_site_fract_y
 _atom_site_fract_z
 _atom_site_occupancy
  Ti  Ti0  1  -0.04356914  0.04646537  0.00883466  1
  Ti  Ti1  1  -0.06468267  -0.08205496  0.34133949  1
  Ti  Ti2  1  0.03167196  -0.03617605  0.62052989  1
  Ti  Ti3  1  -0.01859623  0.34437118  -0.04654899  1
  Ti  Ti4  1  0.02342449  0.33782948  0.33277884  1
  Ti  Ti5  1  0.00067076  0.25965428  0.68867721  1
  Ti  Ti6  1  0.03123905  0.60085160  0.02672095  1
  Ti  Ti7  1  -0.00838694  0.70001087  0.33037168  1
  Ti  Ti8  1  -0.06072931  0.70574970  0.63757807  1
  Ti  Ti9  1  0.26809702  0.01171782  0.03839441  1
  Ti  Ti10  1  0.31887824  0.05650305  0.30871925  1
  Ti  Ti11  1  0.21323490  0.00652644  0.68720899  1
  Ti  Ti12  1  0.34387553  0.38186715  0.01108354  1
  Ti  Ti13  1  0.35214858  0.33197442  0.32779376  1
  Ti  Ti14  1  0.29864625  0.37330419  0.58602567  1
  Ti  Ti15  1  0.35078756  0.59790101  -0.00762619  1
  Ti  Ti16  1  0.29865924  0.62203210  0.29965984  1
  Ti  Ti17  1  0.42526567  0.72787231  0.71733745  1
  Ti  Ti18  1  0.60880956  0.04114939  0.07163039  1
  Ti  Ti19  1  0.66843902  -0.00210351  0.27480851  1
  Ti  Ti20  1  0.65663558  -0.02499464  0.59275160  1
  Ti  Ti21  1  0.66557499  0.35340275  0.01876250  1
  Ti  Ti22  1  0.56397864  0.30895397  0.34803074  1
  Ti  Ti23  1  0.66396123  0.33112481  0.71924073  1
  Ti  Ti24  1  0.68354633  0.66298478  0.03155089  1
  Ti  Ti25  1  0.65732811  0.68028299  0.40063887  1
  Ti  Ti26  1  0.62943276  0.60581559  0.59413282  1
  Ti  Ti27  1  0.02081260  0.12731747  0.18771400  1
  Ti  Ti28  1  -0.01594489  0.12763193  0.47937412  1
  Ti  Ti29  1  -0.04820011  0.17376466  0.86449404  1
  Ti  Ti30  1  0.08813302  0.41945151  0.11784313  1
  Ti  Ti31  1  -0.01140259  0.45465251  0.50548358  1
  Ti  Ti32  1  0.03332112  0.55852973  0.80927716  1
  Ti  Ti33  1  0.02446181  0.89561064  0.12158967  1
  Ti  Ti34  1  0.06305200  0.79994167  0.49378230  1
  Ti  Ti35  1  0.01840562  0.81777167  0.91399092  1
  Ti  Ti36  1  0.39910900  0.14148360  0.10769047  1
  Ti  Ti37  1  0.27927081  0.20984017  0.48765448  1
  Ti  Ti38  1  0.34151789  0.19305341  0.90047168  1
  Ti  Ti39  1  0.29461870  0.48359219  0.16147414  1
  Ti  Ti40  1  0.34207753  0.49918348  0.45320219  1
  Ti  Ti41  1  0.25948188  0.56862322  0.78356971  1
  Ti  Ti42  1  0.34590991  0.80268904  0.13490574  1
  Ti  Ti43  1  0.35775900  0.79649001  0.53570824  1
  Ti  Ti44  1  0.39181798  0.85918490  0.88503251  1
  Ti  Ti45  1  0.66281757  0.21059139  0.17920500  1
  Ti  Ti46  1  0.64673817  0.14481929  0.65453699  1
  Ti  Ti47  1  0.66685678  0.06784044  0.85707526  1
  Ti  Ti48  1  0.63661324  0.50609180  0.13296940  1
  Ti  Ti49  1  0.55512603  0.46941511  0.48198979  1
  Ti  Ti50  1  0.69598609  0.57924403  0.81163536  1
  Ti  Ti51  1  0.72564047  0.88128504  0.11608856  1
  Ti  Ti52  1  0.65683801  0.80196704  0.54850866  1
  Ti  Ti53  1  0.69511467  0.84121965  0.77899850  1
  Ti  Ti54  1  0.15160761  -0.01852923  0.24937545  1
  Ti  Ti55  1  0.20046914  0.03988028  0.49651363  1
  Ti  Ti56  1  0.07093931  -0.02175482  0.82629231  1
  Ti  Ti57  1  0.26995220  0.28997684  0.17020406  1
  Ti  Ti58  1  0.09273262  0.29760229  0.51925257  1
  Ti  Ti59  1  0.25109748  0.35769792  0.84040531  1
  Ti  Ti60  1  0.13527904  0.73801263  0.19533820  1
  Ti  Ti61  1  0.10935228  0.60265828  0.46664461  1
  Ti  Ti62  1  0.12714488  0.62374222  0.64760280  1
  Ti  Ti63  1  0.49584303  0.04500051  0.24218639  1
  Ti  Ti64  1  0.52596687  -0.02077299  0.44323182  1
  Ti  Ti65  1  0.38992262  0.00171058  0.76048508  1
  Ti  Ti66  1  0.49180793  0.35062235  0.14765462  1
  Ti  Ti67  1  0.56919095  0.28785122  0.55040996  1
  Ti  Ti68  1  0.47834604  0.33970098  0.84523935  1
  Ti  Ti69  1  0.52304002  0.67943618  0.19946386  1
  Ti  Ti70  1  0.46496769  0.65210742  0.44897495  1
  Ti  Ti71  1  0.56047766  0.70748900  0.87611682  1
  Ti  Ti72  1  0.82857315  0.10247396  0.24173583  1
  Ti  Ti73  1  0.82552085  0.05807535  0.58319925  1
  Ti  Ti74  1  0.88189946  -0.01447516  0.80221180  1
  Ti  Ti75  1  0.91211601  0.28179594  0.18823482  1
  Ti  Ti76  1  0.81423561  0.37179911  0.50428156  1
  Ti  Ti77  1  0.81382205  0.41405066  0.85671335  1
  Ti  Ti78  1  0.82042238  0.66063314  0.20073011  1
  Ti  Ti79  1  0.88972048  0.61284480  0.46042030  1
  Ti  Ti80  1  0.85194929  0.68682311  0.90214797  1
  Ti  Ti81  1  0.14492185  0.14070945  -0.07333174  1
  Ti  Ti82  1  0.14432542  0.16547333  0.34168059  1
  Ti  Ti83  1  0.20189478  0.23991409  0.67984535  1
  Ti  Ti84  1  0.18911945  0.51191564  -0.03433058  1
  Ti  Ti85  1  0.11321297  0.55490346  0.25631064  1
  Ti  Ti86  1  0.12377242  0.42655306  0.68835889  1
  Ti  Ti87  1  0.24390772  0.78118064  -0.03532694  1
  Ti  Ti88  1  0.22325693  0.86429118  0.41955162  1
  Ti  Ti89  1  0.13326071  0.79659955  0.71869063  1
  Ti  Ti90  1  0.50662597  0.12614783  -0.06777823  1
  Ti  Ti91  1  0.45845821  0.17450765  0.41396154  1
  Ti  Ti92  1  0.47081551  0.16910795  0.73006098  1
  Ti  Ti93  1  0.53381901  0.50187041  -0.04437744  1
  Ti  Ti94  1  0.45708098  0.48841042  0.27792503  1
  Ti  Ti95  1  0.51471544  0.52042651  0.74096240  1
  Ti  Ti96  1  0.55332163  0.84138029  0.01429405  1
  Ti  Ti97  1  0.46560967  0.85391212  0.28922052  1
  Ti  Ti98  1  0.49234821  0.89887333  0.62987847  1
  Ti  Ti99  1  0.82935224  0.21902977  0.03476275  1
  Ti  Ti100  1  0.75611212  0.18354095  0.44207490  1
  Ti  Ti101  1  0.79836744  0.16072014  0.75743348  1
  Ti  Ti102  1  0.86165875  0.45209203  0.07844855  1
  Ti  Ti103  1  0.79189863  0.46740376  0.29175222  1
  Ti  Ti104  1  0.81558798  0.54947068  0.61980050  1
  Ti  Ti105  1  0.85330345  0.89243173  -0.02141917  1
  Ti  Ti106  1  0.80480856  0.77155032  0.36860294  1
  Ti  Ti107  1  0.83496658  0.86553145  0.62770715  1
  Co  Co108  1  0.36014139  0.29036728  0.73723832  1
  Co  Co109  1  0.51372258  0.73195753  0.57972749  1
  Co  Co110  1  0.53475429  -0.03457887  0.90801227  1
  Co  Co111  1  0.93110633  0.96134432  0.49896639  1
  Co  Co112  1  0.70158968  0.94678401  0.95648294  1
  Co  Co113  1  -0.01506244  0.54762978  0.64063219  1
  Co  Co114  1  0.07981030  0.84508639  0.30538744  1
  Co  Co115  1  0.77897309  0.70010599  0.54249717  1
  Co  Co116  1  0.37371533  0.92247313  0.39763688  1
  Co  Co117  1  0.76607216  0.35066746  0.15630785  1
  Co  Co118  1  0.77980326  0.41564935  0.68072743  1
  Co  Co119  1  0.27942873  0.14509388  0.77208539  1
  Co  Co120  1  0.45510558  -0.01459884  0.06760253  1
  Co  Co121  1  0.93135508  0.39080786  0.63738909  1
  Co  Co122  1  0.80713321  0.76076495  0.06367728  1
  Co  Co123  1  0.56006855  1.01664351  0.74218892  1
  Co  Co124  1  0.85346511  0.60654387  0.04566391  1
  Co  Co125  1  0.90959339  0.79124961  0.48978747  1
  Co  Co126  1  0.19457441  0.40820183  0.25828956  1
  Co  Co127  1  0.48357676  0.06459791  0.59386493  1
  Co  Co128  1  0.27201310  0.54325369  0.61000814  1
  Co  Co129  1  0.56569888  0.55865790  0.35063191  1
  Co  Co130  1  0.41477937  0.74650681  -0.00327254  1
  Co  Co131  1  0.11518268  0.45788952  0.38865761  1
  Co  Co132  1  -0.02989750  0.59804910  0.17769636  1
  Co  Co133  1  0.71382643  0.79031678  0.93241388  1
  Co  Co134  1  0.10910475  0.26916007  0.20688214  1
  Co  Co135  1  0.63734543  0.39084332  0.23691711  1
  Co  Co136  1  0.41178770  0.24393276  0.58942858  1
  Co  Co137  1  0.95618295  0.43818227  0.20836826  1
  Co  Co138  1  0.52347438  0.64355967  0.03947158  1
  Co  Co139  1  0.33870047  0.96458683  0.17981311  1
  Co  Co140  1  0.23911419  0.02378709  0.86310897  1
  Co  Co141  1  0.32774651  0.11130831  0.61980778  1
  Co  Co142  1  0.60013942  0.70075277  0.71988338  1
  Co  Co143  1  0.99358012  0.06336845  0.32545893  1
  Co  Co144  1  0.19441999  0.88384388  0.11806843  1
  Co  Co145  1  0.42878534  0.58802045  0.60782817  1
  Co  Co146  1  0.73872194  -0.00576752  0.72993959  1
  Co  Co147  1  0.46449426  0.50750458  0.10718764  1
  Co  Co148  1  0.12826399  0.92536428  0.96981732  1
  Co  Co149  1  0.88881000  0.97215239  0.15917892  1
  Co  Co150  1  0.70062516  0.02272160  0.43690930  1
  Co  Co151  1  0.78642170  0.89839948  0.47274472  1
  Co  Co152  1  0.33804059  0.95302852  0.57617379  1
  Co  Co153  1  0.16433139  0.46098637  0.53541079  1
  Co  Co154  1  0.26003631  0.84774671  0.26488270  1
  Co  Co155  1  0.75537946  0.26998175  0.30371280  1
  Co  Co156  1  0.34858124  0.45146683  0.72160281  1
  Co  Co157  1  0.18914807  0.87478522  0.58367194  1
  Co  Co158  1  0.36661813  0.06545631  0.46672712  1
  Co  Co159  1  0.86362789  0.30246098  0.76355392  1
  Co  Co160  1  0.38429542  1.02644344  0.93031745  1
  Co  Co161  1  0.43083330  0.34632574  0.46343825  1
  Ni  Ni162  1  0.21869987  0.12735962  0.17857772  1
  Ni  Ni163  1  0.11177200  0.75617927  0.03710140  1
  Ni  Ni164  1  0.64717440  0.86465942  0.38214823  1
  Ni  Ni165  1  0.37577136  0.47335748  0.87798536  1
  Ni  Ni166  1  0.81416010  0.08803879  0.92834018  1
  Ni  Ni167  1  0.67422152  0.61242974  0.24673074  1
  Ni  Ni168  1  0.10584644  0.13634230  0.59276057  1
  Ni  Ni169  1  0.17085249  0.71307407  0.36047838  1
  Ni  Ni170  1  0.11081967  0.04994852  0.07564935  1
  Ni  Ni171  1  0.68953995  0.39069001  0.40221965  1
  Ni  Ni172  1  0.86551448  0.57064942  0.77632122  1
  Ni  Ni173  1  0.77356817  0.69729904  0.71051318  1
  Ni  Ni174  1  0.96211404  0.52442844  0.34246888  1
  Ni  Ni175  1  0.21736316  0.87517733  0.83008982  1
  Ni  Ni176  1  0.13846124  0.67056225  0.88477520  1
  Ni  Ni177  1  0.56137275  0.89874130  0.16691889  1
  Ni  Ni178  1  -0.00221222  0.70914229  0.79219233  1
  Ni  Ni179  1  0.52743705  0.85542567  0.78552205  1
  Ni  Ni180  1  0.91827801  0.80111072  0.21455773  1
  Ni  Ni181  1  0.46364501  0.41521763  0.61329477  1
  Ni  Ni182  1  0.47300553  0.27620198  1.00499104  1
  Ni  Ni183  1  0.60502793  0.22169504  0.82657284  1
  Ni  Ni184  1  0.20227877  0.60997608  0.10203125  1
  Ni  Ni185  1  0.35735306  0.75614113  0.36740438  1
  Ni  Ni186  1  0.95789897  0.74095580  1.06752232  1
  Ni  Ni187  1  0.62026698  0.14540986  0.33428292  1
  Ni  Ni188  1  0.95272954  0.10364175  0.67994078  1
  Ni  Ni189  1  0.80655233  0.24318796  0.60925409  1
  Ni  Ni190  1  0.48045208  0.21089619  0.24031368  1
  Ni  Ni191  1  0.92651574  0.51036044  0.92643570  1
  Ni  Ni192  1  0.75226695  0.25708654  0.88914414  1
  Ni  Ni193  1  0.37125701  0.63782330  0.14854033  1
  Ni  Ni194  1  0.09949999  0.12400564  0.76020911  1
  Ni  Ni195  1  0.63996771  0.41892723  0.85603002  1
  Ni  Ni196  1  0.78789873  0.89257114  0.26559794  1
  Ni  Ni197  1  0.28297330  0.72717145  0.81109137  1
  Ni  Ni198  1  0.64597808  0.19220993  0.00356690  1
  Ni  Ni199  1  0.27687581  0.65341259  0.48151989  1
  Ni  Ni200  1  0.09675293  0.42631802  0.86453219  1
  Ni  Ni201  1  0.73399763  0.53640850  0.46621673  1
  Ni  Ni202  1  1.02517531  0.20897338  0.03758789  1
  Ni  Ni203  1  0.27029663  0.70869634  0.64223218  1
  Ni  Ni204  1  0.09675783  0.27195026  0.83378522  1
  Ni  Ni205  1  0.91326966  0.20758473  0.34975750  1
  Ni  Ni206  1  0.19701669  0.32122277  0.39292476  1
  Ni  Ni207  1  0.96820981  0.85887848  0.74004992  1
  Ni  Ni208  1  0.08020556  -0.03560965  0.42671580  1
  Ni  Ni209  1  0.15762518  0.33140835  -0.00954298  1
  Ni  Ni210  1  0.65629896  0.77842261  0.24081685  1
  Ni  Ni211  1  0.25227298  0.20710025  0.03567059  1
  Ni  Ni212  1  0.59873389  0.13217347  0.49637029  1
  Ni  Ni213  1  0.77332773  0.05818532  0.08494773  1
  Ni  Ni214  1  0.72787248  0.51005386  0.97200034  1
  Ni  Ni215  1  0.42265601  0.62615662  0.84771725  1
