# generated using pymatgen
data_Ti2CoNi
_symmetry_space_group_name_H-M   'P 1'
_cell_length_a   14.69616196
_cell_length_b   14.63022237
_cell_length_c   14.68653026
_cell_angle_alpha   89.90971754
_cell_angle_beta   89.88866748
_cell_angle_gamma   89.66803052
_symmetry_Int_Tables_number   1
_chemical_formula_structural   Ti2CoNi
_chemical_formula_sum   'Ti108 Co54 Ni54'
_cell_volume   3157.66039598
_cell_formula_units_Z   54
loop_
 _symmetry_equiv_pos_site_id
 _symmetry_equiv_pos_as_xyz
  1  'x, y, z'
loop_
 _atom_site_type_symbol
 _atom_site_label
 _atom_site_symmetry_multiplicity
 _atom_site_fract_x
 _atom_site_fract_y
 _atom_site_fract_z
 _atom_site_occupancy
  Ti  Ti0  1  -0.04506502  -0.07343699  0.04796362  1
  Ti  Ti1  1  0.02813872  -0.03291069  0.33002813  1
  Ti  Ti2  1  -0.09716167  0.03482175  0.63005008  1
  Ti  Ti3  1  -0.00548961  0.32663608  0.01132399  1
  Ti  Ti4  1  0.00524905  0.25874610  0.36637532  1
  Ti  Ti5  1  0.07193655  0.32433118  0.68187055  1
  Ti  Ti6  1  -0.00514439  0.62106200  -0.04567904  1
  Ti  Ti7  1  0.03304676  0.54867793  0.30994414  1
  Ti  Ti8  1  0.03938479  0.68133135  0.70576141  1
  Ti  Ti9  1  0.38995854  0.11307078  -0.04691534  1
  Ti  Ti10  1  0.30289584  -0.01041984  0.40007376  1
  Ti  Ti11  1  0.36131173  0.01772043  0.68614537  1
  Ti  Ti12  1  0.28381134  0.33939866  0.02056940  1
  Ti  Ti13  1  0.29282471  0.34681805  0.34557594  1
  Ti  Ti14  1  0.27749684  0.34246699  0.69108487  1
  Ti  Ti15  1  0.31641441  0.67319716  -0.01764211  1
  Ti  Ti16  1  0.30651954  0.67635705  0.34072003  1
  Ti  Ti17  1  0.40356195  0.62292232  0.65892824  1
  Ti  Ti18  1  0.69108583  -0.00267237  0.04138033  1
  Ti  Ti19  1  0.67982804  -0.01487905  0.27108913  1
  Ti  Ti20  1  0.68626427  -0.04248953  0.68587430  1
  Ti  Ti21  1  0.66791899  0.34566775  0.02427637  1
  Ti  Ti22  1  0.64281681  0.33875951  0.32080306  1
  Ti  Ti23  1  0.74548158  0.34964852  0.63941796  1
  Ti  Ti24  1  0.68184678  0.67168673  0.02944012  1
  Ti  Ti25  1  0.65547024  0.72607619  0.37138431  1
  Ti  Ti26  1  0.66594701  0.62711152  0.66225326  1
  Ti  Ti27  1  0.01779626  0.12429291  0.09964278  1
  Ti  Ti28  1  0.02193414  0.17403836  0.57270002  1
  Ti  Ti29  1  -0.03606834  0.19118701  0.79876976  1
  Ti  Ti30  1  0.03099292  0.49090066  0.11366373  1
  Ti  Ti31  1  0.02212219  0.51052861  0.58947990  1
  Ti  Ti32  1  0.03557627  0.43971534  0.84127946  1
  Ti  Ti33  1  0.02263684  0.73300559  0.23173556  1
  Ti  Ti34  1  0.01495630  0.80112069  0.45060547  1
  Ti  Ti35  1  -0.02541210  0.87521088  0.84304114  1
  Ti  Ti36  1  0.26657838  0.14843393  0.09964507  1
  Ti  Ti37  1  0.33435995  0.21989447  0.50644917  1
  Ti  Ti38  1  0.27986610  0.16090113  0.76857689  1
  Ti  Ti39  1  0.32448809  0.59759189  0.16715850  1
  Ti  Ti40  1  0.33044617  0.44679810  0.52279900  1
  Ti  Ti41  1  0.39819484  0.43284429  0.86676735  1
  Ti  Ti42  1  0.37807834  0.81842004  0.14846725  1
  Ti  Ti43  1  0.37617765  0.81262416  0.48358601  1
  Ti  Ti44  1  0.27183380  0.85393111  0.90642833  1
  Ti  Ti45  1  0.71509154  0.16267330  0.16934490  1
  Ti  Ti46  1  0.62149649  0.15030398  0.38597474  1
  Ti  Ti47  1  0.60779520  0.19041531  0.84105905  1
  Ti  Ti48  1  0.61288309  0.58989877  0.22943846  1
  Ti  Ti49  1  0.66092423  0.50183534  0.47250748  1
  Ti  Ti50  1  0.61246985  0.40559805  0.82945400  1
  Ti  Ti51  1  0.66419634  0.79166827  0.19301925  1
  Ti  Ti52  1  0.67262075  0.85771170  0.51097758  1
  Ti  Ti53  1  0.73471157  0.80647799  0.83155565  1
  Ti  Ti54  1  0.22285267  -0.00767055  0.20595895  1
  Ti  Ti55  1  0.13535262  0.09277317  0.42609678  1
  Ti  Ti56  1  0.15165043  -0.02321587  0.80261316  1
  Ti  Ti57  1  0.16817802  0.38277647  0.18950363  1
  Ti  Ti58  1  0.15722861  0.29267983  0.46985397  1
  Ti  Ti59  1  0.14265091  0.27091234  0.87397698  1
  Ti  Ti60  1  0.13401703  0.64309819  0.09131081  1
  Ti  Ti61  1  0.21051075  0.74257929  0.49746875  1
  Ti  Ti62  1  0.23669822  0.69102583  0.78451065  1
  Ti  Ti63  1  0.43712168  0.02851415  0.12754437  1
  Ti  Ti64  1  0.47043047  -0.00161042  0.52391885  1
  Ti  Ti65  1  0.44689097  -0.08127234  0.84546226  1
  Ti  Ti66  1  0.43403371  0.38154340  0.14396690  1
  Ti  Ti67  1  0.58571529  0.33028925  0.52259953  1
  Ti  Ti68  1  0.47260488  0.28268633  0.96065860  1
  Ti  Ti69  1  0.49585621  0.66577315  0.08966042  1
  Ti  Ti70  1  0.53057304  0.68474258  0.52770565  1
  Ti  Ti71  1  0.53024728  0.71477115  0.78780791  1
  Ti  Ti72  1  0.87244069  0.04000735  0.22032826  1
  Ti  Ti73  1  0.78036033  0.05851981  0.47724586  1
  Ti  Ti74  1  0.83875370  0.05620009  0.84921995  1
  Ti  Ti75  1  0.86645487  0.38818464  0.13427172  1
  Ti  Ti76  1  0.91598474  0.34688203  0.53206547  1
  Ti  Ti77  1  0.82440475  0.39098322  0.84299541  1
  Ti  Ti78  1  0.84780492  0.74014726  0.15016440  1
  Ti  Ti79  1  0.79220946  0.64247071  0.48509196  1
  Ti  Ti80  1  0.76831977  0.60473188  0.85694716  1
  Ti  Ti81  1  0.16573707  0.09043895  -0.05532586  1
  Ti  Ti82  1  0.15996546  0.18916980  0.25310319  1
  Ti  Ti83  1  0.16154493  0.04322311  0.62337015  1
  Ti  Ti84  1  0.21300618  0.53496767  -0.08561306  1
  Ti  Ti85  1  0.17499937  0.53003069  0.43243590  1
  Ti  Ti86  1  0.20897843  0.58524222  0.61761613  1
  Ti  Ti87  1  0.19307396  0.83102067  0.07444653  1
  Ti  Ti88  1  0.19029254  0.84655325  0.33114019  1
  Ti  Ti89  1  0.14880599  0.84392978  0.63951114  1
  Ti  Ti90  1  0.58091678  0.15660446  0.03935644  1
  Ti  Ti91  1  0.45298163  0.22961674  0.29381271  1
  Ti  Ti92  1  0.52127576  0.15280788  0.65970431  1
  Ti  Ti93  1  0.53324509  0.57687986  -0.06820256  1
  Ti  Ti94  1  0.48401225  0.45441074  0.33282233  1
  Ti  Ti95  1  0.46098648  0.43444149  0.68078865  1
  Ti  Ti96  1  0.54588435  0.86342064  0.04517032  1
  Ti  Ti97  1  0.51170666  0.87102747  0.35720052  1
  Ti  Ti98  1  0.44846730  0.84141488  0.66016873  1
  Ti  Ti99  1  0.83257272  0.21600825  -0.01478831  1
  Ti  Ti100  1  0.83254541  0.29392853  0.30080009  1
  Ti  Ti101  1  0.73117036  0.14913058  0.68599847  1
  Ti  Ti102  1  0.81526035  0.55804575  0.06446323  1
  Ti  Ti103  1  0.83506875  0.49177982  0.35024606  1
  Ti  Ti104  1  0.85948584  0.61213155  0.67637560  1
  Ti  Ti105  1  0.86458481  0.75665139  -0.03523567  1
  Ti  Ti106  1  0.82499944  0.84165250  0.32777713  1
  Ti  Ti107  1  0.93936674  0.83879584  0.63933348  1
  Co  Co108  1  0.92564926  0.56098127  0.81876775  1
  Co  Co109  1  0.11259814  -0.00197190  0.07346239  1
  Co  Co110  1  0.93230665  0.69578196  0.55845722  1
  Co  Co111  1  0.80543149  0.91646837  0.58453844  1
  Co  Co112  1  0.30870256  0.27531078  0.20381899  1
  Co  Co113  1  1.00181055  0.12898279  0.27121430  1
  Co  Co114  1  0.74992024  0.49605138  0.73077573  1
  Co  Co115  1  0.38592739  0.59911302  0.84722392  1
  Co  Co116  1  0.56787729  0.26568352  0.16732501  1
  Co  Co117  1  0.82830406  0.79516923  0.48078359  1
  Co  Co118  1  0.44596323  0.60353501  0.26411041  1
  Co  Co119  1  0.33981331  0.10479999  0.24329042  1
  Co  Co120  1  0.01665423  0.18337814  0.94647965  1
  Co  Co121  1  0.30962384  0.01381286  0.85472884  1
  Co  Co122  1  0.19064442  0.21086829  0.60855758  1
  Co  Co123  1  0.34418377  0.62061027  0.49990393  1
  Co  Co124  1  0.00931243  0.77187689  0.05877706  1
  Co  Co125  1  0.51309357  0.75157066  0.22784476  1
  Co  Co126  1  0.32161243  0.26936922  0.87764335  1
  Co  Co127  1  0.10424708  0.89216236  0.94878482  1
  Co  Co128  1  0.14764952  0.72103608  0.94398730  1
  Co  Co129  1  0.29190191  0.07232859  0.53532333  1
  Co  Co130  1  0.28277475  0.88095161  0.74223854  1
  Co  Co131  1  0.40232620  0.93095094  0.99962727  1
  Co  Co132  1  0.70468205  0.21172365  0.52651759  1
  Co  Co133  1  0.29798503  0.91195032  0.57945162  1
  Co  Co134  1  0.70178601  0.48988371  0.94116716  1
  Co  Co135  1  0.26675408  0.99072327  0.03785413  1
  Co  Co136  1  0.09567022  0.60319165  0.82544088  1
  Co  Co137  1  0.27391378  0.16876623  0.36859831  1
  Co  Co138  1  0.46255428  0.71710026  0.38070318  1
  Co  Co139  1  0.11419959  0.15571604  0.74305756  1
  Co  Co140  1  0.42899951  0.20497438  0.11387115  1
  Co  Co141  1  0.74936307  0.48254847  0.20555710  1
  Co  Co142  1  0.62916975  0.53022359  0.07550080  1
  Co  Co143  1  0.12051299  0.80782955  0.80071328  1
  Co  Co144  1  0.88868960  0.73310161  0.79484468  1
  Co  Co145  1  0.85612745  0.21845673  0.44411366  1
  Co  Co146  1  0.16150922  0.41529692  0.56640687  1
  Co  Co147  1  0.37832483  0.75962298  0.79697300  1
  Co  Co148  1  0.52953762  0.42955037  0.99840715  1
  Co  Co149  1  0.14283463  0.47174237  0.72325846  1
  Co  Co150  1  0.72411523  0.32303367  0.17566145  1
  Co  Co151  1  0.13188421  0.40543422  -0.00709264  1
  Co  Co152  1  0.55910703  0.59156877  0.39111991  1
  Co  Co153  1  0.22830432  0.39652210  0.84086568  1
  Co  Co154  1  0.83672968  0.90937272  0.75596809  1
  Co  Co155  1  0.16996071  0.91589605  0.47477715  1
  Co  Co156  1  0.08092119  0.65649606  0.52772833  1
  Co  Co157  1  1.00694259  0.02644179  0.92596238  1
  Co  Co158  1  0.85820359  0.18740176  0.59483872  1
  Co  Co159  1  0.30391466  0.74668570  0.63353442  1
  Co  Co160  1  0.18327621  0.55311238  0.24443611  1
  Co  Co161  1  0.94957851  0.56676258  0.45635801  1
  Ni  Ni162  1  0.67029325  0.02820323  0.84143792  1
  Ni  Ni163  1  0.09295557  0.87773668  0.19177739  1
  Ni  Ni164  1  0.71898919  0.82982923  0.02511762  1
  Ni  Ni165  1  0.59082896  0.30163365  0.69513800  1
  Ni  Ni166  1  0.46576275  0.09255067  0.80789308  1
  Ni  Ni167  1  0.03454929  0.42085389  0.43342655  1
  Ni  Ni168  1  0.88300004  0.29204090  0.70764046  1
  Ni  Ni169  1  0.43524463  0.77402950  -0.04711010  1
  Ni  Ni170  1  0.49146727  0.50452767  0.52259584  1
  Ni  Ni171  1  0.50132425  0.18562633  0.49416729  1
  Ni  Ni172  1  0.96818329  0.40563171  0.27160247  1
  Ni  Ni173  1  0.45166887  0.26801870  0.77899348  1
  Ni  Ni174  1  0.30537922  0.50695782  0.73592430  1
  Ni  Ni175  1  0.59104229  0.88058427  0.79406218  1
  Ni  Ni176  1  0.90131908  0.68542402  0.34490922  1
  Ni  Ni177  1  0.03341790  0.97609488  0.53515446  1
  Ni  Ni178  1  0.78557365  0.90812333  0.15429264  1
  Ni  Ni179  1  0.20622046  0.72947806  0.21298129  1
  Ni  Ni180  1  0.76040954  0.36103039  0.45199380  1
  Ni  Ni181  1  0.32392730  0.51029478  0.34049369  1
  Ni  Ni182  1  0.78008012  0.76806556  0.65720238  1
  Ni  Ni183  1  0.62907654  0.06539818  0.56188251  1
  Ni  Ni184  1  0.61682481  0.46592574  0.63691615  1
  Ni  Ni185  1  0.87695568  0.20810715  0.15223001  1
  Ni  Ni186  1  0.76450011  0.64563761  0.26428690  1
  Ni  Ni187  1  0.38082742  0.51208551  0.01841514  1
  Ni  Ni188  1  0.12531544  0.68378288  0.36028106  1
  Ni  Ni189  1  0.78417327  0.13095913  0.32342764  1
  Ni  Ni190  1  0.54168173  0.92022841  0.20115010  1
  Ni  Ni191  1  0.77308361  0.22710746  0.82867953  1
  Ni  Ni192  1  0.81587527  0.48707420  0.55578891  1
  Ni  Ni193  1  0.91025451  0.44534473  0.69627188  1
  Ni  Ni194  1  0.81721583  0.92359310  0.93741328  1
  Ni  Ni195  1  0.84210175  0.06443363  0.05009484  1
  Ni  Ni196  1  0.13956398  0.24844438  0.06075049  1
  Ni  Ni197  1  0.54515846  0.01910220  0.94635545  1
  Ni  Ni198  1  0.61021527  0.98696334  0.42181266  1
  Ni  Ni199  1  0.44304422  0.34084058  0.44548543  1
  Ni  Ni200  1  0.02331208  0.28202299  0.18261902  1
  Ni  Ni201  1  0.90551320  0.46445426  0.96639000  1
  Ni  Ni202  1  0.58959822  0.42407263  0.18666355  1
  Ni  Ni203  1  0.61179738  0.79126405  0.65272359  1
  Ni  Ni204  1  0.44055236  0.08228573  0.37861874  1
  Ni  Ni205  1  0.56215225  0.10322612  0.21295583  1
  Ni  Ni206  1  0.90027069  0.93762482  0.44854865  1
  Ni  Ni207  1  0.90264382  0.56702930  0.20706474  1
  Ni  Ni208  1  0.54563476  0.54883019  0.76689227  1
  Ni  Ni209  1  -0.00087473  0.02608473  0.75615006  1
  Ni  Ni210  1  0.59630905  0.75998667  0.92604678  1
  Ni  Ni211  1  0.22420650  0.49987683  0.08334341  1
  Ni  Ni212  1  0.38458556  0.93906993  0.26462655  1
  Ni  Ni213  1  0.43695405  0.29339582  0.61079815  1
  Ni  Ni214  1  -0.04329119  0.09157814  0.43284409  1
  Ni  Ni215  1  0.93587398  0.87791414  0.20687185  1
