# generated using pymatgen
data_Ti2CoNi
_symmetry_space_group_name_H-M   'P 1'
_cell_length_a   14.56948528
_cell_length_b   14.63702603
_cell_length_c   14.60090749
_cell_angle_alpha   90.06869296
_cell_angle_beta   89.41481080
_cell_angle_gamma   90.16897872
_symmetry_Int_Tables_number   1
_chemical_formula_structural   Ti2CoNi
_chemical_formula_sum   'Ti108 Co54 Ni54'
_cell_volume   3113.52291229
_cell_formula_units_Z   54
loop_
 _symmetry_equiv_pos_site_id
 _symmetry_equiv_pos_as_xyz
  1  'x, y, z'
loop_
 _atom_site_type_symbol
 _atom_site_label
 _atom_site_symmetry_multiplicity
 _atom_site_fract_x
 _atom_site_fract_y
 _atom_site_fract_z
 _atom_site_occupancy
  Ti  Ti0  1  -0.04065463  -0.05951223  -0.06802828  1
  Ti  Ti1  1  0.04884691  -0.01369231  0.41066805  1
  Ti  Ti2  1  -0.09452886  -0.03098890  0.66420641  1
  Ti  Ti3  1  0.02581953  0.37557934  0.08726646  1
  Ti  Ti4  1  0.02687729  0.42454929  0.30513958  1
  Ti  Ti5  1  -0.03864435  0.32844187  0.67139281  1
  Ti  Ti6  1  0.01068340  0.74756492  -0.06093823  1
  Ti  Ti7  1  -0.00550323  0.72975541  0.24543845  1
  Ti  Ti8  1  0.03596701  0.65445635  0.72045909  1
  Ti  Ti9  1  0.24661166  0.01281435  0.03195986  1
  Ti  Ti10  1  0.36705954  -0.02251680  0.29905931  1
  Ti  Ti11  1  0.34890954  -0.02868538  0.71974770  1
  Ti  Ti12  1  0.28167009  0.33804920  0.07248254  1
  Ti  Ti13  1  0.38602255  0.29068650  0.39333406  1
  Ti  Ti14  1  0.30822493  0.33364483  0.58163493  1
  Ti  Ti15  1  0.25657973  0.70081606  0.02369195  1
  Ti  Ti16  1  0.29754437  0.66880156  0.38256902  1
  Ti  Ti17  1  0.43121932  0.64559671  0.64362061  1
  Ti  Ti18  1  0.62282119  0.05105665  -0.03374740  1
  Ti  Ti19  1  0.71104742  -0.06870849  0.38098676  1
  Ti  Ti20  1  0.70132471  0.00575541  0.70650307  1
  Ti  Ti21  1  0.59631951  0.34967324  0.05184055  1
  Ti  Ti22  1  0.60957778  0.28966037  0.34662298  1
  Ti  Ti23  1  0.76133102  0.31830307  0.71394262  1
  Ti  Ti24  1  0.59467573  0.65670788  -0.06345651  1
  Ti  Ti25  1  0.62740361  0.72222112  0.31131842  1
  Ti  Ti26  1  0.62900027  0.66466864  0.72797586  1
  Ti  Ti27  1  -0.00793281  0.19585217  0.15860011  1
  Ti  Ti28  1  -0.01845204  0.30166232  0.48768522  1
  Ti  Ti29  1  0.06094394  0.15835660  0.86122752  1
  Ti  Ti30  1  0.00476546  0.54892703  0.17337871  1
  Ti  Ti31  1  -0.00537151  0.54886225  0.55104892  1
  Ti  Ti32  1  0.02132106  0.44720633  0.85654779  1
  Ti  Ti33  1  -0.05628173  0.87189030  0.11550442  1
  Ti  Ti34  1  -0.10971985  0.83193151  0.49984209  1
  Ti  Ti35  1  0.04028040  0.84496910  0.75730843  1
  Ti  Ti36  1  0.37027988  0.21840938  0.21051567  1
  Ti  Ti37  1  0.38407672  0.14779906  0.55489970  1
  Ti  Ti38  1  0.36698490  0.16281299  0.76113996  1
  Ti  Ti39  1  0.36249091  0.53825831  0.21832545  1
  Ti  Ti40  1  0.31319059  0.52375561  0.54094981  1
  Ti  Ti41  1  0.34158695  0.47382924  0.77925422  1
  Ti  Ti42  1  0.34521791  0.85211791  0.12370188  1
  Ti  Ti43  1  0.33110444  0.82100487  0.53616579  1
  Ti  Ti44  1  0.37834150  0.83488453  0.84297649  1
  Ti  Ti45  1  0.63456058  0.17110665  0.11166974  1
  Ti  Ti46  1  0.69148685  0.14102481  0.42251265  1
  Ti  Ti47  1  0.64747262  0.26005465  0.87635321  1
  Ti  Ti48  1  0.71777088  0.50322315  0.06803970  1
  Ti  Ti49  1  0.67478075  0.49451811  0.56204970  1
  Ti  Ti50  1  0.67413573  0.47674306  0.78472000  1
  Ti  Ti51  1  0.66565113  0.82618025  0.14530921  1
  Ti  Ti52  1  0.55836072  0.85263608  0.48475051  1
  Ti  Ti53  1  0.69999911  0.88168518  0.90267133  1
  Ti  Ti54  1  0.09373869  0.03279284  0.16759089  1
  Ti  Ti55  1  0.24351975  0.02069013  0.47955166  1
  Ti  Ti56  1  0.17474318  0.00401715  0.84433156  1
  Ti  Ti57  1  0.15957845  0.31111513  0.23090627  1
  Ti  Ti58  1  0.17028763  0.32414861  0.42689952  1
  Ti  Ti59  1  0.21457301  0.32252501  0.86113921  1
  Ti  Ti60  1  0.18555722  0.62627289  0.19242255  1
  Ti  Ti61  1  0.10254717  0.74633923  0.52656015  1
  Ti  Ti62  1  0.18858685  0.71188887  0.84181988  1
  Ti  Ti63  1  0.46350325  0.06158398  0.11000315  1
  Ti  Ti64  1  0.49195972  0.02001316  0.44474222  1
  Ti  Ti65  1  0.52018184  -0.02762285  0.83068825  1
  Ti  Ti66  1  0.50149886  0.40455464  0.23175538  1
  Ti  Ti67  1  0.53200264  0.35536914  0.50843550  1
  Ti  Ti68  1  0.50100330  0.31268478  0.79101680  1
  Ti  Ti69  1  0.45255715  0.63839552  0.08174122  1
  Ti  Ti70  1  0.58412155  0.66208591  0.50165086  1
  Ti  Ti71  1  0.36663937  0.61596854  0.89527135  1
  Ti  Ti72  1  0.88862944  0.03141211  0.20405971  1
  Ti  Ti73  1  0.83598637  0.01589031  0.49011090  1
  Ti  Ti74  1  0.88166180  0.08004132  0.83375301  1
  Ti  Ti75  1  0.80730103  0.30844328  0.11658764  1
  Ti  Ti76  1  0.75613625  0.32345962  0.51163541  1
  Ti  Ti77  1  0.89249386  0.27777675  0.85234980  1
  Ti  Ti78  1  0.80223029  0.61818068  0.21743107  1
  Ti  Ti79  1  0.83775125  0.61444872  0.45507071  1
  Ti  Ti80  1  0.88730553  0.60314703  0.84069736  1
  Ti  Ti81  1  0.14195702  0.19894848  0.02146088  1
  Ti  Ti82  1  0.19432687  0.13161812  0.33172904  1
  Ti  Ti83  1  0.10316178  0.13789649  0.62946001  1
  Ti  Ti84  1  0.15187284  0.50824462  0.01173633  1
  Ti  Ti85  1  0.22249860  0.49149368  0.34946812  1
  Ti  Ti86  1  0.16105475  0.43909457  0.70409478  1
  Ti  Ti87  1  0.13683555  0.83119705  0.09486560  1
  Ti  Ti88  1  0.18007918  0.79120437  0.29306250  1
  Ti  Ti89  1  0.17522658  0.92212726  0.63723670  1
  Ti  Ti90  1  0.45129977  0.14926591  -0.06552182  1
  Ti  Ti91  1  0.53713590  0.10117348  0.28407751  1
  Ti  Ti92  1  0.52416527  0.06917391  0.64393655  1
  Ti  Ti93  1  0.45416997  0.44546372  -0.05094705  1
  Ti  Ti94  1  0.54871688  0.52401424  0.36890244  1
  Ti  Ti95  1  0.48543125  0.45106662  0.66704517  1
  Ti  Ti96  1  0.53639583  0.85750050  0.02057601  1
  Ti  Ti97  1  0.43567547  0.81014491  0.33904163  1
  Ti  Ti98  1  0.50285873  0.84254844  0.67823143  1
  Ti  Ti99  1  0.79194869  0.17586496  -0.01257767  1
  Ti  Ti100  1  0.86325222  0.25268076  0.33197680  1
  Ti  Ti101  1  0.80952459  0.15573691  0.64148283  1
  Ti  Ti102  1  0.90735090  0.55085612  0.01042948  1
  Ti  Ti103  1  0.80708815  0.44638425  0.30964400  1
  Ti  Ti104  1  0.82527121  0.58049686  0.67591018  1
  Ti  Ti105  1  0.82479196  0.76136430  -0.03527263  1
  Ti  Ti106  1  0.82455728  0.78315040  0.32503904  1
  Ti  Ti107  1  0.79822498  0.78883941  0.67533287  1
  Co  Co108  1  0.90091656  0.93264041  0.34695271  1
  Co  Co109  1  0.78183445  1.01422762  0.93989758  1
  Co  Co110  1  0.41280077  0.42629528  0.10206232  1
  Co  Co111  1  0.07361117  0.04653700  0.00643670  1
  Co  Co112  1  0.08755979  0.15836602  0.45545147  1
  Co  Co113  1  0.67574695  0.42709989  0.40181705  1
  Co  Co114  1  0.12414410  0.29700802  0.59280377  1
  Co  Co115  1  0.95163438  0.20681625  0.00121208  1
  Co  Co116  1  0.74355215  0.58446581  0.91152621  1
  Co  Co117  1  0.55502238  0.51131009  0.10265950  1
  Co  Co118  1  0.86068851  0.46289464  0.14407075  1
  Co  Co119  1  0.66930160  0.36421155  0.19934180  1
  Co  Co120  1  0.92960193  0.70247310  0.59289614  1
  Co  Co121  1  0.90110254  0.38249152  0.98027706  1
  Co  Co122  1  0.47338931  0.25913927  0.63306924  1
  Co  Co123  1  0.65981640  0.86127229  0.73976320  1
  Co  Co124  1  0.63501641  0.77502611  0.60746180  1
  Co  Co125  1  0.29315986  0.43888668  0.94419652  1
  Co  Co126  1  0.30535639  0.54561135  0.06032016  1
  Co  Co127  1  0.73834810  0.73021511  0.82611894  1
  Co  Co128  1  0.04307997  0.25956557  0.33160974  1
  Co  Co129  1  0.37309008  0.29338881  0.90649198  1
  Co  Co130  1  0.65880103  0.51977201  0.24110757  1
  Co  Co131  1  0.79620418  0.91173798  0.05922490  1
  Co  Co132  1  0.82719945  0.08658237  0.34287524  1
  Co  Co133  1  0.71914544  0.76607129  0.45427486  1
  Co  Co134  1  0.17728132  0.75375808  0.67566324  1
  Co  Co135  1  0.53521688  0.24714880  0.20709001  1
  Co  Co136  1  0.06616958  0.50062374  0.42542553  1
  Co  Co137  1  0.14722911  0.58804353  0.62827689  1
  Co  Co138  1  0.17398967  0.60780988  0.47268790  1
  Co  Co139  1  0.10428195  0.63240080  0.32948034  1
  Co  Co140  1  0.22386239  0.86153502  0.78858620  1
  Co  Co141  1  0.93741077  0.33838834  0.21672796  1
  Co  Co142  1  0.07304804  0.29036069  0.76753163  1
  Co  Co143  1  0.61789396  0.35771878  0.65723391  1
  Co  Co144  1  0.91452760  0.05416354  1.04137494  1
  Co  Co145  1  0.20792319  0.54241942  0.85802298  1
  Co  Co146  1  0.42509266  0.95619572  0.99217668  1
  Co  Co147  1  0.27751830  0.67786882  0.57131284  1
  Co  Co148  1  0.42641460  0.69001287  0.47839197  1
  Co  Co149  1  0.73603555  0.65478788  0.57396243  1
  Co  Co150  1  0.90137633  0.43904744  0.44067964  1
  Co  Co151  1  0.70491835  0.59958722  0.38080687  1
  Co  Co152  1  0.42299100  0.75702963  -0.02881028  1
  Co  Co153  1  0.77330034  0.92271375  0.22588480  1
  Co  Co154  1  0.81723723  0.77707397  0.16391080  1
  Co  Co155  1  0.34752978  0.32569044  0.73241609  1
  Co  Co156  1  0.48464857  0.91497471  0.17618923  1
  Co  Co157  1  0.69016491  0.05524172  0.26223518  1
  Co  Co158  1  0.61934218  0.99148171  0.12999304  1
  Co  Co159  1  0.27849582  0.86382645  0.96344342  1
  Co  Co160  1  0.76043111  0.06312767  0.10749324  1
  Co  Co161  1  0.90804874  0.75316122  0.79120650  1
  Ni  Ni162  1  0.48058155  0.52491307  0.52199958  1
  Ni  Ni163  1  0.74166215  0.66708024  0.06523763  1
  Ni  Ni164  1  0.72481246  0.21183713  0.25104940  1
  Ni  Ni165  1  0.06126449  0.59994703  0.90287155  1
  Ni  Ni166  1  0.55465674  0.13305419  0.79972144  1
  Ni  Ni167  1  0.34385328  0.02168000  0.87716990  1
  Ni  Ni168  1  0.53577058  0.18504748  0.48070468  1
  Ni  Ni169  1  0.64488983  0.19355945  0.67213445  1
  Ni  Ni170  1  0.25716523  0.07929895  0.64322787  1
  Ni  Ni171  1  0.27398083  0.61900443  0.72621772  1
  Ni  Ni172  1  0.45575589  0.26180464  0.06371662  1
  Ni  Ni173  1  0.56112184  0.80443793  0.85624931  1
  Ni  Ni174  1  0.38956133  0.45988979  0.38916850  1
  Ni  Ni175  1  0.61252732  0.47805459  0.93563139  1
  Ni  Ni176  1  0.12177811  0.87194955  0.92986026  1
  Ni  Ni177  1  0.84587742  0.43637501  0.80457507  1
  Ni  Ni178  1  0.02762245  0.01256796  0.76793372  1
  Ni  Ni179  1  0.31949845  0.37720656  0.25660802  1
  Ni  Ni180  1  0.64333750  0.03343667  0.53414254  1
  Ni  Ni181  1  0.02981417  0.92374849  0.56218884  1
  Ni  Ni182  1  0.93092297  0.69450981  0.08950382  1
  Ni  Ni183  1  0.04790078  0.89443340  0.25436570  1
  Ni  Ni184  1  0.24038198  0.19386284  0.50027602  1
  Ni  Ni185  1  0.85347169  0.18545260  0.48186677  1
  Ni  Ni186  1  0.99839190  0.10740070  0.31045339  1
  Ni  Ni187  1  0.96068089  0.16074349  0.71242669  1
  Ni  Ni188  1  0.50657862  0.75545992  0.18700802  1
  Ni  Ni189  1  0.33258222  0.71072465  0.20980627  1
  Ni  Ni190  1  0.74528013  0.37157655  0.94310347  1
  Ni  Ni191  1  0.19697291  0.17267415  0.16681488  1
  Ni  Ni192  1  0.73301131  0.90034188  0.56446232  1
  Ni  Ni193  1  0.84620527  0.90283750  0.81185372  1
  Ni  Ni194  1  0.56359822  0.92192655  0.31176716  1
  Ni  Ni195  1  0.97718882  0.49016156  0.70668414  1
  Ni  Ni196  1  0.40058948  0.96373017  0.56816643  1
  Ni  Ni197  1  0.85103189  0.43500178  0.60138272  1
  Ni  Ni198  1  0.08516290  0.66034566  0.06178449  1
  Ni  Ni199  1  0.46766043  0.69880879  0.79005908  1
  Ni  Ni200  1  0.18505770  0.46206740  0.17261003  1
  Ni  Ni201  1  0.96705991  0.08904994  0.55185254  1
  Ni  Ni202  1  -0.02048561  0.70808830  0.42191687  1
  Ni  Ni203  1  0.05345301  0.31361630  0.93550859  1
  Ni  Ni204  1  0.36519989  0.12763775  0.37684309  1
  Ni  Ni205  1  0.94347093  0.57763253  0.33183561  1
  Ni  Ni206  1  0.21679116  0.22893007  0.71607422  1
  Ni  Ni207  1  0.26910237  0.87711892  0.39452608  1
  Ni  Ni208  1  0.16402695  0.44780987  0.53758428  1
  Ni  Ni209  1  0.21489148  0.93473516  0.21978677  1
  Ni  Ni210  1  0.72535508  0.12940969  0.81864323  1
  Ni  Ni211  1  0.51114515  0.54134916  0.80854786  1
  Ni  Ni212  1  0.24977656  0.15648408  0.89374426  1
  Ni  Ni213  1  0.45964539  0.64808594  0.30745758  1
  Ni  Ni214  1  0.30731535  0.06296584  0.18051169  1
  Ni  Ni215  1  0.31832790  0.17226315  0.04556879  1
