# generated using pymatgen
data_Ti2CoNi
_symmetry_space_group_name_H-M   'P 1'
_cell_length_a   14.41590236
_cell_length_b   14.52158407
_cell_length_c   14.46462225
_cell_angle_alpha   90.05303069
_cell_angle_beta   90.05369024
_cell_angle_gamma   90.15415021
_symmetry_Int_Tables_number   1
_chemical_formula_structural   Ti2CoNi
_chemical_formula_sum   'Ti108 Co54 Ni54'
_cell_volume   3028.03556705
_cell_formula_units_Z   54
loop_
 _symmetry_equiv_pos_site_id
 _symmetry_equiv_pos_as_xyz
  1  'x, y, z'
loop_
 _atom_site_type_symbol
 _atom_site_label
 _atom_site_symmetry_multiplicity
 _atom_site_fract_x
 _atom_site_fract_y
 _atom_site_fract_z
 _atom_site_occupancy
  Ti  Ti0  1  -0.00838807  -0.07285552  -0.01487869  1
  Ti  Ti1  1  0.03310757  0.01569402  0.28559096  1
  Ti  Ti2  1  0.03138215  0.02240421  0.65766406  1
  Ti  Ti3  1  -0.07210684  0.31364405  0.03982821  1
  Ti  Ti4  1  -0.07450595  0.33297003  0.25985385  1
  Ti  Ti5  1  0.07175961  0.40044065  0.68572385  1
  Ti  Ti6  1  0.05970021  0.62499330  0.02767128  1
  Ti  Ti7  1  -0.05324564  0.64948137  0.30809425  1
  Ti  Ti8  1  -0.08739706  0.59708163  0.64687204  1
  Ti  Ti9  1  0.32774220  0.02885536  -0.00696974  1
  Ti  Ti10  1  0.25091791  0.00300597  0.30173141  1
  Ti  Ti11  1  0.32814373  -0.02350887  0.66387179  1
  Ti  Ti12  1  0.37751596  0.41688795  -0.02717951  1
  Ti  Ti13  1  0.37621787  0.28672120  0.41059839  1
  Ti  Ti14  1  0.37414486  0.36197552  0.60608479  1
  Ti  Ti15  1  0.33381028  0.60005308  -0.03183665  1
  Ti  Ti16  1  0.32325474  0.71636673  0.38135513  1
  Ti  Ti17  1  0.31197616  0.61973347  0.64329892  1
  Ti  Ti18  1  0.74142209  0.00848993  -0.02203077  1
  Ti  Ti19  1  0.69921994  0.01929743  0.32297442  1
  Ti  Ti20  1  0.66307053  -0.06941721  0.64632024  1
  Ti  Ti21  1  0.67815782  0.34329531  -0.01602332  1
  Ti  Ti22  1  0.65747329  0.24526213  0.36844423  1
  Ti  Ti23  1  0.66205483  0.38967346  0.67950113  1
  Ti  Ti24  1  0.66327008  0.67566956  0.04071655  1
  Ti  Ti25  1  0.63991731  0.63898784  0.31718390  1
  Ti  Ti26  1  0.65308539  0.72367748  0.62873407  1
  Ti  Ti27  1  0.00457517  0.18836243  0.19648534  1
  Ti  Ti28  1  0.07791640  0.21102133  0.52635936  1
  Ti  Ti29  1  -0.03753493  0.21109866  0.84481043  1
  Ti  Ti30  1  0.02540247  0.45798396  0.13272194  1
  Ti  Ti31  1  0.05059862  0.50070713  0.53744727  1
  Ti  Ti32  1  0.00877587  0.57809893  0.86452730  1
  Ti  Ti33  1  0.05670295  0.78181642  0.21727120  1
  Ti  Ti34  1  -0.02782999  0.82831525  0.39652707  1
  Ti  Ti35  1  0.02482310  0.84569234  0.72276669  1
  Ti  Ti36  1  0.35471404  0.21985143  0.06020695  1
  Ti  Ti37  1  0.24496767  0.08424546  0.47916074  1
  Ti  Ti38  1  0.38519753  0.23119315  0.88004613  1
  Ti  Ti39  1  0.36808995  0.49892213  0.16460537  1
  Ti  Ti40  1  0.31773559  0.48485420  0.46000786  1
  Ti  Ti41  1  0.26846449  0.46966345  0.78218901  1
  Ti  Ti42  1  0.25635304  0.81932587  0.23087992  1
  Ti  Ti43  1  0.34534142  0.79858146  0.58341594  1
  Ti  Ti44  1  0.32354150  0.91537232  0.84261155  1
  Ti  Ti45  1  0.67783821  0.26102008  0.15011174  1
  Ti  Ti46  1  0.67573302  0.16630216  0.55471500  1
  Ti  Ti47  1  0.72088837  0.16586267  0.84069204  1
  Ti  Ti48  1  0.60440200  0.52246667  0.17851115  1
  Ti  Ti49  1  0.68624836  0.41314243  0.46945605  1
  Ti  Ti50  1  0.70137374  0.52525000  0.84692496  1
  Ti  Ti51  1  0.62908767  0.86023337  0.12081114  1
  Ti  Ti52  1  0.53413925  0.84372106  0.49672926  1
  Ti  Ti53  1  0.66857558  0.83401993  0.92906146  1
  Ti  Ti54  1  0.16568725  -0.04945472  0.13963418  1
  Ti  Ti55  1  0.05478902  -0.01354566  0.45053417  1
  Ti  Ti56  1  0.15551848  0.00063965  0.87989465  1
  Ti  Ti57  1  0.20639445  0.36471768  0.19137138  1
  Ti  Ti58  1  0.16055582  0.36685865  0.46180876  1
  Ti  Ti59  1  0.17925533  0.27792992  0.77297177  1
  Ti  Ti60  1  0.21775213  0.66610826  0.11777197  1
  Ti  Ti61  1  0.19275977  0.62493192  0.47951857  1
  Ti  Ti62  1  0.18463035  0.73441051  0.83371950  1
  Ti  Ti63  1  0.46737758  -0.03127496  0.21313264  1
  Ti  Ti64  1  0.47146337  0.08685006  0.51286485  1
  Ti  Ti65  1  0.54292975  -0.03682801  0.88677525  1
  Ti  Ti66  1  0.49034856  0.35693249  0.26843464  1
  Ti  Ti67  1  0.54460351  0.29996921  0.54506047  1
  Ti  Ti68  1  0.55037955  0.29944718  0.82593084  1
  Ti  Ti69  1  0.44861386  0.77426043  0.21330982  1
  Ti  Ti70  1  0.59051987  0.59302128  0.49114784  1
  Ti  Ti71  1  0.47242421  0.66717793  0.79808498  1
  Ti  Ti72  1  0.70045723  0.05916429  0.13072881  1
  Ti  Ti73  1  0.83105947  -0.00874746  0.50295611  1
  Ti  Ti74  1  0.78460849  -0.01887874  0.79960231  1
  Ti  Ti75  1  0.79100126  0.41364702  0.15007039  1
  Ti  Ti76  1  0.85456893  0.27400223  0.47639928  1
  Ti  Ti77  1  0.91926486  0.40011936  0.84352863  1
  Ti  Ti78  1  0.77848485  0.62341911  0.20476117  1
  Ti  Ti79  1  0.80666968  0.68709130  0.49954600  1
  Ti  Ti80  1  0.83311295  0.71565605  0.78922166  1
  Ti  Ti81  1  0.10078424  0.16060705  0.01944061  1
  Ti  Ti82  1  0.18524862  0.17339252  0.19711660  1
  Ti  Ti83  1  0.18917782  0.11919542  0.65573272  1
  Ti  Ti84  1  0.18975112  0.45274671  0.00786134  1
  Ti  Ti85  1  0.06579181  0.51250828  0.33136982  1
  Ti  Ti86  1  0.12322631  0.58443128  0.71935598  1
  Ti  Ti87  1  0.23478631  0.84706079  0.00001401  1
  Ti  Ti88  1  0.23257847  0.85999335  0.43094599  1
  Ti  Ti89  1  0.09619093  0.82674484  0.55586600  1
  Ti  Ti90  1  0.57434488  0.15711560  -0.00567789  1
  Ti  Ti91  1  0.40729700  0.15540383  0.24524794  1
  Ti  Ti92  1  0.46035264  0.17715994  0.69587484  1
  Ti  Ti93  1  0.52578206  0.56417971  -0.02002526  1
  Ti  Ti94  1  0.44717438  0.56342508  0.31812040  1
  Ti  Ti95  1  0.48886028  0.46343389  0.72290932  1
  Ti  Ti96  1  0.49449222  0.73593902  -0.00622345  1
  Ti  Ti97  1  0.58943635  0.84256884  0.30442143  1
  Ti  Ti98  1  0.50908024  0.83396304  0.72402950  1
  Ti  Ti99  1  0.90623989  0.08981894  0.00020948  1
  Ti  Ti100  1  0.87100241  0.11843250  0.31846986  1
  Ti  Ti101  1  0.89218647  0.14394935  0.65516238  1
  Ti  Ti102  1  0.85476750  0.53274642  -0.02933794  1
  Ti  Ti103  1  0.85245347  0.51521332  0.44104233  1
  Ti  Ti104  1  0.83309573  0.42510388  0.65303953  1
  Ti  Ti105  1  0.92749132  0.75587698  0.07397982  1
  Ti  Ti106  1  0.76977842  0.81782148  0.34441911  1
  Ti  Ti107  1  0.83301268  0.83580622  0.64467620  1
  Co  Co108  1  0.46082360  1.00419764  0.73891195  1
  Co  Co109  1  0.57752689  0.07080770  0.65094516  1
  Co  Co110  1  0.53554202  0.12520424  0.83270159  1
  Co  Co111  1  0.34154350  0.75976314  0.91229385  1
  Co  Co112  1  0.94423013  0.75889131  0.57004813  1
  Co  Co113  1  0.59583364  0.71044387  0.18310332  1
  Co  Co114  1  0.90342374  0.49872160  0.26061491  1
  Co  Co115  1  0.32721747  0.79397726  0.74283096  1
  Co  Co116  1  0.30610694  0.62227160  0.79572828  1
  Co  Co117  1  0.07639007  0.30824076  0.10041903  1
  Co  Co118  1  -0.04583939  0.91895306  0.56328049  1
  Co  Co119  1  0.96932533  0.62241420  0.47063503  1
  Co  Co120  1  0.74122274  0.07948217  0.68002208  1
  Co  Co121  1  0.84385684  0.22303935  0.14297692  1
  Co  Co122  1  0.08591628  0.73025394  0.42297259  1
  Co  Co123  1  0.07351979  0.32234748  0.92589110  1
  Co  Co124  1  0.10710617  0.45122541  0.84786809  1
  Co  Co125  1  0.78873002  0.23527693  0.28129260  1
  Co  Co126  1  0.93983357  0.12735907  0.50027907  1
  Co  Co127  1  -0.01351466  0.69795115  0.73607242  1
  Co  Co128  1  0.96587678  0.90724898  0.15401959  1
  Co  Co129  1  0.81687450  0.37127842  0.36570921  1
  Co  Co130  1  0.35474149  0.75673732  0.07027688  1
  Co  Co131  1  0.18403633  0.74297972  0.66674235  1
  Co  Co132  1  0.49211234  0.94413923  0.59492071  1
  Co  Co133  1  0.75936006  0.92426637  0.19540052  1
  Co  Co134  1  0.18453425  0.59887851  0.90887425  1
  Co  Co135  1  0.51742874  0.25926034  0.15734727  1
  Co  Co136  1  0.46907524  0.61170579  0.12863168  1
  Co  Co137  1  0.33098953  0.91723528  0.13048697  1
  Co  Co138  1  0.50564075  0.29860230  0.99448166  1
  Co  Co139  1  0.25216676  0.34260197  0.89039207  1
  Co  Co140  1  0.89166742  0.80473457  0.23548746  1
  Co  Co141  1  0.74580682  0.49736158  0.31288840  1
  Co  Co142  1  0.17114898  0.69176218  0.29358674  1
  Co  Co143  1  0.31142782  0.07296485  0.15906888  1
  Co  Co144  1  0.37264363  0.35037139  0.77918761  1
  Co  Co145  1  0.07986616  0.66983249  0.59175153  1
  Co  Co146  1  0.73175208  0.35209726  0.82376454  1
  Co  Co147  1  0.42540176  0.88895902  1.00202833  1
  Co  Co148  1  0.43557528  0.50434889  0.85793075  1
  Co  Co149  1  0.19588884  -0.04184095  0.56771102  1
  Co  Co150  1  0.56883838  0.48365683  0.59197709  1
  Co  Co151  1  0.59329029  0.46882122  0.34979297  1
  Co  Co152  1  0.10247115  0.85984685  0.87175961  1
  Co  Co153  1  0.87045188  0.05910870  0.16263701  1
  Co  Co154  1  0.88963475  0.95405365  0.32883146  1
  Co  Co155  1  0.21906549  0.29173896  0.59885434  1
  Co  Co156  1  0.62628849  0.21050407  0.71045655  1
  Co  Co157  1  0.67498853  0.36583919  0.26302760  1
  Co  Co158  1  0.22844818  0.47513408  0.61280713  1
  Co  Co159  1  0.21374131  0.28494053  0.02503371  1
  Co  Co160  1  0.48286382  0.42482768  0.45969208  1
  Co  Co161  1  1.01763920  0.45572794  0.98932115  1
  Ni  Ni162  1  0.61232754  0.58086169  0.70998704  1
  Ni  Ni163  1  0.91874682  0.88164900  0.82958016  1
  Ni  Ni164  1  0.17472631  0.51192995  0.18143746  1
  Ni  Ni165  1  0.42149294  0.55243150  0.56126128  1
  Ni  Ni166  1  0.31244633  0.21232505  0.71225547  1
  Ni  Ni167  1  0.09733244  0.13224085  0.81392460  1
  Ni  Ni168  1  0.12606794  0.88734814  0.31704538  1
  Ni  Ni169  1  0.46449468  0.09771245  0.09729390  1
  Ni  Ni170  1  0.49021810  0.70158106  0.42169475  1
  Ni  Ni171  1  0.85672681  0.54341577  0.78865624  1
  Ni  Ni172  1  0.95090583  0.32622312  0.61094738  1
  Ni  Ni173  1  0.63786980  0.68922495  0.85296715  1
  Ni  Ni174  1  0.57131648  0.98173464  0.04124194  1
  Ni  Ni175  1  0.33963427  0.08581909  0.81885186  1
  Ni  Ni176  1  0.23002634  0.24493570  0.34497775  1
  Ni  Ni177  1  0.18453829  0.90734059  0.72781864  1
  Ni  Ni178  1  0.76558979  0.13235716  0.43421414  1
  Ni  Ni179  1  0.76011958  0.18239253  0.01064646  1
  Ni  Ni180  1  0.71714910  0.87461790  0.48972887  1
  Ni  Ni181  1  0.02750383  0.04533943  0.10746513  1
  Ni  Ni182  1  -0.03074699  0.37670827  0.43197297  1
  Ni  Ni183  1  0.76974702  0.77348384  0.12739766  1
  Ni  Ni184  1  0.52931650  1.00323385  0.37217047  1
  Ni  Ni185  1  0.97737973  0.75409848  0.89595502  1
  Ni  Ni186  1  0.10105664  0.32791903  0.31345644  1
  Ni  Ni187  1  0.11130983  0.12358239  0.36747815  1
  Ni  Ni188  1  0.34376478  0.29839762  0.22902790  1
  Ni  Ni189  1  0.38125780  0.06852643  0.37254479  1
  Ni  Ni190  1  0.58217711  0.10929736  0.26010874  1
  Ni  Ni191  1  0.66517010  0.73644023  0.43761299  1
  Ni  Ni192  1  0.83618515  0.84637496  0.96898957  1
  Ni  Ni193  1  0.83293395  0.28425323  0.91086247  1
  Ni  Ni194  1  0.08799077  0.79554041  0.03409457  1
  Ni  Ni195  1  0.98020729  0.22793323  0.37252368  1
  Ni  Ni196  1  0.72668014  0.54172215  0.58152047  1
  Ni  Ni197  1  0.69312459  0.81647209  0.76248010  1
  Ni  Ni198  1  0.48440292  0.69130239  0.62704196  1
  Ni  Ni199  1  0.56916543  0.43731011  0.90675912  1
  Ni  Ni200  1  0.32719060  0.19313518  0.54625729  1
  Ni  Ni201  1  0.78283164  0.69424095  0.94658814  1
  Ni  Ni202  1  0.35766224  0.95878138  0.49081014  1
  Ni  Ni203  1  0.78043613  0.26330367  0.67578161  1
  Ni  Ni204  1  0.70297761  0.50826435  0.02980339  1
  Ni  Ni205  1  0.26418715  0.55454571  0.32735286  1
  Ni  Ni206  1  0.91012353  0.58666094  0.11796177  1
  Ni  Ni207  1  0.23377939  0.17800118  0.92635467  1
  Ni  Ni208  1  1.05341253  0.22345073  0.68276018  1
  Ni  Ni209  1  0.51432573  0.19815089  0.38641837  1
  Ni  Ni210  1  0.53322682  0.43398085  0.08146056  1
  Ni  Ni211  1  0.06423607  0.62183420  0.18871858  1
  Ni  Ni212  1  0.95716031  0.03458166  0.83480333  1
  Ni  Ni213  1  0.33469897  0.65233655  0.22665361  1
  Ni  Ni214  1  0.43006839  0.87229895  0.37009247  1
  Ni  Ni215  1  0.25535889  0.40354145  0.33135463  1
