# generated using pymatgen
data_Ti2CoNi
_symmetry_space_group_name_H-M   'P 1'
_cell_length_a   14.54776755
_cell_length_b   14.65049096
_cell_length_c   14.58917877
_cell_angle_alpha   90.15872222
_cell_angle_beta   90.08873764
_cell_angle_gamma   90.03866051
_symmetry_Int_Tables_number   1
_chemical_formula_structural   Ti2CoNi
_chemical_formula_sum   'Ti108 Co54 Ni54'
_cell_volume   3109.40355411
_cell_formula_units_Z   54
loop_
 _symmetry_equiv_pos_site_id
 _symmetry_equiv_pos_as_xyz
  1  'x, y, z'
loop_
 _atom_site_type_symbol
 _atom_site_label
 _atom_site_symmetry_multiplicity
 _atom_site_fract_x
 _atom_site_fract_y
 _atom_site_fract_z
 _atom_site_occupancy
  Ti  Ti0  1  -0.04660053  0.03701697  0.01147160  1
  Ti  Ti1  1  -0.02334156  0.00033089  0.31769299  1
  Ti  Ti2  1  -0.02200541  -0.03822412  0.64164801  1
  Ti  Ti3  1  0.03616716  0.35279279  0.00583829  1
  Ti  Ti4  1  -0.01117900  0.26998141  0.35975452  1
  Ti  Ti5  1  -0.00246186  0.30085361  0.65545707  1
  Ti  Ti6  1  0.01336051  0.72557157  0.02507918  1
  Ti  Ti7  1  0.05703431  0.62321515  0.34129887  1
  Ti  Ti8  1  -0.01557778  0.62892325  0.70899823  1
  Ti  Ti9  1  0.32433483  0.02359309  -0.01247122  1
  Ti  Ti10  1  0.41981202  0.09000141  0.30632391  1
  Ti  Ti11  1  0.37939191  -0.09427260  0.62365899  1
  Ti  Ti12  1  0.33212747  0.33792642  -0.06959233  1
  Ti  Ti13  1  0.30727995  0.32035054  0.31258176  1
  Ti  Ti14  1  0.33512204  0.27779779  0.68939166  1
  Ti  Ti15  1  0.30042902  0.66786394  0.03481715  1
  Ti  Ti16  1  0.34536681  0.71172576  0.36733086  1
  Ti  Ti17  1  0.29066135  0.64693687  0.70766915  1
  Ti  Ti18  1  0.62689130  -0.03280318  -0.02473282  1
  Ti  Ti19  1  0.74222301  0.07950544  0.31740387  1
  Ti  Ti20  1  0.67002701  0.11006937  0.65386526  1
  Ti  Ti21  1  0.68397066  0.34616911  -0.07239351  1
  Ti  Ti22  1  0.62780026  0.40438189  0.33008042  1
  Ti  Ti23  1  0.71724787  0.28822311  0.73674012  1
  Ti  Ti24  1  0.68998311  0.65825659  0.06617845  1
  Ti  Ti25  1  0.62807118  0.65568595  0.28490991  1
  Ti  Ti26  1  0.60526909  0.58163619  0.61241196  1
  Ti  Ti27  1  0.05262611  0.21729455  0.16595930  1
  Ti  Ti28  1  0.04871314  0.15822830  0.51798702  1
  Ti  Ti29  1  0.05431464  0.22319248  0.82349673  1
  Ti  Ti30  1  -0.04619949  0.50427630  0.14623067  1
  Ti  Ti31  1  -0.02208603  0.55397854  0.51428713  1
  Ti  Ti32  1  0.02728491  0.45637587  0.81912847  1
  Ti  Ti33  1  -0.06545611  0.81306596  0.19816406  1
  Ti  Ti34  1  0.01873223  0.77250805  0.48009649  1
  Ti  Ti35  1  0.01108813  0.79997152  0.79750292  1
  Ti  Ti36  1  0.29384093  0.16736923  0.15380221  1
  Ti  Ti37  1  0.27669676  0.13588402  0.54190903  1
  Ti  Ti38  1  0.39148738  0.13739625  0.82254660  1
  Ti  Ti39  1  0.34214986  0.57241363  0.20492436  1
  Ti  Ti40  1  0.34598528  0.52754750  0.45272658  1
  Ti  Ti41  1  0.28163276  0.53774856  0.87122763  1
  Ti  Ti42  1  0.39426365  0.81544934  0.18824051  1
  Ti  Ti43  1  0.24300904  0.84109228  0.49152707  1
  Ti  Ti44  1  0.37041860  0.81304821  0.79782046  1
  Ti  Ti45  1  0.67940114  0.18668545  0.10551635  1
  Ti  Ti46  1  0.59344598  0.11240870  0.47183087  1
  Ti  Ti47  1  0.62121654  0.15308013  0.89355801  1
  Ti  Ti48  1  0.72439368  0.48782061  0.17761387  1
  Ti  Ti49  1  0.74270871  0.55177492  0.49351933  1
  Ti  Ti50  1  0.70323360  0.52007656  0.79853802  1
  Ti  Ti51  1  0.59831433  0.82027763  0.15095003  1
  Ti  Ti52  1  0.64030197  0.83307209  0.36920280  1
  Ti  Ti53  1  0.69294926  0.85496094  0.81046972  1
  Ti  Ti54  1  0.18246225  0.01498197  0.13819615  1
  Ti  Ti55  1  0.10389459  -0.00826952  0.47609242  1
  Ti  Ti56  1  0.01604206  0.03262015  0.82166419  1
  Ti  Ti57  1  0.22495301  0.33514680  0.09901477  1
  Ti  Ti58  1  0.16583770  0.30540693  0.45940139  1
  Ti  Ti59  1  0.19193627  0.36743930  0.77661285  1
  Ti  Ti60  1  0.14873537  0.59535602  0.17572561  1
  Ti  Ti61  1  0.17814653  0.64904331  0.51759466  1
  Ti  Ti62  1  0.19479806  0.72467579  0.87027554  1
  Ti  Ti63  1  0.62528084  0.01571196  0.16407639  1
  Ti  Ti64  1  0.57524499  -0.08440638  0.51068697  1
  Ti  Ti65  1  0.50231113  -0.03452692  0.78360658  1
  Ti  Ti66  1  0.54233779  0.35634773  0.14596281  1
  Ti  Ti67  1  0.59389991  0.34702304  0.52311409  1
  Ti  Ti68  1  0.50254191  0.34604789  0.84231368  1
  Ti  Ti69  1  0.49671181  0.64996016  0.11684615  1
  Ti  Ti70  1  0.52018499  0.68584382  0.46907746  1
  Ti  Ti71  1  0.52254434  0.64511691  0.78502766  1
  Ti  Ti72  1  0.84262147  -0.01591613  0.15245634  1
  Ti  Ti73  1  0.77499689  -0.01559838  0.50506663  1
  Ti  Ti74  1  0.81376751  0.00803596  0.87666551  1
  Ti  Ti75  1  0.81642288  0.31796213  0.21043171  1
  Ti  Ti76  1  0.84190701  0.38407277  0.56620023  1
  Ti  Ti77  1  0.87974409  0.34459149  0.88797588  1
  Ti  Ti78  1  0.83382466  0.63716437  0.23700245  1
  Ti  Ti79  1  0.81073280  0.72852150  0.43983455  1
  Ti  Ti80  1  0.82080961  0.71356801  0.77860166  1
  Ti  Ti81  1  0.11416320  0.13685151  -0.00075551  1
  Ti  Ti82  1  0.21709257  0.14307905  0.33293558  1
  Ti  Ti83  1  0.17750014  0.08868548  0.70966129  1
  Ti  Ti84  1  0.11466181  0.56402482  -0.00225122  1
  Ti  Ti85  1  0.08960519  0.44250300  0.33323238  1
  Ti  Ti86  1  0.27409978  0.47764350  0.63727792  1
  Ti  Ti87  1  0.16347541  0.80819109  0.08995556  1
  Ti  Ti88  1  0.23451248  0.87799335  0.28080009  1
  Ti  Ti89  1  0.18143654  0.90019505  0.76759527  1
  Ti  Ti90  1  0.47967256  0.11838860  0.10279063  1
  Ti  Ti91  1  0.49452005  0.25745950  0.36689464  1
  Ti  Ti92  1  0.47908596  0.16471276  0.62936653  1
  Ti  Ti93  1  0.45440923  0.53337388  -0.05860067  1
  Ti  Ti94  1  0.44089741  0.44737882  0.29336523  1
  Ti  Ti95  1  0.45473730  0.41042486  0.62469956  1
  Ti  Ti96  1  0.53241515  0.78670668  -0.07051622  1
  Ti  Ti97  1  0.41730622  0.91197646  0.38021266  1
  Ti  Ti98  1  0.57101452  0.80527268  0.66068289  1
  Ti  Ti99  1  0.87382808  0.20369664  0.05803796  1
  Ti  Ti100  1  0.80584903  0.24695885  0.37607614  1
  Ti  Ti101  1  0.86383453  0.13877730  0.62465460  1
  Ti  Ti102  1  0.78217476  0.48452567  0.00321591  1
  Ti  Ti103  1  0.88131852  0.43789108  0.35789144  1
  Ti  Ti104  1  0.81957290  0.54266046  0.66554496  1
  Ti  Ti105  1  0.84008712  0.80689027  -0.03785680  1
  Ti  Ti106  1  0.84219867  0.89136290  0.36178758  1
  Ti  Ti107  1  0.77948927  0.84092391  0.61988491  1
  Co  Co108  1  0.14946915  0.29788747  0.26541319  1
  Co  Co109  1  0.73819288  0.38879908  0.44497405  1
  Co  Co110  1  0.65383028  0.23955731  0.40231543  1
  Co  Co111  1  0.92818994  0.15945129  0.90603708  1
  Co  Co112  1  0.43568499  0.26340644  0.53201253  1
  Co  Co113  1  0.94440517  0.91778307  0.49193812  1
  Co  Co114  1  0.94184066  0.73652444  0.33615475  1
  Co  Co115  1  0.87533001  0.52830040  0.82148201  1
  Co  Co116  1  0.77550276  0.12987943  0.77802472  1
  Co  Co117  1  0.66630225  0.73536283  0.52786968  1
  Co  Co118  1  -0.00781268  0.65524126  0.17531254  1
  Co  Co119  1  0.91413116  0.09784662  0.43079249  1
  Co  Co120  1  0.44423389  0.39743749  0.44678434  1
  Co  Co121  1  0.89031851  0.59251950  0.38968603  1
  Co  Co122  1  0.02134242  0.13329357  0.67971305  1
  Co  Co123  1  0.10721851  0.43342559  0.13615621  1
  Co  Co124  1  0.33942915  0.21612447  0.42189570  1
  Co  Co125  1  0.90074783  0.24905818  0.50772616  1
  Co  Co126  1  0.29950848  0.89408069  0.08412166  1
  Co  Co127  1  0.48566858  0.94260377  0.07456913  1
  Co  Co128  1  0.42381273  0.90729588  0.92636308  1
  Co  Co129  1  0.66235126  0.94756215  0.65258629  1
  Co  Co130  1  0.70316711  0.35059809  0.08988003  1
  Co  Co131  1  0.35804770  0.00976924  0.17702951  1
  Co  Co132  1  0.57868035  0.13760502  0.26500907  1
  Co  Co133  1  0.84380686  0.39304189  0.73741190  1
  Co  Co134  1  0.43244841  0.81194415  0.50255729  1
  Co  Co135  1  0.15988057  0.54694474  0.77995287  1
  Co  Co136  1  0.28197978  0.82870853  0.94125560  1
  Co  Co137  1  0.77455510  0.20835613  0.91785772  1
  Co  Co138  1  0.66091373  0.27379248  0.24354545  1
  Co  Co139  1  0.46419911  0.61545915  0.31110417  1
  Co  Co140  1  0.72399649  0.26267008  0.56490052  1
  Co  Co141  1  0.31750832  0.97652216  0.81954940  1
  Co  Co142  1  0.76371498  0.13547450  0.48679740  1
  Co  Co143  1  0.41807276  0.77913982  0.03285872  1
  Co  Co144  1  0.14382554  0.00137536  0.31310489  1
  Co  Co145  1  0.25779420  0.79871735  0.65515044  1
  Co  Co146  1  0.58740339  0.99766863  0.35893124  1
  Co  Co147  1  0.37753611  0.67920135  0.88313598  1
  Co  Co148  1  0.53045159  0.49171584  0.74632941  1
  Co  Co149  1  0.59606634  0.48688751  0.89726786  1
  Co  Co150  1  0.50366655  0.93521898  0.23814816  1
  Co  Co151  1  0.98363353  0.88803583  0.06865080  1
  Co  Co152  1  0.50430388  0.77283148  0.30465610  1
  Co  Co153  1  0.09313028  0.75736397  0.23766651  1
  Co  Co154  1  0.22623833  0.58059817  0.34480098  1
  Co  Co155  1  0.76074886  0.76765348  0.27784513  1
  Co  Co156  1  0.89370943  0.23322526  0.76556712  1
  Co  Co157  1  0.07429322  0.90854942  0.20115997  1
  Co  Co158  1  0.05944205  0.13807015  0.33993762  1
  Co  Co159  1  0.29815548  0.35499280  0.53181333  1
  Co  Co160  1  0.18301029  0.06213362  0.87384898  1
  Co  Co161  1  0.68043163  0.69311854  0.70159285  1
  Ni  Ni162  1  0.37113703  0.43034868  0.78219668  1
  Ni  Ni163  1  0.13062754  0.39671599  0.60882517  1
  Ni  Ni164  1  0.27789166  0.18098302  -0.01421881  1
  Ni  Ni165  1  0.42917759  0.05981384  0.47814315  1
  Ni  Ni166  1  0.11384610  0.55530520  0.62875434  1
  Ni  Ni167  1  0.17784334  0.43159756  0.94027745  1
  Ni  Ni168  1  0.94529269  0.78495541  0.63757584  1
  Ni  Ni169  1  0.00879569  0.38296902  0.49041104  1
  Ni  Ni170  1  0.88302188  0.37016098  0.06737328  1
  Ni  Ni171  1  0.16592037  0.27892039  0.93250774  1
  Ni  Ni172  1  0.22103574  -0.03152968  0.60312184  1
  Ni  Ni173  1  0.51286117  0.00888284  0.62415543  1
  Ni  Ni174  1  0.25454252  0.71684223  0.22084501  1
  Ni  Ni175  1  0.23231635  0.44867943  0.24244252  1
  Ni  Ni176  1  0.60510017  0.49699006  0.05340921  1
  Ni  Ni177  1  0.89778174  0.14900096  0.24376027  1
  Ni  Ni178  1  0.55407848  0.52703685  0.42777340  1
  Ni  Ni179  1  0.94868823  0.51022998  0.97074388  1
  Ni  Ni180  1  0.97524325  0.46424981  0.65393157  1
  Ni  Ni181  1  0.27664114  1.00339545  0.42627905  1
  Ni  Ni182  1  0.10037619  0.85050131  0.60737739  1
  Ni  Ni183  1  0.24025658  0.20667753  0.81053082  1
  Ni  Ni184  1  0.91892232  0.66703456  0.90418155  1
  Ni  Ni185  1  0.55385635  0.21870971  0.75909979  1
  Ni  Ni186  1  0.78482020  0.79915129  0.12227660  1
  Ni  Ni187  1  0.86313163  0.64077319  0.06671982  1
  Ni  Ni188  1  0.33504860  0.68248725  0.53980187  1
  Ni  Ni189  1  0.71917849  0.91833471  0.24749561  1
  Ni  Ni190  1  0.35189328  0.05944142  0.67705526  1
  Ni  Ni191  1  0.68129066  0.81606298  0.99639509  1
  Ni  Ni192  1  0.12809698  0.71189638  0.70230926  1
  Ni  Ni193  1  0.42924054  0.73213936  0.65993349  1
  Ni  Ni194  1  0.65615366  1.01691287  0.80116983  1
  Ni  Ni195  1  0.17243669  0.24207102  0.63957045  1
  Ni  Ni196  1  0.73313159  0.53518916  0.33810797  1
  Ni  Ni197  1  0.27203678  0.49631146  0.05952570  1
  Ni  Ni198  1  0.49024163  0.05221497  0.93945519  1
  Ni  Ni199  1  0.98440025  0.35964967  0.21727232  1
  Ni  Ni200  1  0.01682695  0.05688404  0.16301865  1
  Ni  Ni201  1  0.43397221  0.47975438  0.09436487  1
  Ni  Ni202  1  0.43502567  0.20820799  0.96330240  1
  Ni  Ni203  1  0.87180734  0.88941887  0.76465379  1
  Ni  Ni204  1  0.43791692  0.57552462  0.60808985  1
  Ni  Ni205  1  0.06084112  0.63838465  0.85846747  1
  Ni  Ni206  1  0.81986118  0.68220256  0.59737267  1
  Ni  Ni207  1  0.17661709  0.74161259  0.37505138  1
  Ni  Ni208  1  -0.03825623  0.90246177  0.91142657  1
  Ni  Ni209  1  0.77387657  0.61698975  0.92529774  1
  Ni  Ni210  1  0.68438871  0.43174319  0.64287115  1
  Ni  Ni211  1  0.43158351  0.25016936  0.21042474  1
  Ni  Ni212  1  0.65972276  0.70118688  0.86794734  1
  Ni  Ni213  1  0.56799136  0.27092331  0.01098286  1
  Ni  Ni214  1  0.55694695  0.52386150  0.20577577  1
  Ni  Ni215  1  0.76249230  0.06376747  0.02682517  1
