# generated using pymatgen
data_Ti2CoNi
_symmetry_space_group_name_H-M   'P 1'
_cell_length_a   14.46745533
_cell_length_b   14.53295679
_cell_length_c   14.50931830
_cell_angle_alpha   89.85646297
_cell_angle_beta   90.10065637
_cell_angle_gamma   89.81996563
_symmetry_Int_Tables_number   1
_chemical_formula_structural   Ti2CoNi
_chemical_formula_sum   'Ti108 Co54 Ni54'
_cell_volume   3050.62593087
_cell_formula_units_Z   54
loop_
 _symmetry_equiv_pos_site_id
 _symmetry_equiv_pos_as_xyz
  1  'x, y, z'
loop_
 _atom_site_type_symbol
 _atom_site_label
 _atom_site_symmetry_multiplicity
 _atom_site_fract_x
 _atom_site_fract_y
 _atom_site_fract_z
 _atom_site_occupancy
  Ti  Ti0  1  -0.05790348  -0.07514199  -0.01165338  1
  Ti  Ti1  1  -0.00323648  -0.08151303  0.29533904  1
  Ti  Ti2  1  -0.06197030  0.01664819  0.62859722  1
  Ti  Ti3  1  -0.01311949  0.36977284  -0.04680058  1
  Ti  Ti4  1  0.02014095  0.33100841  0.40611327  1
  Ti  Ti5  1  0.05305562  0.39714833  0.71999653  1
  Ti  Ti6  1  -0.05059794  0.69415305  0.00148068  1
  Ti  Ti7  1  0.03938401  0.65959994  0.36613355  1
  Ti  Ti8  1  -0.01509783  0.68930016  0.57371319  1
  Ti  Ti9  1  0.30890154  -0.05921168  -0.04328204  1
  Ti  Ti10  1  0.30255637  0.01183097  0.34617751  1
  Ti  Ti11  1  0.33677176  0.00995236  0.64853886  1
  Ti  Ti12  1  0.41527772  0.32879987  -0.03518523  1
  Ti  Ti13  1  0.36859887  0.32673770  0.27151643  1
  Ti  Ti14  1  0.38990810  0.49850591  0.71200810  1
  Ti  Ti15  1  0.26844993  0.73261742  -0.06914772  1
  Ti  Ti16  1  0.38874802  0.68250998  0.45894007  1
  Ti  Ti17  1  0.31040981  0.67265797  0.62480879  1
  Ti  Ti18  1  0.74094639  0.03906671  0.02089709  1
  Ti  Ti19  1  0.68471843  0.02511863  0.24383133  1
  Ti  Ti20  1  0.70922746  0.02380468  0.62393610  1
  Ti  Ti21  1  0.70486051  0.38782172  0.00356204  1
  Ti  Ti22  1  0.59670029  0.32508126  0.36725643  1
  Ti  Ti23  1  0.69733970  0.32618474  0.74362805  1
  Ti  Ti24  1  0.60439195  0.67410268  0.04203014  1
  Ti  Ti25  1  0.59802761  0.62588719  0.22531825  1
  Ti  Ti26  1  0.67621063  0.61229064  0.68814843  1
  Ti  Ti27  1  0.01055613  0.12005607  0.19066016  1
  Ti  Ti28  1  -0.07281952  0.18540878  0.50286560  1
  Ti  Ti29  1  0.01621561  0.19346666  0.88255564  1
  Ti  Ti30  1  0.02861551  0.41113375  0.18431852  1
  Ti  Ti31  1  -0.01845641  0.49730547  0.51489989  1
  Ti  Ti32  1  0.00307745  0.61591862  0.79792810  1
  Ti  Ti33  1  0.02459243  0.73790061  0.18542777  1
  Ti  Ti34  1  0.05747234  0.83714923  0.43814246  1
  Ti  Ti35  1  0.01878624  0.81681829  0.84955385  1
  Ti  Ti36  1  0.38435243  0.12399144  0.09210523  1
  Ti  Ti37  1  0.35244228  0.24284182  0.51467591  1
  Ti  Ti38  1  0.28215241  0.21400757  0.90880655  1
  Ti  Ti39  1  0.35728642  0.51487558  0.22019439  1
  Ti  Ti40  1  0.29171523  0.47431296  0.53542644  1
  Ti  Ti41  1  0.27596580  0.53583890  0.91926903  1
  Ti  Ti42  1  0.33946303  0.88228844  0.16147977  1
  Ti  Ti43  1  0.23585342  0.81825866  0.47165513  1
  Ti  Ti44  1  0.35219300  0.81936318  0.74127990  1
  Ti  Ti45  1  0.65867860  0.23346537  0.17545535  1
  Ti  Ti46  1  0.68666110  0.19384534  0.50571810  1
  Ti  Ti47  1  0.62708033  0.18056537  0.83487832  1
  Ti  Ti48  1  0.70600749  0.42354037  0.23909162  1
  Ti  Ti49  1  0.72496148  0.52546904  0.51075796  1
  Ti  Ti50  1  0.61405833  0.47948145  0.84048319  1
  Ti  Ti51  1  0.61375721  0.90710715  0.06203683  1
  Ti  Ti52  1  0.64871954  0.84450319  0.48449785  1
  Ti  Ti53  1  0.67024713  0.87192717  0.77605157  1
  Ti  Ti54  1  0.18824189  0.06305776  0.19182498  1
  Ti  Ti55  1  0.16525698  0.03053689  0.53148382  1
  Ti  Ti56  1  0.15209641  0.05800509  0.81233199  1
  Ti  Ti57  1  0.18762836  0.25661711  0.20996844  1
  Ti  Ti58  1  0.17835987  0.29354491  0.49648861  1
  Ti  Ti59  1  0.28876621  0.37574933  0.81191816  1
  Ti  Ti60  1  0.21113586  0.64153469  0.23164205  1
  Ti  Ti61  1  0.19322399  0.61818059  0.45213825  1
  Ti  Ti62  1  0.16623240  0.69143679  0.74671143  1
  Ti  Ti63  1  0.49517290  -0.06393887  0.23056506  1
  Ti  Ti64  1  0.48947678  -0.01711186  0.46017833  1
  Ti  Ti65  1  0.45051966  0.02007907  0.82328601  1
  Ti  Ti66  1  0.50396015  0.35757118  0.12406427  1
  Ti  Ti67  1  0.50234435  0.34173105  0.55149228  1
  Ti  Ti68  1  0.49162021  0.33125450  0.76060699  1
  Ti  Ti69  1  0.40465493  0.68526143  0.16756193  1
  Ti  Ti70  1  0.57059565  0.65274839  0.52925648  1
  Ti  Ti71  1  0.50627895  0.64255954  0.86420738  1
  Ti  Ti72  1  0.87649329  -0.00324440  0.17297549  1
  Ti  Ti73  1  0.85071559  -0.07590662  0.45761656  1
  Ti  Ti74  1  0.90671637  0.04527683  0.85681282  1
  Ti  Ti75  1  0.85373267  0.31261749  0.14617738  1
  Ti  Ti76  1  0.82073918  0.33697048  0.45524353  1
  Ti  Ti77  1  0.84645376  0.29842898  0.85762249  1
  Ti  Ti78  1  0.80796254  0.65549682  0.13656925  1
  Ti  Ti79  1  0.78242534  0.71704720  0.55107218  1
  Ti  Ti80  1  0.79119378  0.61360411  0.82317608  1
  Ti  Ti81  1  0.13378971  0.19510392  0.04073552  1
  Ti  Ti82  1  0.08008433  0.14840880  0.38272875  1
  Ti  Ti83  1  0.16575055  0.22812647  0.74112145  1
  Ti  Ti84  1  0.08423265  0.53237796  0.00625661  1
  Ti  Ti85  1  0.16005031  0.46546460  0.31510675  1
  Ti  Ti86  1  0.20863990  0.51938374  0.71850184  1
  Ti  Ti87  1  0.10553418  0.82274671  0.02254487  1
  Ti  Ti88  1  0.17465209  0.85868413  0.23939191  1
  Ti  Ti89  1  0.18650905  0.88034798  0.65673662  1
  Ti  Ti90  1  0.54716754  0.07927695  -0.01472952  1
  Ti  Ti91  1  0.53016285  0.10884750  0.32460762  1
  Ti  Ti92  1  0.45638758  0.14654509  0.64873553  1
  Ti  Ti93  1  0.51010874  0.49927541  0.00352417  1
  Ti  Ti94  1  0.46842925  0.46307749  0.40505558  1
  Ti  Ti95  1  0.58149892  0.46925441  0.63532369  1
  Ti  Ti96  1  0.44526124  0.78103593  -0.00585208  1
  Ti  Ti97  1  0.53364353  0.76836218  0.34935930  1
  Ti  Ti98  1  0.50972381  0.91604081  0.66083493  1
  Ti  Ti99  1  0.90209968  0.13797474  0.02309928  1
  Ti  Ti100  1  0.79906954  0.09706293  0.36135518  1
  Ti  Ti101  1  0.82618330  0.15318642  0.73143878  1
  Ti  Ti102  1  0.86891019  0.51094930  -0.03342685  1
  Ti  Ti103  1  0.90961579  0.53151707  0.27215080  1
  Ti  Ti104  1  0.84011655  0.42512946  0.68575636  1
  Ti  Ti105  1  0.77308776  0.80037397  0.00742676  1
  Ti  Ti106  1  0.75476359  0.79690221  0.32400430  1
  Ti  Ti107  1  0.86414579  0.89592437  0.74109679  1
  Co  Co108  1  0.57235276  0.08638565  0.14759243  1
  Co  Co109  1  0.05953111  0.57672061  0.20367770  1
  Co  Co110  1  0.31661793  0.55047587  0.36888760  1
  Co  Co111  1  0.62325066  0.77501043  0.63559716  1
  Co  Co112  1  0.76824961  0.61279862  0.28913571  1
  Co  Co113  1  0.66214583  0.67767167  0.39676346  1
  Co  Co114  1  0.94110430  0.47196013  0.82110334  1
  Co  Co115  1  0.19335167  0.74807901  0.34561545  1
  Co  Co116  1  0.25483319  0.57108392  0.09045916  1
  Co  Co117  1  0.13194458  0.67147975  0.08439380  1
  Co  Co118  1  0.06110848  0.04550908  0.02907860  1
  Co  Co119  1  0.12390020  0.47349042  0.85862443  1
  Co  Co120  1  0.03671208  0.26612687  0.24951812  1
  Co  Co121  1  0.03720087  0.93236105  0.14595194  1
  Co  Co122  1  0.13561897  0.30684522  0.87909827  1
  Co  Co123  1  0.94659270  0.05664106  0.33132689  1
  Co  Co124  1  0.75963996  0.75764861  0.72317556  1
  Co  Co125  1  0.90061163  0.36682469  0.29782593  1
  Co  Co126  1  0.44550608  -0.03230551  0.06872487  1
  Co  Co127  1  0.63706436  -0.02128115  0.90444830  1
  Co  Co128  1  0.36066167  0.44611642  0.07075190  1
  Co  Co129  1  0.18382982  0.82728099  0.83854750  1
  Co  Co130  1  0.23686508  0.40495028  0.17113552  1
  Co  Co131  1  0.00991482  0.11950468  0.73258539  1
  Co  Co132  1  0.19525084  0.94398086  0.09230379  1
  Co  Co133  1  0.23085559  0.07770052  0.98780959  1
  Co  Co134  1  0.26735146  0.75600834  0.09481176  1
  Co  Co135  1  0.90999886  0.20984153  0.32713814  1
  Co  Co136  1  0.90028723  0.83774443  0.58867046  1
  Co  Co137  1  0.51882678  0.58974111  0.72198842  1
  Co  Co138  1  0.36446450  0.36157449  0.62736204  1
  Co  Co139  1  0.13509149  0.45202225  0.47014677  1
  Co  Co140  1  0.74761720  0.87599518  0.60292409  1
  Co  Co141  1  0.56742650  0.34148952  0.90846873  1
  Co  Co142  1  0.23728381  0.38377855  0.97375908  1
  Co  Co143  1  0.11654386  0.37068105  0.06425822  1
  Co  Co144  1  0.77098589  0.45069946  0.84006707  1
  Co  Co145  1  0.90611233  0.71793909  0.71321606  1
  Co  Co146  1  0.28155772  0.94704972  0.79347869  1
  Co  Co147  1  0.30646953  0.11000432  0.78642606  1
  Co  Co148  1  0.31215097  0.37859405  0.41166863  1
  Co  Co149  1  0.73945364  0.02995079  0.79400187  1
  Co  Co150  1  1.03136985  0.96044083  0.76187261  1
  Co  Co151  1  0.49294961  0.90784126  -0.07273038  1
  Co  Co152  1  0.04567336  0.89930810  0.57424552  1
  Co  Co153  1  0.44136215  0.46755475  0.85918298  1
  Co  Co154  1  0.12757609  0.95408726  0.92197416  1
  Co  Co155  1  0.60533476  0.91755383  0.34066994  1
  Co  Co156  1  0.79535002  0.46574308  0.36995830  1
  Co  Co157  1  0.94860302  0.54134059  0.09591661  1
  Co  Co158  1  0.98872434  0.25381648  0.08578469  1
  Co  Co159  1  0.46379619  0.72118110  0.65522767  1
  Co  Co160  1  0.04306907  0.79771484  0.69778083  1
  Co  Co161  1  0.14242277  0.97973760  0.35761739  1
  Ni  Ni162  1  0.00819551  0.01888004  0.47095198  1
  Ni  Ni163  1  0.66437748  0.03121269  0.43386390  1
  Ni  Ni164  1  0.74675421  0.26927195  0.31549013  1
  Ni  Ni165  1  0.40690922  0.87416580  0.37234401  1
  Ni  Ni166  1  0.85884030  0.57769070  0.61560966  1
  Ni  Ni167  1  0.51836027  0.80177374  0.79023670  1
  Ni  Ni168  1  0.34733384  0.08417030  0.48396955  1
  Ni  Ni169  1  0.34401445  0.15752511  0.25267279  1
  Ni  Ni170  1  0.81412001  0.07635604  0.52144256  1
  Ni  Ni171  1  0.79114094  0.49205588  0.12582658  1
  Ni  Ni172  1  0.95237719  0.26612823  0.70940478  1
  Ni  Ni173  1  0.24716957  0.14864800  0.62079954  1
  Ni  Ni174  1  0.44008007  0.55992174  0.56879183  1
  Ni  Ni175  1  0.63590228  0.52270442  0.35548889  1
  Ni  Ni176  1  0.86071236  0.76376884  0.86312489  1
  Ni  Ni177  1  0.58846114  1.04169643  0.73825441  1
  Ni  Ni178  1  0.11335114  0.56969130  0.58985331  1
  Ni  Ni179  1  0.86261805  0.60534665  0.43783131  1
  Ni  Ni180  1  0.55127707  0.23264490  0.02695694  1
  Ni  Ni181  1  0.75030821  0.90020818  0.16533758  1
  Ni  Ni182  1  0.46100879  0.18939667  0.86866081  1
  Ni  Ni183  1  0.39444709  0.61645208  1.02022842  1
  Ni  Ni184  1  0.20376628  0.35706620  0.64429722  1
  Ni  Ni185  1  0.76572242  0.15351255  0.90132746  1
  Ni  Ni186  1  0.79579523  0.91684113  0.89802316  1
  Ni  Ni187  1  0.07004968  0.20888233  0.58735287  1
  Ni  Ni188  1  0.90077285  0.77070216  0.42875521  1
  Ni  Ni189  1  0.52179358  0.45216704  0.25031656  1
  Ni  Ni190  1  0.57015829  0.07469705  0.56387214  1
  Ni  Ni191  1  0.14590268  0.73277010  0.58218703  1
  Ni  Ni192  1  0.90126180  0.82488279  0.12145223  1
  Ni  Ni193  1  0.48882109  0.81714534  0.52869170  1
  Ni  Ni194  1  0.89492651  0.71620011  0.27995215  1
  Ni  Ni195  1  0.67970726  0.76243662  0.17662517  1
  Ni  Ni196  1  0.35127182  0.64771336  0.79309836  1
  Ni  Ni197  1  0.74856796  0.22587876  1.04052121  1
  Ni  Ni198  1  0.49626299  0.22233242  0.21440259  1
  Ni  Ni199  1  0.31126670  0.26931142  0.09014942  1
  Ni  Ni200  1  0.11270490  0.67434094  0.91466827  1
  Ni  Ni201  1  0.34983948  0.74292960  0.30680425  1
  Ni  Ni202  1  0.67504397  0.35843675  0.56652444  1
  Ni  Ni203  1  0.81480339  0.15009225  0.18992589  1
  Ni  Ni204  1  0.47375544  0.60917094  0.33015335  1
  Ni  Ni205  1  0.52470967  0.78917848  0.14967393  1
  Ni  Ni206  1  0.71895027  0.56641534  0.98173871  1
  Ni  Ni207  1  0.62955981  0.50504313  0.10530032  1
  Ni  Ni208  1  0.62389404  0.79443941  0.92237525  1
  Ni  Ni209  1  0.51531844  0.20534170  0.45853293  1
  Ni  Ni210  1  0.80511046  0.26474544  0.61129593  1
  Ni  Ni211  1  0.35274473  0.24356233  0.72819868  1
  Ni  Ni212  1  0.23786978  0.21965135  0.36157932  1
  Ni  Ni213  1  0.95772439  0.35136077  0.57033442  1
  Ni  Ni214  1  0.34200489  0.92058052  0.51861815  1
  Ni  Ni215  1  0.62564046  0.20390457  0.66409789  1
