# generated using pymatgen
data_Ti2CoNi
_symmetry_space_group_name_H-M   'P 1'
_cell_length_a   14.54976404
_cell_length_b   14.50754200
_cell_length_c   14.51139677
_cell_angle_alpha   89.91485969
_cell_angle_beta   89.67726740
_cell_angle_gamma   90.10703014
_symmetry_Int_Tables_number   1
_chemical_formula_structural   Ti2CoNi
_chemical_formula_sum   'Ti108 Co54 Ni54'
_cell_volume   3063.02731478
_cell_formula_units_Z   54
loop_
 _symmetry_equiv_pos_site_id
 _symmetry_equiv_pos_as_xyz
  1  'x, y, z'
loop_
 _atom_site_type_symbol
 _atom_site_label
 _atom_site_symmetry_multiplicity
 _atom_site_fract_x
 _atom_site_fract_y
 _atom_site_fract_z
 _atom_site_occupancy
  Ti  Ti0  1  0.03254398  -0.04262758  0.04118239  1
  Ti  Ti1  1  0.03699031  0.03127791  0.35343527  1
  Ti  Ti2  1  -0.02579187  0.06359966  0.58753348  1
  Ti  Ti3  1  -0.03038114  0.31261531  -0.04183225  1
  Ti  Ti4  1  -0.02739295  0.31478001  0.28783366  1
  Ti  Ti5  1  -0.03624745  0.38092837  0.59297020  1
  Ti  Ti6  1  0.03996549  0.63845279  0.07707144  1
  Ti  Ti7  1  0.05837739  0.60579148  0.31319529  1
  Ti  Ti8  1  -0.03861007  0.71832476  0.59406590  1
  Ti  Ti9  1  0.30044565  -0.02337048  -0.02253103  1
  Ti  Ti10  1  0.33992796  0.03184081  0.29130242  1
  Ti  Ti11  1  0.33902190  -0.09330335  0.61652030  1
  Ti  Ti12  1  0.35446028  0.31319285  -0.04862307  1
  Ti  Ti13  1  0.34689471  0.33797355  0.24072712  1
  Ti  Ti14  1  0.35624585  0.34543164  0.74704423  1
  Ti  Ti15  1  0.35125670  0.64623020  -0.03500593  1
  Ti  Ti16  1  0.38436899  0.66434365  0.39989030  1
  Ti  Ti17  1  0.34641338  0.70943851  0.69939291  1
  Ti  Ti18  1  0.65548749  0.03427787  0.00207248  1
  Ti  Ti19  1  0.62410057  0.04556692  0.39651213  1
  Ti  Ti20  1  0.59686373  -0.00730242  0.64254376  1
  Ti  Ti21  1  0.75297585  0.27386993  0.04550444  1
  Ti  Ti22  1  0.67498465  0.30927796  0.37400834  1
  Ti  Ti23  1  0.76555759  0.34536869  0.60581637  1
  Ti  Ti24  1  0.72217021  0.62951581  -0.00218695  1
  Ti  Ti25  1  0.65443393  0.65834162  0.29225301  1
  Ti  Ti26  1  0.64503157  0.70425419  0.71382957  1
  Ti  Ti27  1  -0.03166785  0.18131530  0.13836661  1
  Ti  Ti28  1  -0.00524186  0.20704367  0.43955795  1
  Ti  Ti29  1  -0.06029642  0.17487537  0.80509753  1
  Ti  Ti30  1  0.05424618  0.44054457  0.08913811  1
  Ti  Ti31  1  0.01554945  0.54844435  0.51924705  1
  Ti  Ti32  1  0.04864319  0.56007347  0.84742273  1
  Ti  Ti33  1  -0.13238603  0.84778410  0.14288130  1
  Ti  Ti34  1  0.04651849  0.89453813  0.48369132  1
  Ti  Ti35  1  0.03261377  0.79679777  0.77005865  1
  Ti  Ti36  1  0.28680889  0.13740802  0.14572356  1
  Ti  Ti37  1  0.29013167  0.15586752  0.52575410  1
  Ti  Ti38  1  0.26374619  0.17354675  0.80295399  1
  Ti  Ti39  1  0.33924140  0.56113751  0.20411973  1
  Ti  Ti40  1  0.34234285  0.47575554  0.46737282  1
  Ti  Ti41  1  0.25452619  0.48204671  0.82886876  1
  Ti  Ti42  1  0.36663325  0.83643717  0.23157241  1
  Ti  Ti43  1  0.30860164  0.85804163  0.42336084  1
  Ti  Ti44  1  0.24817956  0.88470096  0.78487300  1
  Ti  Ti45  1  0.65626127  0.13239118  0.22774904  1
  Ti  Ti46  1  0.69125993  0.18562490  0.53797254  1
  Ti  Ti47  1  0.64419093  0.12345896  0.81609228  1
  Ti  Ti48  1  0.55700281  0.46326795  0.18711284  1
  Ti  Ti49  1  0.67861637  0.52478235  0.63285362  1
  Ti  Ti50  1  0.62013401  0.52376602  0.81935184  1
  Ti  Ti51  1  0.66016063  0.87551366  0.31011849  1
  Ti  Ti52  1  0.74761434  0.84482811  0.55901409  1
  Ti  Ti53  1  0.68180778  0.83134093  0.85630562  1
  Ti  Ti54  1  0.21079318  -0.06755782  0.14613148  1
  Ti  Ti55  1  0.17646394  -0.01278319  0.57344368  1
  Ti  Ti56  1  0.14068435  0.03017537  0.87424674  1
  Ti  Ti57  1  0.12522732  0.28798647  0.15549462  1
  Ti  Ti58  1  0.18848890  0.32206788  0.51124405  1
  Ti  Ti59  1  0.07169935  0.32781806  0.76155700  1
  Ti  Ti60  1  0.14747471  0.74726301  0.17524588  1
  Ti  Ti61  1  0.19269859  0.65233942  0.44718064  1
  Ti  Ti62  1  0.19298501  0.67663328  0.80440204  1
  Ti  Ti63  1  0.52964348  0.02809263  0.14873928  1
  Ti  Ti64  1  0.43825375  0.03458666  0.45078449  1
  Ti  Ti65  1  0.39692857  0.02487130  0.78995755  1
  Ti  Ti66  1  0.54895439  0.33875020  0.03189285  1
  Ti  Ti67  1  0.45534090  0.29000037  0.52519066  1
  Ti  Ti68  1  0.53829260  0.31712548  0.83354208  1
  Ti  Ti69  1  0.58115604  0.69286628  0.12257098  1
  Ti  Ti70  1  0.54111845  0.65100738  0.54377111  1
  Ti  Ti71  1  0.54898419  0.65541267  0.92230174  1
  Ti  Ti72  1  0.90892983  0.01517280  0.19878574  1
  Ti  Ti73  1  0.83669816  -0.01664140  0.41122118  1
  Ti  Ti74  1  0.78701274  0.00443131  0.86966913  1
  Ti  Ti75  1  0.79579916  0.40892107  0.22645193  1
  Ti  Ti76  1  0.84061767  0.41576420  0.42700594  1
  Ti  Ti77  1  0.78261741  0.31945937  0.85082262  1
  Ti  Ti78  1  0.83942310  0.66235979  0.13552265  1
  Ti  Ti79  1  0.78229834  0.65316565  0.52102680  1
  Ti  Ti80  1  0.90345510  0.63652005  0.94183851  1
  Ti  Ti81  1  0.13219881  0.17779075  0.00622878  1
  Ti  Ti82  1  0.21905148  0.20698068  0.33016343  1
  Ti  Ti83  1  0.12457392  0.13653031  0.68890522  1
  Ti  Ti84  1  0.26306666  0.46305669  0.04149168  1
  Ti  Ti85  1  0.14940245  0.40646170  0.32795212  1
  Ti  Ti86  1  0.16674050  0.47652915  0.65364690  1
  Ti  Ti87  1  0.17202992  0.80005819  -0.01741652  1
  Ti  Ti88  1  0.14866062  0.85867150  0.32645229  1
  Ti  Ti89  1  0.15189428  0.78734575  0.62781295  1
  Ti  Ti90  1  0.44802374  0.12880459  0.01425372  1
  Ti  Ti91  1  0.51277155  0.25637612  0.23128475  1
  Ti  Ti92  1  0.50238268  0.16364061  0.70698877  1
  Ti  Ti93  1  0.43659267  0.48507408  -0.06951719  1
  Ti  Ti94  1  0.50566810  0.50703309  0.37740562  1
  Ti  Ti95  1  0.48489001  0.48405790  0.59697831  1
  Ti  Ti96  1  0.49729363  0.86440355  0.02463249  1
  Ti  Ti97  1  0.49820527  0.82000305  0.42038951  1
  Ti  Ti98  1  0.49604651  0.85016755  0.73358906  1
  Ti  Ti99  1  0.91986109  0.12864287  -0.01640488  1
  Ti  Ti100  1  0.80879683  0.21887213  0.22525770  1
  Ti  Ti101  1  0.80076254  0.15487149  0.69799655  1
  Ti  Ti102  1  0.86011519  0.47876754  0.05623460  1
  Ti  Ti103  1  0.82680515  0.57580802  0.31149071  1
  Ti  Ti104  1  0.83289232  0.51273572  0.76256200  1
  Ti  Ti105  1  0.89757911  0.83106897  -0.07397672  1
  Ti  Ti106  1  0.81298062  0.77404202  0.33018116  1
  Ti  Ti107  1  0.82540786  0.81355227  0.73113798  1
  Co  Co108  1  0.70271566  0.43017109  0.08523399  1
  Co  Co109  1  0.95682468  -0.00056836  0.89571804  1
  Co  Co110  1  0.60117035  0.95807393  0.81266592  1
  Co  Co111  1  0.65951105  0.31259065  0.19531535  1
  Co  Co112  1  0.86343796  0.98248271  0.03262959  1
  Co  Co113  1  0.77677197  0.10556679  0.09957458  1
  Co  Co114  1  0.26543365  0.28977081  0.08392082  1
  Co  Co115  1  0.35320629  0.20525434  0.66619627  1
  Co  Co116  1  0.59936103  0.52347845  0.01232980  1
  Co  Co117  1  0.65599519  0.23904763  0.70096995  1
  Co  Co118  1  0.62133051  0.89217937  0.13293031  1
  Co  Co119  1  0.83991615  0.25936267  0.42797886  1
  Co  Co120  1  0.41868155  0.24263363  0.10652452  1
  Co  Co121  1  0.60143381  0.18857970  0.08388092  1
  Co  Co122  1  0.64369695  0.77430002  1.00172003  1
  Co  Co123  1  1.05423782  0.71012997  0.92244405  1
  Co  Co124  1  0.62747129  0.91253651  0.47449655  1
  Co  Co125  1  0.40748330  0.40471610  0.10511267  1
  Co  Co126  1  0.00081268  0.79525570  0.06338684  1
  Co  Co127  1  0.76173616  1.01339162  0.26261359  1
  Co  Co128  1  0.73853608  0.89498769  1.00806189  1
  Co  Co129  1  0.48491419  0.92349448  0.55493430  1
  Co  Co130  1  0.88060835  0.95581840  0.75334042  1
  Co  Co131  1  0.07391025  0.18082953  0.26875019  1
  Co  Co132  1  0.73622690  0.00206940  0.70371354  1
  Co  Co133  1  0.90638355  0.23264656  0.59345600  1
  Co  Co134  1  0.77493803  0.49353865  0.92308259  1
  Co  Co135  1  0.69215149  0.39613642  0.74940945  1
  Co  Co136  1  0.36772786  0.61566346  0.55415047  1
  Co  Co137  1  0.80332043  0.65369917  0.67831505  1
  Co  Co138  1  0.20659021  0.29109470  0.67735280  1
  Co  Co139  1  0.91036133  0.14145205  0.31461286  1
  Co  Co140  1  0.75358220  0.13712879  0.37348243  1
  Co  Co141  1  0.64910539  0.39777530  0.92272000  1
  Co  Co142  1  0.25027015  0.03552759  0.71468155  1
  Co  Co143  1  0.11031654  0.93839161  0.71780781  1
  Co  Co144  1  0.16424743  0.49145906  0.48343169  1
  Co  Co145  1  0.94172216  0.87907747  0.32064438  1
  Co  Co146  1  0.26335378  0.52171208  0.33803949  1
  Co  Co147  1  0.00336202  0.04419259  0.74816197  1
  Co  Co148  1  0.13797553  0.35636350  -0.02337549  1
  Co  Co149  1  0.83896977  0.97032162  0.58485850  1
  Co  Co150  1  0.13921405  0.54938160  0.19043648  1
  Co  Co151  1  0.72322541  0.77826215  0.17107084  1
  Co  Co152  1  0.92204756  0.68677400  0.78864154  1
  Co  Co153  1  0.06993099  0.63525629  0.69054027  1
  Co  Co154  1  0.05344585  0.92135301  0.20803073  1
  Co  Co155  1  0.06995019  0.88499926  0.89214148  1
  Co  Co156  1  0.22663869  0.41933345  0.19008556  1
  Co  Co157  1  0.43572621  0.76953765  0.57206275  1
  Co  Co158  1  0.08623996  0.19452394  0.86100389  1
  Co  Co159  1  0.70784791  0.56750648  0.16622744  1
  Co  Co160  1  0.83596940  0.11507399  0.51225167  1
  Co  Co161  1  0.32430802  0.36757635  0.58951880  1
  Ni  Ni162  1  0.51231109  0.04021861  0.90873336  1
  Ni  Ni163  1  0.39823723  0.06066839  0.61497690  1
  Ni  Ni164  1  0.06908947  0.24100082  0.58452032  1
  Ni  Ni165  1  0.41768547  0.89361620  0.88410501  1
  Ni  Ni166  1  -0.03000828  0.88349560  0.63129460  1
  Ni  Ni167  1  0.33408594  0.52043487  0.67856570  1
  Ni  Ni168  1  0.65379905  0.75067164  0.44676338  1
  Ni  Ni169  1  0.92701852  0.45049981  0.88676847  1
  Ni  Ni170  1  0.95429423  0.54478855  0.18859648  1
  Ni  Ni171  1  0.49585337  0.10236765  0.29744290  1
  Ni  Ni172  1  0.68319454  0.44505468  0.48465276  1
  Ni  Ni173  1  0.77338360  0.16605125  0.91808053  1
  Ni  Ni174  1  0.55605588  0.20558461  0.40875041  1
  Ni  Ni175  1  0.49408777  0.61818353  0.25278659  1
  Ni  Ni176  1  0.25241717  0.70837792  0.29571821  1
  Ni  Ni177  1  0.23580639  1.01024490  0.41746516  1
  Ni  Ni178  1  0.30431893  0.77918271  0.88687662  1
  Ni  Ni179  1  0.37661074  -0.02272272  0.12399995  1
  Ni  Ni180  1  0.95654834  0.72194412  0.24337697  1
  Ni  Ni181  1  0.91462987  0.33488362  0.12594184  1
  Ni  Ni182  1  0.52717646  0.78215647  0.25331838  1
  Ni  Ni183  1  0.09521372  0.07574309  0.13387572  1
  Ni  Ni184  1  0.59111421  0.80803053  0.59671082  1
  Ni  Ni185  1  0.97304358  0.47060550  0.33832956  1
  Ni  Ni186  1  0.12844008  0.11966918  0.48157477  1
  Ni  Ni187  1  0.00112835  0.48377804  0.71495370  1
  Ni  Ni188  1  0.40766442  0.70605313  0.13345993  1
  Ni  Ni189  1  0.53785479  0.12771002  0.55077068  1
  Ni  Ni190  1  0.03985796  0.38191118  0.45446703  1
  Ni  Ni191  1  0.44936723  0.73238034  0.83442544  1
  Ni  Ni192  1  0.28752912  0.14437224  0.96516064  1
  Ni  Ni193  1  0.49450893  0.62315282  0.71738063  1
  Ni  Ni194  1  0.31825659  0.81490433  0.05996671  1
  Ni  Ni195  1  0.28189798  0.75249757  0.54311420  1
  Ni  Ni196  1  0.67304787  0.47519392  0.31586560  1
  Ni  Ni197  1  0.17583220  0.04636657  0.26721377  1
  Ni  Ni198  1  0.55517699  0.35447426  0.66251128  1
  Ni  Ni199  1  0.46511018  0.46290190  0.76795040  1
  Ni  Ni200  1  0.89334449  0.82467036  0.47618547  1
  Ni  Ni201  1  0.65545348  0.58808445  0.43779609  1
  Ni  Ni202  1  0.75425196  0.65333896  0.83716689  1
  Ni  Ni203  1  0.49094576  0.93869429  0.29006001  1
  Ni  Ni204  1  0.47800778  0.34751365  0.36467081  1
  Ni  Ni205  1  0.46410288  0.56165566  1.08468171  1
  Ni  Ni206  1  0.21252334  0.31905142  0.84807647  1
  Ni  Ni207  1  0.17732047  0.57301099  0.94463721  1
  Ni  Ni208  1  0.91911289  0.64951337  0.42886219  1
  Ni  Ni209  1  0.04844852  0.74549324  0.41002984  1
  Ni  Ni210  1  0.84580487  0.50563981  0.57957739  1
  Ni  Ni211  1  0.23415881  0.63816054  0.08021595  1
  Ni  Ni212  1  0.31790782  0.32662858  0.40622197  1
  Ni  Ni213  1  0.42186264  0.18350636  0.85626735  1
  Ni  Ni214  1  0.38464049  0.18447780  0.37753457  1
  Ni  Ni215  1  0.90406189  0.33562321  0.74334568  1
