# generated using pymatgen
data_Ti2CoNi
_symmetry_space_group_name_H-M   'P 1'
_cell_length_a   14.70271332
_cell_length_b   14.63965637
_cell_length_c   14.68711728
_cell_angle_alpha   90.19879375
_cell_angle_beta   90.24678815
_cell_angle_gamma   89.98868138
_symmetry_Int_Tables_number   1
_chemical_formula_structural   Ti2CoNi
_chemical_formula_sum   'Ti108 Co54 Ni54'
_cell_volume   3161.24594371
_cell_formula_units_Z   54
loop_
 _symmetry_equiv_pos_site_id
 _symmetry_equiv_pos_as_xyz
  1  'x, y, z'
loop_
 _atom_site_type_symbol
 _atom_site_label
 _atom_site_symmetry_multiplicity
 _atom_site_fract_x
 _atom_site_fract_y
 _atom_site_fract_z
 _atom_site_occupancy
  Ti  Ti0  1  0.02725331  -0.03810255  0.00300967  1
  Ti  Ti1  1  -0.02019970  0.06599872  0.29420132  1
  Ti  Ti2  1  0.03826482  -0.01970031  0.74463790  1
  Ti  Ti3  1  0.01107438  0.36797215  -0.11511691  1
  Ti  Ti4  1  -0.00227194  0.28611722  0.36523039  1
  Ti  Ti5  1  0.01536907  0.33909435  0.68011716  1
  Ti  Ti6  1  0.04446473  0.55844046  -0.04293991  1
  Ti  Ti7  1  -0.00017192  0.61218194  0.34327632  1
  Ti  Ti8  1  0.02056956  0.64341207  0.65048879  1
  Ti  Ti9  1  0.34995574  0.04671107  -0.00760326  1
  Ti  Ti10  1  0.28962208  -0.05775221  0.35437116  1
  Ti  Ti11  1  0.37379327  0.00958556  0.65902131  1
  Ti  Ti12  1  0.27415542  0.31712644  -0.00256340  1
  Ti  Ti13  1  0.35450241  0.30627953  0.39237676  1
  Ti  Ti14  1  0.36184268  0.32086988  0.69152756  1
  Ti  Ti15  1  0.37834496  0.68438955  -0.00763571  1
  Ti  Ti16  1  0.36624429  0.72057971  0.26370158  1
  Ti  Ti17  1  0.30146981  0.62713062  0.69242750  1
  Ti  Ti18  1  0.67725164  -0.03037746  0.07858090  1
  Ti  Ti19  1  0.63655866  -0.03653779  0.27729880  1
  Ti  Ti20  1  0.61475768  -0.01166500  0.66806953  1
  Ti  Ti21  1  0.59748026  0.32889309  0.06333754  1
  Ti  Ti22  1  0.73906060  0.32408781  0.35173236  1
  Ti  Ti23  1  0.64827740  0.43539453  0.67373842  1
  Ti  Ti24  1  0.66898992  0.72409819  -0.00555873  1
  Ti  Ti25  1  0.67928705  0.69925156  0.33867223  1
  Ti  Ti26  1  0.70398102  0.67165047  0.62590479  1
  Ti  Ti27  1  0.00004648  0.22966791  0.12457683  1
  Ti  Ti28  1  -0.05310448  0.11050932  0.48187017  1
  Ti  Ti29  1  0.01851983  0.14749270  0.90856597  1
  Ti  Ti30  1  -0.08895908  0.45720652  0.06683218  1
  Ti  Ti31  1  -0.01432047  0.45202758  0.50685272  1
  Ti  Ti32  1  0.11332456  0.48172763  0.76335520  1
  Ti  Ti33  1  0.01695986  0.77415271  0.16336677  1
  Ti  Ti34  1  -0.01180206  0.92281375  0.50093675  1
  Ti  Ti35  1  -0.12181591  0.88269623  0.80827372  1
  Ti  Ti36  1  0.31802685  0.14054594  0.14863326  1
  Ti  Ti37  1  0.28660179  0.13725190  0.47323434  1
  Ti  Ti38  1  0.36490111  0.20360833  0.85292472  1
  Ti  Ti39  1  0.37422499  0.52937724  0.13527219  1
  Ti  Ti40  1  0.34365907  0.51584269  0.51852029  1
  Ti  Ti41  1  0.28174304  0.50768120  0.86290132  1
  Ti  Ti42  1  0.27817502  0.83618463  0.13488708  1
  Ti  Ti43  1  0.31544133  0.82212564  0.59973708  1
  Ti  Ti44  1  0.31978770  0.85220717  0.81433220  1
  Ti  Ti45  1  0.70147935  0.16322919  0.20047268  1
  Ti  Ti46  1  0.64751874  0.15610762  0.45278489  1
  Ti  Ti47  1  0.67798431  0.15186484  0.81441987  1
  Ti  Ti48  1  0.57997475  0.49495142  0.17063594  1
  Ti  Ti49  1  0.68525915  0.43347689  0.48886051  1
  Ti  Ti50  1  0.60605403  0.54737732  0.84119344  1
  Ti  Ti51  1  0.73078232  0.80261853  0.17344124  1
  Ti  Ti52  1  0.66801419  0.85986361  0.51416125  1
  Ti  Ti53  1  0.67073366  0.82553826  0.77165411  1
  Ti  Ti54  1  0.15898781  -0.02211691  0.19724058  1
  Ti  Ti55  1  0.12980666  0.00636555  0.41185379  1
  Ti  Ti56  1  0.18472810  0.00053809  0.87535579  1
  Ti  Ti57  1  0.28389240  0.32645578  0.20858809  1
  Ti  Ti58  1  0.13910150  0.31980820  0.50625952  1
  Ti  Ti59  1  0.17705215  0.28951278  0.81486305  1
  Ti  Ti60  1  0.17527262  0.65514022  0.25076897  1
  Ti  Ti61  1  0.22493885  0.68523423  0.46296309  1
  Ti  Ti62  1  0.13155417  0.65808804  0.81630028  1
  Ti  Ti63  1  0.48237868  -0.04610997  0.15335834  1
  Ti  Ti64  1  0.49529783  0.10763460  0.54843251  1
  Ti  Ti65  1  0.51261413  0.04194884  0.81994558  1
  Ti  Ti66  1  0.48233182  0.36933265  0.25420757  1
  Ti  Ti67  1  0.51925492  0.33993994  0.48407522  1
  Ti  Ti68  1  0.56181435  0.33759821  0.83317804  1
  Ti  Ti69  1  0.53578089  0.67687596  0.14769845  1
  Ti  Ti70  1  0.44308598  0.65849833  0.43662898  1
  Ti  Ti71  1  0.52072089  0.73911707  0.86182068  1
  Ti  Ti72  1  0.82196043  -0.02786525  0.21822609  1
  Ti  Ti73  1  0.79038512  0.01763570  0.55928440  1
  Ti  Ti74  1  0.73400624  -0.00687457  0.89605678  1
  Ti  Ti75  1  0.80632183  0.30476263  0.13136953  1
  Ti  Ti76  1  0.83379307  0.35761603  0.59995588  1
  Ti  Ti77  1  0.83553600  0.28415810  0.84545005  1
  Ti  Ti78  1  0.74422334  0.60695576  0.16615853  1
  Ti  Ti79  1  0.87855478  0.61188020  0.51928631  1
  Ti  Ti80  1  0.87781752  0.69518681  0.90515071  1
  Ti  Ti81  1  0.16013750  0.11012496  0.04729764  1
  Ti  Ti82  1  0.13341888  0.17304344  0.25293877  1
  Ti  Ti83  1  0.13757809  0.10868059  0.59918532  1
  Ti  Ti84  1  0.18080067  0.48586370  0.11201386  1
  Ti  Ti85  1  0.18760539  0.46100573  0.35384952  1
  Ti  Ti86  1  0.15963353  0.50563894  0.58318237  1
  Ti  Ti87  1  0.17619954  0.76682523  -0.02763845  1
  Ti  Ti88  1  0.07806894  0.78570909  0.37887334  1
  Ti  Ti89  1  0.14549927  0.81882573  0.71502005  1
  Ti  Ti90  1  0.51441918  0.19129547  -0.03343405  1
  Ti  Ti91  1  0.44010850  0.05664396  0.33913901  1
  Ti  Ti92  1  0.56177629  0.25332573  0.65444714  1
  Ti  Ti93  1  0.47345313  0.50145288  -0.02715423  1
  Ti  Ti94  1  0.57742019  0.53028207  0.36562884  1
  Ti  Ti95  1  0.46374508  0.50579932  0.68683814  1
  Ti  Ti96  1  0.44966149  0.89092465  -0.03681811  1
  Ti  Ti97  1  0.51503614  0.84435225  0.39458328  1
  Ti  Ti98  1  0.53096617  0.77731691  0.63564674  1
  Ti  Ti99  1  0.82524708  0.14255040  0.00159658  1
  Ti  Ti100  1  0.80101953  0.11647060  0.35121841  1
  Ti  Ti101  1  0.83023624  0.17393333  0.66550226  1
  Ti  Ti102  1  0.76964281  0.55046587  -0.03510526  1
  Ti  Ti103  1  0.86957328  0.48786176  0.26366299  1
  Ti  Ti104  1  0.80078820  0.54910941  0.75896600  1
  Ti  Ti105  1  0.86000686  0.87574267  0.03250106  1
  Ti  Ti106  1  0.88558965  0.80798293  0.32071534  1
  Ti  Ti107  1  0.90560277  0.80160221  0.61588018  1
  Co  Co108  1  0.17757544  0.67758492  0.62007597  1
  Co  Co109  1  0.71646107  0.49977379  0.30492929  1
  Co  Co110  1  0.04159627  0.91149891  0.28914484  1
  Co  Co111  1  0.76061371  0.86305809  0.64734013  1
  Co  Co112  1  0.40884025  0.87595556  0.27259377  1
  Co  Co113  1  0.73259029  0.85239887  0.34664623  1
  Co  Co114  1  0.60168561  0.89207045  0.90412259  1
  Co  Co115  1  0.77554851  0.74460659  0.47928701  1
  Co  Co116  1  0.94016770  0.74623899  0.45965115  1
  Co  Co117  1  0.48267573  0.89128804  0.76910822  1
  Co  Co118  1  0.20368400  0.82484134  0.28569004  1
  Co  Co119  1  0.84089014  0.46781110  0.42999844  1
  Co  Co120  1  0.07220187  0.77777994  0.55232781  1
  Co  Co121  1  0.71365601  0.28682149  0.72075425  1
  Co  Co122  1  0.78583542  0.51279309  0.60070477  1
  Co  Co123  1  0.71753240  0.58951837  0.46865568  1
  Co  Co124  1  0.15783580  0.43121559  0.93947373  1
  Co  Co125  1  0.43861868  0.64801082  0.59817137  1
  Co  Co126  1  0.69472864  0.28110090  0.54982208  1
  Co  Co127  1  0.55503273  0.23033957  0.17171599  1
  Co  Co128  1  0.10319314  0.26628991  0.97240554  1
  Co  Co129  1  0.02548537  0.06648892  0.13541776  1
  Co  Co130  1  0.82727233  0.62787818  0.35805690  1
  Co  Co131  1  0.11834545  0.92724832  0.59499169  1
  Co  Co132  1  0.24876446  -0.00802830  0.54161287  1
  Co  Co133  1  0.75792312  0.82715173  0.91925348  1
  Co  Co134  1  0.90011993  0.96302811  0.66061668  1
  Co  Co135  1  0.33449320  0.45799862  0.27293403  1
  Co  Co136  1  0.43306900  0.46555295  0.40120469  1
  Co  Co137  1  0.06970518  0.62263735  0.48932960  1
  Co  Co138  1  0.72740281  0.41314732  0.82209790  1
  Co  Co139  1  0.65655520  0.35320750  0.22098000  1
  Co  Co140  1  0.58088045  0.83921104  0.06405953  1
  Co  Co141  1  0.19757319  0.85219312  0.46995253  1
  Co  Co142  1  0.56345787  0.10023258  0.26332920  1
  Co  Co143  1  0.17318401  0.26282756  0.11357374  1
  Co  Co144  1  0.45589699  0.57610145  0.26944000  1
  Co  Co145  1  0.95800433  0.36618425  0.20442833  1
  Co  Co146  1  0.70452895  0.67705401  0.83119947  1
  Co  Co147  1  0.21840370  0.15915457  0.90245885  1
  Co  Co148  1  0.76045180  0.01180782  0.73268236  1
  Co  Co149  1  0.43239237  0.79662286  0.11623506  1
  Co  Co150  1  0.05859327  0.38998569  0.07150130  1
  Co  Co151  1  0.11274935  0.35273394  0.23448998  1
  Co  Co152  1  0.95921016  0.92478623  0.15591239  1
  Co  Co153  1  0.67228989  0.13564396  0.63277397  1
  Co  Co154  1  0.41164467  0.73754361  0.73847434  1
  Co  Co155  1  0.56465569  0.64632426  0.72380862  1
  Co  Co156  1  0.92187534  0.29052655  -0.00325738  1
  Co  Co157  1  0.86327976  0.12031288  0.16583976  1
  Co  Co158  1  0.68782801  0.27076653  0.92199926  1
  Co  Co159  1  0.28459227  0.46500294  0.69304283  1
  Co  Co160  1  0.82435416  0.71920068  0.06160511  1
  Co  Co161  1  0.20694497  0.59722424  0.97164920  1
  Ni  Ni162  1  0.96887240  0.58955247  0.80477631  1
  Ni  Ni163  1  0.35760661  0.80724450  0.43781192  1
  Ni  Ni164  1  0.83506576  0.71725081  0.73696742  1
  Ni  Ni165  1  0.30592393  0.58840382  0.35513413  1
  Ni  Ni166  1  0.88362617  0.46575800  0.88173835  1
  Ni  Ni167  1  0.98051074  0.10444540  0.64541683  1
  Ni  Ni168  1  0.10226226  0.16785032  0.43723869  1
  Ni  Ni169  1  0.26507139  0.17467522  0.69561058  1
  Ni  Ni170  1  0.86071674  0.10145016  0.83106586  1
  Ni  Ni171  1  0.83868148  0.24321684  0.46176657  1
  Ni  Ni172  1  0.73266204  0.45094287  0.10373624  1
  Ni  Ni173  1  0.66374537  0.15816067  0.03895865  1
  Ni  Ni174  1  0.29394191  0.36616643  0.54150543  1
  Ni  Ni175  1  0.61386965  0.57252395  0.03063616  1
  Ni  Ni176  1  0.10747963  0.65229770  0.09082929  1
  Ni  Ni177  1  0.41099309  0.41953706  0.82061747  1
  Ni  Ni178  1  0.64370812  0.43283580  0.95520126  1
  Ni  Ni179  1  0.94130775  0.49183843  0.66952317  1
  Ni  Ni180  1  0.43965367  0.34089896  0.95824181  1
  Ni  Ni181  1  0.43300534  0.15887782  0.70782858  1
  Ni  Ni182  1  -0.00852193  0.75806073  0.78198338  1
  Ni  Ni183  1  0.26953108  0.66058489  0.11204464  1
  Ni  Ni184  1  1.00715273  0.76062885  0.99062499  1
  Ni  Ni185  1  0.34938015  1.01652734  0.82808014  1
  Ni  Ni186  1  0.43312817  0.59311872  0.83398933  1
  Ni  Ni187  1  0.39437295  -0.01871865  0.48081606  1
  Ni  Ni188  1  0.55921620  0.99588884  0.44957462  1
  Ni  Ni189  1  0.12174582  0.12889030  0.76782742  1
  Ni  Ni190  1  0.97403941  0.21181233  0.76724304  1
  Ni  Ni191  1  0.88773460  0.67391766  0.21644315  1
  Ni  Ni192  1  0.56962952  0.03546238  0.97638027  1
  Ni  Ni193  1  0.87052906  0.24323113  0.27700408  1
  Ni  Ni194  1  0.41457731  0.28184075  0.10661026  1
  Ni  Ni195  1  0.56482547  0.81312444  0.23428423  1
  Ni  Ni196  1  0.19639751  0.28095233  0.36090258  1
  Ni  Ni197  1  0.03880692  0.52117647  0.19238423  1
  Ni  Ni198  1  0.41856816  0.20955910  0.26502806  1
  Ni  Ni199  1  0.39957827  0.23836759  0.55334830  1
  Ni  Ni200  1  0.57854572  0.25209863  0.33519981  1
  Ni  Ni201  1  0.02061098  0.44567113  0.34217688  1
  Ni  Ni202  1  0.21886078  0.98770909  0.71209791  1
  Ni  Ni203  1  0.29186759  0.69210994  0.85343375  1
  Ni  Ni204  1  0.27560540  0.11765647  0.31031104  1
  Ni  Ni205  1  0.94624491  0.62020616  0.07603798  1
  Ni  Ni206  1  0.07024630  0.86425488  0.87406786  1
  Ni  Ni207  1  0.19993245  0.93356814  0.02577552  1
  Ni  Ni208  1  0.53500370  0.52204763  0.53229725  1
  Ni  Ni209  1  0.59607663  0.69699807  0.48738418  1
  Ni  Ni210  1  0.47966137  0.10754715  0.10622694  1
  Ni  Ni211  1  0.18496066  0.34015834  0.66251916  1
  Ni  Ni212  1  0.86867342  0.96498919  0.39129351  1
  Ni  Ni213  1  0.49276615  0.91837964  0.58237402  1
  Ni  Ni214  1  -0.01686745  0.26005127  0.54067567  1
  Ni  Ni215  1  0.71194145  -0.00396924  0.41862775  1
