# generated using pymatgen
data_Ti2CoNi
_symmetry_space_group_name_H-M   'P 1'
_cell_length_a   14.58603983
_cell_length_b   14.61432916
_cell_length_c   14.68666507
_cell_angle_alpha   89.95457702
_cell_angle_beta   90.25555589
_cell_angle_gamma   89.83231321
_symmetry_Int_Tables_number   1
_chemical_formula_structural   Ti2CoNi
_chemical_formula_sum   'Ti108 Co54 Ni54'
_cell_volume   3130.64014421
_cell_formula_units_Z   54
loop_
 _symmetry_equiv_pos_site_id
 _symmetry_equiv_pos_as_xyz
  1  'x, y, z'
loop_
 _atom_site_type_symbol
 _atom_site_label
 _atom_site_symmetry_multiplicity
 _atom_site_fract_x
 _atom_site_fract_y
 _atom_site_fract_z
 _atom_site_occupancy
  Ti  Ti0  1  -0.09233222  0.00519219  0.03148492  1
  Ti  Ti1  1  0.00118538  -0.04473426  0.28089893  1
  Ti  Ti2  1  -0.05176210  0.02761027  0.66210119  1
  Ti  Ti3  1  -0.04244525  0.40442204  0.05692960  1
  Ti  Ti4  1  0.03195763  0.29744301  0.35123027  1
  Ti  Ti5  1  -0.00020271  0.33122280  0.66830623  1
  Ti  Ti6  1  0.01575796  0.74306308  0.03334690  1
  Ti  Ti7  1  -0.02213952  0.63723594  0.43730841  1
  Ti  Ti8  1  0.02490910  0.62637556  0.62899501  1
  Ti  Ti9  1  0.33737259  -0.07239966  -0.03519058  1
  Ti  Ti10  1  0.39928263  -0.00194563  0.36624998  1
  Ti  Ti11  1  0.25335709  0.04573562  0.61734231  1
  Ti  Ti12  1  0.29997210  0.38668823  0.00654211  1
  Ti  Ti13  1  0.32517038  0.34368343  0.28784189  1
  Ti  Ti14  1  0.29097653  0.34635452  0.72378288  1
  Ti  Ti15  1  0.30399306  0.73363256  0.03909448  1
  Ti  Ti16  1  0.28440594  0.67343100  0.35780122  1
  Ti  Ti17  1  0.37487080  0.65492289  0.67847999  1
  Ti  Ti18  1  0.67912563  -0.09568935  -0.00440665  1
  Ti  Ti19  1  0.67729374  0.01748759  0.31682159  1
  Ti  Ti20  1  0.71262658  0.08617153  0.62191989  1
  Ti  Ti21  1  0.62451574  0.34143297  -0.06253156  1
  Ti  Ti22  1  0.73516912  0.35605498  0.32525223  1
  Ti  Ti23  1  0.62109825  0.30800970  0.72273179  1
  Ti  Ti24  1  0.68825573  0.71621924  0.02291329  1
  Ti  Ti25  1  0.71210306  0.66881986  0.29481684  1
  Ti  Ti26  1  0.61217341  0.64659548  0.73572541  1
  Ti  Ti27  1  -0.01878499  0.17714444  0.09400874  1
  Ti  Ti28  1  0.05886617  0.11141217  0.50397346  1
  Ti  Ti29  1  0.02622573  0.12825239  0.89723651  1
  Ti  Ti30  1  -0.02836231  0.54467553  0.25740619  1
  Ti  Ti31  1  0.03388445  0.45904912  0.53022463  1
  Ti  Ti32  1  -0.02311846  0.47935973  0.78173076  1
  Ti  Ti33  1  -0.01483719  0.76060047  0.22327087  1
  Ti  Ti34  1  0.01112595  0.82524062  0.57237240  1
  Ti  Ti35  1  0.04659508  0.89689585  0.75991959  1
  Ti  Ti36  1  0.35305501  0.10538356  0.19321327  1
  Ti  Ti37  1  0.40173933  0.13346218  0.51009434  1
  Ti  Ti38  1  0.37245940  0.10462721  0.86735395  1
  Ti  Ti39  1  0.32817298  0.58983536  0.19275931  1
  Ti  Ti40  1  0.29207771  0.43027628  0.49153233  1
  Ti  Ti41  1  0.25419030  0.50003413  0.83661402  1
  Ti  Ti42  1  0.32308646  0.90510903  0.16638645  1
  Ti  Ti43  1  0.33874435  0.77085922  0.53551484  1
  Ti  Ti44  1  0.32740553  0.78777991  0.82143113  1
  Ti  Ti45  1  0.62276375  0.15533570  0.17822233  1
  Ti  Ti46  1  0.66118690  0.24075224  0.49261021  1
  Ti  Ti47  1  0.65694500  0.15525657  0.82700558  1
  Ti  Ti48  1  0.68640491  0.42403286  0.13421367  1
  Ti  Ti49  1  0.59046980  0.51326808  0.45201515  1
  Ti  Ti50  1  0.75922436  0.46134988  0.82899770  1
  Ti  Ti51  1  0.73930412  0.84577547  0.19022508  1
  Ti  Ti52  1  0.63248218  0.81948177  0.48545318  1
  Ti  Ti53  1  0.66037333  0.84786039  0.75851732  1
  Ti  Ti54  1  0.14588837  0.01746616  0.17314914  1
  Ti  Ti55  1  0.17088996  -0.06122103  0.45978774  1
  Ti  Ti56  1  0.23298401  -0.03057343  0.79762937  1
  Ti  Ti57  1  0.14208111  0.31633377  0.15006196  1
  Ti  Ti58  1  0.21413899  0.23976077  0.46340245  1
  Ti  Ti59  1  0.18403419  0.24713769  0.86397725  1
  Ti  Ti60  1  0.14349605  0.64268983  0.16254208  1
  Ti  Ti61  1  0.15325523  0.74052187  0.47070168  1
  Ti  Ti62  1  0.10181559  0.62620544  0.85148721  1
  Ti  Ti63  1  0.49772552  -0.00929973  0.09544363  1
  Ti  Ti64  1  0.53397738  -0.00861073  0.54462629  1
  Ti  Ti65  1  0.54072598  -0.00764984  0.87523678  1
  Ti  Ti66  1  0.52511559  0.36836911  0.22970412  1
  Ti  Ti67  1  0.46085415  0.32341669  0.53914363  1
  Ti  Ti68  1  0.45692183  0.39677547  0.83660481  1
  Ti  Ti69  1  0.57135102  0.68505437  0.17858799  1
  Ti  Ti70  1  0.52695551  0.67028463  0.54838945  1
  Ti  Ti71  1  0.47794331  0.62665998  0.86259517  1
  Ti  Ti72  1  0.81463286  0.06708367  0.17840563  1
  Ti  Ti73  1  0.78604129  -0.04635275  0.48194990  1
  Ti  Ti74  1  0.74913507  0.00393077  0.85685150  1
  Ti  Ti75  1  0.82085705  0.27340995  0.17166257  1
  Ti  Ti76  1  0.87204599  0.35773074  0.48537095  1
  Ti  Ti77  1  0.83533312  0.27891916  0.76437566  1
  Ti  Ti78  1  0.83757410  0.66879765  0.13768178  1
  Ti  Ti79  1  0.75433212  0.66886660  0.48053471  1
  Ti  Ti80  1  0.86322716  0.67876223  0.92449148  1
  Ti  Ti81  1  0.20671267  0.16755413  0.04955758  1
  Ti  Ti82  1  0.18590749  0.17583677  0.28103575  1
  Ti  Ti83  1  0.13657583  0.21019909  0.66131893  1
  Ti  Ti84  1  0.12493790  0.51533942  0.01911564  1
  Ti  Ti85  1  0.17542559  0.50634928  0.31355757  1
  Ti  Ti86  1  0.21013975  0.52299587  0.64273568  1
  Ti  Ti87  1  0.16226529  0.81424124  -0.08078229  1
  Ti  Ti88  1  0.16145086  0.83578996  0.26890109  1
  Ti  Ti89  1  0.20141418  0.83236263  0.65918652  1
  Ti  Ti90  1  0.48674185  0.18197711  0.01408270  1
  Ti  Ti91  1  0.50618345  0.21631352  0.35498537  1
  Ti  Ti92  1  0.43810902  0.21080244  0.70749316  1
  Ti  Ti93  1  0.45986208  0.57749397  0.06600330  1
  Ti  Ti94  1  0.47841526  0.54226174  0.29433346  1
  Ti  Ti95  1  0.53133597  0.48500274  0.66331061  1
  Ti  Ti96  1  0.49104378  0.80874309  -0.02531252  1
  Ti  Ti97  1  0.46070681  0.80267999  0.39904613  1
  Ti  Ti98  1  0.49522441  0.84049181  0.64432333  1
  Ti  Ti99  1  0.75355287  0.17114945  0.01936875  1
  Ti  Ti100  1  0.89057146  0.10764146  0.34037610  1
  Ti  Ti101  1  0.87591143  0.19998433  0.59771946  1
  Ti  Ti102  1  0.80491293  0.52349404  0.01241184  1
  Ti  Ti103  1  0.81071429  0.51995590  0.38337104  1
  Ti  Ti104  1  0.81705414  0.58356925  0.67015577  1
  Ti  Ti105  1  0.91429152  0.89585606  -0.10529908  1
  Ti  Ti106  1  0.88025327  0.80504910  0.40559315  1
  Ti  Ti107  1  0.87989715  0.77569390  0.72363686  1
  Co  Co108  1  0.57719269  0.66934105  0.37664927  1
  Co  Co109  1  0.40102053  0.43813388  0.14988113  1
  Co  Co110  1  0.13795706  0.56726316  0.46632892  1
  Co  Co111  1  0.07260161  0.05397300  0.03434379  1
  Co  Co112  1  0.07294171  0.95304799  0.91405238  1
  Co  Co113  1  0.04152544  0.90326769  0.09717781  1
  Co  Co114  1  0.35125562  0.88733741  0.66863753  1
  Co  Co115  1  0.50537171  0.06904584  0.26526084  1
  Co  Co116  1  0.86525446  0.42275873  0.65271557  1
  Co  Co117  1  0.38588008  0.51537776  0.92726985  1
  Co  Co118  1  0.19762925  0.94845291  0.03183961  1
  Co  Co119  1  0.04900471  0.28305787  0.52026264  1
  Co  Co120  1  0.22824154  0.67324563  0.75463841  1
  Co  Co121  1  0.70229367  0.44709912  0.68089492  1
  Co  Co122  1  0.74956013  0.30539038  0.61552549  1
  Co  Co123  1  0.55722812  0.94018274  0.38087445  1
  Co  Co124  1  0.75960893  0.67812353  0.79550033  1
  Co  Co125  1  0.58511085  0.84391190  0.11818809  1
  Co  Co126  1  0.07770626  0.46684611  0.17125794  1
  Co  Co127  1  0.59219422  0.80792985  0.28569584  1
  Co  Co128  1  0.88735918  0.54027516  0.53264444  1
  Co  Co129  1  0.81939950  0.10638388  0.73858398  1
  Co  Co130  1  0.43637782  0.76902815  0.12356000  1
  Co  Co131  1  0.58034724  0.09772953  0.43404670  1
  Co  Co132  1  0.19229536  0.67844252  0.60394960  1
  Co  Co133  1  0.10604573  0.97077267  0.61990740  1
  Co  Co134  1  0.44060770  0.70710165  0.27248734  1
  Co  Co135  1  1.00972722  0.76778879  0.86928824  1
  Co  Co136  1  0.27866837  0.55820865  0.03981590  1
  Co  Co137  1  0.46610534  0.22045136  0.18801710  1
  Co  Co138  1  0.59702460  0.47910114  0.80722767  1
  Co  Co139  1  0.72583892  0.83686345  0.36275406  1
  Co  Co140  1  0.47155036  0.90229591  0.23535785  1
  Co  Co141  1  0.74217950  0.44739908  0.51602229  1
  Co  Co142  1  0.16394263  0.80296462  0.10594074  1
  Co  Co143  1  0.09739972  0.06064834  0.35886262  1
  Co  Co144  1  0.60791469  0.37882049  0.56443441  1
  Co  Co145  1  0.89092139  0.06608845  0.51345722  1
  Co  Co146  1  0.97244585  0.59065811  0.09338070  1
  Co  Co147  1  0.76093252  0.27794071  0.89257217  1
  Co  Co148  1  0.28734178  0.75143834  0.20755372  1
  Co  Co149  1  0.92691547  0.21058018  0.44510445  1
  Co  Co150  1  0.24581437  0.08258358  0.44851187  1
  Co  Co151  1  0.07791625  0.73725115  0.72768628  1
  Co  Co152  1  0.29116534  0.59991904  0.50507636  1
  Co  Co153  1  -0.03257572  0.54568991  0.93763151  1
  Co  Co154  1  0.78773901  0.35913421  0.02644419  1
  Co  Co155  1  0.88493444  0.71679662  0.56670312  1
  Co  Co156  1  0.42848773  0.62746180  0.42573889  1
  Co  Co157  1  0.86989367  0.66937543  0.31218399  1
  Co  Co158  1  0.17197132  0.36386879  0.59256723  1
  Co  Co159  1  0.94214774  0.63658211  0.78794933  1
  Co  Co160  1  0.20157315  0.07288919  0.91399893  1
  Co  Co161  1  0.90600761  0.25482815  -0.02249265  1
  Ni  Ni162  1  0.83590390  0.94462266  0.31092493  1
  Ni  Ni163  1  0.40625836  0.94028833  0.80916864  1
  Ni  Ni164  1  0.63993937  0.56708175  0.07203461  1
  Ni  Ni165  1  0.68166544  0.91554010  0.61135012  1
  Ni  Ni166  1  1.02161417  0.15016069  0.24600880  1
  Ni  Ni167  1  0.43450235  0.40524684  0.39618430  1
  Ni  Ni168  1  0.11135318  0.07604085  0.76193741  1
  Ni  Ni169  1  0.35064444  0.27278955  0.87775744  1
  Ni  Ni170  1  0.66447363  0.57867397  0.59036880  1
  Ni  Ni171  1  0.61673780  0.74182634  0.88055884  1
  Ni  Ni172  1  0.13200403  0.40389189  0.90364106  1
  Ni  Ni173  1  0.23907480  0.44799350  0.15842713  1
  Ni  Ni174  1  0.62300059  0.07336481  0.99470352  1
  Ni  Ni175  1  0.67000961  -0.00395577  0.13370629  1
  Ni  Ni176  1  0.51045326  0.22981573  0.85540513  1
  Ni  Ni177  1  0.85713218  0.12485719  0.89269633  1
  Ni  Ni178  1  0.83403765  0.81630701  0.03645917  1
  Ni  Ni179  1  0.35537069  0.94798907  0.51821658  1
  Ni  Ni180  1  0.31269044  0.28087789  0.13753668  1
  Ni  Ni181  1  0.13025197  0.40741161  0.74443492  1
  Ni  Ni182  1  0.67248860  0.58584891  0.90788968  1
  Ni  Ni183  1  0.71311930  0.74031053  0.63039029  1
  Ni  Ni184  1  0.27414714  0.15819244  0.74476367  1
  Ni  Ni185  1  0.04047984  0.81530940  0.38236174  1
  Ni  Ni186  1  0.42150387  0.04456552  0.68138769  1
  Ni  Ni187  1  0.30667210  0.24684886  0.59699789  1
  Ni  Ni188  1  0.29190169  0.84778466  0.38138155  1
  Ni  Ni189  1  0.89432371  0.39876619  0.90232921  1
  Ni  Ni190  1  0.89430678  0.89893920  0.16278026  1
  Ni  Ni191  1  -0.01501769  0.31558994  0.19654336  1
  Ni  Ni192  1  0.54684798  0.48519098  0.96039648  1
  Ni  Ni193  1  0.07759233  0.28057174  0.99359148  1
  Ni  Ni194  1  0.34451059  0.07358382  0.03133099  1
  Ni  Ni195  1  0.48995710  0.78965557  0.79482091  1
  Ni  Ni196  1  0.80175673  0.51828670  0.21065866  1
  Ni  Ni197  1  0.75478110  0.11784749  0.44440707  1
  Ni  Ni198  1  0.34301857  0.17931560  0.34871214  1
  Ni  Ni199  1  0.58887622  1.01358225  0.71598138  1
  Ni  Ni200  1  0.99292918  0.95296847  0.46471236  1
  Ni  Ni201  1  0.76934948  0.82039985  0.88001000  1
  Ni  Ni202  1  0.58965114  0.36207878  0.39487000  1
  Ni  Ni203  1  0.10347872  0.66429911  0.32355283  1
  Ni  Ni204  1  0.24311607  -0.00764055  0.30451525  1
  Ni  Ni205  1  0.73037107  0.19042540  0.30132709  1
  Ni  Ni206  1  0.59553828  0.28991578  0.09359851  1
  Ni  Ni207  1  0.14727064  0.39254436  0.42563739  1
  Ni  Ni208  1  0.82724892  0.93276575  0.72937503  1
  Ni  Ni209  1  0.97540794  0.17902325  0.74472649  1
  Ni  Ni210  1  0.89663218  0.39670521  0.30223269  1
  Ni  Ni211  1  0.42467577  0.51478136  0.54375534  1
  Ni  Ni212  1  0.55239536  0.15293684  0.60132511  1
  Ni  Ni213  1  0.37379559  0.49430638  0.71494616  1
  Ni  Ni214  1  0.27643332  0.64836935  0.90397362  1
  Ni  Ni215  1  0.64601395  0.50451602  0.28652210  1
