# generated using pymatgen
data_Ti2CoNi
_symmetry_space_group_name_H-M   'P 1'
_cell_length_a   14.58875972
_cell_length_b   14.61903524
_cell_length_c   14.61526845
_cell_angle_alpha   89.90245547
_cell_angle_beta   89.89554180
_cell_angle_gamma   89.87891948
_symmetry_Int_Tables_number   1
_chemical_formula_structural   Ti2CoNi
_chemical_formula_sum   'Ti108 Co54 Ni54'
_cell_volume   3117.03417144
_cell_formula_units_Z   54
loop_
 _symmetry_equiv_pos_site_id
 _symmetry_equiv_pos_as_xyz
  1  'x, y, z'
loop_
 _atom_site_type_symbol
 _atom_site_label
 _atom_site_symmetry_multiplicity
 _atom_site_fract_x
 _atom_site_fract_y
 _atom_site_fract_z
 _atom_site_occupancy
  Ti  Ti0  1  0.10167941  0.03954237  0.01768983  1
  Ti  Ti1  1  -0.00558399  0.04735902  0.40754176  1
  Ti  Ti2  1  0.05911515  -0.03750900  0.61194602  1
  Ti  Ti3  1  -0.02414159  0.34415046  -0.04213938  1
  Ti  Ti4  1  -0.00397187  0.33081396  0.29050086  1
  Ti  Ti5  1  -0.08132313  0.37344467  0.64556054  1
  Ti  Ti6  1  0.07495216  0.71154470  -0.02852177  1
  Ti  Ti7  1  0.03187735  0.62198648  0.40248392  1
  Ti  Ti8  1  -0.03264596  0.68426174  0.70681436  1
  Ti  Ti9  1  0.33544473  -0.00653461  -0.04506625  1
  Ti  Ti10  1  0.27032651  0.06134689  0.33620324  1
  Ti  Ti11  1  0.31722843  0.09237211  0.70870831  1
  Ti  Ti12  1  0.37998862  0.35532022  0.15135733  1
  Ti  Ti13  1  0.36962164  0.34794379  0.34335246  1
  Ti  Ti14  1  0.33732564  0.39513208  0.63400142  1
  Ti  Ti15  1  0.27946952  0.68129419  -0.04599222  1
  Ti  Ti16  1  0.37719905  0.63491927  0.29971088  1
  Ti  Ti17  1  0.36155126  0.63152664  0.74834441  1
  Ti  Ti18  1  0.70612739  0.02627651  0.01665334  1
  Ti  Ti19  1  0.69199726  -0.01328903  0.33381661  1
  Ti  Ti20  1  0.62207617  0.01061044  0.65803499  1
  Ti  Ti21  1  0.67029393  0.34650326  -0.07182789  1
  Ti  Ti22  1  0.66614497  0.31172256  0.27031146  1
  Ti  Ti23  1  0.67241589  0.30327682  0.65811537  1
  Ti  Ti24  1  0.57494166  0.73858816  -0.01178238  1
  Ti  Ti25  1  0.61160785  0.67755296  0.31722050  1
  Ti  Ti26  1  0.67692808  0.70308849  0.63059850  1
  Ti  Ti27  1  -0.07280358  0.22620020  0.12768714  1
  Ti  Ti28  1  0.00517757  0.23032488  0.48034258  1
  Ti  Ti29  1  0.01058037  0.08654483  0.78093694  1
  Ti  Ti30  1  0.01984019  0.63056495  0.18306586  1
  Ti  Ti31  1  0.04160042  0.42507622  0.48907121  1
  Ti  Ti32  1  0.02192343  0.54744611  0.86580217  1
  Ti  Ti33  1  -0.08396284  0.81255975  0.19500991  1
  Ti  Ti34  1  -0.01653249  0.82708231  0.43980543  1
  Ti  Ti35  1  -0.07903277  0.82581531  0.87529567  1
  Ti  Ti36  1  0.37519196  0.18195467  0.22672306  1
  Ti  Ti37  1  0.29837864  0.10593286  0.52288323  1
  Ti  Ti38  1  0.30269376  0.18502686  0.88098499  1
  Ti  Ti39  1  0.32959432  0.54244049  0.10027533  1
  Ti  Ti40  1  0.35488823  0.49466128  0.45755235  1
  Ti  Ti41  1  0.33680282  0.49461448  0.88288877  1
  Ti  Ti42  1  0.29956717  0.84069373  0.19496316  1
  Ti  Ti43  1  0.31206598  0.80011840  0.46872381  1
  Ti  Ti44  1  0.38929209  0.80436452  0.81639611  1
  Ti  Ti45  1  0.72287922  0.21068949  0.10229940  1
  Ti  Ti46  1  0.61457297  0.27210659  0.46846799  1
  Ti  Ti47  1  0.58878758  0.11849637  0.84811376  1
  Ti  Ti48  1  0.63163928  0.49770333  0.20316398  1
  Ti  Ti49  1  0.64294244  0.46138397  0.53638455  1
  Ti  Ti50  1  0.72965894  0.52456320  0.83885448  1
  Ti  Ti51  1  0.62548847  0.83486360  0.19517220  1
  Ti  Ti52  1  0.71442235  0.88044403  0.51055039  1
  Ti  Ti53  1  0.70812980  0.77371790  0.84224056  1
  Ti  Ti54  1  0.14356383  -0.01998448  0.21086028  1
  Ti  Ti55  1  0.15382633  -0.07137112  0.43812153  1
  Ti  Ti56  1  0.10679771  -0.07766484  0.85679037  1
  Ti  Ti57  1  0.14701901  0.46241854  0.17622351  1
  Ti  Ti58  1  0.22272753  0.30306541  0.52451492  1
  Ti  Ti59  1  0.12362240  0.27516768  0.82291050  1
  Ti  Ti60  1  0.19986846  0.67639160  0.14776049  1
  Ti  Ti61  1  0.20639381  0.66666544  0.58509298  1
  Ti  Ti62  1  0.14820537  0.71118549  0.77767191  1
  Ti  Ti63  1  0.58012390  0.03654686  0.16228752  1
  Ti  Ti64  1  0.50112848  -0.07788089  0.50204688  1
  Ti  Ti65  1  0.46566032  -0.00874695  0.79395575  1
  Ti  Ti66  1  0.55463305  0.33907542  0.09257375  1
  Ti  Ti67  1  0.42917554  0.21542176  0.47003019  1
  Ti  Ti68  1  0.45464433  0.31069869  0.91732300  1
  Ti  Ti69  1  0.51123645  0.63358830  0.13256133  1
  Ti  Ti70  1  0.44794635  0.65617126  0.53251349  1
  Ti  Ti71  1  0.54567461  0.61361283  0.83594608  1
  Ti  Ti72  1  0.94985270  0.00988679  0.16493573  1
  Ti  Ti73  1  0.82011565  0.05535668  0.50216361  1
  Ti  Ti74  1  0.77915184  0.02902468  0.81078442  1
  Ti  Ti75  1  0.93798211  0.44471661  0.14674395  1
  Ti  Ti76  1  0.80569494  0.25690565  0.51595645  1
  Ti  Ti77  1  0.81742574  0.28420652  0.81505472  1
  Ti  Ti78  1  0.84842410  0.63861505  0.11587250  1
  Ti  Ti79  1  0.86747293  0.69659717  0.50469692  1
  Ti  Ti80  1  0.86839993  0.64357216  0.91905519  1
  Ti  Ti81  1  0.14029866  0.22746867  0.01900635  1
  Ti  Ti82  1  0.12522668  0.17825164  0.28314684  1
  Ti  Ti83  1  0.13524753  0.16248211  0.63807508  1
  Ti  Ti84  1  0.24619341  0.38623446  0.02399267  1
  Ti  Ti85  1  0.18180158  0.46587583  0.37750123  1
  Ti  Ti86  1  0.06579695  0.51862946  0.66046183  1
  Ti  Ti87  1  0.19517634  0.85689652  0.03497444  1
  Ti  Ti88  1  0.10661688  0.79321132  0.28088610  1
  Ti  Ti89  1  0.24103490  0.85654723  0.68514448  1
  Ti  Ti90  1  0.44543033  0.14993817  0.03981590  1
  Ti  Ti91  1  0.50097241  0.07138605  0.34492392  1
  Ti  Ti92  1  0.51976715  0.15647683  0.63981187  1
  Ti  Ti93  1  0.58975708  0.51164343  -0.00546537  1
  Ti  Ti94  1  0.52495517  0.50133743  0.37293422  1
  Ti  Ti95  1  0.49518563  0.49622681  0.65499605  1
  Ti  Ti96  1  0.44368577  0.84608437  0.07798378  1
  Ti  Ti97  1  0.45989904  0.89383770  0.30714050  1
  Ti  Ti98  1  0.54211178  0.84249220  0.67610524  1
  Ti  Ti99  1  0.87900207  0.09808356  -0.01449571  1
  Ti  Ti100  1  0.83198056  0.21336100  0.32662749  1
  Ti  Ti101  1  0.84742059  0.14872420  0.67175138  1
  Ti  Ti102  1  0.79191488  0.48767781  0.02110748  1
  Ti  Ti103  1  0.87101230  0.50035156  0.36745047  1
  Ti  Ti104  1  0.79944226  0.56556214  0.62612390  1
  Ti  Ti105  1  0.75727932  0.79895740  0.05268274  1
  Ti  Ti106  1  0.78916374  0.79903231  0.34156959  1
  Ti  Ti107  1  0.82661347  0.82556834  0.68827342  1
  Co  Co108  1  0.26637843  0.89732211  0.33245546  1
  Co  Co109  1  0.93828084  0.53810047  0.54443475  1
  Co  Co110  1  0.46907047  0.75557877  0.22641224  1
  Co  Co111  1  0.16161873  0.60798846  0.29198164  1
  Co  Co112  1  0.36549222  0.22407856  0.62246329  1
  Co  Co113  1  0.22751450  -0.02552081  0.57639795  1
  Co  Co114  1  0.02928207  0.83972679  0.74156020  1
  Co  Co115  1  0.75629204  0.56228181  0.46358514  1
  Co  Co116  1  0.69553808  0.15949033  0.73607494  1
  Co  Co117  1  0.51501399  0.68208168  0.69192614  1
  Co  Co118  1  0.93266096  0.76016192  1.03646029  1
  Co  Co119  1  0.86506392  0.93005231  0.04884721  1
  Co  Co120  1  0.44047849  -0.00615369  0.09218871  1
  Co  Co121  1  0.25527282  0.61859232  0.43621142  1
  Co  Co122  1  0.74758828  0.71106720  0.21768188  1
  Co  Co123  1  0.96149664  0.13818518  0.27885552  1
  Co  Co124  1  0.27408604  0.98326772  0.10287198  1
  Co  Co125  1  0.54915284  0.78419384  0.82295545  1
  Co  Co126  1  0.25538533  0.73705386  0.32269875  1
  Co  Co127  1  0.06198799  0.13623879  0.14230201  1
  Co  Co128  1  0.02065088  0.89915961  1.00707089  1
  Co  Co129  1  0.30819458  0.23426077  1.04743135  1
  Co  Co130  1  0.80268020  0.42379440  0.54316233  1
  Co  Co131  1  1.03055692  0.49880558  0.29345696  1
  Co  Co132  1  0.22602520  0.12559603  0.15451092  1
  Co  Co133  1  0.06788654  0.33349350  0.11529790  1
  Co  Co134  1  0.14081610  0.74428156  0.43774246  1
  Co  Co135  1  0.67544754  0.62313585  0.10914641  1
  Co  Co136  1  0.51151508  0.35940816  0.26283141  1
  Co  Co137  1  0.48355259  0.88936575  0.92660260  1
  Co  Co138  1  0.70728993  0.38752688  0.10583827  1
  Co  Co139  1  0.71103517  0.71868489  0.45557573  1
  Co  Co140  1  0.89881217  0.66353571  0.29570750  1
  Co  Co141  1  0.93993198  -0.01464123  0.88698758  1
  Co  Co142  1  0.27461993  0.34225222  0.86909893  1
  Co  Co143  1  0.60927722  0.89761109  0.04281827  1
  Co  Co144  1  0.53581171  0.20264574  0.17535545  1
  Co  Co145  1  0.53237176  0.22453398  0.33842656  1
  Co  Co146  1  0.37158305  1.00756042  0.23111538  1
  Co  Co147  1  0.68815125  0.14937141  0.57707202  1
  Co  Co148  1  0.07150162  0.79464719  0.12157984  1
  Co  Co149  1  0.33536492  0.56485330  0.60177371  1
  Co  Co150  1  0.85739095  0.43060698  0.87841599  1
  Co  Co151  1  0.80623098  0.08638609  0.16273453  1
  Co  Co152  1  0.90771236  0.35438814  0.43838540  1
  Co  Co153  1  0.45936318  0.49997089  0.21427155  1
  Co  Co154  1  0.95786881  0.82003060  0.59796431  1
  Co  Co155  1  0.12612622  0.81991690  0.57595978  1
  Co  Co156  1  0.22401804  0.29585736  0.18260342  1
  Co  Co157  1  0.54009811  0.02916267  0.97195914  1
  Co  Co158  1  0.61119346  0.84788311  0.37474324  1
  Co  Co159  1  0.70615689  0.64388327  0.95224686  1
  Co  Co160  1  0.04076496  0.67521862  0.56015625  1
  Co  Co161  1  0.59605546  0.60819324  0.47948054  1
  Ni  Ni162  1  0.37772210  0.77104351  0.63771631  1
  Ni  Ni163  1  0.24426856  0.27688395  0.71148192  1
  Ni  Ni164  1  0.82126174  0.30795521  0.00060357  1
  Ni  Ni165  1  0.13946270  0.11923156  0.46752746  1
  Ni  Ni166  1  0.13023319  0.30297831  0.39150979  1
  Ni  Ni167  1  0.23625423  0.82095097  0.87737314  1
  Ni  Ni168  1  0.00650546  0.92238166  0.30121991  1
  Ni  Ni169  1  0.79288553  0.51738692  0.21906506  1
  Ni  Ni170  1  0.15756504  0.10542316  0.87187682  1
  Ni  Ni171  1  0.29520758  0.96031321  0.80441835  1
  Ni  Ni172  1  0.16321026  0.55833656  0.03127350  1
  Ni  Ni173  1  0.47617046  0.38115648  0.48082691  1
  Ni  Ni174  1  0.39112695  0.94344090  0.64190380  1
  Ni  Ni175  1  0.18347538  0.57441131  0.86930171  1
  Ni  Ni176  1  0.76647069  0.42083839  0.71489052  1
  Ni  Ni177  1  0.43595912  0.61882527  0.96877363  1
  Ni  Ni178  1  0.27003080  0.21976941  0.38177581  1
  Ni  Ni179  1  0.16324388  0.02082376  0.72867767  1
  Ni  Ni180  1  0.57967232  0.43779280  0.81256084  1
  Ni  Ni181  1  0.64233448  0.55476148  0.69963880  1
  Ni  Ni182  1  0.80606764  0.66733039  0.76241456  1
  Ni  Ni183  1  0.97567366  0.10074808  0.57860112  1
  Ni  Ni184  1  0.43722741  0.45042894  0.01506204  1
  Ni  Ni185  1  0.01686285  0.40133320  0.78555146  1
  Ni  Ni186  1  0.44065009  0.19481215  0.78385552  1
  Ni  Ni187  1  0.50363031  0.32469860  0.62960796  1
  Ni  Ni188  1  0.08894104  0.32928568  0.64282544  1
  Ni  Ni189  1  0.42202119  0.39021893  0.77494847  1
  Ni  Ni190  1  0.77287873  0.97743094  0.64128236  1
  Ni  Ni191  1  0.58830408  0.27739795  0.79696370  1
  Ni  Ni192  1  0.19915140  0.47179344  0.56105744  1
  Ni  Ni193  1  0.47461930  0.74370930  0.39285378  1
  Ni  Ni194  1  0.59667289  0.19391489  -0.00137257  1
  Ni  Ni195  1  0.74180844  0.17286741  0.91348032  1
  Ni  Ni196  1  0.67004564  0.14273244  0.25753965  1
  Ni  Ni197  1  0.35894644  0.70594102  0.10316773  1
  Ni  Ni198  1  0.91922479  0.96953834  0.70763140  1
  Ni  Ni199  1  0.77568295  0.90750904  0.91810866  1
  Ni  Ni200  1  0.74407811  0.38044752  0.39861383  1
  Ni  Ni201  1  0.35280747  -0.03325307  0.45062303  1
  Ni  Ni202  1  0.78453710  0.92314608  0.20146924  1
  Ni  Ni203  1  0.00725597  0.17836487  0.92241377  1
  Ni  Ni204  1  0.70310699  0.14293163  0.41218207  1
  Ni  Ni205  1  0.96938163  0.24631176  0.75506561  1
  Ni  Ni206  1  0.11916637  0.42086322  -0.06926992  1
  Ni  Ni207  1  0.82455388  0.33882089  0.20720759  1
  Ni  Ni208  1  0.57796893  0.06811093  0.49163878  1
  Ni  Ni209  1  0.97742858  0.54903504  0.02613448  1
  Ni  Ni210  1  0.22027918  0.55007935  0.71534376  1
  Ni  Ni211  1  0.62597491  0.93667384  0.84001089  1
  Ni  Ni212  1  0.57375669  0.77263191  0.52022862  1
  Ni  Ni213  1  0.85682710  0.94400366  0.38178222  1
  Ni  Ni214  1  0.90401552  0.52257872  0.74913652  1
  Ni  Ni215  1  0.29949543  0.48347350  0.26127139  1
