# generated using pymatgen
data_Ti2CoNi
_symmetry_space_group_name_H-M   'P 1'
_cell_length_a   14.64900789
_cell_length_b   14.67020597
_cell_length_c   14.59685039
_cell_angle_alpha   89.93063309
_cell_angle_beta   90.10926494
_cell_angle_gamma   89.78110926
_symmetry_Int_Tables_number   1
_chemical_formula_structural   Ti2CoNi
_chemical_formula_sum   'Ti108 Co54 Ni54'
_cell_volume   3136.89007460
_cell_formula_units_Z   54
loop_
 _symmetry_equiv_pos_site_id
 _symmetry_equiv_pos_as_xyz
  1  'x, y, z'
loop_
 _atom_site_type_symbol
 _atom_site_label
 _atom_site_symmetry_multiplicity
 _atom_site_fract_x
 _atom_site_fract_y
 _atom_site_fract_z
 _atom_site_occupancy
  Ti  Ti0  1  0.00186743  0.04779096  0.03351993  1
  Ti  Ti1  1  0.06979506  0.02632465  0.22605175  1
  Ti  Ti2  1  0.04707360  -0.06067139  0.67841353  1
  Ti  Ti3  1  0.00186678  0.28566964  0.01018677  1
  Ti  Ti4  1  -0.03665693  0.31639860  0.32695210  1
  Ti  Ti5  1  -0.02166652  0.32728163  0.71962649  1
  Ti  Ti6  1  0.01810144  0.60235623  0.01735028  1
  Ti  Ti7  1  -0.07149242  0.68711213  0.39384210  1
  Ti  Ti8  1  -0.07287919  0.65162001  0.61479888  1
  Ti  Ti9  1  0.37201550  -0.05341057  -0.06231930  1
  Ti  Ti10  1  0.32060460  -0.06923740  0.27859674  1
  Ti  Ti11  1  0.40267210  -0.04494265  0.59592549  1
  Ti  Ti12  1  0.34496389  0.35670573  -0.05161698  1
  Ti  Ti13  1  0.29747499  0.33863394  0.28817291  1
  Ti  Ti14  1  0.36961774  0.31347019  0.66170944  1
  Ti  Ti15  1  0.26592923  0.65890975  0.04652682  1
  Ti  Ti16  1  0.33628066  0.63308322  0.30507798  1
  Ti  Ti17  1  0.41416530  0.67886783  0.63974187  1
  Ti  Ti18  1  0.64467966  0.00765992  0.00416405  1
  Ti  Ti19  1  0.66773559  -0.01939461  0.45059474  1
  Ti  Ti20  1  0.73982883  0.01489939  0.67609604  1
  Ti  Ti21  1  0.55704109  0.34598913  -0.09082378  1
  Ti  Ti22  1  0.70493711  0.31829840  0.32338259  1
  Ti  Ti23  1  0.73693511  0.33123653  0.62101428  1
  Ti  Ti24  1  0.57640653  0.66255961  -0.03010829  1
  Ti  Ti25  1  0.62834645  0.64454577  0.25768098  1
  Ti  Ti26  1  0.71144341  0.72584519  0.68685124  1
  Ti  Ti27  1  -0.06812513  0.18909227  0.16628274  1
  Ti  Ti28  1  0.06406398  0.20597800  0.49405298  1
  Ti  Ti29  1  0.01985077  0.06321568  0.83446327  1
  Ti  Ti30  1  0.04724199  0.48165771  0.21739842  1
  Ti  Ti31  1  0.04436513  0.53934765  0.48658493  1
  Ti  Ti32  1  -0.01699504  0.44939228  0.88489900  1
  Ti  Ti33  1  -0.03450749  0.87622962  0.15904257  1
  Ti  Ti34  1  -0.00322114  0.85362543  0.50178955  1
  Ti  Ti35  1  -0.06236647  0.88333266  0.85454437  1
  Ti  Ti36  1  0.31692398  0.16120122  0.21145445  1
  Ti  Ti37  1  0.34986965  0.14029456  0.51487876  1
  Ti  Ti38  1  0.30538465  0.12548078  0.84115413  1
  Ti  Ti39  1  0.34358610  0.50021475  0.14561323  1
  Ti  Ti40  1  0.31417301  0.60405858  0.50536270  1
  Ti  Ti41  1  0.35506607  0.57862742  0.83455181  1
  Ti  Ti42  1  0.26998339  0.81353939  0.14500166  1
  Ti  Ti43  1  0.28230547  0.79769532  0.46873963  1
  Ti  Ti44  1  0.32433659  0.77453725  0.80617776  1
  Ti  Ti45  1  0.69083152  0.25247619  0.13787109  1
  Ti  Ti46  1  0.66308959  0.15844475  0.55540926  1
  Ti  Ti47  1  0.69008653  0.16898747  0.86237668  1
  Ti  Ti48  1  0.61395319  0.43441590  0.19392050  1
  Ti  Ti49  1  0.69337674  0.45577434  0.50104246  1
  Ti  Ti50  1  0.62371697  0.49135741  0.77587684  1
  Ti  Ti51  1  0.75098155  0.84426548  0.12361354  1
  Ti  Ti52  1  0.67487268  0.78150551  0.45064835  1
  Ti  Ti53  1  0.64609667  0.81567775  0.85834902  1
  Ti  Ti54  1  0.21442783  0.01429435  0.10929252  1
  Ti  Ti55  1  0.16935558  0.03786520  0.55758863  1
  Ti  Ti56  1  0.22722330  -0.05146330  0.77650318  1
  Ti  Ti57  1  0.19485707  0.36268608  0.11314835  1
  Ti  Ti58  1  0.24235423  0.30757361  0.48629356  1
  Ti  Ti59  1  0.15055363  0.32973481  0.83623087  1
  Ti  Ti60  1  0.14823030  0.67015577  0.22155212  1
  Ti  Ti61  1  0.11290558  0.70917713  0.52644395  1
  Ti  Ti62  1  0.16948894  0.71017900  0.90575258  1
  Ti  Ti63  1  0.47024117  0.03241848  0.20000160  1
  Ti  Ti64  1  0.45343368  -0.04712492  0.41335537  1
  Ti  Ti65  1  0.50971090  0.09932091  0.87851021  1
  Ti  Ti66  1  0.51373881  0.23258413  0.24343716  1
  Ti  Ti67  1  0.46099716  0.35223182  0.48986995  1
  Ti  Ti68  1  0.55961962  0.28714845  0.71366622  1
  Ti  Ti69  1  0.45465048  0.68699826  0.14572506  1
  Ti  Ti70  1  0.50092690  0.68202369  0.45022721  1
  Ti  Ti71  1  0.53645053  0.66860572  0.77571928  1
  Ti  Ti72  1  0.74791401  0.03558799  0.23563922  1
  Ti  Ti73  1  0.87839658  -0.00166837  0.54166819  1
  Ti  Ti74  1  0.82384909  0.03323493  0.87290744  1
  Ti  Ti75  1  0.84234782  0.38495590  0.17389620  1
  Ti  Ti76  1  0.92300343  0.35440387  0.53249832  1
  Ti  Ti77  1  0.84491860  0.30647843  0.87079125  1
  Ti  Ti78  1  0.88134214  0.65873092  0.17897071  1
  Ti  Ti79  1  0.76237705  0.63436576  0.51902302  1
  Ti  Ti80  1  0.87936212  0.62899997  0.86551903  1
  Ti  Ti81  1  0.15569350  0.16848035  -0.04505305  1
  Ti  Ti82  1  0.12524334  0.20780394  0.28365547  1
  Ti  Ti83  1  0.20565364  0.21917373  0.66212669  1
  Ti  Ti84  1  0.18101639  0.50146885  -0.07247898  1
  Ti  Ti85  1  0.20412527  0.48186239  0.40685102  1
  Ti  Ti86  1  0.19459222  0.47706034  0.63232801  1
  Ti  Ti87  1  0.09988019  0.87361212  0.02335394  1
  Ti  Ti88  1  0.14758454  0.90887798  0.38440016  1
  Ti  Ti89  1  0.11963023  0.76693920  0.72692275  1
  Ti  Ti90  1  0.45070926  0.19078577  0.05070426  1
  Ti  Ti91  1  0.52424470  0.12863794  0.41364950  1
  Ti  Ti92  1  0.44251591  0.12789994  0.69440185  1
  Ti  Ti93  1  0.49888135  0.48347973  0.04266090  1
  Ti  Ti94  1  0.55984289  0.47287797  0.36904575  1
  Ti  Ti95  1  0.44060382  0.48959089  0.67536419  1
  Ti  Ti96  1  0.53759597  0.85480615  0.03202639  1
  Ti  Ti97  1  0.55715595  0.84433043  0.30292638  1
  Ti  Ti98  1  0.57801112  0.91339273  0.68920872  1
  Ti  Ti99  1  0.78606370  0.11836868  0.05070397  1
  Ti  Ti100  1  0.93192722  0.07209961  0.35334106  1
  Ti  Ti101  1  0.86886070  0.17394605  0.60573895  1
  Ti  Ti102  1  0.76833396  0.56560333  0.01526394  1
  Ti  Ti103  1  0.78540570  0.53228177  0.33289828  1
  Ti  Ti104  1  0.83605056  0.46710617  0.69291827  1
  Ti  Ti105  1  0.89211834  0.77412512  0.01133694  1
  Ti  Ti106  1  0.83000692  0.89497836  0.38954416  1
  Ti  Ti107  1  0.86568067  0.84497402  0.67589891  1
  Co  Co108  1  0.10325607  0.46917264  0.76432222  1
  Co  Co109  1  0.71109822  0.86537070  0.28378043  1
  Co  Co110  1  0.60631059  0.17664142  1.00395820  1
  Co  Co111  1  0.39959658  0.24830405  0.37814542  1
  Co  Co112  1  0.44881742  0.82278501  0.70564126  1
  Co  Co113  1  0.23674713  0.77822183  0.30776443  1
  Co  Co114  1  0.95647531  0.54498008  0.74851675  1
  Co  Co115  1  0.08717541  0.61023147  0.66255526  1
  Co  Co116  1  0.15459672  0.87203957  0.57065836  1
  Co  Co117  1  1.00386756  0.46733218  0.62058084  1
  Co  Co118  1  0.45288331  0.84976833  0.18087321  1
  Co  Co119  1  0.75430020  0.26256248  0.47187012  1
  Co  Co120  1  0.19260001  0.64450009  0.40065413  1
  Co  Co121  1  0.05789035  0.60005051  0.33205092  1
  Co  Co122  1  0.90162498  0.03388973  0.18690752  1
  Co  Co123  1  0.49793899  0.20860285  0.56435001  1
  Co  Co124  1  0.21425291  0.04933426  0.29671105  1
  Co  Co125  1  0.61434964  0.93800880  0.16105820  1
  Co  Co126  1  0.69770017  0.42319457  0.05876504  1
  Co  Co127  1  0.43054991  0.39721469  0.80664707  1
  Co  Co128  1  0.75251038  0.53553097  0.17648708  1
  Co  Co129  1  0.61159478  0.58395527  0.10528321  1
  Co  Co130  1  0.58571174  0.42663066  0.61962959  1
  Co  Co131  1  0.71716751  0.87550871  0.58574334  1
  Co  Co132  1  0.55687983  0.87663750  0.51057670  1
  Co  Co133  1  0.44965527  0.23950822  0.83597689  1
  Co  Co134  1  0.57224675  0.75480680  0.60883058  1
  Co  Co135  1  1.01419303  0.75046322  0.91308472  1
  Co  Co136  1  0.50062745  0.52083192  0.88120873  1
  Co  Co137  1  0.46984663  0.78036581  0.87741652  1
  Co  Co138  1  0.28966978  0.96399253  0.46666677  1
  Co  Co139  1  0.86616080  0.43126589  0.99473311  1
  Co  Co140  1  0.64220394  0.60594750  0.41944160  1
  Co  Co141  1  0.20767120  0.60883293  0.77493584  1
  Co  Co142  1  0.36618018  0.95500803  0.10024578  1
  Co  Co143  1  0.70452958  0.29976934  0.96274652  1
  Co  Co144  1  0.72043661  0.56392737  0.66458386  1
  Co  Co145  1  0.29919050  0.28014094  0.80245221  1
  Co  Co146  1  0.41966110  0.80082243  0.53287352  1
  Co  Co147  1  0.57249301  0.59662582  0.61959863  1
  Co  Co148  1  0.07712034  0.75867524  0.36824847  1
  Co  Co149  1  0.83765353  0.27968391  0.04496731  1
  Co  Co150  1  0.13153263  0.86963389  0.21404769  1
  Co  Co151  1  -0.03582118  0.72422111  0.75395512  1
  Co  Co152  1  0.61647545  0.10413648  0.14928736  1
  Co  Co153  1  0.36925806  0.08589057  0.35196200  1
  Co  Co154  1  0.55041152  0.03619003  0.56484380  1
  Co  Co155  1  0.60700167  0.76696198  0.15229039  1
  Co  Co156  1  0.55391608  0.32240294  0.07357327  1
  Co  Co157  1  0.28998136  0.85381710  0.65766800  1
  Co  Co158  1  0.91568058  0.51822580  0.11962476  1
  Co  Co159  1  0.23785205  0.18074729  0.39281655  1
  Co  Co160  1  0.91292535  0.15563607  0.95156763  1
  Co  Co161  1  0.06016541  0.60740494  0.84848487  1
  Ni  Ni162  1  0.24573581  0.69056514  0.63872810  1
  Ni  Ni163  1  0.38817809  0.33599093  0.12322848  1
  Ni  Ni164  1  0.40304465  0.78223458  0.33761660  1
  Ni  Ni165  1  0.76752134  0.70129089  0.33782194  1
  Ni  Ni166  1  0.38559239  0.79235817  0.02588132  1
  Ni  Ni167  1  0.17078150  0.53466871  0.09677218  1
  Ni  Ni168  1  0.84030343  0.78500393  0.52147246  1
  Ni  Ni169  1  0.38092329  0.48574159  0.37386307  1
  Ni  Ni170  1  0.39849169  -0.02717849  0.76965148  1
  Ni  Ni171  1  0.09042806  0.07059603  0.40257415  1
  Ni  Ni172  1  0.78460344  0.09401430  0.43225262  1
  Ni  Ni173  1  0.27323249  0.23301282  0.05838130  1
  Ni  Ni174  1  0.45681776  0.38452429  0.26588265  1
  Ni  Ni175  1  0.85815395  0.95983909  0.04881225  1
  Ni  Ni176  1  0.24691360  0.85014749  0.95424302  1
  Ni  Ni177  1  0.29158411  0.06573894  0.67047793  1
  Ni  Ni178  1  0.18131091  0.00890315  0.93427513  1
  Ni  Ni179  1  0.73040543  0.73160461  -0.01250141  1
  Ni  Ni180  1  0.04997750  0.43645158  0.04598213  1
  Ni  Ni181  1  0.32475142  0.08999904  0.00762298  1
  Ni  Ni182  1  0.10838253  0.17211311  0.11693375  1
  Ni  Ni183  1  0.21760865  0.49575139  0.24941215  1
  Ni  Ni184  1  0.73350229  0.19601006  0.70986334  1
  Ni  Ni185  1  0.48150661  0.54750412  0.23496497  1
  Ni  Ni186  1  0.52475826  0.93439501  0.87507231  1
  Ni  Ni187  1  0.82848658  0.38731030  0.40234088  1
  Ni  Ni188  1  0.02148902  0.23155180  0.85070015  1
  Ni  Ni189  1  0.94995669  0.48374739  0.35930031  1
  Ni  Ni190  1  0.60087652  0.09803341  0.72231667  1
  Ni  Ni191  1  0.90056798  0.21099183  0.43843936  1
  Ni  Ni192  1  0.70248000  0.63918862  0.84425540  1
  Ni  Ni193  1  0.90054469  1.01274724  0.71895202  1
  Ni  Ni194  1  0.81725071  0.19529698  0.28805844  1
  Ni  Ni195  1  0.14661530  0.09428033  0.74571358  1
  Ni  Ni196  1  0.87438051  0.51647008  0.50869192  1
  Ni  Ni197  1  0.09891251  0.33410173  0.60464548  1
  Ni  Ni198  1  0.81112402  0.77345962  0.82790063  1
  Ni  Ni199  1  0.41479036  0.63699591  0.97456301  1
  Ni  Ni200  1  0.59988351  0.02182083  0.30549072  1
  Ni  Ni201  1  0.07770106  0.37382023  0.44183011  1
  Ni  Ni202  1  0.70009787  0.34242416  0.79562208  1
  Ni  Ni203  1  0.66930052  0.98776492  0.82984796  1
  Ni  Ni204  1  0.04188024  0.31842219  0.17590360  1
  Ni  Ni205  1  1.01772619  0.09900163  0.62859653  1
  Ni  Ni206  1  0.88418852  0.16820143  0.77957069  1
  Ni  Ni207  1  0.59430814  0.28244487  0.43479281  1
  Ni  Ni208  1  0.05932105  0.73650464  0.09755238  1
  Ni  Ni209  1  0.98784687  0.89996255  0.32802147  1
  Ni  Ni210  1  0.10289722  0.88400787  0.85617339  1
  Ni  Ni211  1  0.86581458  0.80104681  0.25796744  1
  Ni  Ni212  1  0.47813834  0.52498262  0.51086770  1
  Ni  Ni213  1  0.33053070  0.44293239  0.53774795  1
  Ni  Ni214  1  0.26971973  0.44397210  0.78465050  1
  Ni  Ni215  1  0.76771432  0.88874118  0.94206110  1
