# generated using pymatgen
data_Ti2CoNi
_symmetry_space_group_name_H-M   'P 1'
_cell_length_a   14.64021914
_cell_length_b   14.64402111
_cell_length_c   14.60912306
_cell_angle_alpha   90.44169337
_cell_angle_beta   90.24837055
_cell_angle_gamma   90.02844930
_symmetry_Int_Tables_number   1
_chemical_formula_structural   Ti2CoNi
_chemical_formula_sum   'Ti108 Co54 Ni54'
_cell_volume   3131.95147401
_cell_formula_units_Z   54
loop_
 _symmetry_equiv_pos_site_id
 _symmetry_equiv_pos_as_xyz
  1  'x, y, z'
loop_
 _atom_site_type_symbol
 _atom_site_label
 _atom_site_symmetry_multiplicity
 _atom_site_fract_x
 _atom_site_fract_y
 _atom_site_fract_z
 _atom_site_occupancy
  Ti  Ti0  1  -0.00798951  -0.06906685  0.03108882  1
  Ti  Ti1  1  -0.05947055  -0.01210729  0.41174520  1
  Ti  Ti2  1  0.02633998  -0.05246664  0.69256878  1
  Ti  Ti3  1  -0.03921904  0.36807613  0.00508717  1
  Ti  Ti4  1  0.02813686  0.26549077  0.33917366  1
  Ti  Ti5  1  -0.01403264  0.34174339  0.64341704  1
  Ti  Ti6  1  0.04148539  0.58830734  0.03548226  1
  Ti  Ti7  1  0.06790997  0.64189827  0.36869177  1
  Ti  Ti8  1  -0.03808353  0.63557059  0.68386291  1
  Ti  Ti9  1  0.25555420  -0.01384799  0.02488175  1
  Ti  Ti10  1  0.33882567  0.01609734  0.25077028  1
  Ti  Ti11  1  0.30324115  0.03099794  0.66961322  1
  Ti  Ti12  1  0.33545571  0.34298860  -0.04675154  1
  Ti  Ti13  1  0.30899047  0.29055283  0.37235932  1
  Ti  Ti14  1  0.34731920  0.34594269  0.64483332  1
  Ti  Ti15  1  0.33430677  0.64593203  0.01614788  1
  Ti  Ti16  1  0.35846857  0.68902606  0.38313602  1
  Ti  Ti17  1  0.33442878  0.70412708  0.69875568  1
  Ti  Ti18  1  0.69178940  0.01978788  0.03712447  1
  Ti  Ti19  1  0.68325143  -0.06147965  0.29792826  1
  Ti  Ti20  1  0.70588816  -0.10837018  0.67407923  1
  Ti  Ti21  1  0.65070806  0.28902578  -0.05080434  1
  Ti  Ti22  1  0.61396327  0.34901304  0.26205414  1
  Ti  Ti23  1  0.67011344  0.39168853  0.64508951  1
  Ti  Ti24  1  0.61453010  0.63670364  0.00360634  1
  Ti  Ti25  1  0.62508509  0.59247511  0.31966461  1
  Ti  Ti26  1  0.73069961  0.68734612  0.69780453  1
  Ti  Ti27  1  -0.03951858  0.15185663  0.09773082  1
  Ti  Ti28  1  -0.09140006  0.16996552  0.52385507  1
  Ti  Ti29  1  0.00056273  0.14640301  0.80702062  1
  Ti  Ti30  1  -0.01951872  0.45191527  0.29729631  1
  Ti  Ti31  1  0.03141680  0.49795095  0.49737828  1
  Ti  Ti32  1  0.06189159  0.51713493  0.85364555  1
  Ti  Ti33  1  -0.01491849  0.88431415  0.24315627  1
  Ti  Ti34  1  0.08103676  0.87216684  0.46527442  1
  Ti  Ti35  1  0.01765058  0.73601937  0.89129122  1
  Ti  Ti36  1  0.33730010  0.23282748  0.16360487  1
  Ti  Ti37  1  0.33422421  0.15667756  0.50924231  1
  Ti  Ti38  1  0.38087875  0.17309424  0.82512132  1
  Ti  Ti39  1  0.34420439  0.55484744  0.19764769  1
  Ti  Ti40  1  0.36357962  0.56171418  0.53687695  1
  Ti  Ti41  1  0.37837644  0.56950476  0.82631656  1
  Ti  Ti42  1  0.34194422  0.75176060  0.18905549  1
  Ti  Ti43  1  0.39408889  0.89342282  0.40135904  1
  Ti  Ti44  1  0.33232505  0.87980718  0.84108207  1
  Ti  Ti45  1  0.64703402  0.20935167  0.12407551  1
  Ti  Ti46  1  0.67660747  0.20079866  0.52780147  1
  Ti  Ti47  1  0.69962375  0.22099625  0.76328374  1
  Ti  Ti48  1  0.62332253  0.49545877  0.14034017  1
  Ti  Ti49  1  0.65668867  0.49988065  0.47907972  1
  Ti  Ti50  1  0.61893634  0.55993426  0.81817411  1
  Ti  Ti51  1  0.71629796  0.81615995  0.13415606  1
  Ti  Ti52  1  0.60986368  0.86523260  0.46919685  1
  Ti  Ti53  1  0.61981657  0.82836580  0.96367177  1
  Ti  Ti54  1  0.12483890  -0.01478121  0.16541807  1
  Ti  Ti55  1  0.20974565  0.03095507  0.44892980  1
  Ti  Ti56  1  0.10603347  -0.03124513  0.87944607  1
  Ti  Ti57  1  0.15935719  0.31376763  0.21759464  1
  Ti  Ti58  1  0.16178055  0.33088594  0.52991044  1
  Ti  Ti59  1  0.13585008  0.34446295  0.90873095  1
  Ti  Ti60  1  0.11240003  0.75436747  0.19376691  1
  Ti  Ti61  1  0.16700569  0.63496978  0.56720682  1
  Ti  Ti62  1  0.16681753  0.64294138  0.77036591  1
  Ti  Ti63  1  0.53565047  0.03325063  0.19029263  1
  Ti  Ti64  1  0.50486172  0.06693539  0.50313664  1
  Ti  Ti65  1  0.55462761  0.00077746  0.86661607  1
  Ti  Ti66  1  0.48506069  0.33782037  0.10661154  1
  Ti  Ti67  1  0.48505171  0.28467602  0.49040011  1
  Ti  Ti68  1  0.51559898  0.30389685  0.79405618  1
  Ti  Ti69  1  0.55108385  0.70255754  0.17977688  1
  Ti  Ti70  1  0.46823999  0.76507909  0.54313089  1
  Ti  Ti71  1  0.52181271  0.73125558  0.75151580  1
  Ti  Ti72  1  0.84254148  -0.00547867  0.16356129  1
  Ti  Ti73  1  0.77764259  -0.04929786  0.50319964  1
  Ti  Ti74  1  0.82721179  0.04456295  0.82554870  1
  Ti  Ti75  1  0.78257984  0.35590881  0.11957072  1
  Ti  Ti76  1  0.79837935  0.34492678  0.44109842  1
  Ti  Ti77  1  0.82993791  0.36718853  0.78265804  1
  Ti  Ti78  1  0.90769586  0.69261810  0.18707353  1
  Ti  Ti79  1  0.90500729  0.66191413  0.50406430  1
  Ti  Ti80  1  0.83065723  0.64693627  0.85295659  1
  Ti  Ti81  1  0.20731985  0.17161069  -0.05241474  1
  Ti  Ti82  1  0.21049490  0.13520202  0.29886400  1
  Ti  Ti83  1  0.14190103  0.23619379  0.71832228  1
  Ti  Ti84  1  0.21465780  0.47967256  0.03988800  1
  Ti  Ti85  1  0.17560922  0.50195604  0.25621458  1
  Ti  Ti86  1  0.17582641  0.42147292  0.72543080  1
  Ti  Ti87  1  0.18251317  0.79410951  0.00444980  1
  Ti  Ti88  1  0.21487852  0.86649462  0.31467249  1
  Ti  Ti89  1  0.18521128  0.81480879  0.64118508  1
  Ti  Ti90  1  0.51466149  0.12269740  0.01725508  1
  Ti  Ti91  1  0.58209201  0.16858091  0.33915582  1
  Ti  Ti92  1  0.54705603  0.12277976  0.69389309  1
  Ti  Ti93  1  0.50603711  0.44586738  -0.06464289  1
  Ti  Ti94  1  0.46897750  0.45769891  0.37869940  1
  Ti  Ti95  1  0.49393854  0.46308664  0.70783709  1
  Ti  Ti96  1  0.44181184  0.90714203  0.00718746  1
  Ti  Ti97  1  0.51299084  0.85289233  0.27155883  1
  Ti  Ti98  1  0.51631357  0.92649309  0.66735860  1
  Ti  Ti99  1  0.83171455  0.20841301  -0.04547691  1
  Ti  Ti100  1  0.79300702  0.09608258  0.34987940  1
  Ti  Ti101  1  0.78587774  0.08930405  0.64486262  1
  Ti  Ti102  1  0.79933839  0.54947015  0.04110069  1
  Ti  Ti103  1  0.80820960  0.53070761  0.24541145  1
  Ti  Ti104  1  0.85465362  0.47477400  0.58684981  1
  Ti  Ti105  1  0.82994830  0.84696213  -0.04728713  1
  Ti  Ti106  1  0.80095651  0.77577054  0.39944882  1
  Ti  Ti107  1  0.88643190  0.81665011  0.67420029  1
  Co  Co108  1  0.68149666  0.12373858  0.91184961  1
  Co  Co109  1  0.71595762  0.44369236  0.33368436  1
  Co  Co110  1  0.64057942  0.02400282  0.59145667  1
  Co  Co111  1  0.62339084  0.33034692  0.42760052  1
  Co  Co112  1  0.67029349  0.71127330  0.86258889  1
  Co  Co113  1  0.51581976  0.99660749  0.35257991  1
  Co  Co114  1  0.65793843  0.39850027  0.81813401  1
  Co  Co115  1  0.95832908  0.31406383  0.16640579  1
  Co  Co116  1  0.51863632  0.73877469  0.38030048  1
  Co  Co117  1  0.40436844  0.90141433  0.15909387  1
  Co  Co118  1  0.72969503  0.24455783  0.29646701  1
  Co  Co119  1  0.46685980  0.61090995  0.65342379  1
  Co  Co120  1  0.51875863  0.59994267  0.47474045  1
  Co  Co121  1  0.36704259  0.86046182  0.68031075  1
  Co  Co122  1  0.71364942  0.95244410  0.88852121  1
  Co  Co123  1  0.17205834  0.63050583  0.93568604  1
  Co  Co124  1  0.41852053  0.01299804  0.78143430  1
  Co  Co125  1  0.26209330  0.28427944  0.81260863  1
  Co  Co126  1  0.97287646  0.34993943  0.47079163  1
  Co  Co127  1  0.46607481  0.60895221  0.29037293  1
  Co  Co128  1  0.61127039  0.73392218  0.59828678  1
  Co  Co129  1  0.76125146  0.60734486  0.55207429  1
  Co  Co130  1  0.88161629  0.82819931  0.10568079  1
  Co  Co131  1  0.91026082  0.67759945  1.00364627  1
  Co  Co132  1  0.61311270  0.85566222  0.79958224  1
  Co  Co133  1  0.50463275  0.44546836  0.55024738  1
  Co  Co134  1  0.88103953  0.22232505  0.37209439  1
  Co  Co135  1  0.75851281  0.71097566  0.01321171  1
  Co  Co136  1  0.55150715  0.28506612  0.63828157  1
  Co  Co137  1  0.47372359  0.60713136  0.94625453  1
  Co  Co138  1  0.45752287  0.29979232  0.29742329  1
  Co  Co139  1  0.17831943  0.20065282  0.44249206  1
  Co  Co140  1  0.38162710  0.07104951  0.10435037  1
  Co  Co141  1  0.48958258  0.18595709  0.18859438  1
  Co  Co142  1  0.47868286  0.45564647  0.21542950  1
  Co  Co143  1  0.16922982  0.79724049  0.84254857  1
  Co  Co144  1  0.23409517  0.48734259  0.86739754  1
  Co  Co145  1  0.15540323  0.97322840  0.59638659  1
  Co  Co146  1  0.65982392  0.69185710  0.45078504  1
  Co  Co147  1  0.02661499  0.77604426  0.06172757  1
  Co  Co148  1  0.46334906  0.74968180  0.06094962  1
  Co  Co149  1  0.84668825  0.35572197  0.26973957  1
  Co  Co150  1  0.20107150  0.92288448  0.75157871  1
  Co  Co151  1  0.03885586  0.12481691  0.40643823  1
  Co  Co152  1  0.05636123  0.21235096  0.55225620  1
  Co  Co153  1  0.66941566  0.03394860  0.75615904  1
  Co  Co154  1  0.36404694  0.40594116  0.79906566  1
  Co  Co155  1  0.48186843  0.57731029  0.10846706  1
  Co  Co156  1  0.06715531  0.51528176  0.65491960  1
  Co  Co157  1  0.76479346  0.77955379  0.55713256  1
  Co  Co158  1  0.47451637  0.76299194  0.89956827  1
  Co  Co159  1  0.78431231  0.81856938  0.80476254  1
  Co  Co160  1  0.38154230  0.47074212  0.04909668  1
  Co  Co161  1  0.24346832  0.87348306  0.14438308  1
  Ni  Ni162  1  0.12864422  0.40789317  0.38391165  1
  Ni  Ni163  1  0.34560803  0.40017020  0.48829027  1
  Ni  Ni164  1  0.09392738  0.99326935  0.32773180  1
  Ni  Ni165  1  0.22468397  0.56574972  0.41420216  1
  Ni  Ni166  1  0.91891408  0.84610272  0.50900869  1
  Ni  Ni167  1  0.21701279  0.12808252  0.12109248  1
  Ni  Ni168  1  0.82300574  0.84913603  0.25860532  1
  Ni  Ni169  1  0.40749125  0.19433080  0.65339528  1
  Ni  Ni170  1  0.29247735  0.53097313  0.69016509  1
  Ni  Ni171  1  0.65555466  0.04356582  0.43262573  1
  Ni  Ni172  1  0.76520918  0.52071454  0.72622438  1
  Ni  Ni173  1  0.30961721  0.74251731  0.53985938  1
  Ni  Ni174  1  0.19300840  0.13764729  0.59365471  1
  Ni  Ni175  1  0.02634963  0.21723914  0.95356133  1
  Ni  Ni176  1  0.94962320  0.90230845  0.84340198  1
  Ni  Ni177  1  0.21182666  0.47944379  0.55689897  1
  Ni  Ni178  1  0.87080572  0.20931410  0.73427722  1
  Ni  Ni179  1  0.86014779  0.51551883  0.41432100  1
  Ni  Ni180  1  0.04432133  0.77968675  0.73293911  1
  Ni  Ni181  1  0.91747749  0.00140242  0.58410034  1
  Ni  Ni182  1  0.25975742  0.04930851  0.84254737  1
  Ni  Ni183  1  0.80292764  0.29224731  0.61094021  1
  Ni  Ni184  1  0.07793834  0.15527804  0.21116912  1
  Ni  Ni185  1  0.30742330  0.71950740  0.87512880  1
  Ni  Ni186  1  0.93294003  0.48806296  0.75030352  1
  Ni  Ni187  1  0.00209773  0.33045284  0.81112566  1
  Ni  Ni188  1  0.19874064  0.63269561  0.11727554  1
  Ni  Ni189  1  0.18990296  0.73949669  0.42707032  1
  Ni  Ni190  1  0.31927898  0.39645048  0.24521609  1
  Ni  Ni191  1  0.07797697  0.42443192  0.12048543  1
  Ni  Ni192  1  0.09382985  0.07560358  0.02159350  1
  Ni  Ni193  1  0.20048157  0.30312433  0.06093360  1
  Ni  Ni194  1  1.03992802  0.74271431  0.56383757  1
  Ni  Ni195  1  0.40943068  0.13981268  0.34924980  1
  Ni  Ni196  1  0.70250710  0.08364168  0.20969716  1
  Ni  Ni197  1  0.25223607  0.88236152  0.49467307  1
  Ni  Ni198  1  0.67357202  0.76286680  0.29460260  1
  Ni  Ni199  1  0.66533445  0.46095048  -0.01778379  1
  Ni  Ni200  1  0.04417678  0.58640194  0.20097549  1
  Ni  Ni201  1  0.39316632  0.95542084  0.55117438  1
  Ni  Ni202  1  0.80163526  0.38360081  0.94359358  1
  Ni  Ni203  1  0.13487575  0.07088529  0.73698158  1
  Ni  Ni204  1  0.57124785  0.88992441  0.11542849  1
  Ni  Ni205  1  0.92694943  0.48433464  0.13230896  1
  Ni  Ni206  1  0.91385269  0.52055060  0.92265681  1
  Ni  Ni207  1  0.62075670  0.56538357  0.63700220  1
  Ni  Ni208  1  0.48112299  0.26317081  0.95253856  1
  Ni  Ni209  1  0.81442160  0.19250898  0.15603353  1
  Ni  Ni210  1  0.96655146  0.76908722  0.35959381  1
  Ni  Ni211  1  0.71458442  0.64736652  0.16641630  1
  Ni  Ni212  1  0.95070131  0.07375571  0.26685768  1
  Ni  Ni213  1  0.94378146  0.06597967  0.94341881  1
  Ni  Ni214  1  0.38696945  1.04776795  0.93978503  1
  Ni  Ni215  1  0.22357302  0.66483850  0.28115402  1
