# generated using pymatgen
data_Ti2CoNi
_symmetry_space_group_name_H-M   'P 1'
_cell_length_a   14.61305441
_cell_length_b   14.69161455
_cell_length_c   14.61106972
_cell_angle_alpha   89.93083164
_cell_angle_beta   90.15357103
_cell_angle_gamma   90.26327406
_symmetry_Int_Tables_number   1
_chemical_formula_structural   Ti2CoNi
_chemical_formula_sum   'Ti108 Co54 Ni54'
_cell_volume   3136.79462396
_cell_formula_units_Z   54
loop_
 _symmetry_equiv_pos_site_id
 _symmetry_equiv_pos_as_xyz
  1  'x, y, z'
loop_
 _atom_site_type_symbol
 _atom_site_label
 _atom_site_symmetry_multiplicity
 _atom_site_fract_x
 _atom_site_fract_y
 _atom_site_fract_z
 _atom_site_occupancy
  Ti  Ti0  1  0.05478549  -0.03287414  0.07659192  1
  Ti  Ti1  1  -0.03049720  -0.05711694  0.36992589  1
  Ti  Ti2  1  0.03818737  0.01101920  0.63035394  1
  Ti  Ti3  1  -0.03418620  0.38814443  -0.02472340  1
  Ti  Ti4  1  -0.01052157  0.34208896  0.26202730  1
  Ti  Ti5  1  -0.01359704  0.37642360  0.63660721  1
  Ti  Ti6  1  0.02881705  0.78211889  -0.02374762  1
  Ti  Ti7  1  -0.03945497  0.66343924  0.37097526  1
  Ti  Ti8  1  0.03210128  0.73528341  0.70059927  1
  Ti  Ti9  1  0.32267682  0.03196271  -0.08367603  1
  Ti  Ti10  1  0.33387780  -0.05798366  0.30456278  1
  Ti  Ti11  1  0.33727897  0.01893908  0.68680622  1
  Ti  Ti12  1  0.26689641  0.32178109  0.03531890  1
  Ti  Ti13  1  0.34863596  0.36264939  0.36360079  1
  Ti  Ti14  1  0.28929540  0.35859663  0.56404642  1
  Ti  Ti15  1  0.30975355  0.59840258  -0.01237541  1
  Ti  Ti16  1  0.27377192  0.66835701  0.39841122  1
  Ti  Ti17  1  0.28613026  0.70343368  0.72447672  1
  Ti  Ti18  1  0.69133524  0.04700720  0.05764002  1
  Ti  Ti19  1  0.67957313  -0.03317065  0.37994863  1
  Ti  Ti20  1  0.63644898  0.02314989  0.70085263  1
  Ti  Ti21  1  0.62378690  0.31685314  -0.04455829  1
  Ti  Ti22  1  0.69797673  0.28281436  0.31347533  1
  Ti  Ti23  1  0.65218646  0.32580239  0.69287199  1
  Ti  Ti24  1  0.65907397  0.68074793  0.01126533  1
  Ti  Ti25  1  0.61054973  0.69951341  0.32079367  1
  Ti  Ti26  1  0.71301946  0.65625264  0.69568398  1
  Ti  Ti27  1  0.01678925  0.17235257  0.13619086  1
  Ti  Ti28  1  -0.10225446  0.14128864  0.52724167  1
  Ti  Ti29  1  -0.04740804  0.20434989  0.87460768  1
  Ti  Ti30  1  0.03392444  0.49441866  0.12775668  1
  Ti  Ti31  1  0.04288873  0.53258965  0.49912511  1
  Ti  Ti32  1  0.05604049  0.54435340  0.80495778  1
  Ti  Ti33  1  -0.07501600  0.83369496  0.13448873  1
  Ti  Ti34  1  0.09796922  0.75814612  0.50122041  1
  Ti  Ti35  1  -0.09921556  0.81528635  0.82719744  1
  Ti  Ti36  1  0.38661510  0.23187866  0.18784306  1
  Ti  Ti37  1  0.35450224  0.08233227  0.48248627  1
  Ti  Ti38  1  0.32953429  0.23425810  0.88653583  1
  Ti  Ti39  1  0.33933710  0.55161336  0.17989697  1
  Ti  Ti40  1  0.34550956  0.54002185  0.51454018  1
  Ti  Ti41  1  0.36331815  0.48523367  0.70611011  1
  Ti  Ti42  1  0.42251836  0.77616847  0.16896744  1
  Ti  Ti43  1  0.28596641  0.88702557  0.49776267  1
  Ti  Ti44  1  0.26758335  0.87929800  0.81175828  1
  Ti  Ti45  1  0.68826973  0.12021105  0.23132802  1
  Ti  Ti46  1  0.67455055  0.21042940  0.53200203  1
  Ti  Ti47  1  0.68302830  0.09439115  0.88286918  1
  Ti  Ti48  1  0.67998367  0.55737980  0.19948727  1
  Ti  Ti49  1  0.71937904  0.49131960  0.56952610  1
  Ti  Ti50  1  0.57726559  0.51188035  0.74275443  1
  Ti  Ti51  1  0.59820332  0.88739921  0.08809640  1
  Ti  Ti52  1  0.62925013  0.86370913  0.56855375  1
  Ti  Ti53  1  0.70522759  0.83450004  0.79349301  1
  Ti  Ti54  1  0.23854042  -0.08533809  0.14907089  1
  Ti  Ti55  1  0.10700164  0.11774035  0.47226299  1
  Ti  Ti56  1  0.10677346  0.00843087  0.89335880  1
  Ti  Ti57  1  0.20889848  0.37389115  0.21945848  1
  Ti  Ti58  1  0.14516623  0.32195658  0.40889564  1
  Ti  Ti59  1  0.13695864  0.28930986  0.82190516  1
  Ti  Ti60  1  0.18340058  0.67156743  0.16212774  1
  Ti  Ti61  1  0.17967917  0.60302875  0.60940795  1
  Ti  Ti62  1  0.15540364  0.70214585  0.86217443  1
  Ti  Ti63  1  0.50206403  0.08108904  0.13596624  1
  Ti  Ti64  1  0.48021061  -0.05017294  0.45420353  1
  Ti  Ti65  1  0.48276740  -0.01648457  0.82119510  1
  Ti  Ti66  1  0.56260562  0.37292832  0.15796608  1
  Ti  Ti67  1  0.45387703  0.26095331  0.51809029  1
  Ti  Ti68  1  0.48092752  0.33427616  0.81144511  1
  Ti  Ti69  1  0.51051166  0.58826386  0.13741900  1
  Ti  Ti70  1  0.47254767  0.69191241  0.47304246  1
  Ti  Ti71  1  0.45176431  0.65561947  0.82066697  1
  Ti  Ti72  1  0.78543233  -0.04491574  0.20265682  1
  Ti  Ti73  1  0.82366642  -0.03925485  0.51311322  1
  Ti  Ti74  1  0.93644901  0.01773686  0.80763653  1
  Ti  Ti75  1  0.82256136  0.41834881  0.16781506  1
  Ti  Ti76  1  0.86391503  0.29459456  0.42987458  1
  Ti  Ti77  1  0.85096527  0.32580654  0.76382060  1
  Ti  Ti78  1  0.86502003  0.63572824  0.17190027  1
  Ti  Ti79  1  0.77961366  0.66657835  0.47062211  1
  Ti  Ti80  1  0.92520663  0.62075983  0.90647715  1
  Ti  Ti81  1  0.18809431  0.12061584  0.02725499  1
  Ti  Ti82  1  0.24742095  0.14101991  0.30882625  1
  Ti  Ti83  1  0.16084938  0.20898747  0.63898434  1
  Ti  Ti84  1  0.15070915  0.43604782  -0.05781334  1
  Ti  Ti85  1  0.12513476  0.52123401  0.31477806  1
  Ti  Ti86  1  0.17615020  0.43586930  0.71048763  1
  Ti  Ti87  1  0.20429356  0.85331286  -0.01833625  1
  Ti  Ti88  1  0.15554188  0.85578597  0.34366253  1
  Ti  Ti89  1  0.17381163  0.86269604  0.64751938  1
  Ti  Ti90  1  0.50537318  0.15184766  -0.06025827  1
  Ti  Ti91  1  0.56153541  0.13178622  0.38665505  1
  Ti  Ti92  1  0.50671656  0.15298216  0.65146082  1
  Ti  Ti93  1  0.44667777  0.44601428  0.00828434  1
  Ti  Ti94  1  0.48785079  0.51996956  0.34495143  1
  Ti  Ti95  1  0.53970830  0.53697752  0.56353049  1
  Ti  Ti96  1  0.52628978  0.81285584  -0.08076516  1
  Ti  Ti97  1  0.52850209  0.92269714  0.26578434  1
  Ti  Ti98  1  0.42731724  0.81932258  0.62469514  1
  Ti  Ti99  1  0.80624354  0.20725366  0.03554240  1
  Ti  Ti100  1  0.88535578  0.12177537  0.32078771  1
  Ti  Ti101  1  0.77683687  0.15791347  0.71778146  1
  Ti  Ti102  1  0.78465878  0.53801565  0.00986319  1
  Ti  Ti103  1  0.78354351  0.45509895  0.36183863  1
  Ti  Ti104  1  0.84760429  0.50424552  0.73000968  1
  Ti  Ti105  1  0.78489257  0.88444125  -0.01954524  1
  Ti  Ti106  1  0.82044125  0.79058045  0.30394348  1
  Ti  Ti107  1  0.83798276  0.78109827  0.61305750  1
  Co  Co108  1  0.37434195  0.87798119  0.95813576  1
  Co  Co109  1  -0.00938212  0.39829078  0.42619990  1
  Co  Co110  1  0.58221209  0.37357737  0.55541275  1
  Co  Co111  1  0.98989007  0.09728292  0.98772644  1
  Co  Co112  1  0.30138020  0.74869432  0.06426162  1
  Co  Co113  1  0.12693938  0.39206909  0.55927030  1
  Co  Co114  1  0.41441964  0.93779064  0.13374022  1
  Co  Co115  1  0.21100089  0.03154083  0.57861036  1
  Co  Co116  1  0.86711715  0.04344669  0.65762914  1
  Co  Co117  1  0.09687473  0.92623405  0.49715975  1
  Co  Co118  1  0.81247838  0.28197209  0.60182120  1
  Co  Co119  1  0.71632434  0.35634917  0.47819650  1
  Co  Co120  1  0.46230297  0.36802502  0.65623003  1
  Co  Co121  1  0.57462414  0.82419325  0.41285894  1
  Co  Co122  1  0.87707156  0.99644935  0.06757577  1
  Co  Co123  1  0.22330794  0.21151101  0.15125408  1
  Co  Co124  1  0.92219652  0.30746722  0.10238495  1
  Co  Co125  1  0.85010162  0.59151754  0.59772461  1
  Co  Co126  1  0.75795193  0.92416683  0.65764853  1
  Co  Co127  1  0.86494762  0.42615587  0.54752531  1
  Co  Co128  1  0.09430383  0.79901213  0.13304233  1
  Co  Co129  1  0.73750015  0.82284557  0.44453321  1
  Co  Co130  1  1.00331665  0.21472904  0.38139922  1
  Co  Co131  1  0.66851984  0.84658060  0.26385977  1
  Co  Co132  1  0.14676719  0.06839457  0.18589218  1
  Co  Co133  1  0.77828618  -0.02019510  0.80691209  1
  Co  Co134  1  0.41953677  0.65687103  0.29805794  1
  Co  Co135  1  0.09934224  0.33444662  0.10583444  1
  Co  Co136  1  0.88700837  0.66545719  0.74380451  1
  Co  Co137  1  0.83853363  1.07205974  0.93026012  1
  Co  Co138  1  0.88560439  0.54191956  0.44507422  1
  Co  Co139  1  0.32489869  0.73488662  0.89629972  1
  Co  Co140  1  0.86269242  0.46602045  0.88307530  1
  Co  Co141  1  0.83804516  0.11846770  0.15990883  1
  Co  Co142  1  0.20191224  0.49507539  0.46273587  1
  Co  Co143  1  0.07798979  0.92771503  0.23201801  1
  Co  Co144  1  0.96272294  0.68659122  0.54583619  1
  Co  Co145  1  0.83969736  0.26049861  0.23669867  1
  Co  Co146  1  0.12715416  0.69072924  0.34216071  1
  Co  Co147  1  0.41439464  0.82354184  0.78845038  1
  Co  Co148  1  0.92599515  0.89509986  0.68737417  1
  Co  Co149  1  0.63920531  -0.05781550  0.91388685  1
  Co  Co150  1  0.03206346  0.63500998  0.22542181  1
  Co  Co151  1  0.44577570  0.42087441  0.48438346  1
  Co  Co152  1  0.11200685  0.22590267  0.26427783  1
  Co  Co153  1  0.06659331  0.06777557  0.32310105  1
  Co  Co154  1  0.94855364  0.01238030  0.21294716  1
  Co  Co155  1  0.55605196  0.30673303  0.40079257  1
  Co  Co156  1  0.46232422  0.70351417  0.02110828  1
  Co  Co157  1  0.36268053  0.14436468  0.03794389  1
  Co  Co158  1  0.09327894  0.23958313  0.97131480  1
  Co  Co159  1  0.31413995  0.06772655  0.17222452  1
  Co  Co160  1  0.42001308  0.14351698  0.78725830  1
  Co  Co161  1  -0.04495411  0.92681187  0.94602900  1
  Ni  Ni162  1  0.57592916  0.47043232  0.89723470  1
  Ni  Ni163  1  0.37960525  0.39210335  0.15301172  1
  Ni  Ni164  1  0.40994338  0.20832919  0.36182875  1
  Ni  Ni165  1  0.03026869  0.25759418  0.53478047  1
  Ni  Ni166  1  0.78144231  0.37110702  -0.00433217  1
  Ni  Ni167  1  0.71200048  0.40174501  0.83015630  1
  Ni  Ni168  1  0.77579359  0.70881788  0.88041232  1
  Ni  Ni169  1  0.28221914  0.77080768  0.26552500  1
  Ni  Ni170  1  0.72433428  0.56065301  0.84817945  1
  Ni  Ni171  1  0.20018681  0.13930954  0.84698806  1
  Ni  Ni172  1  0.43660002  0.06693212  0.29365380  1
  Ni  Ni173  1  0.45703797  0.28216360  1.03273756  1
  Ni  Ni174  1  0.78782808  0.61613893  0.31571777  1
  Ni  Ni175  1  0.61254048  0.04616291  0.52756624  1
  Ni  Ni176  1  0.09672539  0.58774223  0.96971926  1
  Ni  Ni177  1  0.28748792  0.39936060  0.85692776  1
  Ni  Ni178  1  0.49345834  0.98856359  -0.00846412  1
  Ni  Ni179  1  0.27769075  0.22705617  0.46332607  1
  Ni  Ni180  1  0.21253045  1.00622143  0.40824058  1
  Ni  Ni181  1  0.99602573  0.65648525  0.07436713  1
  Ni  Ni182  1  0.85223892  0.72202722  1.02090740  1
  Ni  Ni183  1  0.30127869  0.51644056  0.33132369  1
  Ni  Ni184  1  0.59147161  0.73578608  0.15550841  1
  Ni  Ni185  1  0.40500613  0.80739742  0.37946467  1
  Ni  Ni186  1  0.64346458  0.56336041  0.41404263  1
  Ni  Ni187  1  0.56061407  0.86487045  0.72984019  1
  Ni  Ni188  1  0.20174350  0.49491836  0.09161437  1
  Ni  Ni189  1  0.59105509  0.19597332  0.78949251  1
  Ni  Ni190  1  0.30628126  0.30657025  0.72328203  1
  Ni  Ni191  1  0.74823688  0.11328246  0.42041837  1
  Ni  Ni192  1  0.93941413  0.50519729  0.28584130  1
  Ni  Ni193  1  0.25376510  0.56652430  0.82636533  1
  Ni  Ni194  1  0.62423098  0.43640898  0.30236529  1
  Ni  Ni195  1  1.00028934  0.79322165  0.28032432  1
  Ni  Ni196  1  0.06359360  0.13193366  0.76051536  1
  Ni  Ni197  1  0.32591507  0.17463402  0.62338625  1
  Ni  Ni198  1  0.63132549  0.69818333  0.52663454  1
  Ni  Ni199  1  0.62642269  0.48535155  0.05145533  1
  Ni  Ni200  1  0.75792853  0.24513731  0.87211364  1
  Ni  Ni201  1  0.75204485  0.78489837  0.13229435  1
  Ni  Ni202  1  0.61432941  0.20635254  0.08814104  1
  Ni  Ni203  1  0.41296449  0.63539316  0.63807454  1
  Ni  Ni204  1  0.90906279  0.81062856  0.45606982  1
  Ni  Ni205  1  0.41701130  0.50227078  0.85957357  1
  Ni  Ni206  1  0.29529625  0.72812586  0.55414537  1
  Ni  Ni207  1  0.00549526  0.38978439  0.81039853  1
  Ni  Ni208  1  0.48782698  0.97901770  0.61972527  1
  Ni  Ni209  1  0.54343302  0.22528802  0.24612645  1
  Ni  Ni210  1  0.00459089  0.57002195  0.65599564  1
  Ni  Ni211  1  0.07354750  0.86665724  0.80720536  1
  Ni  Ni212  1  0.17596894  1.00968891  0.74083589  1
  Ni  Ni213  1  0.55337984  0.70433720  0.67833044  1
  Ni  Ni214  1  0.61565100  0.68345302  0.83646259  1
  Ni  Ni215  1  0.94429126  0.20118705  0.67875937  1
