# generated using pymatgen
data_Ti2CoNi
_symmetry_space_group_name_H-M   'P 1'
_cell_length_a   14.67962970
_cell_length_b   14.65411970
_cell_length_c   14.68197233
_cell_angle_alpha   90.23312735
_cell_angle_beta   90.00728442
_cell_angle_gamma   89.93381320
_symmetry_Int_Tables_number   1
_chemical_formula_structural   Ti2CoNi
_chemical_formula_sum   'Ti108 Co54 Ni54'
_cell_volume   3158.31431377
_cell_formula_units_Z   54
loop_
 _symmetry_equiv_pos_site_id
 _symmetry_equiv_pos_as_xyz
  1  'x, y, z'
loop_
 _atom_site_type_symbol
 _atom_site_label
 _atom_site_symmetry_multiplicity
 _atom_site_fract_x
 _atom_site_fract_y
 _atom_site_fract_z
 _atom_site_occupancy
  Ti  Ti0  1  -0.07250811  -0.01937838  -0.00172513  1
  Ti  Ti1  1  -0.08321145  0.02768030  0.39244674  1
  Ti  Ti2  1  -0.03982420  -0.01993968  0.77465115  1
  Ti  Ti3  1  -0.03218379  0.32517773  -0.01042523  1
  Ti  Ti4  1  0.05804080  0.25960282  0.38968327  1
  Ti  Ti5  1  0.09588758  0.27990754  0.59547851  1
  Ti  Ti6  1  -0.04199892  0.64055022  0.01991271  1
  Ti  Ti7  1  0.00449779  0.61939528  0.22044404  1
  Ti  Ti8  1  -0.00423039  0.67170108  0.69776777  1
  Ti  Ti9  1  0.33070598  -0.01897061  -0.09211242  1
  Ti  Ti10  1  0.39898536  -0.06037085  0.36028748  1
  Ti  Ti11  1  0.29770649  -0.03168610  0.71993571  1
  Ti  Ti12  1  0.25829375  0.40671459  0.04499330  1
  Ti  Ti13  1  0.23661629  0.32713409  0.23178428  1
  Ti  Ti14  1  0.32502535  0.28722154  0.63745414  1
  Ti  Ti15  1  0.37313259  0.72408972  -0.00523575  1
  Ti  Ti16  1  0.41030037  0.65822984  0.34322221  1
  Ti  Ti17  1  0.34230308  0.60877181  0.68931948  1
  Ti  Ti18  1  0.66178587  -0.07866245  -0.04635238  1
  Ti  Ti19  1  0.60535736  0.02683825  0.32471695  1
  Ti  Ti20  1  0.61084443  -0.02112319  0.60059438  1
  Ti  Ti21  1  0.67700313  0.38430713  0.00912490  1
  Ti  Ti22  1  0.64669933  0.26689785  0.28377321  1
  Ti  Ti23  1  0.61752098  0.33496567  0.62143244  1
  Ti  Ti24  1  0.67841971  0.60684547  0.08926560  1
  Ti  Ti25  1  0.63749331  0.75266078  0.36203271  1
  Ti  Ti26  1  0.65388109  0.65384169  0.70843393  1
  Ti  Ti27  1  -0.03847370  0.24160785  0.16467549  1
  Ti  Ti28  1  0.05985048  0.09225384  0.53221713  1
  Ti  Ti29  1  0.05796914  0.15891064  0.74572099  1
  Ti  Ti30  1  -0.05384839  0.44891012  0.14446294  1
  Ti  Ti31  1  0.05226662  0.43930869  0.46472544  1
  Ti  Ti32  1  0.05452222  0.52523511  0.78715399  1
  Ti  Ti33  1  0.01843006  0.83489276  0.15485263  1
  Ti  Ti34  1  0.04243562  0.89787070  0.45009506  1
  Ti  Ti35  1  0.03774713  0.83489440  0.90585940  1
  Ti  Ti36  1  0.34182416  0.11583143  0.16459710  1
  Ti  Ti37  1  0.35115318  0.10751783  0.52021276  1
  Ti  Ti38  1  0.34396417  0.24818433  0.82424932  1
  Ti  Ti39  1  0.27858836  0.51914450  0.21628172  1
  Ti  Ti40  1  0.31877801  0.51747180  0.46397837  1
  Ti  Ti41  1  0.40438531  0.44283513  0.77826178  1
  Ti  Ti42  1  0.33385161  0.90072788  0.14980392  1
  Ti  Ti43  1  0.28692341  0.80317790  0.46127120  1
  Ti  Ti44  1  0.34753791  0.78405307  0.81177499  1
  Ti  Ti45  1  0.68821629  0.19600933  0.10179193  1
  Ti  Ti46  1  0.63730273  0.16385231  0.51013961  1
  Ti  Ti47  1  0.69964028  0.20973870  0.88508432  1
  Ti  Ti48  1  0.60996837  0.47666910  0.21871932  1
  Ti  Ti49  1  0.69818087  0.57856742  0.44953284  1
  Ti  Ti50  1  0.66263200  0.57529151  0.89728061  1
  Ti  Ti51  1  0.69399110  0.88130330  0.15951392  1
  Ti  Ti52  1  0.72908261  0.82685122  0.56674363  1
  Ti  Ti53  1  0.56453557  0.77897590  0.86104040  1
  Ti  Ti54  1  0.08806762  0.05424908  0.18688389  1
  Ti  Ti55  1  0.21815212  -0.01048134  0.41469435  1
  Ti  Ti56  1  0.12124673  0.02325117  0.90123946  1
  Ti  Ti57  1  0.13647298  0.25262995  0.07912433  1
  Ti  Ti58  1  0.23164078  0.34433404  0.48907529  1
  Ti  Ti59  1  0.11951165  0.36727849  0.87810566  1
  Ti  Ti60  1  0.21432265  0.71704050  0.13401228  1
  Ti  Ti61  1  0.09087335  0.65793311  0.50945527  1
  Ti  Ti62  1  0.18160654  0.68455717  0.77586008  1
  Ti  Ti63  1  0.56780842  0.02673851  0.11366849  1
  Ti  Ti64  1  0.40816318  -0.06513108  0.55095418  1
  Ti  Ti65  1  0.56838399  0.06716151  0.82668572  1
  Ti  Ti66  1  0.49660314  0.32090686  0.13800452  1
  Ti  Ti67  1  0.44593216  0.36824746  0.50146749  1
  Ti  Ti68  1  0.53072373  0.28743388  0.83351320  1
  Ti  Ti69  1  0.46557019  0.62035050  0.14267095  1
  Ti  Ti70  1  0.52308297  0.78005882  0.55628681  1
  Ti  Ti71  1  0.48792935  0.60762698  0.82472522  1
  Ti  Ti72  1  0.88473515  0.04351454  0.18853527  1
  Ti  Ti73  1  0.79812188  0.07406535  0.56167035  1
  Ti  Ti74  1  0.78403397  0.03501214  0.86630060  1
  Ti  Ti75  1  0.82040024  0.34412922  0.26596388  1
  Ti  Ti76  1  0.76777461  0.34019532  0.46724960  1
  Ti  Ti77  1  0.89643036  0.41202324  0.81231492  1
  Ti  Ti78  1  0.86524849  0.74399441  0.25195315  1
  Ti  Ti79  1  0.89217969  0.64652152  0.52326321  1
  Ti  Ti80  1  0.85000770  0.61353134  0.82348532  1
  Ti  Ti81  1  0.26058503  0.15551905  -0.01778333  1
  Ti  Ti82  1  0.22825276  0.16429292  0.33499240  1
  Ti  Ti83  1  0.22606701  0.13698053  0.66669404  1
  Ti  Ti84  1  0.16320808  0.56041655  -0.04294190  1
  Ti  Ti85  1  0.13632303  0.56219980  0.33062318  1
  Ti  Ti86  1  0.18026527  0.49174159  0.62543252  1
  Ti  Ti87  1  0.21860978  0.86309969  -0.00994173  1
  Ti  Ti88  1  0.10865999  0.76115347  0.32754442  1
  Ti  Ti89  1  0.17466860  0.83760837  0.63005571  1
  Ti  Ti90  1  0.45174989  0.14840326  -0.01778321  1
  Ti  Ti91  1  0.49828106  0.18954882  0.37052910  1
  Ti  Ti92  1  0.48945865  0.13659536  0.67065607  1
  Ti  Ti93  1  0.41401902  0.51469855  -0.03080975  1
  Ti  Ti94  1  0.52144868  0.49478511  0.39830732  1
  Ti  Ti95  1  0.50678480  0.54071402  0.60705421  1
  Ti  Ti96  1  0.51059877  0.83873740  0.06514604  1
  Ti  Ti97  1  0.51706033  0.84760809  0.25643252  1
  Ti  Ti98  1  0.48192061  0.91446151  0.73808560  1
  Ti  Ti99  1  0.85980001  0.16581159  0.00770622  1
  Ti  Ti100  1  0.77966821  0.14969985  0.36466660  1
  Ti  Ti101  1  0.84116463  0.17409311  0.74822253  1
  Ti  Ti102  1  0.83035884  0.48734502  -0.01188486  1
  Ti  Ti103  1  0.83513808  0.53002620  0.31611020  1
  Ti  Ti104  1  0.75339024  0.49369774  0.61369804  1
  Ti  Ti105  1  0.82841148  0.81953818  -0.00527305  1
  Ti  Ti106  1  0.82855201  0.85936489  0.40711387  1
  Ti  Ti107  1  0.89668967  0.82215516  0.67130215  1
  Co  Co108  1  0.34656522  0.45010398  0.61743283  1
  Co  Co109  1  0.12881165  0.57257691  0.12565718  1
  Co  Co110  1  0.94826358  0.89259893  0.29164377  1
  Co  Co111  1  0.76919766  0.74017998  0.12874455  1
  Co  Co112  1  0.75648453  0.45510323  0.15524823  1
  Co  Co113  1  0.13601921  -0.00381494  0.73447074  1
  Co  Co114  1  0.40671954  0.00303378  0.04815058  1
  Co  Co115  1  1.01543465  0.78695210  0.56301208  1
  Co  Co116  1  0.50812229  0.35535654  0.30749097  1
  Co  Co117  1  0.94582769  0.16503705  0.30498024  1
  Co  Co118  1  0.59646947  0.31116438  0.44318653  1
  Co  Co119  1  0.35079870  0.39829349  0.35316633  1
  Co  Co120  1  0.98867432  0.49655291  0.94052783  1
  Co  Co121  1  0.07785760  0.08142787  0.37012667  1
  Co  Co122  1  0.47260812  0.32686078  0.68758843  1
  Co  Co123  1  0.98080988  0.57964622  0.39232463  1
  Co  Co124  1  0.18896557  0.41575320  0.35719086  1
  Co  Co125  1  0.31988774  0.60286474  0.85875280  1
  Co  Co126  1  0.80699362  0.19195042  0.20525439  1
  Co  Co127  1  0.45264654  0.79371379  0.41367109  1
  Co  Co128  1  0.62054377  0.45588775  0.51966853  1
  Co  Co129  1  0.90808802  0.74999439  0.85768524  1
  Co  Co130  1  0.45186915  1.00824662  0.22023494  1
  Co  Co131  1  0.20499472  0.86418781  0.82156816  1
  Co  Co132  1  0.10215811  0.20738303  0.24081308  1
  Co  Co133  1  0.04808024  0.66829917  0.87727398  1
  Co  Co134  1  0.72515147  0.74640073  0.87359253  1
  Co  Co135  1  0.66338043  0.92793451  0.78952949  1
  Co  Co136  1  0.60367098  0.73345736  0.17829077  1
  Co  Co137  1  0.80276670  0.95994830  0.68796640  1
  Co  Co138  1  0.48143279  0.21941161  0.54155835  1
  Co  Co139  1  0.88694672  0.93420314  0.54320909  1
  Co  Co140  1  0.19634859  0.17435652  0.49629643  1
  Co  Co141  1  0.82462950  0.32050788  0.08870555  1
  Co  Co142  1  0.80550860  0.66251886  0.65772233  1
  Co  Co143  1  0.25114375  0.00705817  0.24809424  1
  Co  Co144  1  0.10754548  0.43930648  0.21531387  1
  Co  Co145  1  0.21819814  0.71343579  0.93387949  1
  Co  Co146  1  0.50640327  0.05449088  0.48016086  1
  Co  Co147  1  0.85894218  0.88969119  0.14831944  1
  Co  Co148  1  0.79851372  0.65554564  0.98656535  1
  Co  Co149  1  0.60739906  0.82155514  0.68589352  1
  Co  Co150  1  0.75436592  0.79557105  0.73309326  1
  Co  Co151  1  0.56294257  0.48879757  0.05523651  1
  Co  Co152  1  0.83686780  0.88918674  0.84072597  1
  Co  Co153  1  0.29199141  0.58764339  0.05924219  1
  Co  Co154  1  0.40108889  0.44885724  0.11468906  1
  Co  Co155  1  0.65570878  0.76598810  0.01733847  1
  Co  Co156  1  0.18684782  0.27990124  0.75342258  1
  Co  Co157  1  0.21865038  0.50095125  0.77844515  1
  Co  Co158  1  0.68124879  0.42736522  0.35655293  1
  Co  Co159  1  0.22607899  0.11917188  0.82514312  1
  Co  Co160  1  -0.03339081  0.74611307  0.39539369  1
  Co  Co161  1  0.37131722  0.09252872  0.34752469  1
  Ni  Ni162  1  0.08326167  0.94387092  1.05084646  1
  Ni  Ni163  1  0.93676255  0.08161654  0.64189455  1
  Ni  Ni164  1  0.97131416  0.42582477  0.31640554  1
  Ni  Ni165  1  0.89530185  0.52270798  0.68788982  1
  Ni  Ni166  1  0.23278344  0.68181795  0.59757099  1
  Ni  Ni167  1  0.49132631  0.92916581  0.91445409  1
  Ni  Ni168  1  0.76323505  0.02402976  0.05108948  1
  Ni  Ni169  1  0.47999387  0.71933641  0.70803902  1
  Ni  Ni170  1  0.53337179  0.65487394  0.99144829  1
  Ni  Ni171  1  0.52898192  0.16394619  0.20220833  1
  Ni  Ni172  1  0.35332580  0.80062220  0.63917630  1
  Ni  Ni173  1  0.57303796  0.90331492  0.44140616  1
  Ni  Ni174  1  0.05482044  0.82842314  0.74018252  1
  Ni  Ni175  1  0.23875577  0.65334523  0.43660306  1
  Ni  Ni176  1  0.09074856  0.42363401  0.05257584  1
  Ni  Ni177  1  0.10373390  0.20356682  0.91049317  1
  Ni  Ni178  1  0.54737213  0.44242338  0.89545513  1
  Ni  Ni179  1  0.54260841  0.64895784  0.45992946  1
  Ni  Ni180  1  0.03331331  0.94543660  0.61676429  1
  Ni  Ni181  1  0.71861774  -0.01318582  0.44636227  1
  Ni  Ni182  1  0.96081469  0.26277020  0.83262842  1
  Ni  Ni183  1  0.20514278  -0.00644283  0.57569914  1
  Ni  Ni184  1  0.38387015  0.24772134  0.26174325  1
  Ni  Ni185  1  0.81554418  0.31472723  0.91918934  1
  Ni  Ni186  1  0.76521582  0.23919538  0.60655779  1
  Ni  Ni187  1  0.38742463  0.75262967  0.19984087  1
  Ni  Ni188  1  0.01847189  0.52813555  0.59488480  1
  Ni  Ni189  1  0.57263005  0.25675174  -0.00561461  1
  Ni  Ni190  1  0.28471087  0.39728138  0.88323927  1
  Ni  Ni191  1  0.79919800  0.69526642  0.39578390  1
  Ni  Ni192  1  0.96208526  0.10640164  0.88452265  1
  Ni  Ni193  1  0.91594728  0.18370004  0.47185679  1
  Ni  Ni194  1  0.25807900  0.67984141  0.28248911  1
  Ni  Ni195  1  0.64053710  0.21716542  0.72745742  1
  Ni  Ni196  1  0.43862105  0.50415641  0.26196059  1
  Ni  Ni197  1  0.11115416  0.92692795  0.29310182  1
  Ni  Ni198  1  0.74733413  0.48960249  0.77943294  1
  Ni  Ni199  1  0.69642594  0.07598866  0.71140770  1
  Ni  Ni200  1  0.77145569  0.96967060  0.28724195  1
  Ni  Ni201  1  0.62642460  0.09318154  0.97681275  1
  Ni  Ni202  1  0.87980776  0.47625261  0.48247179  1
  Ni  Ni203  1  0.26077368  0.84462953  0.29553118  1
  Ni  Ni204  1  0.58665709  0.47705516  0.73647404  1
  Ni  Ni205  1  0.03395946  0.11729318  0.03749358  1
  Ni  Ni206  1  0.33932296  0.26895009  0.09484038  1
  Ni  Ni207  1  0.42259462  0.33686598  0.96596854  1
  Ni  Ni208  1  0.34761150  0.24496825  0.43046860  1
  Ni  Ni209  1  0.38856863  0.67181449  0.52531722  1
  Ni  Ni210  1  0.84695256  0.59360107  0.14822099  1
  Ni  Ni211  1  0.71170953  0.63164632  0.25999578  1
  Ni  Ni212  1  0.08829445  0.73390058  0.03460777  1
  Ni  Ni213  1  0.39664059  0.09076099  0.80482069  1
  Ni  Ni214  1  0.04596976  0.37329801  0.71855133  1
  Ni  Ni215  1  0.22863589  1.01935373  0.07437426  1
