# generated using pymatgen
data_Ti2CoNi
_symmetry_space_group_name_H-M   'P 1'
_cell_length_a   14.52271731
_cell_length_b   14.52965800
_cell_length_c   14.52536062
_cell_angle_alpha   90.01722415
_cell_angle_beta   90.04110257
_cell_angle_gamma   89.92908462
_symmetry_Int_Tables_number   1
_chemical_formula_structural   Ti2CoNi
_chemical_formula_sum   'Ti108 Co54 Ni54'
_cell_volume   3064.99475062
_cell_formula_units_Z   54
loop_
 _symmetry_equiv_pos_site_id
 _symmetry_equiv_pos_as_xyz
  1  'x, y, z'
loop_
 _atom_site_type_symbol
 _atom_site_label
 _atom_site_symmetry_multiplicity
 _atom_site_fract_x
 _atom_site_fract_y
 _atom_site_fract_z
 _atom_site_occupancy
  Ti  Ti0  1  -0.03915351  0.02435719  -0.03824225  1
  Ti  Ti1  1  -0.05791421  -0.02998384  0.30111681  1
  Ti  Ti2  1  0.01194607  -0.02058449  0.65645315  1
  Ti  Ti3  1  0.00038138  0.33160000  -0.08483749  1
  Ti  Ti4  1  0.04470563  0.43463624  0.32124120  1
  Ti  Ti5  1  0.06561118  0.28952157  0.69216401  1
  Ti  Ti6  1  0.04253598  0.71045277  0.02263160  1
  Ti  Ti7  1  -0.01901652  0.64064318  0.35215141  1
  Ti  Ti8  1  0.03483452  0.68775872  0.67890029  1
  Ti  Ti9  1  0.27043470  0.00081011  0.00281473  1
  Ti  Ti10  1  0.25392239  0.01621575  0.29967466  1
  Ti  Ti11  1  0.37407356  0.07964807  0.71367096  1
  Ti  Ti12  1  0.27932686  0.34345018  0.09028944  1
  Ti  Ti13  1  0.34615050  0.34380316  0.28558717  1
  Ti  Ti14  1  0.37975932  0.35468658  0.61384765  1
  Ti  Ti15  1  0.38075365  0.70681550  0.01487164  1
  Ti  Ti16  1  0.34402035  0.69311315  0.23019616  1
  Ti  Ti17  1  0.37331742  0.70461255  0.70916045  1
  Ti  Ti18  1  0.59986661  0.02338384  -0.00177070  1
  Ti  Ti19  1  0.68537780  0.02543222  0.28376019  1
  Ti  Ti20  1  0.67090221  -0.08171982  0.67017188  1
  Ti  Ti21  1  0.70904245  0.29700353  0.02216342  1
  Ti  Ti22  1  0.65247873  0.33086896  0.34000396  1
  Ti  Ti23  1  0.64663899  0.37435421  0.70349343  1
  Ti  Ti24  1  0.72211482  0.73661804  -0.05000194  1
  Ti  Ti25  1  0.69742202  0.69276442  0.39710515  1
  Ti  Ti26  1  0.62939714  0.71535634  0.65480252  1
  Ti  Ti27  1  0.02821530  0.20694743  0.08115540  1
  Ti  Ti28  1  -0.03198110  0.08693211  0.47128198  1
  Ti  Ti29  1  -0.03893981  0.15427473  0.80950104  1
  Ti  Ti30  1  0.01253937  0.55405464  0.16219396  1
  Ti  Ti31  1  -0.04792671  0.49484179  0.48341670  1
  Ti  Ti32  1  -0.05068233  0.47270077  0.78658619  1
  Ti  Ti33  1  -0.02946193  0.76908674  0.20239756  1
  Ti  Ti34  1  0.03029746  0.82900314  0.42092724  1
  Ti  Ti35  1  -0.05970001  0.77487482  0.86871212  1
  Ti  Ti36  1  0.21732657  0.14979618  0.11215838  1
  Ti  Ti37  1  0.29945324  0.15416769  0.46021391  1
  Ti  Ti38  1  0.33640083  0.17082816  0.88671053  1
  Ti  Ti39  1  0.32957684  0.53486182  0.10959284  1
  Ti  Ti40  1  0.38617161  0.55851761  0.48468807  1
  Ti  Ti41  1  0.25804258  0.53512509  0.81954839  1
  Ti  Ti42  1  0.38529117  0.87585785  0.15143769  1
  Ti  Ti43  1  0.41684737  0.88310106  0.47362873  1
  Ti  Ti44  1  0.32449837  0.86890084  0.85442943  1
  Ti  Ti45  1  0.70555140  0.12418550  0.11962014  1
  Ti  Ti46  1  0.69479230  0.21261504  0.48927224  1
  Ti  Ti47  1  0.63996016  0.07963294  0.79369741  1
  Ti  Ti48  1  0.71365212  0.53915241  0.27597740  1
  Ti  Ti49  1  0.65182747  0.50679244  0.48350802  1
  Ti  Ti50  1  0.65591247  0.43596661  0.89286954  1
  Ti  Ti51  1  0.62471179  0.86558883  0.17176279  1
  Ti  Ti52  1  0.72506602  0.86367008  0.47721028  1
  Ti  Ti53  1  0.60450933  0.87963745  0.83740946  1
  Ti  Ti54  1  0.08657898  0.04790874  0.20978267  1
  Ti  Ti55  1  0.16734812  0.00197981  0.55380861  1
  Ti  Ti56  1  0.13039055  -0.04607642  0.84977862  1
  Ti  Ti57  1  0.14147015  0.29126988  0.23274894  1
  Ti  Ti58  1  0.11167283  0.36349316  0.51351298  1
  Ti  Ti59  1  0.28654715  0.34856161  0.88564735  1
  Ti  Ti60  1  0.17813601  0.66557987  0.14116139  1
  Ti  Ti61  1  0.19589014  0.66731739  0.53111453  1
  Ti  Ti62  1  0.12070800  0.66263999  0.84870592  1
  Ti  Ti63  1  0.48398429  -0.02229014  0.30292783  1
  Ti  Ti64  1  0.59412485  0.02634177  0.46930888  1
  Ti  Ti65  1  0.46279088  -0.00040953  0.85433288  1
  Ti  Ti66  1  0.49955449  0.32002054  0.15288832  1
  Ti  Ti67  1  0.48931510  0.24961237  0.45802183  1
  Ti  Ti68  1  0.48100669  0.32682880  0.84759199  1
  Ti  Ti69  1  0.51858778  0.57127993  0.19403060  1
  Ti  Ti70  1  0.52859779  0.70632462  0.48582128  1
  Ti  Ti71  1  0.47690989  0.62336686  0.83421190  1
  Ti  Ti72  1  0.89791364  0.07247723  0.14789496  1
  Ti  Ti73  1  0.82525779  -0.00680268  0.56412886  1
  Ti  Ti74  1  0.79679104  -0.06809604  0.86311146  1
  Ti  Ti75  1  0.85592373  0.25579549  0.16639306  1
  Ti  Ti76  1  0.91731891  0.28248516  0.53339298  1
  Ti  Ti77  1  0.79331837  0.29195262  0.82868753  1
  Ti  Ti78  1  0.83393207  0.62141556  0.12997510  1
  Ti  Ti79  1  0.82241186  0.65793875  0.55096892  1
  Ti  Ti80  1  0.80776860  0.63742128  0.76037415  1
  Ti  Ti81  1  0.13567881  0.13741422  -0.07652710  1
  Ti  Ti82  1  0.11907286  0.15711671  0.38350288  1
  Ti  Ti83  1  0.22518751  0.17386042  0.65134039  1
  Ti  Ti84  1  0.08944884  0.50692763  -0.01247985  1
  Ti  Ti85  1  0.23597021  0.47030401  0.37301589  1
  Ti  Ti86  1  0.10748098  0.50658596  0.64594060  1
  Ti  Ti87  1  0.21495618  0.81269449  0.01057398  1
  Ti  Ti88  1  0.23044965  0.80807690  0.39979507  1
  Ti  Ti89  1  0.21260547  0.79781679  0.70711321  1
  Ti  Ti90  1  0.43181522  0.10739402  0.04991753  1
  Ti  Ti91  1  0.43675391  0.16322662  0.29952313  1
  Ti  Ti92  1  0.56371149  0.21037253  0.63210115  1
  Ti  Ti93  1  0.53827286  0.55247945  0.00412300  1
  Ti  Ti94  1  0.50195088  0.43788786  0.36046453  1
  Ti  Ti95  1  0.51006219  0.48519321  0.68609440  1
  Ti  Ti96  1  0.54030717  0.81830643  -0.00169420  1
  Ti  Ti97  1  0.51026916  0.76413872  0.30072961  1
  Ti  Ti98  1  0.42804908  0.88144924  0.67542285  1
  Ti  Ti99  1  0.86089067  0.18512928  -0.02408737  1
  Ti  Ti100  1  0.85006008  0.20198626  0.36096550  1
  Ti  Ti101  1  0.79438483  0.15775455  0.68676517  1
  Ti  Ti102  1  0.73974557  0.47087322  0.07597812  1
  Ti  Ti103  1  0.85469564  0.39432163  0.33125364  1
  Ti  Ti104  1  0.81155824  0.45632519  0.61881295  1
  Ti  Ti105  1  0.87557556  0.86124927  0.03660795  1
  Ti  Ti106  1  0.78794722  0.84425470  0.28868653  1
  Ti  Ti107  1  0.90300935  0.83121188  0.69859916  1
  Co  Co108  1  0.69239384  0.15240156  0.94142808  1
  Co  Co109  1  0.55143384  0.12553607  0.19246758  1
  Co  Co110  1  0.24654894  0.63424626  0.36903229  1
  Co  Co111  1  0.80637203  0.54969498  0.42229713  1
  Co  Co112  1  0.86984312  0.75169836  0.42150932  1
  Co  Co113  1  0.49077931  0.17416531  0.76567945  1
  Co  Co114  1  0.97511629  0.41198677  0.62543892  1
  Co  Co115  1  0.87305356  0.92235219  0.42575407  1
  Co  Co116  1  0.51632005  0.98058134  0.13581613  1
  Co  Co117  1  0.93327417  0.57000796  0.64478635  1
  Co  Co118  1  0.88387291  0.34058592  0.03176849  1
  Co  Co119  1  0.40971878  0.42482800  0.01584964  1
  Co  Co120  1  0.82128213  0.68721845  0.27822916  1
  Co  Co121  1  0.04419376  0.87268974  0.96964268  1
  Co  Co122  1  0.90441795  0.29623911  0.71993390  1
  Co  Co123  1  0.52240318  0.15299726  0.91540421  1
  Co  Co124  1  0.77089080  0.47920890  0.77425092  1
  Co  Co125  1  1.01400068  0.28398724  0.40318718  1
  Co  Co126  1  0.39516622  0.18895539  0.59021791  1
  Co  Co127  1  0.88776960  0.54105355  0.27874338  1
  Co  Co128  1  0.55759878  0.36708821  1.00375387  1
  Co  Co129  1  0.26898644  0.85898203  0.56551536  1
  Co  Co130  1  0.97558812  0.92732869  0.13764542  1
  Co  Co131  1  -0.01994969  0.30172654  0.24679596  1
  Co  Co132  1  0.43717019  0.06422749  0.44217983  1
  Co  Co133  1  0.74412045  0.36078143  0.20383862  1
  Co  Co134  1  0.24033491  0.81266323  0.20606104  1
  Co  Co135  1  0.11297704  0.89111668  0.27917745  1
  Co  Co136  1  0.59417555  0.15092844  0.35752011  1
  Co  Co137  1  0.09202061  -0.00454489  0.39709270  1
  Co  Co138  1  0.21747696  0.62972710  -0.01274900  1
  Co  Co139  1  0.22084557  0.96007360  0.14738134  1
  Co  Co140  1  0.36127369  0.86077747  0.31469755  1
  Co  Co141  1  0.98014835  0.14489332  0.28706873  1
  Co  Co142  1  0.41431502  0.26713724  0.99982009  1
  Co  Co143  1  0.27073977  0.03114500  0.84153800  1
  Co  Co144  1  0.34395072  0.01899456  0.56935335  1
  Co  Co145  1  0.09750964  0.18797901  0.54499764  1
  Co  Co146  1  0.27783435  0.96703751  0.43755105  1
  Co  Co147  1  0.76699836  0.77467419  0.12393451  1
  Co  Co148  1  0.46380268  0.79128856  0.84487652  1
  Co  Co149  1  0.92745330  0.83466022  0.54678667  1
  Co  Co150  1  0.89602363  0.43137765  0.16828081  1
  Co  Co151  1  0.34364322  0.26007533  0.74389052  1
  Co  Co152  1  0.77269974  0.79886792  0.60757726  1
  Co  Co153  1  0.72064929  0.19997045  0.26691093  1
  Co  Co154  1  0.57178699  0.20742539  0.05425414  1
  Co  Co155  1  0.03917953  0.37800644  0.10180048  1
  Co  Co156  1  0.26072952  0.95483820  0.69996634  1
  Co  Co157  1  0.23970668  0.46373438  0.97926063  1
  Co  Co158  1  0.10570200  0.84149921  0.12395074  1
  Co  Co159  1  0.37169412  0.55652725  0.93911820  1
  Co  Co160  1  0.96775037  0.95143356  0.81918084  1
  Co  Co161  1  0.80996376  0.09423779  0.84717617  1
  Ni  Ni162  1  0.36056641  0.72435421  0.55034834  1
  Ni  Ni163  1  0.56737733  0.85976834  0.54680339  1
  Ni  Ni164  1  -0.03507554  0.60407402  0.89032796  1
  Ni  Ni165  1  0.11754802  0.44005718  0.83041667  1
  Ni  Ni166  1  0.36445765  0.05169766  0.18566977  1
  Ni  Ni167  1  0.65307272  0.69949294  0.23009134  1
  Ni  Ni168  1  0.10035001  0.01943193  0.04661382  1
  Ni  Ni169  1  0.67348412  0.55491352  0.63914308  1
  Ni  Ni170  1  0.60138558  0.43328843  0.20307751  1
  Ni  Ni171  1  0.77084591  0.37113440  0.46921619  1
  Ni  Ni172  1  0.87637417  0.69205013  0.99760791  1
  Ni  Ni173  1  0.10325231  0.10350230  0.73638319  1
  Ni  Ni174  1  0.63254645  0.25088796  0.82526160  1
  Ni  Ni175  1  0.70074034  0.89088448  1.00992497  1
  Ni  Ni176  1  0.06599542  0.82692194  0.77100006  1
  Ni  Ni177  1  0.67483534  0.07493059  0.60612196  1
  Ni  Ni178  1  0.54302159  0.38517732  0.53940604  1
  Ni  Ni179  1  0.42273497  0.93153721  0.99959289  1
  Ni  Ni180  1  0.36660401  0.38054138  0.45233338  1
  Ni  Ni181  1  0.61841562  0.71342745  0.82294879  1
  Ni  Ni182  1  0.48280171  0.62407316  0.61929392  1
  Ni  Ni183  1  0.76915777  0.06802317  0.42102527  1
  Ni  Ni184  1  0.00153491  0.67241476  0.51957373  1
  Ni  Ni185  1  0.55386451  0.59648385  0.35687976  1
  Ni  Ni186  1  0.61711095  0.87446839  0.35477163  1
  Ni  Ni187  1  0.82663572  0.42528799  0.91541367  1
  Ni  Ni188  1  0.78471617  0.94930184  0.15654780  1
  Ni  Ni189  1  0.15261488  0.26691994  0.82607574  1
  Ni  Ni190  1  0.26219581  0.18775664  0.28703062  1
  Ni  Ni191  1  0.84943169  0.00089928  0.71988960  1
  Ni  Ni192  1  0.13327394  0.57051856  0.27511219  1
  Ni  Ni193  1  0.09143938  0.82791827  0.58491165  1
  Ni  Ni194  1  0.10794443  0.55002737  0.44999293  1
  Ni  Ni195  1  0.20715419  0.44820322  0.20226682  1
  Ni  Ni196  1  0.37695840  0.43413972  0.76760150  1
  Ni  Ni197  1  0.50562520  0.72654507  0.13437161  1
  Ni  Ni198  1  0.14902214  0.29941849  -0.00611461  1
  Ni  Ni199  1  0.29711071  0.70359894  0.86137892  1
  Ni  Ni200  1  0.11741571  0.72834328  0.28906378  1
  Ni  Ni201  1  0.95961709  0.14486866  0.63900390  1
  Ni  Ni202  1  0.20998996  0.62980149  0.69188934  1
  Ni  Ni203  1  0.22092841  0.29958786  0.40855853  1
  Ni  Ni204  1  0.38383060  0.70590275  0.39349604  1
  Ni  Ni205  1  0.24789759  0.46835068  0.55132983  1
  Ni  Ni206  1  0.52741784  1.01717130  0.66413183  1
  Ni  Ni207  1  0.75384628  0.79679749  0.77680239  1
  Ni  Ni208  1  0.66771863  0.63093102  0.08055756  1
  Ni  Ni209  1  0.37491728  0.53219644  0.29124458  1
  Ni  Ni210  1  0.62749356  0.55594470  0.79401869  1
  Ni  Ni211  1  0.77647537  0.57886620  0.92571586  1
  Ni  Ni212  1  0.92112231  0.50765571  0.02014382  1
  Ni  Ni213  1  0.36218760  0.21816986  0.15911602  1
  Ni  Ni214  1  0.76018765  0.29789668  0.61893702  1
  Ni  Ni215  1  0.79303703  0.02691062  0.00584943  1
