# generated using pymatgen
data_Ti2CoNi
_symmetry_space_group_name_H-M   'P 1'
_cell_length_a   14.64952955
_cell_length_b   14.65647531
_cell_length_c   14.71343816
_cell_angle_alpha   89.80546109
_cell_angle_beta   89.88050140
_cell_angle_gamma   89.64569857
_symmetry_Int_Tables_number   1
_chemical_formula_structural   Ti2CoNi
_chemical_formula_sum   'Ti108 Co54 Ni54'
_cell_volume   3159.04385064
_cell_formula_units_Z   54
loop_
 _symmetry_equiv_pos_site_id
 _symmetry_equiv_pos_as_xyz
  1  'x, y, z'
loop_
 _atom_site_type_symbol
 _atom_site_label
 _atom_site_symmetry_multiplicity
 _atom_site_fract_x
 _atom_site_fract_y
 _atom_site_fract_z
 _atom_site_occupancy
  Ti  Ti0  1  0.09555327  -0.01821710  -0.02984896  1
  Ti  Ti1  1  -0.01114333  -0.00561123  0.34935849  1
  Ti  Ti2  1  -0.05319569  -0.00302046  0.65963066  1
  Ti  Ti3  1  0.00004246  0.31956832  0.06077704  1
  Ti  Ti4  1  -0.06145830  0.25779972  0.32016691  1
  Ti  Ti5  1  0.02261927  0.35251075  0.64365193  1
  Ti  Ti6  1  -0.02309966  0.67293006  0.01374341  1
  Ti  Ti7  1  0.01369462  0.71813782  0.24394936  1
  Ti  Ti8  1  -0.03498475  0.66968572  0.68683106  1
  Ti  Ti9  1  0.31418462  -0.03407608  -0.01149319  1
  Ti  Ti10  1  0.37827259  0.01700711  0.27565240  1
  Ti  Ti11  1  0.26114268  -0.00073281  0.68035045  1
  Ti  Ti12  1  0.30968740  0.24190563  -0.01735186  1
  Ti  Ti13  1  0.37130792  0.36673842  0.33776849  1
  Ti  Ti14  1  0.32686575  0.32313455  0.67799031  1
  Ti  Ti15  1  0.33364636  0.74492206  0.00717884  1
  Ti  Ti16  1  0.41557937  0.62448751  0.34026358  1
  Ti  Ti17  1  0.30062193  0.63334457  0.57707219  1
  Ti  Ti18  1  0.57103330  -0.00485125  -0.05529178  1
  Ti  Ti19  1  0.64906837  0.08058646  0.42337977  1
  Ti  Ti20  1  0.61122816  0.02172849  0.65179025  1
  Ti  Ti21  1  0.79208478  0.32628577  -0.05708189  1
  Ti  Ti22  1  0.72597561  0.32366827  0.36123531  1
  Ti  Ti23  1  0.73565300  0.39235678  0.63528804  1
  Ti  Ti24  1  0.68206789  0.65566737  -0.00047666  1
  Ti  Ti25  1  0.65005866  0.67286603  0.33952245  1
  Ti  Ti26  1  0.67984650  0.69000689  0.57814987  1
  Ti  Ti27  1  0.07675836  0.11651448  0.19424531  1
  Ti  Ti28  1  0.03643289  0.09770087  0.53746486  1
  Ti  Ti29  1  -0.00017991  0.11900604  0.80917866  1
  Ti  Ti30  1  -0.06454715  0.54762159  0.16207175  1
  Ti  Ti31  1  0.01955443  0.45708768  0.46289991  1
  Ti  Ti32  1  0.03823623  0.47503678  0.78285786  1
  Ti  Ti33  1  0.05459875  0.91528111  0.15309972  1
  Ti  Ti34  1  0.01050631  0.82869564  0.54003599  1
  Ti  Ti35  1  -0.03972931  0.83116581  0.89943449  1
  Ti  Ti36  1  0.38029336  0.19063202  0.18144432  1
  Ti  Ti37  1  0.28251758  0.22814878  0.50611748  1
  Ti  Ti38  1  0.39731087  0.20695521  0.83055381  1
  Ti  Ti39  1  0.27987360  0.53980160  0.18583750  1
  Ti  Ti40  1  0.32284005  0.44998897  0.52363402  1
  Ti  Ti41  1  0.29214100  0.42730322  0.84628600  1
  Ti  Ti42  1  0.37104052  0.85850422  0.17461740  1
  Ti  Ti43  1  0.34683215  0.86038244  0.55879578  1
  Ti  Ti44  1  0.35624899  0.86647183  0.80146315  1
  Ti  Ti45  1  0.61097345  0.19521522  0.20657583  1
  Ti  Ti46  1  0.62150818  0.26503936  0.51928040  1
  Ti  Ti47  1  0.69736875  0.14534431  0.92153402  1
  Ti  Ti48  1  0.72695302  0.53756085  0.17631397  1
  Ti  Ti49  1  0.63108699  0.46407523  0.47881527  1
  Ti  Ti50  1  0.59229606  0.50418942  0.78613395  1
  Ti  Ti51  1  0.66325515  0.84209429  0.23760507  1
  Ti  Ti52  1  0.65904642  0.87925262  0.51215449  1
  Ti  Ti53  1  0.69351384  0.81124287  0.80448725  1
  Ti  Ti54  1  0.20309475  -0.06105422  0.27479844  1
  Ti  Ti55  1  0.19558634  -0.00430512  0.48722259  1
  Ti  Ti56  1  0.18584439  0.10776373  0.83570993  1
  Ti  Ti57  1  0.21110618  0.35993151  0.11318882  1
  Ti  Ti58  1  0.08672357  0.26515773  0.47493139  1
  Ti  Ti59  1  0.13183909  0.36879333  0.92288134  1
  Ti  Ti60  1  0.21416827  0.72909056  0.18022487  1
  Ti  Ti61  1  0.16978370  0.59866327  0.42325075  1
  Ti  Ti62  1  0.11545683  0.63940485  0.83033574  1
  Ti  Ti63  1  0.50213354  0.03765384  0.11872297  1
  Ti  Ti64  1  0.45930572  -0.00561759  0.44876517  1
  Ti  Ti65  1  0.46383518  0.02568354  0.77946114  1
  Ti  Ti66  1  0.55883349  0.38294801  0.09174579  1
  Ti  Ti67  1  0.51320473  0.39981100  0.62405111  1
  Ti  Ti68  1  0.56637027  0.30054464  0.82018414  1
  Ti  Ti69  1  0.52810036  0.60660377  0.14417256  1
  Ti  Ti70  1  0.48226112  0.71000967  0.54174842  1
  Ti  Ti71  1  0.46297792  0.71084911  0.85661745  1
  Ti  Ti72  1  0.78618702  -0.00821322  0.13163564  1
  Ti  Ti73  1  0.83667986  0.00017629  0.48953644  1
  Ti  Ti74  1  0.83617186  -0.04405715  0.80778438  1
  Ti  Ti75  1  0.83022459  0.36543056  0.13684285  1
  Ti  Ti76  1  0.88598586  0.28800936  0.51452550  1
  Ti  Ti77  1  0.89105456  0.29280486  0.77355055  1
  Ti  Ti78  1  0.83072049  0.70706066  0.26877228  1
  Ti  Ti79  1  0.83267437  0.60142174  0.44289460  1
  Ti  Ti80  1  0.75612010  0.63578130  0.76537301  1
  Ti  Ti81  1  0.11669649  0.17823648  -0.00139778  1
  Ti  Ti82  1  0.21301266  0.23861208  0.31654528  1
  Ti  Ti83  1  0.16201399  0.21454425  0.67086190  1
  Ti  Ti84  1  0.19201588  0.57826286  0.00467939  1
  Ti  Ti85  1  0.09967231  0.50757754  0.27097549  1
  Ti  Ti86  1  0.12473644  0.53358970  0.61518032  1
  Ti  Ti87  1  0.16294547  0.79927816  -0.06054248  1
  Ti  Ti88  1  0.18588777  0.80334616  0.42634241  1
  Ti  Ti89  1  0.21352323  0.77529066  0.68122616  1
  Ti  Ti90  1  0.52361036  0.21128173  0.00214491  1
  Ti  Ti91  1  0.44418931  0.18714796  0.38564470  1
  Ti  Ti92  1  0.49461424  0.19376153  0.66293752  1
  Ti  Ti93  1  0.45566065  0.50894920  -0.06497062  1
  Ti  Ti94  1  0.55563154  0.47114510  0.29122577  1
  Ti  Ti95  1  0.40186150  0.56204259  0.72727170  1
  Ti  Ti96  1  0.52724602  0.79594199  0.08743891  1
  Ti  Ti97  1  0.47119021  0.82005511  0.37326936  1
  Ti  Ti98  1  0.52548828  0.83565729  0.66899220  1
  Ti  Ti99  1  0.90356246  0.12582653  0.03669962  1
  Ti  Ti100  1  0.81224434  0.10659137  0.29760706  1
  Ti  Ti101  1  0.79070670  0.13318370  0.71723931  1
  Ti  Ti102  1  0.85042565  0.52928298  -0.02750202  1
  Ti  Ti103  1  0.88053078  0.44889330  0.32585440  1
  Ti  Ti104  1  0.84975082  0.48061985  0.76630437  1
  Ti  Ti105  1  0.78374217  0.81252040  0.05915847  1
  Ti  Ti106  1  0.79200821  0.91830117  0.33363511  1
  Ti  Ti107  1  0.81162245  0.83553319  0.64013133  1
  Co  Co108  1  0.71076934  0.51416836  0.89344607  1
  Co  Co109  1  0.67423431  0.37633840  0.20961362  1
  Co  Co110  1  0.61511918  0.38126234  0.93874906  1
  Co  Co111  1  0.54719197  0.33654600  0.38937037  1
  Co  Co112  1  0.82179495  0.70891762  0.93617681  1
  Co  Co113  1  0.32057704  0.03832010  0.84498051  1
  Co  Co114  1  0.57151378  0.13645415  0.81672177  1
  Co  Co115  1  0.77726032  0.18833262  0.43675825  1
  Co  Co116  1  0.51812328  0.91919425  0.22589674  1
  Co  Co117  1  0.30287849  0.44575775  1.00613447  1
  Co  Co118  1  0.44075778  0.34455175  0.94132768  1
  Co  Co119  1  0.85916712  0.13465515  0.57146181  1
  Co  Co120  1  0.38498101  0.69107162  0.17145149  1
  Co  Co121  1  0.19675461  0.40623291  0.42683581  1
  Co  Co122  1  0.33046374  0.72775711  0.45542164  1
  Co  Co123  1  0.85386073  0.76799980  0.79247971  1
  Co  Co124  1  0.96402308  0.84519467  0.71158465  1
  Co  Co125  1  0.61416880  0.65699567  0.85691009  1
  Co  Co126  1  0.28951825  0.09055521  0.39360165  1
  Co  Co127  1  0.68255756  0.26615716  0.05525293  1
  Co  Co128  1  0.31821615  0.90869963  0.39582768  1
  Co  Co129  1  0.10539345  0.06351381  0.68176379  1
  Co  Co130  1  0.58666174  0.53046516  0.00769748  1
  Co  Co131  1  0.36193741  0.59286380  0.04729125  1
  Co  Co132  1  0.52281684  0.08452561  0.28943020  1
  Co  Co133  1  0.38772207  0.73685268  0.69470012  1
  Co  Co134  1  0.18608268  0.03191638  0.09878848  1
  Co  Co135  1  0.45739104  0.47008975  0.43368545  1
  Co  Co136  1  0.09431246  0.79423960  0.78869049  1
  Co  Co137  1  0.71700882  0.43944044  0.04813313  1
  Co  Co138  1  0.20146560  0.91723496  0.82873593  1
  Co  Co139  1  0.04145426  0.95785480  0.80908317  1
  Co  Co140  1  0.82901522  0.65421777  0.09891107  1
  Co  Co141  1  0.46517355  0.54940592  0.57694282  1
  Co  Co142  1  0.21916195  0.19510648  0.12179515  1
  Co  Co143  1  0.23161708  0.26158412  0.82675310  1
  Co  Co144  1  0.32351762  0.15167002  0.69981626  1
  Co  Co145  1  0.09454206  0.27491013  0.19654289  1
  Co  Co146  1  0.04298925  0.71861197  0.41098744  1
  Co  Co147  1  0.17213624  0.39345879  0.73815311  1
  Co  Co148  1  0.51560893  0.12504038  0.52636060  1
  Co  Co149  1  0.22382700  0.39810165  0.26830380  1
  Co  Co150  1  0.42756321  0.08977022  -0.04061205  1
  Co  Co151  1  0.29606978  0.51762253  0.35944093  1
  Co  Co152  1  0.23584561  0.09464022  0.24352735  1
  Co  Co153  1  0.76724083  0.99015889  0.63598357  1
  Co  Co154  1  0.93645606  0.13429150  0.42047237  1
  Co  Co155  1  0.69384765  0.13388532  0.57311265  1
  Co  Co156  1  0.52154626  0.74304441  0.24313056  1
  Co  Co157  1  0.26704479  0.73508139  0.82887689  1
  Co  Co158  1  0.92885317  0.21156831  0.16940106  1
  Co  Co159  1  0.97029027  0.58922701  0.34799450  1
  Co  Co160  1  0.97953514  0.19449882  0.66216344  1
  Co  Co161  1  0.06707423  0.28033368  0.79997683  1
  Ni  Ni162  1  0.92939767  0.00600371  0.92673768  1
  Ni  Ni163  1  0.62576036  0.53969966  0.62806072  1
  Ni  Ni164  1  0.80683814  0.43672250  0.48319901  1
  Ni  Ni165  1  0.11501927  0.11128252  0.37902463  1
  Ni  Ni166  1  0.78780944  0.55876279  0.61266794  1
  Ni  Ni167  1  0.08264882  0.46368484  0.08912799  1
  Ni  Ni168  1  0.43360038  0.30438170  0.51405209  1
  Ni  Ni169  1  0.72301427  0.50941998  0.34403356  1
  Ni  Ni170  1  0.93512113  0.62230631  0.84616682  1
  Ni  Ni171  1  0.18329694  0.36281547  0.57807673  1
  Ni  Ni172  1  0.84834123  0.14890321  0.87470367  1
  Ni  Ni173  1  0.54417431  0.66535155  0.70279518  1
  Ni  Ni174  1  0.03547553  0.52962177  0.94617004  1
  Ni  Ni175  1  0.42901863  0.47961891  0.16042655  1
  Ni  Ni176  1  0.62410143  0.81942934  0.95561405  1
  Ni  Ni177  1  0.67575987  0.69820613  0.16534597  1
  Ni  Ni178  1  0.49345622  0.31231768  0.23471368  1
  Ni  Ni179  1  0.33914459  0.07638338  0.54797444  1
  Ni  Ni180  1  0.74866811  0.96948242  0.96613917  1
  Ni  Ni181  1  0.11337687  0.90700267  0.65491337  1
  Ni  Ni182  1  0.13418500  0.69949496  0.55661543  1
  Ni  Ni183  1  0.07314246  0.35436632  0.33744004  1
  Ni  Ni184  1  0.21679032  0.87191985  0.09093023  1
  Ni  Ni185  1  0.65655893  0.09343414  0.07480666  1
  Ni  Ni186  1  0.93285484  0.48673021  0.60842446  1
  Ni  Ni187  1  0.76070444  0.76766963  0.42994591  1
  Ni  Ni188  1  -0.00212799  0.61456012  0.52428345  1
  Ni  Ni189  1  0.23224482  0.56038715  0.73742250  1
  Ni  Ni190  1  0.09995047  0.61420424  0.13881986  1
  Ni  Ni191  1  0.90088994  0.86080305  0.21872989  1
  Ni  Ni192  1  0.08425643  0.77135480  0.08132140  1
  Ni  Ni193  1  0.66422271  0.24098783  0.69871790  1
  Ni  Ni194  1  0.91461041  0.82658157  0.39892640  1
  Ni  Ni195  1  0.39179119  0.33235497  0.10030195  1
  Ni  Ni196  1  0.31239613  0.59478349  0.88837915  1
  Ni  Ni197  1  0.91929695  0.91406889  0.05615893  1
  Ni  Ni198  1  -0.03102778  0.24066191  0.92509765  1
  Ni  Ni199  1  0.63645114  0.92570077  0.08852737  1
  Ni  Ni200  1  0.31329166  0.76769085  0.30423792  1
  Ni  Ni201  1  0.67400522  0.00025322  0.80687172  1
  Ni  Ni202  1  0.06317791  0.85315515  0.31924418  1
  Ni  Ni203  1  0.44743531  0.86297255  0.95554984  1
  Ni  Ni204  1  0.54102507  0.87938871  0.82318570  1
  Ni  Ni205  1  0.66390792  1.02253791  0.24003627  1
  Ni  Ni206  1  0.44093996  0.39701983  0.77821358  1
  Ni  Ni207  1  0.60333074  0.93250619  0.36826450  1
  Ni  Ni208  1  0.93005510  0.03276955  0.19396519  1
  Ni  Ni209  1  0.44767266  0.98330613  0.62081329  1
  Ni  Ni210  1  0.77212491  0.24252440  0.22004405  1
  Ni  Ni211  1  0.72033008  0.37076962  0.79853968  1
  Ni  Ni212  1  0.94620957  0.39965542  0.90332326  1
  Ni  Ni213  1  0.98243922  0.39075480  0.20829501  1
  Ni  Ni214  1  0.86585862  0.71439123  0.55250607  1
  Ni  Ni215  1  0.55773114  0.60349438  0.44505521  1
