# generated using pymatgen
data_Ti2CoNi
_symmetry_space_group_name_H-M   'P 1'
_cell_length_a   14.48952346
_cell_length_b   14.46740235
_cell_length_c   14.56394744
_cell_angle_alpha   90.24083374
_cell_angle_beta   90.05149308
_cell_angle_gamma   89.89560309
_symmetry_Int_Tables_number   1
_chemical_formula_structural   Ti2CoNi
_chemical_formula_sum   'Ti108 Co54 Ni54'
_cell_volume   3052.94538460
_cell_formula_units_Z   54
loop_
 _symmetry_equiv_pos_site_id
 _symmetry_equiv_pos_as_xyz
  1  'x, y, z'
loop_
 _atom_site_type_symbol
 _atom_site_label
 _atom_site_symmetry_multiplicity
 _atom_site_fract_x
 _atom_site_fract_y
 _atom_site_fract_z
 _atom_site_occupancy
  Ti  Ti0  1  0.01642628  -0.04441630  0.05281060  1
  Ti  Ti1  1  0.03058141  0.04617663  0.32852779  1
  Ti  Ti2  1  -0.07446448  0.04812370  0.71892087  1
  Ti  Ti3  1  0.01460012  0.27863945  -0.03511410  1
  Ti  Ti4  1  0.00841519  0.32664720  0.36239661  1
  Ti  Ti5  1  0.02970479  0.36254480  0.66148984  1
  Ti  Ti6  1  0.02947326  0.69926715  -0.08429034  1
  Ti  Ti7  1  0.02079261  0.70846977  0.37043375  1
  Ti  Ti8  1  0.05720934  0.67067572  0.71489234  1
  Ti  Ti9  1  0.38656618  0.01598415  -0.08612478  1
  Ti  Ti10  1  0.30812856  0.00410201  0.26960170  1
  Ti  Ti11  1  0.24942921  0.00671792  0.69735119  1
  Ti  Ti12  1  0.37628202  0.34680517  -0.01463558  1
  Ti  Ti13  1  0.32470489  0.31273908  0.33430590  1
  Ti  Ti14  1  0.32994277  0.27492272  0.64597595  1
  Ti  Ti15  1  0.34785886  0.65764867  0.04269194  1
  Ti  Ti16  1  0.33054092  0.70145788  0.29426323  1
  Ti  Ti17  1  0.30917343  0.74850459  0.69284426  1
  Ti  Ti18  1  0.64499974  -0.03762977  -0.10193461  1
  Ti  Ti19  1  0.68182146  -0.02603117  0.37870026  1
  Ti  Ti20  1  0.62312141  -0.01865425  0.65386877  1
  Ti  Ti21  1  0.65439174  0.27359500  -0.07078535  1
  Ti  Ti22  1  0.62621929  0.40518662  0.35034869  1
  Ti  Ti23  1  0.69987680  0.33949359  0.75445500  1
  Ti  Ti24  1  0.63209578  0.63885337  -0.02160337  1
  Ti  Ti25  1  0.72646557  0.67424248  0.27466973  1
  Ti  Ti26  1  0.68077368  0.74236901  0.59756542  1
  Ti  Ti27  1  -0.05607106  0.20697468  0.22476388  1
  Ti  Ti28  1  -0.07287195  0.09276816  0.51416059  1
  Ti  Ti29  1  -0.04044650  0.17630971  0.83358520  1
  Ti  Ti30  1  -0.03368606  0.42584366  0.20395550  1
  Ti  Ti31  1  -0.02547899  0.58846541  0.53057581  1
  Ti  Ti32  1  -0.05651707  0.50389643  0.89097448  1
  Ti  Ti33  1  0.03895388  0.83498342  0.24376397  1
  Ti  Ti34  1  -0.01467029  0.89486088  0.48808216  1
  Ti  Ti35  1  0.03384328  0.90155209  0.79537735  1
  Ti  Ti36  1  0.37651129  0.23369362  0.14708665  1
  Ti  Ti37  1  0.37111598  0.09596528  0.44672052  1
  Ti  Ti38  1  0.38208555  0.15177101  0.78384955  1
  Ti  Ti39  1  0.33862044  0.44571891  0.15299468  1
  Ti  Ti40  1  0.32368095  0.54657399  0.57224050  1
  Ti  Ti41  1  0.30779998  0.47750114  0.87901287  1
  Ti  Ti42  1  0.35317533  0.82536973  0.15359148  1
  Ti  Ti43  1  0.31333050  0.75272285  0.49715188  1
  Ti  Ti44  1  0.33559754  0.83450938  0.94945991  1
  Ti  Ti45  1  0.70388169  0.12622057  0.17324524  1
  Ti  Ti46  1  0.63563240  0.25788448  0.46900802  1
  Ti  Ti47  1  0.70625554  0.13163453  0.79014574  1
  Ti  Ti48  1  0.67980196  0.49492685  0.17473881  1
  Ti  Ti49  1  0.60049199  0.53658033  0.52041579  1
  Ti  Ti50  1  0.61047577  0.52309134  0.84232904  1
  Ti  Ti51  1  0.64483244  0.79766411  0.12594184  1
  Ti  Ti52  1  0.75208191  0.80620704  0.42030757  1
  Ti  Ti53  1  0.63417211  0.77894915  0.84596946  1
  Ti  Ti54  1  0.20288480  0.07560537  0.13766293  1
  Ti  Ti55  1  0.17881962  -0.03218130  0.48397617  1
  Ti  Ti56  1  0.20368505  -0.03049739  0.90688654  1
  Ti  Ti57  1  0.15392315  0.36282121  0.25441813  1
  Ti  Ti58  1  0.14688302  0.34051342  0.49754864  1
  Ti  Ti59  1  0.17278276  0.35941533  0.78753206  1
  Ti  Ti60  1  0.11210956  0.64522380  0.10994159  1
  Ti  Ti61  1  0.17481712  0.62073716  0.45087852  1
  Ti  Ti62  1  0.26455453  0.67372840  0.86513881  1
  Ti  Ti63  1  0.48526284  0.07827917  0.11070368  1
  Ti  Ti64  1  0.45700709  -0.03914245  0.56701961  1
  Ti  Ti65  1  0.51405447  0.02291915  0.78783018  1
  Ti  Ti66  1  0.52048202  0.28790958  0.26093144  1
  Ti  Ti67  1  0.48697659  0.38105623  0.47196111  1
  Ti  Ti68  1  0.48636355  0.34041413  0.79038411  1
  Ti  Ti69  1  0.44702050  0.60602783  0.21402552  1
  Ti  Ti70  1  0.47057985  0.65529005  0.41586495  1
  Ti  Ti71  1  0.47983682  0.70191832  0.79383571  1
  Ti  Ti72  1  0.77463512  -0.03576693  0.10744139  1
  Ti  Ti73  1  0.74018412  0.09863190  0.58193989  1
  Ti  Ti74  1  0.86524196  0.01914674  0.91170991  1
  Ti  Ti75  1  0.71854445  0.32010191  0.15190411  1
  Ti  Ti76  1  0.83709038  0.28292378  0.46138984  1
  Ti  Ti77  1  0.83828402  0.34622625  0.94409418  1
  Ti  Ti78  1  0.90521356  0.67713861  0.13746160  1
  Ti  Ti79  1  0.76959302  0.60682678  0.48447066  1
  Ti  Ti80  1  0.81261166  0.72086176  0.81498747  1
  Ti  Ti81  1  0.15928309  0.19251731  0.01538435  1
  Ti  Ti82  1  0.19159534  0.17258325  0.41357842  1
  Ti  Ti83  1  0.08243737  0.16909406  0.66123413  1
  Ti  Ti84  1  0.14963872  0.42370392  0.01496794  1
  Ti  Ti85  1  0.15255514  0.59337989  0.27968269  1
  Ti  Ti86  1  0.19909673  0.54524154  0.71967032  1
  Ti  Ti87  1  0.18911379  0.88312933  0.09467798  1
  Ti  Ti88  1  0.23625736  0.84152010  0.33950872  1
  Ti  Ti89  1  0.14246600  0.83170648  0.63557884  1
  Ti  Ti90  1  0.46713968  0.19697264  -0.04539987  1
  Ti  Ti91  1  0.58223244  0.12569226  0.32747828  1
  Ti  Ti92  1  0.53589232  0.21332445  0.63241234  1
  Ti  Ti93  1  0.50210881  0.52153594  0.03731534  1
  Ti  Ti94  1  0.42153992  0.46600057  0.33250445  1
  Ti  Ti95  1  0.50355485  0.49934086  0.69326076  1
  Ti  Ti96  1  0.50059511  0.89119599  0.01686806  1
  Ti  Ti97  1  0.54477886  0.84434546  0.28611416  1
  Ti  Ti98  1  0.48631691  0.77491426  0.59335973  1
  Ti  Ti99  1  0.88289158  0.14544032  0.05699087  1
  Ti  Ti100  1  0.82497075  0.09863535  0.30075825  1
  Ti  Ti101  1  0.87459077  0.22403050  0.66770069  1
  Ti  Ti102  1  0.83300691  0.48823632  0.06743604  1
  Ti  Ti103  1  0.79471280  0.46470396  0.35595707  1
  Ti  Ti104  1  0.86805150  0.47593873  0.66028585  1
  Ti  Ti105  1  0.79329706  0.78045988  -0.00114653  1
  Ti  Ti106  1  0.88401616  0.91920461  0.32750151  1
  Ti  Ti107  1  0.87880433  0.74933601  0.63086324  1
  Co  Co108  1  1.00930227  0.56435180  0.02431415  1
  Co  Co109  1  0.24016718  0.40218974  0.61577828  1
  Co  Co110  1  0.72757630  0.12971951  0.42071311  1
  Co  Co111  1  0.34614810  0.44361040  0.73015186  1
  Co  Co112  1  0.19207930  0.75105809  0.20509280  1
  Co  Co113  1  0.26079874  0.47862858  0.29901015  1
  Co  Co114  1  0.11479668  0.21488503  0.84754309  1
  Co  Co115  1  0.61738641  0.98645488  0.06957074  1
  Co  Co116  1  0.42162616  0.39418683  0.59977217  1
  Co  Co117  1  0.81643009  0.20865789  0.87167750  1
  Co  Co118  1  0.60969672  -0.00690742  0.23491558  1
  Co  Co119  1  0.24372260  0.12606619  0.56912682  1
  Co  Co120  1  0.45802944  0.83026064  0.44003063  1
  Co  Co121  1  0.87788541  0.30775118  0.10901798  1
  Co  Co122  1  0.75283289  0.90483317  0.56073433  1
  Co  Co123  1  0.98400461  0.40892164  1.03847463  1
  Co  Co124  1  0.28499901  0.42968524  0.45790333  1
  Co  Co125  1  0.47697951  0.22073669  0.42907721  1
  Co  Co126  1  0.49403154  0.73431868  0.95987620  1
  Co  Co127  1  0.98821754  0.18137384  0.39368893  1
  Co  Co128  1  0.29842184  0.88988375  0.59481135  1
  Co  Co129  1  0.74032195  0.84806582  0.25720714  1
  Co  Co130  1  0.22133070  0.18889159  0.72320713  1
  Co  Co131  1  0.03715007  0.78280156  0.08707974  1
  Co  Co132  1  0.84009976  0.34047979  0.27142790  1
  Co  Co133  1  0.89149853  0.73727600  0.46760894  1
  Co  Co134  1  0.23781536  0.11525181  0.86028158  1
  Co  Co135  1  0.33302650  0.93697708  0.43610427  1
  Co  Co136  1  0.32849872  0.58383810  0.41131765  1
  Co  Co137  1  0.08649719  0.09281491  0.50718141  1
  Co  Co138  1  0.73651307  0.83020085  0.70963001  1
  Co  Co139  1  0.58131313  0.09947532  0.94617355  1
  Co  Co140  1  0.55855125  0.19226738  0.79920662  1
  Co  Co141  1  0.59285041  0.61791486  0.14052556  1
  Co  Co142  1  0.20986937  0.74775400  1.01776854  1
  Co  Co143  1  0.29047848  0.86314507  0.79840070  1
  Co  Co144  1  0.56719201  0.84722892  0.71255326  1
  Co  Co145  1  0.27610326  0.59270641  0.17335980  1
  Co  Co146  1  0.82189102  0.99682744  0.45417523  1
  Co  Co147  1  0.23011843  0.30404320  0.93439353  1
  Co  Co148  1  0.06011147  0.29551857  0.13142703  1
  Co  Co149  1  0.88948621  0.59938921  0.36300257  1
  Co  Co150  1  0.92750677  0.84433740  0.93946243  1
  Co  Co151  1  0.32879705  0.30026965  0.81484763  1
  Co  Co152  1  0.82749561  0.54764826  0.22042665  1
  Co  Co153  1  0.32563961  0.26645775  0.49257438  1
  Co  Co154  1  0.88993412  0.87371968  0.75029888  1
  Co  Co155  1  0.37426725  0.59756632  0.74660942  1
  Co  Co156  1  0.41291309  0.90669868  0.70952341  1
  Co  Co157  1  0.77052696  -0.00835794  0.72929897  1
  Co  Co158  1  0.48004806  0.86866863  0.85308495  1
  Co  Co159  1  0.87817055  0.75267930  0.29911742  1
  Co  Co160  1  0.89535663  -0.05229835  0.60573396  1
  Co  Co161  1  0.10464819  0.04635771  0.78406395  1
  Ni  Ni162  1  0.03060662  0.50903290  0.73877272  1
  Ni  Ni163  1  0.46711338  0.62033658  0.58776744  1
  Ni  Ni164  1  0.61796844  0.71208542  0.44218929  1
  Ni  Ni165  1  0.45283889  0.95666115  0.21003327  1
  Ni  Ni166  1  0.09863701  0.84750731  0.94451815  1
  Ni  Ni167  1  0.73227777  0.09639764  -0.00480058  1
  Ni  Ni168  1  0.91162605  0.61610125  0.76153519  1
  Ni  Ni169  1  0.18595549  0.66133038  0.60185140  1
  Ni  Ni170  1  0.75431904  0.59501356  0.66144212  1
  Ni  Ni171  1  -0.00327395  0.58274987  0.22841552  1
  Ni  Ni172  1  0.42726050  0.12814915  0.28140731  1
  Ni  Ni173  1  0.48798514  0.74500887  0.12152074  1
  Ni  Ni174  1  0.11314069  0.51375524  0.87646052  1
  Ni  Ni175  1  0.57724793  0.08706218  0.49496150  1
  Ni  Ni176  1  0.14594063  0.77242295  0.80157299  1
  Ni  Ni177  1  0.72768998  0.26922050  0.60235492  1
  Ni  Ni178  1  0.92995673  0.01976294  0.18761405  1
  Ni  Ni179  1  0.72538992  0.41370321  0.49952495  1
  Ni  Ni180  1  1.03225247  0.73935320  0.55944768  1
  Ni  Ni181  1  0.89438723  0.84794558  0.15544509  1
  Ni  Ni182  1  0.56652521  0.69742595  0.27791185  1
  Ni  Ni183  1  0.23456976  0.31297321  0.11417571  1
  Ni  Ni184  1  0.59580061  0.37694982  0.61160079  1
  Ni  Ni185  1  0.42697060  0.59478729  0.90680106  1
  Ni  Ni186  1  0.14491798  0.95643284  0.24011304  1
  Ni  Ni187  1  0.59860921  0.90482873  0.49686805  1
  Ni  Ni188  1  0.51258331  0.34721943  0.09001390  1
  Ni  Ni189  1  0.04259572  0.11716119  0.11910777  1
  Ni  Ni190  1  0.77703973  0.88354294  0.86033001  1
  Ni  Ni191  1  0.70997795  0.26111218  0.31556378  1
  Ni  Ni192  1  0.10746170  0.47329052  0.40044718  1
  Ni  Ni193  1  0.76989105  0.47434213  0.84573818  1
  Ni  Ni194  1  0.86989711  0.35998196  0.77330435  1
  Ni  Ni195  1  0.10676883  0.49670730  0.57720524  1
  Ni  Ni196  1  0.26849993  0.17255279  0.25920320  1
  Ni  Ni197  1  0.68718977  0.43277896  -0.00702335  1
  Ni  Ni198  1  0.13191757  0.80599894  0.45373103  1
  Ni  Ni199  1  0.52030901  0.45752921  0.20114347  1
  Ni  Ni200  1  0.06883592  0.98074744  0.63056243  1
  Ni  Ni201  1  0.74476342  0.65292341  0.10104600  1
  Ni  Ni202  1  0.58376575  0.55182610  0.32923596  1
  Ni  Ni203  1  0.40694915  0.10372319  0.62720354  1
  Ni  Ni204  1  0.34109094  0.97886283  0.07315822  1
  Ni  Ni205  1  0.81565565  0.61119938  0.93958101  1
  Ni  Ni206  1  0.31728632  0.13814395  0.01497403  1
  Ni  Ni207  1  -0.00175114  0.25233530  0.53837563  1
  Ni  Ni208  1  0.49199714  -0.02009084  0.37608545  1
  Ni  Ni209  1  0.10949307  0.18207791  0.25649234  1
  Ni  Ni210  1  0.96818712  0.42428950  0.49829706  1
  Ni  Ni211  1  1.05230163  0.08093171  0.94432165  1
  Ni  Ni212  1  0.60175942  0.63762553  0.69435908  1
  Ni  Ni213  1  0.20385798  0.57717187  -0.00687252  1
  Ni  Ni214  1  0.60706052  0.21706662  0.07392633  1
  Ni  Ni215  1  0.53863375  0.39728278  0.93507261  1
