# generated using pymatgen
data_Ti2CoNi
_symmetry_space_group_name_H-M   'P 1'
_cell_length_a   14.67175798
_cell_length_b   14.62816688
_cell_length_c   14.67207854
_cell_angle_alpha   90.31441436
_cell_angle_beta   89.37505538
_cell_angle_gamma   89.91305027
_symmetry_Int_Tables_number   1
_chemical_formula_structural   Ti2CoNi
_chemical_formula_sum   'Ti108 Co54 Ni54'
_cell_volume   3148.69641628
_cell_formula_units_Z   54
loop_
 _symmetry_equiv_pos_site_id
 _symmetry_equiv_pos_as_xyz
  1  'x, y, z'
loop_
 _atom_site_type_symbol
 _atom_site_label
 _atom_site_symmetry_multiplicity
 _atom_site_fract_x
 _atom_site_fract_y
 _atom_site_fract_z
 _atom_site_occupancy
  Ti  Ti0  1  -0.07689193  -0.02124625  0.01313970  1
  Ti  Ti1  1  -0.01880473  -0.04610076  0.35021582  1
  Ti  Ti2  1  -0.00993828  -0.04017473  0.78376838  1
  Ti  Ti3  1  0.03223487  0.25877327  -0.01714661  1
  Ti  Ti4  1  0.04548989  0.30210286  0.34193609  1
  Ti  Ti5  1  -0.01042149  0.36272453  0.68087522  1
  Ti  Ti6  1  0.08802488  0.70141016  0.06725826  1
  Ti  Ti7  1  -0.00547171  0.59400585  0.34137298  1
  Ti  Ti8  1  -0.04498683  0.58725085  0.64048362  1
  Ti  Ti9  1  0.23416130  0.02257258  0.05361273  1
  Ti  Ti10  1  0.30647774  0.08642965  0.33697726  1
  Ti  Ti11  1  0.34303494  -0.05350365  0.62371496  1
  Ti  Ti12  1  0.26515820  0.34037880  0.03262458  1
  Ti  Ti13  1  0.35453115  0.30583927  0.36589175  1
  Ti  Ti14  1  0.33038559  0.34477481  0.67528989  1
  Ti  Ti15  1  0.37282284  0.61886462  0.00122092  1
  Ti  Ti16  1  0.38894099  0.71495524  0.30747052  1
  Ti  Ti17  1  0.35358382  0.72140624  0.69337400  1
  Ti  Ti18  1  0.69694285  0.00640730  0.02778614  1
  Ti  Ti19  1  0.71183946  -0.03307543  0.36054530  1
  Ti  Ti20  1  0.61320172  0.06728759  0.71808944  1
  Ti  Ti21  1  0.58541794  0.34135391  0.01660935  1
  Ti  Ti22  1  0.69466197  0.32333409  0.28962988  1
  Ti  Ti23  1  0.65705584  0.33749958  0.60848241  1
  Ti  Ti24  1  0.64918881  0.71166044  -0.01322059  1
  Ti  Ti25  1  0.69545600  0.61440233  0.32498430  1
  Ti  Ti26  1  0.64175332  0.59873119  0.62066934  1
  Ti  Ti27  1  0.07370776  0.19431621  0.16916907  1
  Ti  Ti28  1  -0.04460597  0.14180090  0.48846112  1
  Ti  Ti29  1  -0.01107670  0.16837591  0.77282356  1
  Ti  Ti30  1  -0.04296564  0.56488721  0.13597970  1
  Ti  Ti31  1  0.06505727  0.49885699  0.51921171  1
  Ti  Ti32  1  0.05480622  0.46816015  0.83357787  1
  Ti  Ti33  1  -0.04625686  0.76923706  0.21857188  1
  Ti  Ti34  1  0.03039470  0.85733563  0.51654400  1
  Ti  Ti35  1  0.00662294  0.79819382  0.89530183  1
  Ti  Ti36  1  0.30652754  0.23104832  0.18386332  1
  Ti  Ti37  1  0.39432031  0.12263514  0.50837629  1
  Ti  Ti38  1  0.33724449  0.18376509  0.96920513  1
  Ti  Ti39  1  0.25402161  0.50857555  0.11971524  1
  Ti  Ti40  1  0.29978926  0.54963945  0.42517162  1
  Ti  Ti41  1  0.25501225  0.57100448  0.81417058  1
  Ti  Ti42  1  0.38732020  0.87237096  0.14014439  1
  Ti  Ti43  1  0.20840572  0.81476721  0.55523216  1
  Ti  Ti44  1  0.37668153  0.89946708  0.80495037  1
  Ti  Ti45  1  0.65770258  0.15305938  0.17820808  1
  Ti  Ti46  1  0.73136838  0.16021258  0.47820640  1
  Ti  Ti47  1  0.72662283  0.18633448  0.84503821  1
  Ti  Ti48  1  0.66243846  0.48206992  0.17262172  1
  Ti  Ti49  1  0.74361233  0.50206136  0.48249976  1
  Ti  Ti50  1  0.69352635  0.53247856  0.91629338  1
  Ti  Ti51  1  0.61760518  0.83735961  0.11092280  1
  Ti  Ti52  1  0.69352894  0.88568706  0.53287524  1
  Ti  Ti53  1  0.64302732  0.77316095  0.79946697  1
  Ti  Ti54  1  0.06475910  -0.01489770  0.16703664  1
  Ti  Ti55  1  0.20004184  0.06007048  0.55480534  1
  Ti  Ti56  1  0.18061239  -0.04863742  0.85562173  1
  Ti  Ti57  1  0.13195861  0.37015983  0.16652351  1
  Ti  Ti58  1  0.16872233  0.32347740  0.51544675  1
  Ti  Ti59  1  0.23279106  0.35259289  0.84219822  1
  Ti  Ti60  1  0.26560467  0.69797130  0.15507926  1
  Ti  Ti61  1  0.16330875  0.70400912  0.38366384  1
  Ti  Ti62  1  0.18461438  0.74721273  0.84102890  1
  Ti  Ti63  1  0.42660813  0.05476013  0.20585440  1
  Ti  Ti64  1  0.54963466  0.02743862  0.52576755  1
  Ti  Ti65  1  0.47712064  0.10376050  0.86400200  1
  Ti  Ti66  1  0.44343105  0.38817897  0.18424656  1
  Ti  Ti67  1  0.47662676  0.32769034  0.51395982  1
  Ti  Ti68  1  0.43331068  0.34178607  0.86446951  1
  Ti  Ti69  1  0.49621406  0.69380759  0.14133369  1
  Ti  Ti70  1  0.56583242  0.73174681  0.48823964  1
  Ti  Ti71  1  0.51776236  0.57459988  0.77323431  1
  Ti  Ti72  1  0.86373528  -0.04832776  0.21028435  1
  Ti  Ti73  1  0.85995007  -0.02270514  0.49500200  1
  Ti  Ti74  1  0.80018233  0.00549959  0.84496158  1
  Ti  Ti75  1  0.90964711  0.31473208  0.18103292  1
  Ti  Ti76  1  0.85004520  0.26714488  0.59359147  1
  Ti  Ti77  1  0.71869898  0.36443631  0.77994069  1
  Ti  Ti78  1  0.81348590  0.67973461  0.07560720  1
  Ti  Ti79  1  0.78528899  0.70507848  0.50577390  1
  Ti  Ti80  1  0.81178481  0.68671361  0.74518071  1
  Ti  Ti81  1  0.16454885  0.14634589  -0.11016937  1
  Ti  Ti82  1  0.10755605  0.11455285  0.35106077  1
  Ti  Ti83  1  0.17968785  0.22169265  0.70445456  1
  Ti  Ti84  1  0.10611733  0.50764885  0.00873179  1
  Ti  Ti85  1  0.14630641  0.46211593  0.33944628  1
  Ti  Ti86  1  0.23253355  0.53108335  0.62273883  1
  Ti  Ti87  1  0.23829319  0.81754627  0.01190538  1
  Ti  Ti88  1  0.19851249  0.93053438  0.38181922  1
  Ti  Ti89  1  0.03748763  0.76248709  0.69815243  1
  Ti  Ti90  1  0.52307433  0.14351633  0.04835811  1
  Ti  Ti91  1  0.53444237  0.18246793  0.37355236  1
  Ti  Ti92  1  0.47244216  0.21343926  0.67641362  1
  Ti  Ti93  1  0.54122750  0.53224368  0.03549506  1
  Ti  Ti94  1  0.50350571  0.54387705  0.29911173  1
  Ti  Ti95  1  0.43135549  0.54508860  0.59066577  1
  Ti  Ti96  1  0.52048447  0.92043036  -0.04028023  1
  Ti  Ti97  1  0.53698720  0.88361273  0.28747663  1
  Ti  Ti98  1  0.53125945  0.87337645  0.65043738  1
  Ti  Ti99  1  0.83550931  0.22049093  0.02517452  1
  Ti  Ti100  1  0.86958849  0.25508995  0.36332950  1
  Ti  Ti101  1  0.83334837  0.08530160  0.68090551  1
  Ti  Ti102  1  0.81902600  0.45392856  0.05147063  1
  Ti  Ti103  1  0.83659231  0.46208008  0.30326828  1
  Ti  Ti104  1  0.86026034  0.49691883  0.79671162  1
  Ti  Ti105  1  0.81925429  0.80936311  -0.05877588  1
  Ti  Ti106  1  0.74832449  0.77895167  0.23389811  1
  Ti  Ti107  1  0.85707562  0.86351055  0.64170655  1
  Co  Co108  1  0.33074418  0.20822662  0.79985750  1
  Co  Co109  1  0.95238705  0.67494825  0.98609239  1
  Co  Co110  1  0.69317449  0.95583253  0.19556102  1
  Co  Co111  1  0.54771185  0.98678670  0.12341563  1
  Co  Co112  1  0.43301577  0.50689997  0.89056212  1
  Co  Co113  1  0.80961897  0.19902167  0.21888869  1
  Co  Co114  1  0.85643654  0.85700941  0.79521176  1
  Co  Co115  1  0.24591266  0.95324619  0.20473698  1
  Co  Co116  1  0.40970005  0.43927896  0.03345357  1
  Co  Co117  1  -0.04251114  0.43741780  0.40139041  1
  Co  Co118  1  0.21815633  0.64447975  -0.02024284  1
  Co  Co119  1  0.95363958  0.63499952  0.80972142  1
  Co  Co120  1  0.80545838  0.58456757  0.20193213  1
  Co  Co121  1  0.13366993  0.84199647  0.14009798  1
  Co  Co122  1  0.20379424  0.10310109  0.20813960  1
  Co  Co123  1  0.79841941  0.07005270  0.12668631  1
  Co  Co124  1  0.31184941  0.04838673  0.87653927  1
  Co  Co125  1  0.34543265  0.90822651  0.95489549  1
  Co  Co126  1  0.65216740  0.64645590  0.15086295  1
  Co  Co127  1  0.68320128  0.51762081  0.75236485  1
  Co  Co128  1  0.44939381  0.46877618  0.43234721  1
  Co  Co129  1  0.30054902  0.79013178  0.41990681  1
  Co  Co130  1  0.07316807  0.07858501  0.01686119  1
  Co  Co131  1  0.63026785  0.06212424  0.89293636  1
  Co  Co132  1  0.84761049  0.85603623  0.36513299  1
  Co  Co133  1  0.68530904  0.89445877  0.89799222  1
  Co  Co134  1  0.28626648  0.67012308  0.53603401  1
  Co  Co135  1  0.95813266  0.82718674  0.07035047  1
  Co  Co136  1  0.20034996  0.26289972  0.29754545  1
  Co  Co137  1  0.30999660  0.14239599  0.64782091  1
  Co  Co138  1  0.53331466  0.41215445  0.70571841  1
  Co  Co139  1  0.89337625  0.58249605  0.47266606  1
  Co  Co140  1  0.18655334  0.19733323  0.05384609  1
  Co  Co141  1  0.79280227  0.85921152  0.09401680  1
  Co  Co142  1  0.94318420  0.12859868  0.10312429  1
  Co  Co143  1  0.09396284  0.56597060  0.71157436  1
  Co  Co144  1  0.42910074  0.64970980  0.44836761  1
  Co  Co145  1  0.08445237  0.62660340  0.89059717  1
  Co  Co146  1  0.36971256  0.47967502  0.74523505  1
  Co  Co147  1  0.43511826  0.28162761  1.05662158  1
  Co  Co148  1  0.24900530  0.80538424  0.26295873  1
  Co  Co149  1  0.54470917  0.88713067  0.44885992  1
  Co  Co150  1  0.58236518  0.42105848  0.86826572  1
  Co  Co151  1  0.36817729  0.90456864  0.30350625  1
  Co  Co152  1  0.32485002  0.26073658  0.53959304  1
  Co  Co153  1  0.57993211  0.18423507  0.55446536  1
  Co  Co154  1  0.81212273  0.63701280  0.90757395  1
  Co  Co155  1  0.70402705  -0.08452486  0.71644319  1
  Co  Co156  1  0.79542763  0.55232783  0.63383044  1
  Co  Co157  1  0.07721968  0.30073498  0.82864031  1
  Co  Co158  1  0.09896377  0.67055229  0.53560330  1
  Co  Co159  1  0.70710340  0.20044330  0.67572759  1
  Co  Co160  1  0.55041124  0.93850318  0.79953442  1
  Co  Co161  1  0.93381548  0.52232710  -0.04971210  1
  Ni  Ni162  1  0.97213699  0.01682010  0.62514576  1
  Ni  Ni163  1  0.12121775  0.06633850  0.73274831  1
  Ni  Ni164  1  0.08800088  0.91090519  0.99527700  1
  Ni  Ni165  1  0.74033636  0.34919331  0.94545444  1
  Ni  Ni166  1  0.27259471  0.48248961  0.94698188  1
  Ni  Ni167  1  0.40934763  0.79643001  0.54508706  1
  Ni  Ni168  1  0.58078575  0.57650964  0.44236588  1
  Ni  Ni169  1  0.52390885  0.35319037  0.32930074  1
  Ni  Ni170  1  0.44646810  0.77964490  0.00389709  1
  Ni  Ni171  1  0.11315576  0.57418681  0.19530451  1
  Ni  Ni172  1  0.93907489  0.72855651  0.55672528  1
  Ni  Ni173  1  0.68660288  0.79505698  0.38614828  1
  Ni  Ni174  1  0.67408600  0.19251138  0.00434524  1
  Ni  Ni175  1  0.58006012  0.26504463  0.78583952  1
  Ni  Ni176  1  0.57079028  0.71722355  0.28909097  1
  Ni  Ni177  1  0.91466526  0.35941469  0.88535269  1
  Ni  Ni178  1  0.34471490  0.72809921  0.87824197  1
  Ni  Ni179  1  0.46226019  0.02130710  0.37800374  1
  Ni  Ni180  1  0.48230448  0.22118852  0.21873458  1
  Ni  Ni181  1  0.40078563  0.56180773  0.16918524  1
  Ni  Ni182  1  0.51647276  0.65680844  0.91637228  1
  Ni  Ni183  1  0.58974155  0.05007510  0.28356049  1
  Ni  Ni184  1  0.68405552  0.76343085  0.63826919  1
  Ni  Ni185  1  0.09012584  0.83830739  0.29567865  1
  Ni  Ni186  1  0.05160390  0.20886185  0.60427018  1
  Ni  Ni187  1  -0.01274662  0.75495584  0.39327999  1
  Ni  Ni188  1  0.06076333  0.01398235  0.48692888  1
  Ni  Ni189  1  0.89486896  0.44091497  0.56230899  1
  Ni  Ni190  1  0.57177110  0.46195844  0.54865706  1
  Ni  Ni191  1  0.78950161  0.35049952  0.46147322  1
  Ni  Ni192  1  0.48237134  0.77332915  0.80214325  1
  Ni  Ni193  1  0.51557467  0.70622711  0.65153845  1
  Ni  Ni194  1  0.31647734  0.41886569  0.51850565  1
  Ni  Ni195  1  0.22795479  0.18478533  0.44246357  1
  Ni  Ni196  1  0.63493228  0.30308285  0.44438610  1
  Ni  Ni197  1  0.26280760  0.58217877  0.27281766  1
  Ni  Ni198  1  0.84809271  0.68090809  0.33913635  1
  Ni  Ni199  1  0.11189757  0.92980956  0.64546283  1
  Ni  Ni200  1  0.40520164  0.03137698  0.03328906  1
  Ni  Ni201  1  -0.01982676  0.40161551  0.05716530  1
  Ni  Ni202  1  0.23070800  0.85072728  0.71986561  1
  Ni  Ni203  1  0.83423194  0.08020816  0.35958028  1
  Ni  Ni204  1  0.14971956  0.39986340  0.69106640  1
  Ni  Ni205  1  1.00483413  0.44640042  0.24168124  1
  Ni  Ni206  1  0.98983949  0.31783796  0.50271936  1
  Ni  Ni207  1  0.42949528  0.05101599  0.71603416  1
  Ni  Ni208  1  0.93385351  0.11647060  0.92148299  1
  Ni  Ni209  1  0.34196559  0.95218795  0.46474542  1
  Ni  Ni210  1  0.72541998  0.31835505  0.12079292  1
  Ni  Ni211  1  0.85350731  0.26185106  0.75647793  1
  Ni  Ni212  1  0.96012131  0.12530818  0.27255031  1
  Ni  Ni213  1  0.28242618  0.40631512  0.25364543  1
  Ni  Ni214  1  0.18986603  0.69039872  0.67558856  1
  Ni  Ni215  1  0.71148055  1.03936944  0.58547595  1
