# generated using pymatgen
data_Ti2CoNi
_symmetry_space_group_name_H-M   'P 1'
_cell_length_a   14.70192029
_cell_length_b   14.62971943
_cell_length_c   14.65214608
_cell_angle_alpha   90.19171270
_cell_angle_beta   89.95269087
_cell_angle_gamma   89.79183806
_symmetry_Int_Tables_number   1
_chemical_formula_structural   Ti2CoNi
_chemical_formula_sum   'Ti108 Co54 Ni54'
_cell_volume   3151.41683933
_cell_formula_units_Z   54
loop_
 _symmetry_equiv_pos_site_id
 _symmetry_equiv_pos_as_xyz
  1  'x, y, z'
loop_
 _atom_site_type_symbol
 _atom_site_label
 _atom_site_symmetry_multiplicity
 _atom_site_fract_x
 _atom_site_fract_y
 _atom_site_fract_z
 _atom_site_occupancy
  Ti  Ti0  1  0.03132481  -0.05473286  0.04670861  1
  Ti  Ti1  1  -0.05311479  0.03274515  0.36675808  1
  Ti  Ti2  1  -0.01560865  0.03240600  0.67958890  1
  Ti  Ti3  1  0.00900800  0.34141649  0.00303545  1
  Ti  Ti4  1  -0.01200331  0.34199885  0.31168885  1
  Ti  Ti5  1  0.07647810  0.30442760  0.72333917  1
  Ti  Ti6  1  -0.06477261  0.66001492  -0.05656431  1
  Ti  Ti7  1  0.07757500  0.64111524  0.35962122  1
  Ti  Ti8  1  -0.04922679  0.70572465  0.72858798  1
  Ti  Ti9  1  0.34135643  -0.01449268  -0.03301424  1
  Ti  Ti10  1  0.30833784  0.00326829  0.37982820  1
  Ti  Ti11  1  0.35229716  0.04059453  0.64048272  1
  Ti  Ti12  1  0.28628154  0.35047434  0.03787713  1
  Ti  Ti13  1  0.35045398  0.35081822  0.26251675  1
  Ti  Ti14  1  0.36747168  0.34548986  0.60676549  1
  Ti  Ti15  1  0.34177168  0.68313325  0.00391576  1
  Ti  Ti16  1  0.33080352  0.69504194  0.30264096  1
  Ti  Ti17  1  0.34358520  0.69733497  0.58776611  1
  Ti  Ti18  1  0.69041443  -0.00395775  -0.15056893  1
  Ti  Ti19  1  0.67640706  0.03448022  0.35170901  1
  Ti  Ti20  1  0.65251161  0.02125380  0.65158631  1
  Ti  Ti21  1  0.69354532  0.37026961  -0.06042780  1
  Ti  Ti22  1  0.68601262  0.34405770  0.38029257  1
  Ti  Ti23  1  0.68681551  0.34650882  0.68933063  1
  Ti  Ti24  1  0.65768237  0.65255735  -0.04419871  1
  Ti  Ti25  1  0.70356806  0.55487062  0.31931358  1
  Ti  Ti26  1  0.61666758  0.69092457  0.61502769  1
  Ti  Ti27  1  -0.06036416  0.09453500  0.15044676  1
  Ti  Ti28  1  0.10875696  0.09416266  0.44011126  1
  Ti  Ti29  1  -0.03673432  0.19053486  0.85127391  1
  Ti  Ti30  1  0.07182606  0.54054842  0.17622637  1
  Ti  Ti31  1  -0.03612021  0.51356041  0.48132728  1
  Ti  Ti32  1  -0.05042491  0.48251725  0.86910478  1
  Ti  Ti33  1  0.04173622  0.81778013  0.19648744  1
  Ti  Ti34  1  0.02685133  0.80281347  0.53393470  1
  Ti  Ti35  1  -0.03833155  0.85190584  0.87290553  1
  Ti  Ti36  1  0.27770867  0.17098642  0.15231147  1
  Ti  Ti37  1  0.27700922  0.15611708  0.50057503  1
  Ti  Ti38  1  0.35537466  0.28417787  0.83552900  1
  Ti  Ti39  1  0.35882860  0.52526592  0.14542454  1
  Ti  Ti40  1  0.36259093  0.52476365  0.50526397  1
  Ti  Ti41  1  0.26940479  0.53557044  0.72180989  1
  Ti  Ti42  1  0.31331661  0.87265834  0.23343836  1
  Ti  Ti43  1  0.37596207  0.87494256  0.52699584  1
  Ti  Ti44  1  0.27631625  0.83176873  0.81497096  1
  Ti  Ti45  1  0.66271304  0.20619110  0.09277480  1
  Ti  Ti46  1  0.71069741  0.19181308  0.53592404  1
  Ti  Ti47  1  0.63439532  0.18841803  0.89078562  1
  Ti  Ti48  1  0.58137100  0.44535578  0.18848881  1
  Ti  Ti49  1  0.66380161  0.49264330  0.52152494  1
  Ti  Ti50  1  0.58065232  0.48817084  0.82425344  1
  Ti  Ti51  1  0.63424399  0.77066979  0.11817090  1
  Ti  Ti52  1  0.71884500  0.83696425  0.53709743  1
  Ti  Ti53  1  0.61397522  0.82693769  0.86359235  1
  Ti  Ti54  1  0.20640268  -0.02146372  0.13583805  1
  Ti  Ti55  1  0.18946177  -0.06426623  0.52404316  1
  Ti  Ti56  1  0.24108457  0.03788221  0.80090510  1
  Ti  Ti57  1  0.10452298  0.28433074  0.16815980  1
  Ti  Ti58  1  0.16011766  0.31696256  0.54606919  1
  Ti  Ti59  1  0.16569173  0.28206638  0.87975693  1
  Ti  Ti60  1  0.20441984  0.72052235  0.13317813  1
  Ti  Ti61  1  0.14633100  0.62980575  0.55717498  1
  Ti  Ti62  1  0.09074475  0.60266965  0.82269336  1
  Ti  Ti63  1  0.54885539  0.04728802  0.14449350  1
  Ti  Ti64  1  0.52997756  -0.06078393  0.44093545  1
  Ti  Ti65  1  0.49988001  0.00912490  0.79317325  1
  Ti  Ti66  1  0.48762192  0.24307798  0.18707374  1
  Ti  Ti67  1  0.54271872  0.34055466  0.51324797  1
  Ti  Ti68  1  0.51817537  0.28365727  0.74405102  1
  Ti  Ti69  1  0.50450068  0.63803968  0.21907332  1
  Ti  Ti70  1  0.48296573  0.70763321  0.43352209  1
  Ti  Ti71  1  0.48233817  0.67913232  0.86983864  1
  Ti  Ti72  1  0.73251346  -0.04997574  0.14069245  1
  Ti  Ti73  1  0.80625708  0.01833929  0.51325736  1
  Ti  Ti74  1  0.83064865  -0.04796900  0.96904583  1
  Ti  Ti75  1  0.81489972  0.38785520  0.23915071  1
  Ti  Ti76  1  0.86957460  0.30684494  0.45503285  1
  Ti  Ti77  1  0.89602072  0.35046808  0.74551555  1
  Ti  Ti78  1  0.77911205  0.70333870  0.21584388  1
  Ti  Ti79  1  0.80450118  0.63349954  0.50293769  1
  Ti  Ti80  1  0.78886973  0.60198915  0.80622147  1
  Ti  Ti81  1  0.14257621  0.08621567  -0.03966263  1
  Ti  Ti82  1  0.16876584  0.25558350  0.34133740  1
  Ti  Ti83  1  0.24171292  0.20019530  0.69214897  1
  Ti  Ti84  1  0.22335500  0.52690001  -0.05357131  1
  Ti  Ti85  1  0.21111817  0.46179920  0.36975829  1
  Ti  Ti86  1  0.07876856  0.47917809  0.64972656  1
  Ti  Ti87  1  0.17090485  0.82694865  -0.02994317  1
  Ti  Ti88  1  0.12577535  0.91220168  0.34706518  1
  Ti  Ti89  1  0.11486011  0.87634575  0.70178585  1
  Ti  Ti90  1  0.45700349  0.23339208  -0.00773217  1
  Ti  Ti91  1  0.48103960  0.11013883  0.34380039  1
  Ti  Ti92  1  0.50045572  0.16100659  0.59922793  1
  Ti  Ti93  1  0.51857928  0.50849773  0.00697364  1
  Ti  Ti94  1  0.52660844  0.50653805  0.37200982  1
  Ti  Ti95  1  0.47032819  0.57846092  0.69938545  1
  Ti  Ti96  1  0.48652752  0.83225361  0.01075330  1
  Ti  Ti97  1  0.53550569  0.87495575  0.24284699  1
  Ti  Ti98  1  0.46541084  0.82202729  0.70446210  1
  Ti  Ti99  1  0.83277125  0.22097803  0.01426455  1
  Ti  Ti100  1  0.79990564  0.20136296  0.25043863  1
  Ti  Ti101  1  0.81143712  0.11966094  0.71352568  1
  Ti  Ti102  1  0.88369122  0.48938179  0.06433133  1
  Ti  Ti103  1  0.90451620  0.54904345  0.29193686  1
  Ti  Ti104  1  0.82331748  0.47346445  0.61824446  1
  Ti  Ti105  1  0.87933163  0.80002162  0.07602319  1
  Ti  Ti106  1  0.86584837  0.86215019  0.30352280  1
  Ti  Ti107  1  0.77908461  0.81663315  0.75075350  1
  Co  Co108  1  0.61596093  0.81058136  0.40850997  1
  Co  Co109  1  0.13758527  0.41417365  0.05888458  1
  Co  Co110  1  0.11149425  0.11157207  0.13207451  1
  Co  Co111  1  0.92490802  0.25940004  0.15305855  1
  Co  Co112  1  0.27761251  0.83361893  0.40172823  1
  Co  Co113  1  0.80482101  0.94672538  0.65749385  1
  Co  Co114  1  0.27344952  0.41846757  0.84589121  1
  Co  Co115  1  0.25319577  0.61944642  0.42637023  1
  Co  Co116  1  0.53325501  0.34333412  0.89398412  1
  Co  Co117  1  0.98318229  0.41052276  0.16443097  1
  Co  Co118  1  0.11949236  0.44182077  0.81182287  1
  Co  Co119  1  0.61168993  0.93753419  0.02674701  1
  Co  Co120  1  0.21282341  0.56049387  0.09794842  1
  Co  Co121  1  0.86903516  0.97402582  0.79914121  1
  Co  Co122  1  0.21162060  0.78816156  0.58479548  1
  Co  Co123  1  0.42355947  0.06112300  0.49241770  1
  Co  Co124  1  0.72865117  0.39562006  0.09728890  1
  Co  Co125  1  0.22540631  0.46929067  0.55719358  1
  Co  Co126  1  0.50162418  0.97336217  0.61849502  1
  Co  Co127  1  0.63930228  0.60254054  0.13239343  1
  Co  Co128  1  0.77392095  0.66438669  0.65834826  1
  Co  Co129  1  0.43254713  0.38309704  0.10450339  1
  Co  Co130  1  0.54112435  0.82138049  0.55877992  1
  Co  Co131  1  0.04557664  0.53972645  1.00115586  1
  Co  Co132  1  0.60355098  0.06704520  0.50347061  1
  Co  Co133  1  0.21981136  0.42650146  0.20457952  1
  Co  Co134  1  0.66271687  0.31228075  0.22011708  1
  Co  Co135  1  0.62770118  0.87270303  0.70251278  1
  Co  Co136  1  0.16596511  0.23383359  0.02998572  1
  Co  Co137  1  0.30675597  0.84490613  0.05150172  1
  Co  Co138  1  0.42014165  0.42814529  0.76502886  1
  Co  Co139  1  0.57992393  0.33647096  0.05899784  1
  Co  Co140  1  0.69738500  0.85957213  0.27336120  1
  Co  Co141  1  0.21159983  0.58974237  0.26159217  1
  Co  Co142  1  0.17565023  0.75967910  0.28661488  1
  Co  Co143  1  0.23452649  0.36700152  0.70058002  1
  Co  Co144  1  0.28227280  0.90347080  0.67212331  1
  Co  Co145  1  0.71910933  0.82765401  0.99451678  1
  Co  Co146  1  0.90861092  0.93565834  0.16003420  1
  Co  Co147  1  0.37658190  0.55989082  0.86169471  1
  Co  Co148  1  0.77615486  0.53894943  0.17355412  1
  Co  Co149  1  0.62401823  0.70585082  0.28816991  1
  Co  Co150  1  0.42849282  0.83862205  0.35446556  1
  Co  Co151  1  0.50931477  0.66563939  1.04894432  1
  Co  Co152  1  -0.02389467  0.63983590  0.57887492  1
  Co  Co153  1  0.09586679  0.13888057  0.76726326  1
  Co  Co154  1  0.76762335  0.43770181  0.80112848  1
  Co  Co155  1  0.40063998  0.42120790  0.94268468  1
  Co  Co156  1  0.81577247  0.75593408  0.89625744  1
  Co  Co157  1  0.19895526  0.08289691  0.28045823  1
  Co  Co158  1  0.53230406  0.32841618  0.32418673  1
  Co  Co159  1  0.23704328  0.67682998  0.87471929  1
  Co  Co160  1  0.05660530  0.99471053  0.22969271  1
  Co  Co161  1  0.15081920  0.75711088  0.44380022  1
  Ni  Ni162  1  0.87011968  0.78055099  0.59761755  1
  Ni  Ni163  1  0.04222096  0.75253229  0.03868373  1
  Ni  Ni164  1  0.38835943  0.13340286  0.77858602  1
  Ni  Ni165  1  0.64947530  0.17555074  0.72053551  1
  Ni  Ni166  1  0.95451201  0.20148429  0.67365391  1
  Ni  Ni167  1  0.09833873  0.76951880  0.82726596  1
  Ni  Ni168  1  0.63764433  0.64740916  0.44633123  1
  Ni  Ni169  1  0.97520639  0.03532002  0.91410667  1
  Ni  Ni170  1  0.42708454  0.23172757  0.45170132  1
  Ni  Ni171  1  0.01422536  0.97419281  0.52026488  1
  Ni  Ni172  1  0.92793004  0.71226585  0.43188424  1
  Ni  Ni173  1  0.77091331  0.51825773  0.94960653  1
  Ni  Ni174  1  0.81843078  0.14859939  0.40364670  1
  Ni  Ni175  1  0.19090642  0.69149196  0.71162120  1
  Ni  Ni176  1  0.32713800  0.18810071  0.32098468  1
  Ni  Ni177  1  0.94068774  0.71094062  0.27105855  1
  Ni  Ni178  1  0.17068591  0.04065311  0.64655535  1
  Ni  Ni179  1  0.81148840  0.46665345  0.42144431  1
  Ni  Ni180  1  0.28466915  0.31432463  0.44276087  1
  Ni  Ni181  1  0.76745154  0.74182035  0.38265008  1
  Ni  Ni182  1  0.81392217  0.02788531  0.26952908  1
  Ni  Ni183  1  0.86122418  0.35276896  0.91567700  1
  Ni  Ni184  1  0.63197455  0.67548792  0.77924763  1
  Ni  Ni185  1  0.43065969  0.86582851  0.86170818  1
  Ni  Ni186  1  0.11161822  0.94229458  0.86435181  1
  Ni  Ni187  1  0.51760410  0.57074278  0.53874880  1
  Ni  Ni188  1  0.67121057  0.53056895  0.68864388  1
  Ni  Ni189  1  0.07344500  0.40441951  0.44158578  1
  Ni  Ni190  1  0.36660788  0.52867603  0.31686079  1
  Ni  Ni191  1  0.54791131  0.07894574  0.97571625  1
  Ni  Ni192  1  0.78910247  0.65802160  0.04915064  1
  Ni  Ni193  1  0.42316784  0.93855879  0.11883923  1
  Ni  Ni194  1  0.40405153  0.09837048  0.07265696  1
  Ni  Ni195  1  0.97745572  0.35520539  0.58254055  1
  Ni  Ni196  1  0.41038446  0.75954198  0.15168662  1
  Ni  Ni197  1  0.53858895  0.43104631  0.64941247  1
  Ni  Ni198  1  0.59367097  0.20560218  0.41923940  1
  Ni  Ni199  1  0.88242678  0.87861640  0.46639650  1
  Ni  Ni200  1  0.93154066  0.12925595  0.52696154  1
  Ni  Ni201  1  0.09200625  0.17102488  0.59220726  1
  Ni  Ni202  1  0.82525930  0.28324527  0.61157316  1
  Ni  Ni203  1  0.00565428  0.17409965  1.01871718  1
  Ni  Ni204  1  0.93804215  0.54042263  0.71131976  1
  Ni  Ni205  1  0.41274360  0.39691364  0.41632102  1
  Ni  Ni206  1  0.76875595  0.25602934  0.81539557  1
  Ni  Ni207  1  0.37058142  0.04878734  0.22879138  1
  Ni  Ni208  1  0.94131894  0.64155240  0.12213095  1
  Ni  Ni209  1  0.03729152  0.15805542  0.28677683  1
  Ni  Ni210  1  0.71639705  0.07264819  0.01072289  1
  Ni  Ni211  1  0.81787296  0.10683874  0.88351257  1
  Ni  Ni212  1  0.62388290  0.16069995  0.25736355  1
  Ni  Ni213  1  1.02785980  0.24294198  0.44942836  1
  Ni  Ni214  1  0.35447282  0.69140310  0.75832611  1
  Ni  Ni215  1  0.30249576  0.15567949  0.94443691  1
