# generated using pymatgen
data_Ti2CoNi
_symmetry_space_group_name_H-M   'P 1'
_cell_length_a   14.65048578
_cell_length_b   14.66055226
_cell_length_c   14.67865069
_cell_angle_alpha   89.98832778
_cell_angle_beta   90.24880737
_cell_angle_gamma   90.07379390
_symmetry_Int_Tables_number   1
_chemical_formula_structural   Ti2CoNi
_chemical_formula_sum   'Ti108 Co54 Ni54'
_cell_volume   3152.71002358
_cell_formula_units_Z   54
loop_
 _symmetry_equiv_pos_site_id
 _symmetry_equiv_pos_as_xyz
  1  'x, y, z'
loop_
 _atom_site_type_symbol
 _atom_site_label
 _atom_site_symmetry_multiplicity
 _atom_site_fract_x
 _atom_site_fract_y
 _atom_site_fract_z
 _atom_site_occupancy
  Ti  Ti0  1  0.06808242  -0.02380989  0.05868745  1
  Ti  Ti1  1  0.00398750  0.00910116  0.27374932  1
  Ti  Ti2  1  0.02173110  -0.04550203  0.70387356  1
  Ti  Ti3  1  -0.04408182  0.33978513  -0.08915375  1
  Ti  Ti4  1  -0.04023961  0.41717870  0.33932523  1
  Ti  Ti5  1  0.00474345  0.27507893  0.71354377  1
  Ti  Ti6  1  0.04161443  0.72819985  -0.03628109  1
  Ti  Ti7  1  -0.01483658  0.73151658  0.37442767  1
  Ti  Ti8  1  0.00733061  0.69734752  0.73764878  1
  Ti  Ti9  1  0.38149087  0.00828760  0.04709283  1
  Ti  Ti10  1  0.46533764  -0.01147058  0.33359030  1
  Ti  Ti11  1  0.35638980  0.05328613  0.68857101  1
  Ti  Ti12  1  0.33773044  0.31838469  0.06421441  1
  Ti  Ti13  1  0.29846000  0.29601828  0.38377556  1
  Ti  Ti14  1  0.40693422  0.40308720  0.64256265  1
  Ti  Ti15  1  0.24338081  0.67830566  0.04331838  1
  Ti  Ti16  1  0.40592597  0.64326307  0.33295417  1
  Ti  Ti17  1  0.41436657  0.60369660  0.62789078  1
  Ti  Ti18  1  0.61292441  -0.03499458  0.01835836  1
  Ti  Ti19  1  0.67483527  -0.04659967  0.36822591  1
  Ti  Ti20  1  0.70248311  0.04957078  0.73972632  1
  Ti  Ti21  1  0.62512336  0.37813320  -0.03143343  1
  Ti  Ti22  1  0.66721842  0.27238948  0.32334027  1
  Ti  Ti23  1  0.70836017  0.37391292  0.61880902  1
  Ti  Ti24  1  0.65410957  0.67781876  -0.04450642  1
  Ti  Ti25  1  0.69784707  0.72590483  0.36503619  1
  Ti  Ti26  1  0.69374455  0.63978541  0.64006648  1
  Ti  Ti27  1  -0.01742614  0.15790288  0.16640305  1
  Ti  Ti28  1  0.02360073  0.12240886  0.56953971  1
  Ti  Ti29  1  0.01506835  0.15846726  0.89911021  1
  Ti  Ti30  1  -0.01504534  0.52247918  0.17843455  1
  Ti  Ti31  1  0.09069774  0.45792551  0.48028000  1
  Ti  Ti32  1  0.03546118  0.49416527  0.82601721  1
  Ti  Ti33  1  -0.03331687  0.81620651  0.13283617  1
  Ti  Ti34  1  -0.01599577  0.84036718  0.53788294  1
  Ti  Ti35  1  -0.09012968  0.82647998  0.84603844  1
  Ti  Ti36  1  0.26348458  0.21381631  0.21142526  1
  Ti  Ti37  1  0.35189212  0.21691447  0.56675866  1
  Ti  Ti38  1  0.33884974  0.21189719  0.86623664  1
  Ti  Ti39  1  0.32336089  0.52453244  0.13572067  1
  Ti  Ti40  1  0.28333543  0.50470017  0.46600871  1
  Ti  Ti41  1  0.32629213  0.55121564  0.91802984  1
  Ti  Ti42  1  0.26412081  0.81821688  0.21066571  1
  Ti  Ti43  1  0.27156346  0.80968696  0.47789339  1
  Ti  Ti44  1  0.33242678  0.83708030  0.77153794  1
  Ti  Ti45  1  0.76803732  0.16734022  0.18850478  1
  Ti  Ti46  1  0.58588116  0.12490491  0.43315650  1
  Ti  Ti47  1  0.61613453  0.22381518  0.82901118  1
  Ti  Ti48  1  0.65633124  0.46336480  0.16104889  1
  Ti  Ti49  1  0.71837091  0.53252290  0.45958811  1
  Ti  Ti50  1  0.70844625  0.53340667  0.80652457  1
  Ti  Ti51  1  0.58961898  0.85221078  0.21439686  1
  Ti  Ti52  1  0.66359678  0.83070753  0.54414211  1
  Ti  Ti53  1  0.68212088  0.83913692  0.75590474  1
  Ti  Ti54  1  0.18658856  0.03829394  0.22631288  1
  Ti  Ti55  1  0.24273564  0.01587193  0.47528315  1
  Ti  Ti56  1  0.19733864  -0.02023929  0.77144417  1
  Ti  Ti57  1  0.12055662  0.33642989  0.15867980  1
  Ti  Ti58  1  0.22232191  0.34919611  0.56456062  1
  Ti  Ti59  1  0.14875235  0.30578244  0.84422829  1
  Ti  Ti60  1  0.09961079  0.68807890  0.19868279  1
  Ti  Ti61  1  0.19561280  0.63482971  0.58220966  1
  Ti  Ti62  1  0.18162333  0.68576335  0.82718240  1
  Ti  Ti63  1  0.53697347  0.04586812  0.16508325  1
  Ti  Ti64  1  0.43219119  0.07401986  0.50719364  1
  Ti  Ti65  1  0.50622334  -0.03893540  0.80644095  1
  Ti  Ti66  1  0.56070085  0.28077576  0.14054836  1
  Ti  Ti67  1  0.53236540  0.27704912  0.53882431  1
  Ti  Ti68  1  0.48277736  0.39276629  0.83012734  1
  Ti  Ti69  1  0.45110709  0.71703474  0.14168697  1
  Ti  Ti70  1  0.55893111  0.66730372  0.48617189  1
  Ti  Ti71  1  0.45166516  0.66541395  0.80165575  1
  Ti  Ti72  1  0.87178465  -0.00625983  0.13702825  1
  Ti  Ti73  1  0.83541627  -0.00865913  0.47339512  1
  Ti  Ti74  1  0.80267671  -0.02239077  0.92181161  1
  Ti  Ti75  1  0.91613451  0.33335592  0.13624915  1
  Ti  Ti76  1  0.81597283  0.34727736  0.45123492  1
  Ti  Ti77  1  0.81599676  0.25135989  0.77323496  1
  Ti  Ti78  1  0.78044483  0.64558656  0.12839454  1
  Ti  Ti79  1  0.84782927  0.67405256  0.49747622  1
  Ti  Ti80  1  0.85442285  0.62677576  0.90803360  1
  Ti  Ti81  1  0.19520577  0.08203966  -0.06016239  1
  Ti  Ti82  1  0.12188036  0.18687749  0.35858869  1
  Ti  Ti83  1  0.19769820  0.19716329  0.68799437  1
  Ti  Ti84  1  0.18322805  0.42409739  -0.01242395  1
  Ti  Ti85  1  0.17084186  0.51643491  0.29110802  1
  Ti  Ti86  1  0.00416130  0.53159586  0.63303464  1
  Ti  Ti87  1  0.20247203  0.86558058  -0.06456989  1
  Ti  Ti88  1  0.12556911  0.88490721  0.36515362  1
  Ti  Ti89  1  0.15676600  0.80640834  0.65706836  1
  Ti  Ti90  1  0.51475444  0.14125469  -0.02090274  1
  Ti  Ti91  1  0.45930590  0.17157883  0.29792224  1
  Ti  Ti92  1  0.54821941  0.12579255  0.65547401  1
  Ti  Ti93  1  0.50830030  0.52872085  0.04295818  1
  Ti  Ti94  1  0.41994235  0.44718174  0.32483556  1
  Ti  Ti95  1  0.55798122  0.47653410  0.55189501  1
  Ti  Ti96  1  0.49973180  0.80102137  -0.06520976  1
  Ti  Ti97  1  0.49367340  0.81614922  0.38914263  1
  Ti  Ti98  1  0.44808269  0.85248894  0.61046633  1
  Ti  Ti99  1  0.84672127  0.20248509  0.01114065  1
  Ti  Ti100  1  0.90429572  0.17425046  0.35994193  1
  Ti  Ti101  1  0.80983387  0.14893619  0.59934382  1
  Ti  Ti102  1  0.83892256  0.46618397  0.02807644  1
  Ti  Ti103  1  0.84299957  0.57755181  0.32129236  1
  Ti  Ti104  1  0.87184628  0.41602322  0.70475801  1
  Ti  Ti105  1  0.76127746  0.85135420  0.08028471  1
  Ti  Ti106  1  0.82115928  0.84493965  0.27410747  1
  Ti  Ti107  1  0.84544527  0.82501897  0.65509768  1
  Co  Co108  1  0.67287136  0.06591155  0.55048549  1
  Co  Co109  1  0.12615346  0.91628033  0.54293113  1
  Co  Co110  1  0.41118580  0.30425282  0.23733626  1
  Co  Co111  1  0.62399345  0.05092953  0.88358864  1
  Co  Co112  1  0.64374791  0.37899483  0.44822526  1
  Co  Co113  1  0.50076044  0.56004161  0.21737538  1
  Co  Co114  1  0.16880241  0.04669959  0.62638258  1
  Co  Co115  1  0.01491361  0.28132739  0.27104019  1
  Co  Co116  1  0.43671113  0.54219733  0.47382653  1
  Co  Co117  1  1.03199565  0.26396150  0.03297233  1
  Co  Co118  1  0.61413527  0.78767868  0.06654004  1
  Co  Co119  1  0.02318036  0.57925997  0.33139556  1
  Co  Co120  1  0.11837148  0.13299588  0.08414977  1
  Co  Co121  1  0.55909978  0.69747522  0.28773771  1
  Co  Co122  1  0.32229845  0.73693326  0.90026236  1
  Co  Co123  1  0.68577000  0.58700322  0.26981116  1
  Co  Co124  1  0.02223838  0.67417548  0.55856714  1
  Co  Co125  1  0.27662605  0.13104475  0.07531939  1
  Co  Co126  1  0.61448496  0.63668663  0.12590408  1
  Co  Co127  1  0.93243371  0.90580313  -0.00740057  1
  Co  Co128  1  0.29426378  0.63501889  0.74475707  1
  Co  Co129  1  0.74993491  0.94836416  0.62033356  1
  Co  Co130  1  0.74453445  0.33276533  0.10421470  1
  Co  Co131  1  0.78611007  0.70494041  0.77564266  1
  Co  Co132  1  0.48379290  0.12024405  0.81588347  1
  Co  Co133  1  0.56948931  0.54234439  0.37321246  1
  Co  Co134  1  0.28338348  0.92048391  0.62049841  1
  Co  Co135  1  0.39538954  0.37568976  0.48683529  1
  Co  Co136  1  0.07836410  0.28415377  0.57336105  1
  Co  Co137  1  0.33618517  0.81493285  0.05632776  1
  Co  Co138  1  0.88730117  0.56783503  0.76326405  1
  Co  Co139  1  0.12185524  0.75634350  0.47154603  1
  Co  Co140  1  0.31824279  0.75039306  0.63631513  1
  Co  Co141  1  0.94247755  0.07175279  1.01088476  1
  Co  Co142  1  0.45247190  0.42349146  0.14682992  1
  Co  Co143  1  0.14219274  0.80327496  0.07281331  1
  Co  Co144  1  0.14636149  0.36138909  0.35299078  1
  Co  Co145  1  0.49698639  0.29895295  0.38471840  1
  Co  Co146  1  0.56539946  0.39663798  0.27470563  1
  Co  Co147  1  0.25310288  0.49605661  0.64315431  1
  Co  Co148  1  0.48347578  0.88531882  0.07405731  1
  Co  Co149  1  0.80862914  0.52312762  0.59949507  1
  Co  Co150  1  0.11249239  0.40269344  0.68418397  1
  Co  Co151  1  0.19573449  0.24963845  0.99092522  1
  Co  Co152  1  0.87869547  0.66909897  0.64547018  1
  Co  Co153  1  0.83453475  0.30089421  0.27752673  1
  Co  Co154  1  0.92880492  0.53283727  0.46953634  1
  Co  Co155  1  0.37662862  0.50086224  0.77085557  1
  Co  Co156  1  0.41288688  0.89734773  0.20926684  1
  Co  Co157  1  0.90339248  0.00911872  0.61518075  1
  Co  Co158  1  0.10527111  0.88269623  0.20449469  1
  Co  Co159  1  0.31694866  0.37196344  0.89984059  1
  Co  Co160  1  0.72756951  0.43322166  0.32421070  1
  Co  Co161  1  0.43609786  0.65875128  0.98514180  1
  Ni  Ni162  1  0.39168686  0.70169529  0.49307655  1
  Ni  Ni163  1  0.69141427  0.37313017  0.78836193  1
  Ni  Ni164  1  0.30542403  0.12610572  0.36720974  1
  Ni  Ni165  1  0.28064536  0.34315452  0.73715250  1
  Ni  Ni166  1  0.23231832  0.95099408  0.08969872  1
  Ni  Ni167  1  0.75211178  0.12387400  0.40506166  1
  Ni  Ni168  1  0.39012554  0.92199253  0.47649326  1
  Ni  Ni169  1  0.74438976  0.06512271  0.04922415  1
  Ni  Ni170  1  0.94408370  0.90223171  0.37904646  1
  Ni  Ni171  1  0.35154041  0.05452092  0.21686443  1
  Ni  Ni172  1  0.03882232  0.98333073  0.88156890  1
  Ni  Ni173  1  0.58358079  0.95166888  0.65188239  1
  Ni  Ni174  1  0.19652481  0.17426929  0.50871047  1
  Ni  Ni175  1  0.23889762  0.65241239  0.40256795  1
  Ni  Ni176  1  0.91030328  0.11442233  0.74547122  1
  Ni  Ni177  1  0.54832712  0.54629245  0.88333738  1
  Ni  Ni178  1  0.13294152  0.57571656  0.94064177  1
  Ni  Ni179  1  0.83233280  0.02587607  0.29959799  1
  Ni  Ni180  1  0.76715941  0.31373710  0.92527302  1
  Ni  Ni181  1  1.00292579  0.28522531  0.43563529  1
  Ni  Ni182  1  0.07171412  0.03753706  0.43128810  1
  Ni  Ni183  1  0.68890937  0.52808292  0.99892365  1
  Ni  Ni184  1  0.82381711  0.45960416  0.19891239  1
  Ni  Ni185  1  0.33881776  0.04002434  0.85607619  1
  Ni  Ni186  1  0.84510073  0.95853906  0.76112814  1
  Ni  Ni187  1  0.94777066  0.39074576  0.55228688  1
  Ni  Ni188  1  0.55825351  0.74923941  0.66298187  1
  Ni  Ni189  1  0.20729007  0.48226232  0.81047866  1
  Ni  Ni190  1  0.84091376  0.44410292  0.86490668  1
  Ni  Ni191  1  0.86650238  0.75968133  1.00021196  1
  Ni  Ni192  1  0.92468506  0.68541111  0.22287924  1
  Ni  Ni193  1  0.81083746  0.82830608  0.44633493  1
  Ni  Ni194  1  0.26623429  0.64837082  0.23141174  1
  Ni  Ni195  1  0.63853760  0.10491978  0.27672377  1
  Ni  Ni196  1  0.67114803  0.85005276  0.91698023  1
  Ni  Ni197  1  0.41953266  0.24048988  0.71832812  1
  Ni  Ni198  1  0.30307359  0.92386207  0.33544663  1
  Ni  Ni199  1  0.56246091  0.33276857  0.69446079  1
  Ni  Ni200  1  0.02437429  0.44000201  0.03479237  1
  Ni  Ni201  1  0.66756904  0.20686903  0.02418259  1
  Ni  Ni202  1  0.55456616  0.95057397  0.48633336  1
  Ni  Ni203  1  0.37254044  0.90011945  0.92262625  1
  Ni  Ni204  1  0.08560823  0.83348419  0.81543449  1
  Ni  Ni205  1  0.94910030  0.62775756  0.06048250  1
  Ni  Ni206  1  0.70848199  0.97615664  0.19310978  1
  Ni  Ni207  1  0.47040277  0.29938146  0.96930875  1
  Ni  Ni208  1  0.27096975  0.38980955  0.22890411  1
  Ni  Ni209  1  0.42680800  0.17561367  0.12191114  1
  Ni  Ni210  1  0.54955275  0.51699560  0.71749388  1
  Ni  Ni211  1  0.07975345  0.10633240  0.75910513  1
  Ni  Ni212  1  0.14373500  0.54443379  0.10912222  1
  Ni  Ni213  1  0.61845460  0.67712095  0.79353900  1
  Ni  Ni214  1  0.69517606  0.23435913  0.51238394  1
  Ni  Ni215  1  0.76213576  0.14040913  0.87960862  1
