# generated using pymatgen
data_Ti2CoNi
_symmetry_space_group_name_H-M   'P 1'
_cell_length_a   14.70447428
_cell_length_b   14.65944101
_cell_length_c   14.61423040
_cell_angle_alpha   90.11883601
_cell_angle_beta   90.03833292
_cell_angle_gamma   90.30323338
_symmetry_Int_Tables_number   1
_chemical_formula_structural   Ti2CoNi
_chemical_formula_sum   'Ti108 Co54 Ni54'
_cell_volume   3150.18272413
_cell_formula_units_Z   54
loop_
 _symmetry_equiv_pos_site_id
 _symmetry_equiv_pos_as_xyz
  1  'x, y, z'
loop_
 _atom_site_type_symbol
 _atom_site_label
 _atom_site_symmetry_multiplicity
 _atom_site_fract_x
 _atom_site_fract_y
 _atom_site_fract_z
 _atom_site_occupancy
  Ti  Ti0  1  0.04833156  -0.01649890  -0.02582845  1
  Ti  Ti1  1  -0.04612393  -0.01389703  0.35080664  1
  Ti  Ti2  1  -0.01629335  0.01592283  0.69327120  1
  Ti  Ti3  1  0.06481017  0.28195311  0.07592276  1
  Ti  Ti4  1  0.05527328  0.37861248  0.31283198  1
  Ti  Ti5  1  0.01853040  0.44395331  0.63667188  1
  Ti  Ti6  1  0.02063680  0.63042436  0.04257270  1
  Ti  Ti7  1  0.01918403  0.60538446  0.26127051  1
  Ti  Ti8  1  -0.03029008  0.65015224  0.58177583  1
  Ti  Ti9  1  0.35848086  -0.02259753  -0.03954739  1
  Ti  Ti10  1  0.38654189  -0.01886858  0.30829205  1
  Ti  Ti11  1  0.39997655  -0.00893304  0.65222670  1
  Ti  Ti12  1  0.28566635  0.30711481  0.05331104  1
  Ti  Ti13  1  0.28868830  0.40859394  0.25152697  1
  Ti  Ti14  1  0.29678146  0.19916666  0.69023220  1
  Ti  Ti15  1  0.28992230  0.69101087  0.00786865  1
  Ti  Ti16  1  0.33986002  0.58361454  0.34008944  1
  Ti  Ti17  1  0.33101137  0.66963307  0.65235226  1
  Ti  Ti18  1  0.64750553  -0.07170828  -0.02850810  1
  Ti  Ti19  1  0.63841380  0.04152841  0.26300891  1
  Ti  Ti20  1  0.58242257  0.09997089  0.62882021  1
  Ti  Ti21  1  0.66239856  0.30895496  -0.06550017  1
  Ti  Ti22  1  0.73289425  0.34962925  0.30590917  1
  Ti  Ti23  1  0.66941677  0.34393659  0.67848900  1
  Ti  Ti24  1  0.56943797  0.61981208  0.04470425  1
  Ti  Ti25  1  0.65890113  0.69272039  0.38317545  1
  Ti  Ti26  1  0.68902097  0.64827736  0.69886648  1
  Ti  Ti27  1  0.01998929  0.07516912  0.15153859  1
  Ti  Ti28  1  0.03484616  0.19160309  0.42509627  1
  Ti  Ti29  1  -0.05384571  0.19027985  0.92675054  1
  Ti  Ti30  1  0.02660230  0.45948623  0.13219023  1
  Ti  Ti31  1  -0.03504241  0.50941728  0.43273980  1
  Ti  Ti32  1  -0.04090723  0.41291284  0.82783444  1
  Ti  Ti33  1  -0.00033291  0.84216440  0.23543642  1
  Ti  Ti34  1  -0.02061115  0.80606432  0.45472416  1
  Ti  Ti35  1  -0.01787882  0.85921354  0.79495250  1
  Ti  Ti36  1  0.39322378  0.18697079  0.19685553  1
  Ti  Ti37  1  0.32777057  0.11291342  0.50184605  1
  Ti  Ti38  1  0.32278691  0.17045247  0.89350972  1
  Ti  Ti39  1  0.36029672  0.53128874  0.12016641  1
  Ti  Ti40  1  0.28137555  0.51592230  0.52785941  1
  Ti  Ti41  1  0.26615251  0.56540025  0.84349278  1
  Ti  Ti42  1  0.38562387  0.83215710  0.17232890  1
  Ti  Ti43  1  0.34630839  0.85049439  0.49385663  1
  Ti  Ti44  1  0.27822965  0.77791126  0.82654663  1
  Ti  Ti45  1  0.70885913  0.19838038  0.10695668  1
  Ti  Ti46  1  0.61431175  0.25205024  0.50753523  1
  Ti  Ti47  1  0.74234696  0.12399919  0.87095749  1
  Ti  Ti48  1  0.71302472  0.52391155  0.14742939  1
  Ti  Ti49  1  0.67698954  0.44800828  0.47052876  1
  Ti  Ti50  1  0.72767356  0.47861231  0.82581328  1
  Ti  Ti51  1  0.73504203  0.87420374  0.14433918  1
  Ti  Ti52  1  0.67855735  0.88752546  0.48944924  1
  Ti  Ti53  1  0.63897422  0.84079975  0.78814499  1
  Ti  Ti54  1  0.17621562  -0.05638216  0.22836154  1
  Ti  Ti55  1  0.15389063  0.02689199  0.45303332  1
  Ti  Ti56  1  0.19519775  0.03945443  0.79206533  1
  Ti  Ti57  1  0.19739581  0.15608183  0.17685331  1
  Ti  Ti58  1  0.20169069  0.26831796  0.53002372  1
  Ti  Ti59  1  0.24668393  0.35638193  0.85501371  1
  Ti  Ti60  1  0.15750343  0.74071229  0.15576379  1
  Ti  Ti61  1  0.16350308  0.71498368  0.55827335  1
  Ti  Ti62  1  0.10432485  0.69986061  0.76480483  1
  Ti  Ti63  1  0.49965347  0.01121206  0.09782848  1
  Ti  Ti64  1  0.52331250  -0.00980188  0.42395528  1
  Ti  Ti65  1  0.55909647  0.04195226  0.83286476  1
  Ti  Ti66  1  0.55245992  0.33578863  0.23592902  1
  Ti  Ti67  1  0.50016591  0.39636553  0.57678357  1
  Ti  Ti68  1  0.53460287  0.37209424  0.80444008  1
  Ti  Ti69  1  0.50232117  0.63046756  0.23659645  1
  Ti  Ti70  1  0.47746499  0.69817322  0.50841298  1
  Ti  Ti71  1  0.55619779  0.65064858  0.83253476  1
  Ti  Ti72  1  0.82163495  0.04244054  0.21379302  1
  Ti  Ti73  1  0.89425032  0.06585907  0.51273560  1
  Ti  Ti74  1  0.80338243  -0.04901752  0.81742404  1
  Ti  Ti75  1  0.84311317  0.35615187  0.13271661  1
  Ti  Ti76  1  0.91798127  0.31173063  0.50313941  1
  Ti  Ti77  1  0.81032526  0.29281491  0.81535675  1
  Ti  Ti78  1  0.83486348  0.70230693  0.06831517  1
  Ti  Ti79  1  0.78013508  0.60238067  0.51507618  1
  Ti  Ti80  1  0.84032616  0.67284749  0.86768713  1
  Ti  Ti81  1  0.15069018  0.14666198  -0.02795714  1
  Ti  Ti82  1  0.22208400  0.23131808  0.34334754  1
  Ti  Ti83  1  0.09831627  0.16580678  0.66999696  1
  Ti  Ti84  1  0.10932655  0.46749586  -0.05018832  1
  Ti  Ti85  1  0.16219723  0.53631999  0.37993763  1
  Ti  Ti86  1  0.22499717  0.41822723  0.67217249  1
  Ti  Ti87  1  0.13280808  0.80601864  -0.03641182  1
  Ti  Ti88  1  0.18162286  0.74691351  0.34767857  1
  Ti  Ti89  1  0.15751519  0.90142617  0.64712135  1
  Ti  Ti90  1  0.47886150  0.21454083  0.00906264  1
  Ti  Ti91  1  0.55021705  0.18525316  0.34656805  1
  Ti  Ti92  1  0.47300079  0.20224143  0.77244948  1
  Ti  Ti93  1  0.47604970  0.43049108  -0.00027383  1
  Ti  Ti94  1  0.52155948  0.54012007  0.40906058  1
  Ti  Ti95  1  0.41618960  0.51123870  0.72328894  1
  Ti  Ti96  1  0.44870933  0.79077569  -0.05745146  1
  Ti  Ti97  1  0.50602583  0.80831012  0.35526015  1
  Ti  Ti98  1  0.46077535  0.80173869  0.70269093  1
  Ti  Ti99  1  0.83383237  0.05075035  0.01975405  1
  Ti  Ti100  1  0.78289033  0.17868690  0.39904594  1
  Ti  Ti101  1  0.77362551  0.17454561  0.63993233  1
  Ti  Ti102  1  0.84781250  0.50412050  -0.01583948  1
  Ti  Ti103  1  0.80189685  0.56182518  0.31410916  1
  Ti  Ti104  1  0.86640131  0.54532039  0.71513279  1
  Ti  Ti105  1  0.89621175  0.86460244  -0.03047159  1
  Ti  Ti106  1  0.81386427  0.81644518  0.32563741  1
  Ti  Ti107  1  0.86334097  0.86523123  0.62463315  1
  Co  Co108  1  0.43366356  0.54682844  0.55752260  1
  Co  Co109  1  0.30548665  -0.07763355  0.78131050  1
  Co  Co110  1  0.44939157  0.46425388  0.27118204  1
  Co  Co111  1  0.86761130  0.47202091  0.55946106  1
  Co  Co112  1  0.29848382  0.82921538  0.64487367  1
  Co  Co113  1  0.33674974  0.35632513  0.56862591  1
  Co  Co114  1  0.83201693  0.41941373  0.40917478  1
  Co  Co115  1  0.92957755  1.02009364  0.87568492  1
  Co  Co116  1  0.75683382  0.81012887  0.93873764  1
  Co  Co117  1  0.72739776  0.48753111  0.64120045  1
  Co  Co118  1  0.39074702  0.05896376  0.80175292  1
  Co  Co119  1  0.82379768  0.70848097  0.63620487  1
  Co  Co120  1  0.21003195  0.95400430  0.93157061  1
  Co  Co121  1  0.41908479  0.35315065  0.14198547  1
  Co  Co122  1  0.05397143  0.29585449  0.59072634  1
  Co  Co123  1  0.67860788  0.02923147  0.10158352  1
  Co  Co124  1  0.85285564  0.90953712  0.47084590  1
  Co  Co125  1  0.09109964  0.08242195  0.30742361  1
  Co  Co126  1  0.58636696  0.50317301  0.71728165  1
  Co  Co127  1  0.53873155  0.84255610  0.07565237  1
  Co  Co128  1  0.02302777  0.80768266  0.63068521  1
  Co  Co129  1  0.94704765  0.70277152  0.74310146  1
  Co  Co130  1  0.67416425  0.45536227  0.01110730  1
  Co  Co131  1  0.79736809  0.21501763  0.23762772  1
  Co  Co132  1  0.30097417  0.47497628  0.97339176  1
  Co  Co133  1  0.91032099  0.29281695  0.33190154  1
  Co  Co134  1  0.90118998  0.44195543  0.26080537  1
  Co  Co135  1  0.39807828  0.66742588  0.80897437  1
  Co  Co136  1  0.60498410  0.76464917  0.93734485  1
  Co  Co137  1  0.40344162  0.43200918  0.43112239  1
  Co  Co138  1  0.19103590  0.43336613  0.08499442  1
  Co  Co139  1  0.54566713  0.48431003  0.14188530  1
  Co  Co140  1  0.05027563  0.22639478  0.24967394  1
  Co  Co141  1  0.80800981  0.24451535  0.98626094  1
  Co  Co142  1  0.67980800  0.74237028  0.07290108  1
  Co  Co143  1  0.94010511  0.17986174  0.60815460  1
  Co  Co144  1  0.18336296  0.20930954  0.81736296  1
  Co  Co145  1  0.55315998  0.36264409  0.39774794  1
  Co  Co146  1  0.84749961  0.37063444  0.68289635  1
  Co  Co147  1  0.53066925  0.92091209  0.23121742  1
  Co  Co148  1  0.78657246  0.76169637  0.48674203  1
  Co  Co149  1  0.16566040  0.53922122  0.21922024  1
  Co  Co150  1  0.04796597  0.12109603  0.82631938  1
  Co  Co151  1  0.39983047  0.30762792  0.31353421  1
  Co  Co152  1  0.18269433  0.59367982  0.07060666  1
  Co  Co153  1  0.13812455  0.88168686  0.80859255  1
  Co  Co154  1  0.96571245  0.26774263  0.74545284  1
  Co  Co155  1  0.51094920  0.64952703  0.67133005  1
  Co  Co156  1  0.16144575  0.32641802  0.19708945  1
  Co  Co157  1  0.92757857  0.13510864  0.29824828  1
  Co  Co158  1  0.99321253  0.73628707  0.91208474  1
  Co  Co159  1  0.25353436  0.07236369  0.31787650  1
  Co  Co160  1  0.09032255  0.89580238  0.37087822  1
  Co  Co161  1  0.48834911  0.12393281  0.49888250  1
  Ni  Ni162  1  0.43334217  0.69669160  0.09400001  1
  Ni  Ni163  1  0.60937482  0.11647452  0.97816963  1
  Ni  Ni164  1  0.92137347  0.93849876  0.12029775  1
  Ni  Ni165  1  0.05790220  0.65943333  0.42676748  1
  Ni  Ni166  1  0.57708076  0.50654065  0.89346584  1
  Ni  Ni167  1  0.90148799  0.70877524  0.22160815  1
  Ni  Ni168  1  0.30277410  0.68282832  0.46896261  1
  Ni  Ni169  1  0.32554130  0.00293350  0.15704497  1
  Ni  Ni170  1  0.32237321  0.12776467  0.05278133  1
  Ni  Ni171  1  0.90690529  0.19178653  0.11457236  1
  Ni  Ni172  1  0.25176212  0.90568322  0.37546679  1
  Ni  Ni173  1  0.94599579  0.36747216  0.98921271  1
  Ni  Ni174  1  0.50801712  0.86420898  0.53408798  1
  Ni  Ni175  1  0.89645303  0.66813057  0.39720748  1
  Ni  Ni176  1  0.76536073  1.00645314  0.37808154  1
  Ni  Ni177  1  0.79847697  0.79483313  0.76990221  1
  Ni  Ni178  1  0.42423244  0.59455945  0.95420013  1
  Ni  Ni179  1  0.25266903  0.86665762  0.07762684  1
  Ni  Ni180  1  0.09943707  0.39918149  0.47721707  1
  Ni  Ni181  1  0.13710652  0.63949976  0.91728062  1
  Ni  Ni182  1  0.19338434  0.58393045  0.68043466  1
  Ni  Ni183  1  0.88024115  0.12983244  0.76387508  1
  Ni  Ni184  1  0.76303495  0.32622167  0.53736251  1
  Ni  Ni185  1  0.55692090  0.16048744  0.15799135  1
  Ni  Ni186  1  0.88540000  0.55745131  0.14641575  1
  Ni  Ni187  1  0.00015194  0.79126525  0.07881681  1
  Ni  Ni188  1  0.25099667  0.38764653  0.41385783  1
  Ni  Ni189  1  0.65191947  0.08995743  0.46697653  1
  Ni  Ni190  1  0.62638982  0.48708156  0.29206931  1
  Ni  Ni191  1  0.69343218  0.02618632  0.72980840  1
  Ni  Ni192  1  0.74932805  1.00987845  0.57620488  1
  Ni  Ni193  1  0.10723480  0.55093779  0.54559049  1
  Ni  Ni194  1  0.56736818  0.93633477  0.66779718  1
  Ni  Ni195  1  0.01762853  0.95069775  0.53164085  1
  Ni  Ni196  1  0.73757258  0.68905484  0.21783780  1
  Ni  Ni197  1  0.44503831  0.23247266  0.60915460  1
  Ni  Ni198  1  0.70877806  0.61380295  0.95399704  1
  Ni  Ni199  1  0.07457934  0.29844038  0.90128920  1
  Ni  Ni200  1  -0.01661750  0.57809848  0.86475395  1
  Ni  Ni201  1  0.63858817  0.21217658  0.77594263  1
  Ni  Ni202  1  0.46399985  0.91102427  0.82814544  1
  Ni  Ni203  1  0.39293106  0.14705883  0.35986796  1
  Ni  Ni204  1  0.40180730  0.32146619  0.89719933  1
  Ni  Ni205  1  0.58472246  0.32640857  0.07993677  1
  Ni  Ni206  1  0.62974058  0.74697051  0.57287490  1
  Ni  Ni207  1  0.22006144  0.05751071  0.61556735  1
  Ni  Ni208  1  0.35129099  0.75988846  0.32793734  1
  Ni  Ni209  1  0.29779557  0.66658039  0.19555627  1
  Ni  Ni210  1  0.37971668  0.34424098  0.72973876  1
  Ni  Ni211  1  0.66228521  0.88163397  0.31856057  1
  Ni  Ni212  1  0.18193778  0.02146793  0.07722544  1
  Ni  Ni213  1  0.60771473  0.57869566  0.55572887  1
  Ni  Ni214  1  0.10764303  0.33947561  0.74744875  1
  Ni  Ni215  1  0.59438585  0.76817029  0.21406642  1
