# generated using pymatgen
data_Ti2CoNi
_symmetry_space_group_name_H-M   'P 1'
_cell_length_a   14.64657159
_cell_length_b   14.62216310
_cell_length_c   14.62819950
_cell_angle_alpha   89.84440291
_cell_angle_beta   90.10009376
_cell_angle_gamma   89.93035263
_symmetry_Int_Tables_number   1
_chemical_formula_structural   Ti2CoNi
_chemical_formula_sum   'Ti108 Co54 Ni54'
_cell_volume   3132.82322424
_cell_formula_units_Z   54
loop_
 _symmetry_equiv_pos_site_id
 _symmetry_equiv_pos_as_xyz
  1  'x, y, z'
loop_
 _atom_site_type_symbol
 _atom_site_label
 _atom_site_symmetry_multiplicity
 _atom_site_fract_x
 _atom_site_fract_y
 _atom_site_fract_z
 _atom_site_occupancy
  Ti  Ti0  1  0.03669590  -0.00400153  -0.01104297  1
  Ti  Ti1  1  -0.00863722  0.04816296  0.32863930  1
  Ti  Ti2  1  -0.01685235  -0.06974599  0.64876627  1
  Ti  Ti3  1  -0.01355458  0.38840097  -0.01418176  1
  Ti  Ti4  1  -0.04634257  0.39569516  0.39633975  1
  Ti  Ti5  1  0.00802461  0.34719568  0.59422759  1
  Ti  Ti6  1  -0.02245950  0.60841311  -0.02315361  1
  Ti  Ti7  1  -0.03744340  0.68272546  0.35520501  1
  Ti  Ti8  1  -0.00091994  0.71507900  0.65356672  1
  Ti  Ti9  1  0.31733068  0.03827118  0.00023931  1
  Ti  Ti10  1  0.28868325  -0.03879863  0.28281962  1
  Ti  Ti11  1  0.38620848  -0.02591949  0.70510615  1
  Ti  Ti12  1  0.31628142  0.30941672  -0.03772236  1
  Ti  Ti13  1  0.39005066  0.32138526  0.31736335  1
  Ti  Ti14  1  0.36359259  0.29525535  0.60759339  1
  Ti  Ti15  1  0.33857771  0.74766011  0.03142229  1
  Ti  Ti16  1  0.39861276  0.67455566  0.38650871  1
  Ti  Ti17  1  0.29866778  0.71647529  0.68279387  1
  Ti  Ti18  1  0.72791377  -0.04739146  0.06143917  1
  Ti  Ti19  1  0.67099770  -0.00154466  0.29676587  1
  Ti  Ti20  1  0.64249157  0.06365324  0.74900590  1
  Ti  Ti21  1  0.65277956  0.28535056  -0.04054759  1
  Ti  Ti22  1  0.76886158  0.30565981  0.31340074  1
  Ti  Ti23  1  0.76351678  0.34458304  0.67837332  1
  Ti  Ti24  1  0.62457377  0.68427573  0.01802626  1
  Ti  Ti25  1  0.67751702  0.68367142  0.35000971  1
  Ti  Ti26  1  0.73348690  0.66376423  0.66044495  1
  Ti  Ti27  1  0.03134543  0.21687890  0.22580131  1
  Ti  Ti28  1  -0.04033624  0.16679461  0.52400557  1
  Ti  Ti29  1  -0.04050620  0.11561071  0.81415894  1
  Ti  Ti30  1  0.06868233  0.49895326  0.15121889  1
  Ti  Ti31  1  0.03082833  0.55120757  0.51640853  1
  Ti  Ti32  1  0.09525422  0.47671072  0.81714820  1
  Ti  Ti33  1  0.04347936  0.77857388  0.16970304  1
  Ti  Ti34  1  -0.00103994  0.87628051  0.42470177  1
  Ti  Ti35  1  -0.05318164  0.91235358  0.83163814  1
  Ti  Ti36  1  0.30991940  0.16978560  0.22515104  1
  Ti  Ti37  1  0.27428286  0.12218146  0.42839782  1
  Ti  Ti38  1  0.41285761  0.15681337  0.85010778  1
  Ti  Ti39  1  0.32496930  0.47290164  0.11962450  1
  Ti  Ti40  1  0.34375871  0.53711450  0.57372751  1
  Ti  Ti41  1  0.31754552  0.55227996  0.89609199  1
  Ti  Ti42  1  0.38824458  0.79193225  0.23248934  1
  Ti  Ti43  1  0.25891287  0.84258475  0.49467644  1
  Ti  Ti44  1  0.25420103  0.84384875  0.83936855  1
  Ti  Ti45  1  0.67229061  0.12293885  0.11657870  1
  Ti  Ti46  1  0.59662146  0.15678092  0.42910538  1
  Ti  Ti47  1  0.71684824  0.11163229  0.92430425  1
  Ti  Ti48  1  0.64876789  0.48164312  0.24854789  1
  Ti  Ti49  1  0.67346012  0.44837627  0.44468923  1
  Ti  Ti50  1  0.67598560  0.51200045  0.76557860  1
  Ti  Ti51  1  0.60485157  0.84558861  0.18467665  1
  Ti  Ti52  1  0.65740349  0.87004426  0.47324664  1
  Ti  Ti53  1  0.64966881  0.84454940  0.77459952  1
  Ti  Ti54  1  0.17589110  0.02891208  0.13736402  1
  Ti  Ti55  1  0.10757266  0.04566813  0.54444184  1
  Ti  Ti56  1  0.14284855  0.02209887  0.84297105  1
  Ti  Ti57  1  0.21945414  0.32589941  0.16317332  1
  Ti  Ti58  1  0.17186526  0.23553680  0.56086294  1
  Ti  Ti59  1  0.13983252  0.26795986  0.80705408  1
  Ti  Ti60  1  0.23510095  0.64992294  0.21281687  1
  Ti  Ti61  1  0.21062219  0.65745145  0.49462684  1
  Ti  Ti62  1  0.13561285  0.68419883  0.79818387  1
  Ti  Ti63  1  0.49757043  -0.05284756  0.06472443  1
  Ti  Ti64  1  0.44265688  0.07667181  0.54164713  1
  Ti  Ti65  1  0.50573418  -0.02881670  0.85890463  1
  Ti  Ti66  1  0.49134021  0.36659399  0.14679083  1
  Ti  Ti67  1  0.50088000  0.35651750  0.48129875  1
  Ti  Ti68  1  0.45246573  0.35939897  0.82469338  1
  Ti  Ti69  1  0.54628916  0.65613779  0.20808478  1
  Ti  Ti70  1  0.56120869  0.67107637  0.52168983  1
  Ti  Ti71  1  0.51724014  0.59768442  0.84491743  1
  Ti  Ti72  1  0.88128224  0.00341657  0.17123512  1
  Ti  Ti73  1  0.85816026  -0.01257190  0.51759986  1
  Ti  Ti74  1  0.76749890  -0.05985634  0.86746384  1
  Ti  Ti75  1  0.79369351  0.29295226  0.11809083  1
  Ti  Ti76  1  0.82687956  0.30984817  0.50545792  1
  Ti  Ti77  1  0.94579241  0.34036850  0.78300799  1
  Ti  Ti78  1  0.84596078  0.73691457  0.20202449  1
  Ti  Ti79  1  0.82701554  0.57601013  0.46511784  1
  Ti  Ti80  1  0.81716080  0.64883100  0.85026115  1
  Ti  Ti81  1  0.12866463  0.20189124  0.02005130  1
  Ti  Ti82  1  0.18939303  0.27416414  0.34899222  1
  Ti  Ti83  1  0.25589924  0.12676036  0.69762651  1
  Ti  Ti84  1  0.17422699  0.43378155  0.00065138  1
  Ti  Ti85  1  0.12232690  0.51537625  0.35342496  1
  Ti  Ti86  1  0.19232866  0.41752994  0.64813113  1
  Ti  Ti87  1  0.17642456  0.85618562  0.03789498  1
  Ti  Ti88  1  0.15079522  0.77697266  0.34663365  1
  Ti  Ti89  1  0.20597284  0.92653547  0.67304110  1
  Ti  Ti90  1  0.47328020  0.16493659  0.07918214  1
  Ti  Ti91  1  0.45447553  0.08856009  0.32327595  1
  Ti  Ti92  1  0.57046412  0.23744150  0.65746951  1
  Ti  Ti93  1  0.57973904  0.45106088  -0.04695634  1
  Ti  Ti94  1  0.40939345  0.52213509  0.27206754  1
  Ti  Ti95  1  0.50652529  0.47867390  0.66563637  1
  Ti  Ti96  1  0.50058728  0.78241547  -0.08872262  1
  Ti  Ti97  1  0.46432884  0.84988321  0.45889151  1
  Ti  Ti98  1  0.47820423  0.77200023  0.71217225  1
  Ti  Ti99  1  0.84471569  0.25073660  -0.08079458  1
  Ti  Ti100  1  0.80288739  0.13517798  0.38646432  1
  Ti  Ti101  1  0.75999046  0.13320077  0.60472134  1
  Ti  Ti102  1  0.79746304  0.45507296  -0.01976392  1
  Ti  Ti103  1  0.83788184  0.48314961  0.16991269  1
  Ti  Ti104  1  0.86448902  0.51820166  0.70739123  1
  Ti  Ti105  1  0.89756288  0.84457612  0.03028704  1
  Ti  Ti106  1  0.82101251  0.80740501  0.38987837  1
  Ti  Ti107  1  0.80918626  0.83014340  0.61483580  1
  Co  Co108  1  0.38604610  0.04520961  0.16348592  1
  Co  Co109  1  0.91942071  0.34895817  0.22831161  1
  Co  Co110  1  0.69896221  0.95404265  0.61916442  1
  Co  Co111  1  0.48999668  0.28645242  0.97079532  1
  Co  Co112  1  0.60502811  0.36741389  0.78064576  1
  Co  Co113  1  0.46642308  0.92666407  0.27539622  1
  Co  Co114  1  0.55558901  0.03788770  0.18868642  1
  Co  Co115  1  0.28450046  0.34041424  0.46943836  1
  Co  Co116  1  0.92373678  0.08205921  0.65584342  1
  Co  Co117  1  0.49479493  0.76480925  0.08634789  1
  Co  Co118  1  0.77537987  0.39662443  0.83545858  1
  Co  Co119  1  0.15941454  0.75256570  0.62656235  1
  Co  Co120  1  0.62312864  0.86024347  -0.01899478  1
  Co  Co121  1  0.24555042  0.55551479  0.75004462  1
  Co  Co122  1  0.48618459  0.10195283  0.71053755  1
  Co  Co123  1  1.03090375  0.93647194  0.13599791  1
  Co  Co124  1  0.94245912  0.86325060  0.27134227  1
  Co  Co125  1  0.76774246  0.78771827  0.92875457  1
  Co  Co126  1  0.62719016  0.79340492  0.62129371  1
  Co  Co127  1  0.13036120  0.57477776  0.93639615  1
  Co  Co128  1  0.05848273  0.21650807  0.67883864  1
  Co  Co129  1  0.82436929  0.96524371  0.71476211  1
  Co  Co130  1  0.80698466  0.45369758  0.33933467  1
  Co  Co131  1  0.10098024  0.65287766  0.07870206  1
  Co  Co132  1  0.73819335  0.50413578  0.59425944  1
  Co  Co133  1  0.25870109  0.42410417  0.28945489  1
  Co  Co134  1  0.56239704  0.20931312  0.82717110  1
  Co  Co135  1  0.38284454  0.46689241  0.43363784  1
  Co  Co136  1  0.70733033  0.02469936  0.46564342  1
  Co  Co137  1  0.82229972  0.79921683  0.77415979  1
  Co  Co138  1  0.20302309  0.71786580  0.94365882  1
  Co  Co139  1  0.37039684  -0.02729934  0.41995201  1
  Co  Co140  1  0.01554100  0.24287986  0.91414352  1
  Co  Co141  1  0.08468675  0.06393292  0.70320154  1
  Co  Co142  1  0.85713678  0.16820612  0.22554472  1
  Co  Co143  1  0.65116781  0.69572746  0.82538236  1
  Co  Co144  1  0.59866138  0.07497692  0.58080281  1
  Co  Co145  1  0.06601022  0.34025935  0.12050782  1
  Co  Co146  1  0.40614873  0.59606876  0.73056846  1
  Co  Co147  1  0.54679577  0.98966961  0.42244835  1
  Co  Co148  1  0.20607378  0.48836867  0.49968190  1
  Co  Co149  1  0.57048110  0.63862001  0.68451587  1
  Co  Co150  1  0.38004406  0.86631241  0.59604622  1
  Co  Co151  1  0.14777952  0.58807181  0.63198120  1
  Co  Co152  1  0.71400089  0.24361928  0.80247841  1
  Co  Co153  1  0.88902345  0.23951849  0.66562471  1
  Co  Co154  1  0.94410795  0.25347390  0.07295239  1
  Co  Co155  1  0.80516347  0.12016604  0.77303703  1
  Co  Co156  1  0.88839640  0.45223549  0.56006645  1
  Co  Co157  1  0.09762739  0.87162764  0.54718356  1
  Co  Co158  1  0.52141943  0.43226381  0.33566669  1
  Co  Co159  1  0.72719335  0.71892631  0.50496663  1
  Co  Co160  1  0.06142799  0.71915269  0.48759603  1
  Co  Co161  1  0.07756168  0.37625705  0.28238014  1
  Ni  Ni162  1  0.89979714  0.71621082  0.51819846  1
  Ni  Ni163  1  0.32830782  0.90391884  0.10897865  1
  Ni  Ni164  1  0.37303691  0.89286678  0.94021889  1
  Ni  Ni165  1  0.07383261  0.63499536  0.24699974  1
  Ni  Ni166  1  0.24595402  0.16049415  0.88905255  1
  Ni  Ni167  1  0.21621502  0.82669485  0.20007931  1
  Ni  Ni168  1  0.94200715  0.75613474  0.88996716  1
  Ni  Ni169  1  0.94230887  0.61695016  0.14334496  1
  Ni  Ni170  1  0.00689877  0.10235181  0.11465509  1
  Ni  Ni171  1  0.52518242  0.52438310  0.10959235  1
  Ni  Ni172  1  0.69183879  0.56873128  0.92726930  1
  Ni  Ni173  1  0.08617696  0.84206172  0.74285102  1
  Ni  Ni174  1  0.77345224  0.88341479  0.22092036  1
  Ni  Ni175  1  0.55390548  0.09754458  0.95344258  1
  Ni  Ni176  1  0.27472254  0.57194383  0.36529747  1
  Ni  Ni177  1  0.16747562  0.09563416  0.28765470  1
  Ni  Ni178  1  0.87568738  0.01325900  0.96621613  1
  Ni  Ni179  1  0.42180420  0.44335637  -0.01123985  1
  Ni  Ni180  1  0.24982632  0.59848053  0.05050511  1
  Ni  Ni181  1  0.45265831  0.62146018  0.99543204  1
  Ni  Ni182  1  0.28778887  0.18330550  0.06468042  1
  Ni  Ni183  1  0.67074562  0.27538585  0.50289982  1
  Ni  Ni184  1  0.35978143  0.70842657  0.85250741  1
  Ni  Ni185  1  0.67256602  0.43040904  0.09320299  1
  Ni  Ni186  1  0.95600175  0.52125501  0.28925993  1
  Ni  Ni187  1  0.60472718  0.30347310  0.33921720  1
  Ni  Ni188  1  0.91631094  0.48773126  0.86540359  1
  Ni  Ni189  1  0.54409070  0.58337530  0.37762119  1
  Ni  Ni190  1  0.17749744  0.96831837  0.41781321  1
  Ni  Ni191  1  0.83773253  0.97184141  0.35038236  1
  Ni  Ni192  1  0.39479472  0.70827467  0.54821073  1
  Ni  Ni193  1  0.10822661  0.36561941  0.46117555  1
  Ni  Ni194  1  0.10383091  0.92659207  0.27954947  1
  Ni  Ni195  1  0.50824422  0.21228534  0.23318192  1
  Ni  Ni196  1  0.83063807  0.13298393  0.06239044  1
  Ni  Ni197  1  0.30654758  1.01280714  0.83602540  1
  Ni  Ni198  1  0.08940000  0.84675519  0.90189035  1
  Ni  Ni199  1  0.40912400  0.21837640  0.45420049  1
  Ni  Ni200  1  0.98393301  0.61829431  0.79529533  1
  Ni  Ni201  1  0.01809059  0.49454658  0.67460688  1
  Ni  Ni202  1  0.24451405  0.40640308  0.83933464  1
  Ni  Ni203  1  0.39201191  0.63410674  0.14639635  1
  Ni  Ni204  1  0.54119078  0.77675465  0.33273710  1
  Ni  Ni205  1  0.93519761  0.23297421  0.36359310  1
  Ni  Ni206  1  0.67454999  0.17123818  0.27033419  1
  Ni  Ni207  1  0.80625953  0.60446379  0.28857514  1
  Ni  Ni208  1  0.30791006  0.27357923  0.76755270  1
  Ni  Ni209  1  0.08779070  0.15887685  0.41588234  1
  Ni  Ni210  1  0.62301796  0.39202608  0.60404556  1
  Ni  Ni211  1  0.73893123  0.78452900  0.08876765  1
  Ni  Ni212  1  0.54008037  0.93430462  0.66515777  1
  Ni  Ni213  1  0.62757489  0.27977330  0.14154876  1
  Ni  Ni214  1  0.28552740  0.01348795  0.55606614  1
  Ni  Ni215  1  0.34939908  0.43395859  0.71514190  1
