# generated using pymatgen
data_Ti2CoNi
_symmetry_space_group_name_H-M   'P 1'
_cell_length_a   14.63509991
_cell_length_b   14.60872878
_cell_length_c   14.66377000
_cell_angle_alpha   89.97665131
_cell_angle_beta   89.93068569
_cell_angle_gamma   90.01523306
_symmetry_Int_Tables_number   1
_chemical_formula_structural   Ti2CoNi
_chemical_formula_sum   'Ti108 Co54 Ni54'
_cell_volume   3135.11437130
_cell_formula_units_Z   54
loop_
 _symmetry_equiv_pos_site_id
 _symmetry_equiv_pos_as_xyz
  1  'x, y, z'
loop_
 _atom_site_type_symbol
 _atom_site_label
 _atom_site_symmetry_multiplicity
 _atom_site_fract_x
 _atom_site_fract_y
 _atom_site_fract_z
 _atom_site_occupancy
  Ti  Ti0  1  0.07528969  0.04760632  -0.02180191  1
  Ti  Ti1  1  -0.04969964  0.01813510  0.44396025  1
  Ti  Ti2  1  -0.01150363  -0.00481614  0.65300023  1
  Ti  Ti3  1  0.02754111  0.23601678  0.07168263  1
  Ti  Ti4  1  -0.07603131  0.39384933  0.33856791  1
  Ti  Ti5  1  0.05316776  0.28887959  0.63956742  1
  Ti  Ti6  1  -0.09377311  0.69655935  -0.01569608  1
  Ti  Ti7  1  0.00329087  0.59665764  0.39298597  1
  Ti  Ti8  1  -0.04825762  0.72120387  0.67327910  1
  Ti  Ti9  1  0.39785324  0.06129731  -0.01002834  1
  Ti  Ti10  1  0.33240136  -0.01720183  0.31184347  1
  Ti  Ti11  1  0.34590126  -0.02504889  0.71735998  1
  Ti  Ti12  1  0.36046898  0.35528466  0.02800487  1
  Ti  Ti13  1  0.34430767  0.29841505  0.26893759  1
  Ti  Ti14  1  0.36500259  0.39373572  0.72431654  1
  Ti  Ti15  1  0.40899283  0.63454690  0.07429706  1
  Ti  Ti16  1  0.30767092  0.68416701  0.32516918  1
  Ti  Ti17  1  0.34308267  0.59180087  0.62951686  1
  Ti  Ti18  1  0.64179463  -0.08112006  -0.03348255  1
  Ti  Ti19  1  0.74624667  0.08424565  0.38662277  1
  Ti  Ti20  1  0.67394372  -0.02421222  0.66144093  1
  Ti  Ti21  1  0.71834357  0.32320669  0.02096269  1
  Ti  Ti22  1  0.68347958  0.29888157  0.34215444  1
  Ti  Ti23  1  0.67903070  0.28612212  0.69739630  1
  Ti  Ti24  1  0.59937329  0.71856136  0.01917331  1
  Ti  Ti25  1  0.67852114  0.76005232  0.39943768  1
  Ti  Ti26  1  0.75298802  0.69469797  0.65487019  1
  Ti  Ti27  1  0.00714584  0.07695732  0.16991069  1
  Ti  Ti28  1  0.02085038  0.23819882  0.43588705  1
  Ti  Ti29  1  0.01790464  0.20877373  0.87023947  1
  Ti  Ti30  1  0.02866414  0.54829396  0.09405309  1
  Ti  Ti31  1  0.04954801  0.44356955  0.51041580  1
  Ti  Ti32  1  0.02041071  0.55146607  0.78154476  1
  Ti  Ti33  1  0.07193510  0.81114359  0.17000852  1
  Ti  Ti34  1  0.01025837  0.76703328  0.48858868  1
  Ti  Ti35  1  0.03170150  0.77178012  0.84172663  1
  Ti  Ti36  1  0.31314949  0.15368525  0.15006713  1
  Ti  Ti37  1  0.31090017  0.18220137  0.43456735  1
  Ti  Ti38  1  0.33698993  0.20002500  0.78935213  1
  Ti  Ti39  1  0.28058607  0.47835314  0.15903423  1
  Ti  Ti40  1  0.35027190  0.50556957  0.40556586  1
  Ti  Ti41  1  0.34711204  0.52667116  0.87523964  1
  Ti  Ti42  1  0.31785886  0.82530438  0.15940435  1
  Ti  Ti43  1  0.24715557  0.81391378  0.46607586  1
  Ti  Ti44  1  0.33503614  0.82108099  0.87028588  1
  Ti  Ti45  1  0.69892987  0.15062650  0.20300663  1
  Ti  Ti46  1  0.66955916  0.16366704  0.54956235  1
  Ti  Ti47  1  0.58252079  0.12879431  0.75075289  1
  Ti  Ti48  1  0.59926478  0.45968672  0.21586613  1
  Ti  Ti49  1  0.61800652  0.43954361  0.46823695  1
  Ti  Ti50  1  0.71071355  0.46845134  0.78615712  1
  Ti  Ti51  1  0.71922311  0.85218559  0.16424545  1
  Ti  Ti52  1  0.61284260  0.93817054  0.46229571  1
  Ti  Ti53  1  0.70038215  0.82268813  0.79844337  1
  Ti  Ti54  1  0.16997219  -0.03113332  0.16256947  1
  Ti  Ti55  1  0.13647882  0.08321162  0.46952715  1
  Ti  Ti56  1  0.16381859  -0.05981875  0.81782279  1
  Ti  Ti57  1  0.14516864  0.33025889  0.21342714  1
  Ti  Ti58  1  0.21697266  0.36166741  0.47781455  1
  Ti  Ti59  1  0.18180775  0.29599625  0.76690076  1
  Ti  Ti60  1  0.21999295  0.66148544  0.16172266  1
  Ti  Ti61  1  0.13152116  0.63599571  0.54850796  1
  Ti  Ti62  1  0.20366335  0.66687272  0.86975893  1
  Ti  Ti63  1  0.51015954  0.06268102  0.14725080  1
  Ti  Ti64  1  0.40438377  -0.07284140  0.52654065  1
  Ti  Ti65  1  0.53747787  -0.06768001  0.76772009  1
  Ti  Ti66  1  0.53515904  0.27562993  0.20429798  1
  Ti  Ti67  1  0.43095584  0.34353612  0.48576032  1
  Ti  Ti68  1  0.59968463  0.33922951  0.85929626  1
  Ti  Ti69  1  0.59851617  0.66246296  0.21367720  1
  Ti  Ti70  1  0.55212285  0.69097309  0.55003152  1
  Ti  Ti71  1  0.53602568  0.64536196  0.81711051  1
  Ti  Ti72  1  0.83123770  0.00215840  0.14567971  1
  Ti  Ti73  1  0.81243973  0.03597720  0.56925688  1
  Ti  Ti74  1  0.87565637  0.07554370  0.85823091  1
  Ti  Ti75  1  0.89649776  0.38351767  0.12765335  1
  Ti  Ti76  1  0.88105675  0.33538510  0.54682186  1
  Ti  Ti77  1  0.81056002  0.28209548  0.85342892  1
  Ti  Ti78  1  0.90744881  0.69349800  0.20346018  1
  Ti  Ti79  1  0.83031672  0.63305021  0.40066609  1
  Ti  Ti80  1  0.77154623  0.63307852  0.83617898  1
  Ti  Ti81  1  0.23912628  0.18426240  -0.03794165  1
  Ti  Ti82  1  0.18555669  0.12072550  0.28065818  1
  Ti  Ti83  1  0.16724158  0.08590980  0.67188135  1
  Ti  Ti84  1  0.13471570  0.46591200  -0.05688265  1
  Ti  Ti85  1  0.16391067  0.54239393  0.32965005  1
  Ti  Ti86  1  0.16402646  0.46172375  0.65603510  1
  Ti  Ti87  1  0.14993053  0.84718845  -0.00773989  1
  Ti  Ti88  1  0.11157158  0.91980929  0.35395755  1
  Ti  Ti89  1  0.10839798  0.83118716  0.65512387  1
  Ti  Ti90  1  0.48994308  0.20580711  -0.07673024  1
  Ti  Ti91  1  0.55737572  0.10800284  0.35793188  1
  Ti  Ti92  1  0.43720562  0.16692646  0.61376886  1
  Ti  Ti93  1  0.51253136  0.49986607  -0.03730352  1
  Ti  Ti94  1  0.51561010  0.57554570  0.37161159  1
  Ti  Ti95  1  0.55097763  0.44397680  0.64531818  1
  Ti  Ti96  1  0.44578302  0.84817354  0.02799550  1
  Ti  Ti97  1  0.46541502  0.77317314  0.34974535  1
  Ti  Ti98  1  0.40416165  0.78510056  0.66937212  1
  Ti  Ti99  1  0.75632643  0.12107392  0.00453195  1
  Ti  Ti100  1  0.87948206  0.18778008  0.28344462  1
  Ti  Ti101  1  0.87937525  0.18415272  0.67258455  1
  Ti  Ti102  1  0.85588017  0.48691252  -0.04779934  1
  Ti  Ti103  1  0.78810172  0.50531076  0.24803850  1
  Ti  Ti104  1  0.77454659  0.49548088  0.59558679  1
  Ti  Ti105  1  0.84869762  0.89973510  -0.03952220  1
  Ti  Ti106  1  0.86640922  0.84194742  0.36003184  1
  Ti  Ti107  1  0.82965270  0.86811827  0.66413094  1
  Co  Co108  1  0.86170351  0.56627852  0.10502221  1
  Co  Co109  1  0.53386018  0.87936359  0.61125327  1
  Co  Co110  1  0.61127201  -0.00358641  0.25371829  1
  Co  Co111  1  0.25881436  0.98711919  0.45429311  1
  Co  Co112  1  0.57305802  0.05572380  0.91654794  1
  Co  Co113  1  0.48223329  0.93468385  0.36863215  1
  Co  Co114  1  0.77598229  0.91510400  0.47882123  1
  Co  Co115  1  0.16073868  0.13805019  0.82598899  1
  Co  Co116  1  0.25964601  0.73458628  0.60408937  1
  Co  Co117  1  0.73470056  0.46811055  0.09349286  1
  Co  Co118  1  0.23683601  0.80380648  0.74861206  1
  Co  Co119  1  0.12665090  0.30147045  0.94744650  1
  Co  Co120  1  0.86630464  0.02356009  0.30020891  1
  Co  Co121  1  0.94453290  0.30116185  0.76435007  1
  Co  Co122  1  0.24843549  0.40557160  0.31936910  1
  Co  Co123  1  0.20464640  0.50007348  0.79685195  1
  Co  Co124  1  0.86630565  0.76277513  0.81538038  1
  Co  Co125  1  0.81936302  0.76355289  0.50936864  1
  Co  Co126  1  0.68130566  0.82408542  0.57883781  1
  Co  Co127  1  0.02607048  0.24179380  0.26862427  1
  Co  Co128  1  0.25821341  0.61700801  0.46835255  1
  Co  Co129  1  0.24783254  0.91478288  0.61299434  1
  Co  Co130  1  0.93329801  0.88604034  0.54308293  1
  Co  Co131  1  0.66423891  0.02576306  0.09394402  1
  Co  Co132  1  0.06351164  0.39131816  0.80823561  1
  Co  Co133  1  0.17398761  0.24818211  0.36613218  1
  Co  Co134  1  0.74148351  0.76439873  0.94274008  1
  Co  Co135  1  0.29890006  0.08655743  0.57860337  1
  Co  Co136  1  0.44223755  0.08403532  0.80406288  1
  Co  Co137  1  0.59492959  0.83772140  0.27850002  1
  Co  Co138  1  0.92064315  0.09180304  1.02256024  1
  Co  Co139  1  0.03516556  0.08238934  0.32588817  1
  Co  Co140  1  0.48115833  0.75979677  0.16889915  1
  Co  Co141  1  0.54798470  0.29124748  0.59724877  1
  Co  Co142  1  0.90429058  0.49259998  0.48642760  1
  Co  Co143  1  0.70942914  0.32707279  0.53848497  1
  Co  Co144  1  0.87223101  0.15974564  0.49637561  1
  Co  Co145  1  0.57377904  0.89108102  0.11635676  1
  Co  Co146  1  0.77193042  0.43813798  0.41771632  1
  Co  Co147  1  1.01422467  0.13903470  0.57954249  1
  Co  Co148  1  0.16142418  0.12895866  0.10170522  1
  Co  Co149  1  0.42294510  0.68692817  0.92658549  1
  Co  Co150  1  0.48727410  0.26836586  0.74718073  1
  Co  Co151  1  0.95640485  0.52350122  0.24088704  1
  Co  Co152  1  0.67264345  0.47291123  0.94016923  1
  Co  Co153  1  0.60121896  0.56107820  0.08079281  1
  Co  Co154  1  0.01123983  0.91282074  0.91822927  1
  Co  Co155  1  0.45360683  0.91113519  0.21660969  1
  Co  Co156  1  0.22464330  0.29609866  0.08751957  1
  Co  Co157  1  0.00818335  0.57405917  0.61518306  1
  Co  Co158  1  0.73972504  0.60564260  0.99257884  1
  Co  Co159  1  0.87544596  0.62864667  0.55949811  1
  Co  Co160  1  0.07382969  0.39325315  0.08102291  1
  Co  Co161  1  0.97073244  0.43034983  0.66613670  1
  Ni  Ni162  1  0.34885640  0.67006045  0.77669958  1
  Ni  Ni163  1  0.46786122  0.52991208  0.52764052  1
  Ni  Ni164  1  0.08488662  0.39314701  0.35813808  1
  Ni  Ni165  1  0.13147315  0.66494214  0.71455509  1
  Ni  Ni166  1  0.28110170  0.73858904  1.01132911  1
  Ni  Ni167  1  0.41835363  0.44760141  0.26643738  1
  Ni  Ni168  1  0.72691013  0.32886389  0.18601603  1
  Ni  Ni169  1  0.84841101  0.21541180  0.12148265  1
  Ni  Ni170  1  0.43342441  0.36511142  0.87609180  1
  Ni  Ni171  1  0.17183729  0.21598792  0.55195849  1
  Ni  Ni172  1  0.69742778  0.61857663  0.51171265  1
  Ni  Ni173  1  0.23602849  0.57723323  0.01848864  1
  Ni  Ni174  1  0.42421723  0.07028306  0.45088606  1
  Ni  Ni175  1  0.41925130  0.60702180  0.23413663  1
  Ni  Ni176  1  0.09846161  0.69799138  0.05224930  1
  Ni  Ni177  1  0.66944642  0.19113019  0.88782440  1
  Ni  Ni178  1  0.73178785  0.92436325  0.32171566  1
  Ni  Ni179  1  0.45467004  0.47128854  0.11596144  1
  Ni  Ni180  1  0.53383174  0.80511706  0.88036747  1
  Ni  Ni181  1  0.75402390  0.69826208  0.26064535  1
  Ni  Ni182  1  0.82002179  0.27501845  0.41018511  1
  Ni  Ni183  1  0.43757686  0.94400507  0.88946798  1
  Ni  Ni184  1  0.60445156  0.19174446  0.05494328  1
  Ni  Ni185  1  0.07073020  0.64582664  0.23051611  1
  Ni  Ni186  1  0.90707941  0.92218369  0.79632613  1
  Ni  Ni187  1  0.39754869  0.69318288  0.48977023  1
  Ni  Ni188  1  0.10356517  0.92910525  0.52284112  1
  Ni  Ni189  1  0.14178479  0.70702134  0.37911945  1
  Ni  Ni190  1  0.44204972  0.22275944  0.08177386  1
  Ni  Ni191  1  -0.01885326  0.92569736  0.24927327  1
  Ni  Ni192  1  0.21382410  0.82095528  0.27970053  1
  Ni  Ni193  1  0.41666694  0.14818627  0.28681362  1
  Ni  Ni194  1  0.29014475  0.04064761  0.86059172  1
  Ni  Ni195  1  0.23724144  0.99291003  0.00798718  1
  Ni  Ni196  1  0.56731210  0.24796971  0.44706320  1
  Ni  Ni197  1  1.00484871  0.76801163  0.32060701  1
  Ni  Ni198  1  0.32290851  0.44331504  0.57007944  1
  Ni  Ni199  1  0.67748256  0.57412666  0.35217291  1
  Ni  Ni200  1  0.27125568  0.36556898  0.88109855  1
  Ni  Ni201  1  0.54077396  0.04322393  0.58250908  1
  Ni  Ni202  1  0.52397323  0.36940388  0.34779536  1
  Ni  Ni203  1  0.78021528  0.71803887  0.09576436  1
  Ni  Ni204  1  0.96385804  0.35897486  0.95485681  1
  Ni  Ni205  1  0.97909593  0.92979191  0.07810749  1
  Ni  Ni206  1  0.74838969  0.13021996  0.74730043  1
  Ni  Ni207  1  0.52233173  0.48204656  0.79746369  1
  Ni  Ni208  1  0.81672129  0.36696839  0.69759519  1
  Ni  Ni209  1  0.72789287  0.98915911  0.83443001  1
  Ni  Ni210  1  0.03033398  0.04205015  0.80435730  1
  Ni  Ni211  1  0.63645948  0.58561000  0.68891017  1
  Ni  Ni212  1  0.58011021  0.75414469  0.70199437  1
  Ni  Ni213  1  0.34100327  -0.01043560  0.13403106  1
  Ni  Ni214  1  0.04097936  0.61565524  0.93123339  1
  Ni  Ni215  1  0.30577107  0.27651911  0.61516332  1
