# generated using pymatgen
data_Ti2CoNi
_symmetry_space_group_name_H-M   'P 1'
_cell_length_a   14.60008782
_cell_length_b   14.60487519
_cell_length_c   14.58399781
_cell_angle_alpha   90.23121209
_cell_angle_beta   90.19765584
_cell_angle_gamma   89.99193599
_symmetry_Int_Tables_number   1
_chemical_formula_structural   Ti2CoNi
_chemical_formula_sum   'Ti108 Co54 Ni54'
_cell_volume   3109.73788698
_cell_formula_units_Z   54
loop_
 _symmetry_equiv_pos_site_id
 _symmetry_equiv_pos_as_xyz
  1  'x, y, z'
loop_
 _atom_site_type_symbol
 _atom_site_label
 _atom_site_symmetry_multiplicity
 _atom_site_fract_x
 _atom_site_fract_y
 _atom_site_fract_z
 _atom_site_occupancy
  Ti  Ti0  1  0.04882634  0.00864204  0.02304885  1
  Ti  Ti1  1  0.06568540  0.04689884  0.35514439  1
  Ti  Ti2  1  0.04615751  0.00754781  0.61651041  1
  Ti  Ti3  1  -0.03376801  0.39077946  -0.00665243  1
  Ti  Ti4  1  0.02763101  0.35372152  0.38798026  1
  Ti  Ti5  1  0.05126179  0.34928373  0.68265934  1
  Ti  Ti6  1  0.05756819  0.64494114  -0.01941775  1
  Ti  Ti7  1  0.03488791  0.69666184  0.37112337  1
  Ti  Ti8  1  -0.08196758  0.68229332  0.69381661  1
  Ti  Ti9  1  0.34081148  0.00019598  -0.01375940  1
  Ti  Ti10  1  0.38194232  0.05225360  0.25941974  1
  Ti  Ti11  1  0.31982512  0.02139804  0.74481678  1
  Ti  Ti12  1  0.27194280  0.40011113  -0.05921525  1
  Ti  Ti13  1  0.37220862  0.32544928  0.36979741  1
  Ti  Ti14  1  0.33910284  0.31564170  0.72061330  1
  Ti  Ti15  1  0.37224480  0.61237701  0.05595280  1
  Ti  Ti16  1  0.33186494  0.72163670  0.23526657  1
  Ti  Ti17  1  0.27803782  0.63920040  0.68889078  1
  Ti  Ti18  1  0.59232924  -0.00959649  -0.00629973  1
  Ti  Ti19  1  0.72831499  -0.03604476  0.31399176  1
  Ti  Ti20  1  0.67942597  -0.11557580  0.67135679  1
  Ti  Ti21  1  0.66938691  0.24777282  -0.00534718  1
  Ti  Ti22  1  0.63662291  0.30018685  0.21517178  1
  Ti  Ti23  1  0.65172908  0.33279619  0.69134434  1
  Ti  Ti24  1  0.65433381  0.53983633  -0.00035283  1
  Ti  Ti25  1  0.70570640  0.75161102  0.32257872  1
  Ti  Ti26  1  0.73309132  0.71542211  0.61822059  1
  Ti  Ti27  1  -0.04435038  0.21240554  0.25204425  1
  Ti  Ti28  1  -0.03652848  0.17898143  0.51684327  1
  Ti  Ti29  1  0.02467630  0.15028910  0.87310480  1
  Ti  Ti30  1  0.00664139  0.44932936  0.19367960  1
  Ti  Ti31  1  -0.02688163  0.58452601  0.51717704  1
  Ti  Ti32  1  0.03462036  0.51598046  0.79586759  1
  Ti  Ti33  1  -0.06557902  0.87541727  0.24307772  1
  Ti  Ti34  1  0.01047377  0.88925962  0.44980626  1
  Ti  Ti35  1  0.00379683  0.89200599  0.78292736  1
  Ti  Ti36  1  0.30555725  0.14651076  0.09444729  1
  Ti  Ti37  1  0.30614798  0.18179562  0.55101028  1
  Ti  Ti38  1  0.32118342  0.17348383  0.89235516  1
  Ti  Ti39  1  0.29237109  0.52832642  0.24242427  1
  Ti  Ti40  1  0.33493314  0.56645820  0.51116516  1
  Ti  Ti41  1  0.35645371  0.51818672  0.82559542  1
  Ti  Ti42  1  0.35532703  0.88104349  0.12653051  1
  Ti  Ti43  1  0.31130004  0.78065901  0.43766725  1
  Ti  Ti44  1  0.32147062  0.84308802  0.73923072  1
  Ti  Ti45  1  0.81551039  0.15126002  0.14333356  1
  Ti  Ti46  1  0.61477401  0.19938371  0.51952553  1
  Ti  Ti47  1  0.59478641  0.18180997  0.78947358  1
  Ti  Ti48  1  0.74632831  0.45987748  0.22359743  1
  Ti  Ti49  1  0.66005507  0.40505439  0.49990430  1
  Ti  Ti50  1  0.56291159  0.50449421  0.82373064  1
  Ti  Ti51  1  0.66394495  0.81691322  0.06676452  1
  Ti  Ti52  1  0.53724139  0.82260764  0.52771188  1
  Ti  Ti53  1  0.71077264  0.80253586  0.86988890  1
  Ti  Ti54  1  0.20899074  0.00249740  0.18723410  1
  Ti  Ti55  1  0.26159581  0.01550447  0.43390384  1
  Ti  Ti56  1  0.18621151  -0.05581939  0.87140380  1
  Ti  Ti57  1  0.26255834  0.32859706  0.16976891  1
  Ti  Ti58  1  0.23815123  0.37771435  0.51592400  1
  Ti  Ti59  1  0.17242301  0.26997866  0.81951618  1
  Ti  Ti60  1  0.06797583  0.73208019  0.17879318  1
  Ti  Ti61  1  0.16177174  0.63383360  0.52377058  1
  Ti  Ti62  1  0.17597720  0.75312314  0.80781780  1
  Ti  Ti63  1  0.56649191  0.00611553  0.21744726  1
  Ti  Ti64  1  0.44210698  -0.06074308  0.41664209  1
  Ti  Ti65  1  0.46602646  -0.00403100  0.84960948  1
  Ti  Ti66  1  0.47689735  0.23677180  0.13817972  1
  Ti  Ti67  1  0.45939176  0.39593428  0.54609645  1
  Ti  Ti68  1  0.47697946  0.32309160  0.86763638  1
  Ti  Ti69  1  0.60808450  0.63638260  0.17364668  1
  Ti  Ti70  1  0.55088299  0.59503971  0.49710753  1
  Ti  Ti71  1  0.52536158  0.71045734  0.80047790  1
  Ti  Ti72  1  0.76029736  -0.02126631  0.13633031  1
  Ti  Ti73  1  0.74280355  0.03516344  0.53099637  1
  Ti  Ti74  1  0.79982633  -0.02252979  0.79289409  1
  Ti  Ti75  1  0.83594871  0.33260686  0.11379509  1
  Ti  Ti76  1  0.90601240  0.36429118  0.55380137  1
  Ti  Ti77  1  0.86758636  0.37306257  0.77737743  1
  Ti  Ti78  1  0.80682077  0.67943470  0.15685986  1
  Ti  Ti79  1  0.83046467  0.67986755  0.44855054  1
  Ti  Ti80  1  0.85373389  0.65526381  0.88942524  1
  Ti  Ti81  1  0.10120562  0.18988920  0.09142822  1
  Ti  Ti82  1  0.18362835  0.22575793  0.38596143  1
  Ti  Ti83  1  0.11326388  0.17827972  0.65183938  1
  Ti  Ti84  1  0.17349515  0.50480859  0.08427300  1
  Ti  Ti85  1  0.13325339  0.51606150  0.38489577  1
  Ti  Ti86  1  0.16110474  0.49341389  0.64010753  1
  Ti  Ti87  1  0.23180196  0.76516089  -0.00347812  1
  Ti  Ti88  1  0.15427947  0.85934223  0.32184634  1
  Ti  Ti89  1  0.08097556  0.79819306  0.62433047  1
  Ti  Ti90  1  0.49759462  0.15228760  -0.03586681  1
  Ti  Ti91  1  0.51518500  0.17943838  0.33640751  1
  Ti  Ti92  1  0.47794843  0.08365137  0.62997820  1
  Ti  Ti93  1  0.50234562  0.43133006  0.03981523  1
  Ti  Ti94  1  0.48910961  0.49528533  0.33609032  1
  Ti  Ti95  1  0.46937656  0.57474705  0.66614758  1
  Ti  Ti96  1  0.46174717  0.78162774  -0.01812296  1
  Ti  Ti97  1  0.51033366  0.72886381  0.33766824  1
  Ti  Ti98  1  0.50027281  0.89288196  0.70059144  1
  Ti  Ti99  1  0.84749861  0.12648787  -0.07293849  1
  Ti  Ti100  1  0.80885644  0.13085028  0.37158349  1
  Ti  Ti101  1  0.78634751  0.17030260  0.70808206  1
  Ti  Ti102  1  0.84016525  0.52621721  0.05960642  1
  Ti  Ti103  1  0.83240032  0.46863952  0.41539417  1
  Ti  Ti104  1  0.78974495  0.51048018  0.62422060  1
  Ti  Ti105  1  0.86596493  0.83723408  0.03559439  1
  Ti  Ti106  1  0.83697777  0.87656573  0.41669170  1
  Ti  Ti107  1  0.86889295  0.89855773  0.61559937  1
  Co  Co108  1  0.05920871  0.44969503  0.52087542  1
  Co  Co109  1  0.38274550  0.87868004  0.57346754  1
  Co  Co110  1  0.36032274  0.22191907  0.24557793  1
  Co  Co111  1  0.10429835  0.28915421  0.52945398  1
  Co  Co112  1  0.70990397  0.86834705  0.50774247  1
  Co  Co113  1  0.69345260  0.39614392  0.06453838  1
  Co  Co114  1  0.04415273  0.08191727  0.19700703  1
  Co  Co115  1  0.45409820  0.05310266  0.09965845  1
  Co  Co116  1  0.34840914  0.44885545  0.08975201  1
  Co  Co117  1  0.25114898  0.77649813  0.59899460  1
  Co  Co118  1  0.60466782  0.14382291  0.11477357  1
  Co  Co119  1  0.92326324  0.99736367  0.12299622  1
  Co  Co120  1  0.72699537  0.30529322  0.40396699  1
  Co  Co121  1  0.21496182  0.65920387  0.35871619  1
  Co  Co122  1  0.17759854  0.58935492  0.81200988  1
  Co  Co123  1  0.78861433  0.26919929  0.26276399  1
  Co  Co124  1  0.91582914  0.80645833  0.88988437  1
  Co  Co125  1  0.42228267  0.70332933  0.52403449  1
  Co  Co126  1  0.21046067  0.81814600  0.17214935  1
  Co  Co127  1  0.02140258  0.83491656  0.06754111  1
  Co  Co128  1  0.20549934  0.42278359  0.77772339  1
  Co  Co129  1  0.71451314  0.57324755  0.49780179  1
  Co  Co130  1  0.07759890  0.83249910  0.92559140  1
  Co  Co131  1  0.91996260  1.02697717  0.46241868  1
  Co  Co132  1  0.45542906  0.24216002  0.49543287  1
  Co  Co133  1  0.88284537  0.27485694  0.40727474  1
  Co  Co134  1  0.22144646  0.04490521  0.61424167  1
  Co  Co135  1  0.85688207  0.53845153  0.77813392  1
  Co  Co136  1  0.51145430  0.89355832  0.09417222  1
  Co  Co137  1  0.50339445  0.25109322  0.65310715  1
  Co  Co138  1  0.69832661  0.09351264  0.86038279  1
  Co  Co139  1  0.41026895  0.73297734  0.67535628  1
  Co  Co140  1  0.45745832  0.08226138  0.46670785  1
  Co  Co141  1  0.22779237  0.25771053  0.00277161  1
  Co  Co142  1  0.64978994  0.72185150  0.46714530  1
  Co  Co143  1  0.45047960  0.57186148  0.19218115  1
  Co  Co144  1  0.39000331  0.62878292  0.36463076  1
  Co  Co145  1  0.47903319  0.73736681  0.15133891  1
  Co  Co146  1  0.64853074  0.60946019  0.71235788  1
  Co  Co147  1  0.60190313  0.47879999  0.63309965  1
  Co  Co148  1  0.15188981  0.93654671  0.51100710  1
  Co  Co149  1  0.61563894  0.83241790  0.21474771  1
  Co  Co150  1  0.07233483  0.92437293  0.18678996  1
  Co  Co151  1  0.91182280  0.02939983  0.28894253  1
  Co  Co152  1  0.78195691  0.83294727  0.20752427  1
  Co  Co153  1  0.12912316  0.11547562  0.49486617  1
  Co  Co154  1  0.11928521  0.46578326  0.92848275  1
  Co  Co155  1  0.58290395  0.47122146  0.17749514  1
  Co  Co156  1  0.78958518  0.45616986  0.91951576  1
  Co  Co157  1  0.94356724  0.52390426  0.92289164  1
  Co  Co158  1  0.75623399  0.94247321  0.95255169  1
  Co  Co159  1  0.56834508  0.72427417  0.64143722  1
  Co  Co160  1  0.31841815  0.47402745  0.38985947  1
  Co  Co161  1  0.16650080  0.91201835  0.70264959  1
  Ni  Ni162  1  0.92526055  -0.02844851  0.92062760  1
  Ni  Ni163  1  0.20521085  0.15264130  0.24139593  1
  Ni  Ni164  1  0.07897116  0.28908033  0.94532751  1
  Ni  Ni165  1  0.10871536  0.35725489  0.08882992  1
  Ni  Ni166  1  0.65449917  0.05282843  0.68945726  1
  Ni  Ni167  1  0.94974661  1.04968911  0.76628304  1
  Ni  Ni168  1  0.55572221  0.33519024  0.38184035  1
  Ni  Ni169  1  0.14587029  0.78122851  0.46548523  1
  Ni  Ni170  1  0.26809803  0.17113466  0.71825838  1
  Ni  Ni171  1  0.20277508  0.38130163  0.32297196  1
  Ni  Ni172  1  0.94368108  0.21799349  0.03512280  1
  Ni  Ni173  1  0.61761740  0.06243425  0.39895492  1
  Ni  Ni174  1  0.76979779  0.27129282  0.56897042  1
  Ni  Ni175  1  0.74705551  0.68125127  0.00569275  1
  Ni  Ni176  1  0.58340594  -0.01181637  0.54347110  1
  Ni  Ni177  1  0.59821166  0.88760529  0.38052074  1
  Ni  Ni178  1  0.89110753  0.71925067  0.29594462  1
  Ni  Ni179  1  0.38906000  0.29316672  1.01052007  1
  Ni  Ni180  1  0.47608195  0.40551178  0.71964508  1
  Ni  Ni181  1  0.09980828  0.28658302  0.24136267  1
  Ni  Ni182  1  0.21197141  0.65893301  0.11997222  1
  Ni  Ni183  1  0.31032830  0.89915385  0.29954720  1
  Ni  Ni184  1  0.18446519  0.91709349  0.04183832  1
  Ni  Ni185  1  0.71417181  0.46632830  0.76932562  1
  Ni  Ni186  1  0.95077443  0.55498280  0.32672623  1
  Ni  Ni187  1  0.96266443  0.60626566  0.15447032  1
  Ni  Ni188  1  0.68015875  0.13274728  0.25805483  1
  Ni  Ni189  1  0.65225392  0.49862645  0.35777556  1
  Ni  Ni190  1  0.95938069  0.49572571  0.65192988  1
  Ni  Ni191  1  0.02533685  0.69845015  0.82493624  1
  Ni  Ni192  1  0.08396855  0.64020577  0.68001047  1
  Ni  Ni193  1  0.46512379  0.87014763  0.25960921  1
  Ni  Ni194  1  0.82472544  0.80569669  0.75087838  1
  Ni  Ni195  1  0.89231284  0.38787615  0.28443068  1
  Ni  Ni196  1  0.43747627  0.38532006  0.21777318  1
  Ni  Ni197  1  0.93274942  0.76547316  0.54145416  1
  Ni  Ni198  1  0.17713413  0.10649072  0.94800012  1
  Ni  Ni199  1  0.47489607  0.59105292  0.93124292  1
  Ni  Ni200  1  0.11204012  0.58004616  0.23202670  1
  Ni  Ni201  1  0.34187893  0.15774607  0.38870904  1
  Ni  Ni202  1  0.62529862  0.94651734  0.82674349  1
  Ni  Ni203  1  0.14071198  0.06944255  0.77606672  1
  Ni  Ni204  1  0.33903449  0.85777444  0.90121978  1
  Ni  Ni205  1  0.88437983  0.07133692  0.62100003  1
  Ni  Ni206  1  0.33143570  0.46719969  0.65477631  1
  Ni  Ni207  1  0.23278586  0.59823702  0.95681367  1
  Ni  Ni208  1  0.64156900  0.37539144  0.89229636  1
  Ni  Ni209  1  0.71728491  0.09091563  0.01845742  1
  Ni  Ni210  1  0.43402566  0.16131676  0.77693219  1
  Ni  Ni211  1  0.34899160  0.68882939  0.85232036  1
  Ni  Ni212  1  0.59845206  0.69632027  0.95409364  1
  Ni  Ni213  1  0.77372463  0.59869738  0.30607291  1
  Ni  Ni214  1  0.75400067  0.26511533  0.84398609  1
  Ni  Ni215  1  0.95147743  0.21591673  0.71499549  1
