# generated using pymatgen
data_Ti2CoNi
_symmetry_space_group_name_H-M   'P 1'
_cell_length_a   14.67433911
_cell_length_b   14.65514623
_cell_length_c   14.61572199
_cell_angle_alpha   90.18237340
_cell_angle_beta   89.90680189
_cell_angle_gamma   89.72838882
_symmetry_Int_Tables_number   1
_chemical_formula_structural   Ti2CoNi
_chemical_formula_sum   'Ti108 Co54 Ni54'
_cell_volume   3143.12255819
_cell_formula_units_Z   54
loop_
 _symmetry_equiv_pos_site_id
 _symmetry_equiv_pos_as_xyz
  1  'x, y, z'
loop_
 _atom_site_type_symbol
 _atom_site_label
 _atom_site_symmetry_multiplicity
 _atom_site_fract_x
 _atom_site_fract_y
 _atom_site_fract_z
 _atom_site_occupancy
  Ti  Ti0  1  0.01191029  0.05882773  -0.04936286  1
  Ti  Ti1  1  0.01808098  0.01377070  0.38274922  1
  Ti  Ti2  1  -0.00289984  0.03560323  0.60951332  1
  Ti  Ti3  1  0.07940311  0.34017660  -0.04642292  1
  Ti  Ti4  1  0.00995932  0.36112039  0.28957743  1
  Ti  Ti5  1  -0.02320347  0.32236579  0.74300829  1
  Ti  Ti6  1  0.02063528  0.59955461  -0.01909558  1
  Ti  Ti7  1  -0.09340873  0.64020020  0.32360788  1
  Ti  Ti8  1  -0.05200206  0.73780034  0.60698695  1
  Ti  Ti9  1  0.28312957  -0.02791242  0.01250231  1
  Ti  Ti10  1  0.34988346  -0.04598358  0.36800566  1
  Ti  Ti11  1  0.31403484  0.00472412  0.67280916  1
  Ti  Ti12  1  0.38381078  0.27655554  -0.00709775  1
  Ti  Ti13  1  0.26548245  0.30032265  0.34810444  1
  Ti  Ti14  1  0.39384521  0.36419084  0.65938569  1
  Ti  Ti15  1  0.28592527  0.67162562  0.04423281  1
  Ti  Ti16  1  0.28299040  0.66512695  0.44573871  1
  Ti  Ti17  1  0.35538020  0.61726382  0.65701284  1
  Ti  Ti18  1  0.74273435  -0.05168606  -0.01931590  1
  Ti  Ti19  1  0.63457892  -0.00609255  0.38421201  1
  Ti  Ti20  1  0.68039912  -0.00365870  0.69675015  1
  Ti  Ti21  1  0.67892393  0.34891537  0.09774872  1
  Ti  Ti22  1  0.71887105  0.30101317  0.30933912  1
  Ti  Ti23  1  0.68640135  0.34513098  0.62672809  1
  Ti  Ti24  1  0.66984861  0.63950387  -0.05024328  1
  Ti  Ti25  1  0.69616095  0.69129441  0.25453848  1
  Ti  Ti26  1  0.56361747  0.65513727  0.61547057  1
  Ti  Ti27  1  -0.05041517  0.14535827  0.14560108  1
  Ti  Ti28  1  0.02782123  0.21524848  0.51176634  1
  Ti  Ti29  1  -0.09055288  0.16701860  0.84057708  1
  Ti  Ti30  1  0.05743997  0.55656798  0.21786581  1
  Ti  Ti31  1  0.03236735  0.57633901  0.52580220  1
  Ti  Ti32  1  0.00700770  0.52680299  0.78546497  1
  Ti  Ti33  1  0.01983103  0.84009237  0.11687578  1
  Ti  Ti34  1  0.00326433  0.79152452  0.40992531  1
  Ti  Ti35  1  -0.05830403  0.74502714  0.80090973  1
  Ti  Ti36  1  0.31800127  0.16319873  0.17404850  1
  Ti  Ti37  1  0.29485901  0.09469097  0.48585397  1
  Ti  Ti38  1  0.31470391  0.13317710  0.87176879  1
  Ti  Ti39  1  0.38605826  0.52076098  0.17804440  1
  Ti  Ti40  1  0.34989520  0.47407014  0.47353522  1
  Ti  Ti41  1  0.30315221  0.59477921  0.86030156  1
  Ti  Ti42  1  0.32861355  0.82898926  0.17988774  1
  Ti  Ti43  1  0.33338744  0.79884801  0.60654272  1
  Ti  Ti44  1  0.34861615  0.80758841  0.80053661  1
  Ti  Ti45  1  0.64236146  0.16232095  0.15323570  1
  Ti  Ti46  1  0.70767601  0.16829016  0.49337947  1
  Ti  Ti47  1  0.65183207  0.21201544  0.84290976  1
  Ti  Ti48  1  0.62350607  0.54534349  0.14406244  1
  Ti  Ti49  1  0.65803324  0.50872713  0.51819931  1
  Ti  Ti50  1  0.69764092  0.47166211  0.83646045  1
  Ti  Ti51  1  0.71343614  0.84442732  0.12813752  1
  Ti  Ti52  1  0.65434905  0.81932576  0.54352483  1
  Ti  Ti53  1  0.55171576  0.83268084  0.83713069  1
  Ti  Ti54  1  0.20858876  -0.00758353  0.21326358  1
  Ti  Ti55  1  0.16999718  -0.04906862  0.56033473  1
  Ti  Ti56  1  0.12463714  0.03464764  0.77845622  1
  Ti  Ti57  1  0.18185471  0.37324065  0.18942345  1
  Ti  Ti58  1  0.10730688  0.38126540  0.46404245  1
  Ti  Ti59  1  0.25108527  0.32560523  0.84974831  1
  Ti  Ti60  1  0.15511415  0.71558835  0.18620215  1
  Ti  Ti61  1  0.14110034  0.75026243  0.54813864  1
  Ti  Ti62  1  0.13772308  0.70022643  0.85291595  1
  Ti  Ti63  1  0.49553453  0.02940290  0.23375344  1
  Ti  Ti64  1  0.47989271  0.08794103  0.49349163  1
  Ti  Ti65  1  0.55116926  0.03240535  0.88107267  1
  Ti  Ti66  1  0.50587602  0.30716746  0.15693470  1
  Ti  Ti67  1  0.43762057  0.28608997  0.45262937  1
  Ti  Ti68  1  0.52301008  0.36583906  0.88884331  1
  Ti  Ti69  1  0.47362953  0.69875478  0.24230755  1
  Ti  Ti70  1  0.48561131  0.64259303  0.44936906  1
  Ti  Ti71  1  0.49650589  0.63280988  0.82138297  1
  Ti  Ti72  1  0.88479939  -0.03978011  0.14586106  1
  Ti  Ti73  1  0.82457906  0.00361599  0.42726398  1
  Ti  Ti74  1  0.84943061  -0.05158710  0.82636208  1
  Ti  Ti75  1  0.90039250  0.34667034  0.11531718  1
  Ti  Ti76  1  0.86273105  0.27721083  0.58859261  1
  Ti  Ti77  1  0.86117205  0.35644347  0.90193726  1
  Ti  Ti78  1  0.92099930  0.67285271  0.12469266  1
  Ti  Ti79  1  0.81953793  0.65460215  0.48809283  1
  Ti  Ti80  1  0.78721017  0.63643728  0.78795917  1
  Ti  Ti81  1  0.14367673  0.15388533  0.07907812  1
  Ti  Ti82  1  0.09547290  0.18987105  0.30647196  1
  Ti  Ti83  1  0.18283931  0.15631764  0.63862387  1
  Ti  Ti84  1  0.25953225  0.45924927  0.01693379  1
  Ti  Ti85  1  0.22973556  0.51995806  0.31553718  1
  Ti  Ti86  1  0.18512350  0.45551221  0.63589618  1
  Ti  Ti87  1  0.11930725  0.88945058  -0.06350603  1
  Ti  Ti88  1  0.19427493  0.81017876  0.33528418  1
  Ti  Ti89  1  0.07219824  0.84273756  0.70649703  1
  Ti  Ti90  1  0.48163631  0.11576848  0.03146722  1
  Ti  Ti91  1  0.56636243  0.18635599  0.33454622  1
  Ti  Ti92  1  0.50048107  0.15958992  0.67832757  1
  Ti  Ti93  1  0.46922570  0.57894074  -0.00181560  1
  Ti  Ti94  1  0.52983739  0.44245717  0.39318511  1
  Ti  Ti95  1  0.55673964  0.47734392  0.70671052  1
  Ti  Ti96  1  0.49026078  0.86645410  0.05780885  1
  Ti  Ti97  1  0.56233721  0.80482738  0.37380236  1
  Ti  Ti98  1  0.50099704  0.93183279  0.66013117  1
  Ti  Ti99  1  0.78572418  0.20617741  0.01685602  1
  Ti  Ti100  1  0.88452332  0.20868453  0.36701032  1
  Ti  Ti101  1  0.82871431  0.10963085  0.67468310  1
  Ti  Ti102  1  0.79131745  0.50650087  0.03448646  1
  Ti  Ti103  1  0.74157232  0.50668621  0.34161283  1
  Ti  Ti104  1  0.85234588  0.46989320  0.58280446  1
  Ti  Ti105  1  0.83945517  0.75923378  -0.02618250  1
  Ti  Ti106  1  0.76994195  0.81607410  0.37180550  1
  Ti  Ti107  1  0.77210653  0.81043154  0.69547274  1
  Co  Co108  1  0.67206679  0.10002935  0.97441400  1
  Co  Co109  1  0.88944977  0.51215616  0.43251531  1
  Co  Co110  1  0.43235560  0.71215733  0.09033462  1
  Co  Co111  1  0.40359311  0.72893573  0.92797148  1
  Co  Co112  1  0.93728809  0.50592201  0.12381732  1
  Co  Co113  1  0.18963798  0.85875815  0.10283314  1
  Co  Co114  1  0.73149259  0.12146067  0.32005327  1
  Co  Co115  1  0.08168418  0.89989110  0.26164275  1
  Co  Co116  1  0.18400067  0.56005622  0.76193042  1
  Co  Co117  1  0.10431438  0.30115173  0.62884728  1
  Co  Co118  1  0.12665062  0.65902778  0.37150475  1
  Co  Co119  1  0.22439254  0.71683864  0.71903052  1
  Co  Co120  1  0.20690762  0.61558567  0.59827666  1
  Co  Co121  1  0.89140330  0.07049966  0.27948389  1
  Co  Co122  1  0.00455410  0.92334668  0.82812210  1
  Co  Co123  1  0.96372293  0.44976400  0.97539462  1
  Co  Co124  1  0.26681739  0.35733174  0.52973841  1
  Co  Co125  1  0.38169487  0.94568472  0.53662552  1
  Co  Co126  1  0.59625987  0.85737299  0.22429726  1
  Co  Co127  1  0.75818611  0.09161523  0.83294010  1
  Co  Co128  1  0.65187459  0.01180665  0.21780890  1
  Co  Co129  1  0.99846807  0.77448010  0.94328574  1
  Co  Co130  1  0.13951402  0.50461319  0.91089034  1
  Co  Co131  1  0.18551528  0.52155476  0.47029727  1
  Co  Co132  1  0.80179041  0.57673405  0.19704359  1
  Co  Co133  1  0.59469184  0.71287696  0.11879957  1
  Co  Co134  1  0.85396986  0.06861883  0.97763113  1
  Co  Co135  1  0.92470184  0.89968627  0.31798881  1
  Co  Co136  1  0.04381727  0.51033505  0.37219804  1
  Co  Co137  1  0.80406960  0.21621542  0.19388905  1
  Co  Co138  1  0.19262636  0.23186207  0.47163634  1
  Co  Co139  1  0.06337562  0.66066864  0.69897942  1
  Co  Co140  1  1.00007755  0.42093460  0.61076591  1
  Co  Co141  1  0.77490714  0.94373345  0.27542118  1
  Co  Co142  1  0.67468092  0.93939503  0.83536391  1
  Co  Co143  1  0.90416985  0.47782131  0.27737151  1
  Co  Co144  1  0.77632359  0.41946558  0.19966928  1
  Co  Co145  1  0.24816275  0.29739511  0.69205633  1
  Co  Co146  1  0.76624379  0.06287605  0.11849242  1
  Co  Co147  1  0.01531502  0.74310373  0.25760163  1
  Co  Co148  1  0.61804381  0.05716192  0.56554533  1
  Co  Co149  1  0.55280272  0.73661572  0.96839157  1
  Co  Co150  1  0.38371634  0.76823553  0.37394301  1
  Co  Co151  1  0.33813020  0.16413760  0.71923599  1
  Co  Co152  1  0.53047207  0.36832927  0.57110762  1
  Co  Co153  1  0.47683251  0.19424786  0.85740913  1
  Co  Co154  1  0.57643190  0.24363589  0.00020724  1
  Co  Co155  1  0.47657029  0.78446753  0.52985037  1
  Co  Co156  1  0.09162956  0.45269849  0.07737256  1
  Co  Co157  1  0.29527826  0.67099009  0.25616717  1
  Co  Co158  1  0.39667207  0.57039752  0.33571128  1
  Co  Co159  1  0.75143183  0.67859204  0.08799708  1
  Co  Co160  1  0.53869243  0.92869692  0.49492407  1
  Co  Co161  1  0.44909484  0.87750083  0.26825663  1
  Ni  Ni162  1  0.38424135  0.00538296  0.12487766  1
  Ni  Ni163  1  0.12910831  0.08681324  0.47288547  1
  Ni  Ni164  1  0.79768236  0.27722528  0.75606452  1
  Ni  Ni165  1  0.55717798  0.30641467  0.73251687  1
  Ni  Ni166  1  0.21622609  0.55307726  0.14841889  1
  Ni  Ni167  1  0.72865694  0.66889753  0.61680347  1
  Ni  Ni168  1  0.47963723  0.76494688  0.69819053  1
  Ni  Ni169  1  0.08944283  0.19658225  0.85768519  1
  Ni  Ni170  1  0.89570541  0.59942841  0.67204416  1
  Ni  Ni171  1  0.11949603  0.39513372  0.77937482  1
  Ni  Ni172  1  0.61088909  0.47847406  0.98869680  1
  Ni  Ni173  1  0.45038822  0.42281522  0.04861351  1
  Ni  Ni174  1  0.01998747  0.16639658  0.70632226  1
  Ni  Ni175  1  0.41103298  0.92134492  0.91365317  1
  Ni  Ni176  1  0.66384335  0.66269842  0.42701967  1
  Ni  Ni177  1  0.76498123  0.94358694  0.56705665  1
  Ni  Ni178  1  0.90827340  0.90260025  0.67383383  1
  Ni  Ni179  1  0.71691876  0.52145653  0.67631716  1
  Ni  Ni180  1  0.01552875  0.88740623  0.54242504  1
  Ni  Ni181  1  0.60409934  0.41155184  0.24579303  1
  Ni  Ni182  1  0.57450012  0.57495166  0.30632039  1
  Ni  Ni183  1  0.47460356  0.51915858  0.56589578  1
  Ni  Ni184  1  0.05431908  0.28325135  0.13582620  1
  Ni  Ni185  1  0.23881352  0.11478601  0.32605222  1
  Ni  Ni186  1  0.73171813  0.79334683  0.85773364  1
  Ni  Ni187  1  0.33899136  0.33977563  0.15161191  1
  Ni  Ni188  1  0.61888058  0.30582941  0.45211743  1
  Ni  Ni189  1  0.40298308  0.49919173  0.75845700  1
  Ni  Ni190  1  0.26414188  0.85222339  0.47200019  1
  Ni  Ni191  1  0.22328519  0.28940125  0.03710964  1
  Ni  Ni192  1  0.12652979  0.72826398  0.02436202  1
  Ni  Ni193  1  0.67596954  0.18317022  0.67182735  1
  Ni  Ni194  1  0.37225292  0.43536589  0.89985501  1
  Ni  Ni195  1  0.40336772  0.11536702  0.34905165  1
  Ni  Ni196  1  0.59791318  0.99177322  0.06899834  1
  Ni  Ni197  1  0.22048158  0.88353999  0.72803575  1
  Ni  Ni198  1  0.76962754  0.37462862  0.46339165  1
  Ni  Ni199  1  0.34993965  0.22112308  0.57126468  1
  Ni  Ni200  1  0.41545807  0.25195191  0.27627489  1
  Ni  Ni201  1  0.85958181  0.83076472  0.50708882  1
  Ni  Ni202  1  0.84802393  0.44784340  0.75488137  1
  Ni  Ni203  1  0.96731571  0.22203205  -0.00765012  1
  Ni  Ni204  1  0.38884164  0.40870756  0.30544955  1
  Ni  Ni205  1  0.17674173  0.06795321  0.93611965  1
  Ni  Ni206  1  0.92527466  0.91459883  -0.01443748  1
  Ni  Ni207  1  0.86504132  0.55114300  0.89674266  1
  Ni  Ni208  1  0.93745818  0.35723216  0.45374058  1
  Ni  Ni209  1  0.42485748  0.03674599  0.78483064  1
  Ni  Ni210  1  0.09256002  -0.00741505  0.08420175  1
  Ni  Ni211  1  0.26460283  0.80936765  0.95190537  1
  Ni  Ni212  1  0.88663407  0.12407247  0.51674935  1
  Ni  Ni213  1  0.63512801  0.69352314  0.76129006  1
  Ni  Ni214  1  0.85055973  0.79465959  0.21440956  1
  Ni  Ni215  1  0.70007977  0.34450590  0.93606782  1
