# generated using pymatgen
data_Ti2CoNi
_symmetry_space_group_name_H-M   'P 1'
_cell_length_a   14.59428838
_cell_length_b   14.53449166
_cell_length_c   14.60651610
_cell_angle_alpha   90.09354471
_cell_angle_beta   90.07433889
_cell_angle_gamma   89.90374989
_symmetry_Int_Tables_number   1
_chemical_formula_structural   Ti2CoNi
_chemical_formula_sum   'Ti108 Co54 Ni54'
_cell_volume   3098.33131590
_cell_formula_units_Z   54
loop_
 _symmetry_equiv_pos_site_id
 _symmetry_equiv_pos_as_xyz
  1  'x, y, z'
loop_
 _atom_site_type_symbol
 _atom_site_label
 _atom_site_symmetry_multiplicity
 _atom_site_fract_x
 _atom_site_fract_y
 _atom_site_fract_z
 _atom_site_occupancy
  Ti  Ti0  1  -0.04225997  0.01627077  -0.01436343  1
  Ti  Ti1  1  0.00902143  0.00356528  0.38348793  1
  Ti  Ti2  1  -0.01037159  -0.05625811  0.69830610  1
  Ti  Ti3  1  -0.05644905  0.39632149  -0.00255450  1
  Ti  Ti4  1  0.06305813  0.32412809  0.38744899  1
  Ti  Ti5  1  -0.06720019  0.28970789  0.65225555  1
  Ti  Ti6  1  -0.03035188  0.68205079  0.01148327  1
  Ti  Ti7  1  0.12283754  0.67520443  0.37268732  1
  Ti  Ti8  1  0.02083962  0.64826419  0.69516583  1
  Ti  Ti9  1  0.29908762  -0.01833156  0.02090132  1
  Ti  Ti10  1  0.36408473  -0.03136284  0.31389754  1
  Ti  Ti11  1  0.38533875  -0.00617803  0.60169157  1
  Ti  Ti12  1  0.21742979  0.30415615  0.00916277  1
  Ti  Ti13  1  0.34082765  0.44665379  0.31580217  1
  Ti  Ti14  1  0.38731526  0.33957567  0.56131983  1
  Ti  Ti15  1  0.27724583  0.60725971  -0.07752774  1
  Ti  Ti16  1  0.37358019  0.63200827  0.34656139  1
  Ti  Ti17  1  0.36877815  0.73835126  0.62254918  1
  Ti  Ti18  1  0.62341249  0.06857777  0.00855758  1
  Ti  Ti19  1  0.69878502  -0.07593753  0.32723950  1
  Ti  Ti20  1  0.69456936  0.03526481  0.62421102  1
  Ti  Ti21  1  0.70256018  0.25752844  0.01726064  1
  Ti  Ti22  1  0.66603668  0.24328430  0.32898497  1
  Ti  Ti23  1  0.66658857  0.36750166  0.66353788  1
  Ti  Ti24  1  0.60452885  0.59719648  -0.01955336  1
  Ti  Ti25  1  0.63524002  0.71049791  0.33938288  1
  Ti  Ti26  1  0.68915955  0.66138540  0.73445741  1
  Ti  Ti27  1  0.02734785  0.21071566  0.05644335  1
  Ti  Ti28  1  -0.12821210  0.15960701  0.49156504  1
  Ti  Ti29  1  -0.05285985  0.16951965  0.86821101  1
  Ti  Ti30  1  0.00706106  0.53182624  0.12434228  1
  Ti  Ti31  1  -0.04442495  0.51838956  0.40868338  1
  Ti  Ti32  1  0.00653464  0.45820076  0.79414174  1
  Ti  Ti33  1  -0.03360914  0.79252876  0.27409802  1
  Ti  Ti34  1  -0.01754332  0.82150928  0.49860928  1
  Ti  Ti35  1  0.02692735  0.84411758  0.92777084  1
  Ti  Ti36  1  0.34601707  0.17345515  0.15024257  1
  Ti  Ti37  1  0.31185965  0.20811842  0.45631897  1
  Ti  Ti38  1  0.29312651  0.14922645  0.81289651  1
  Ti  Ti39  1  0.32744737  0.47050931  0.06453559  1
  Ti  Ti40  1  0.29933820  0.53666771  0.57592813  1
  Ti  Ti41  1  0.35742766  0.55230769  0.76434548  1
  Ti  Ti42  1  0.29090610  0.78354759  0.10971866  1
  Ti  Ti43  1  0.26522980  0.86438357  0.44915290  1
  Ti  Ti44  1  0.38405332  0.88250438  0.79521660  1
  Ti  Ti45  1  0.70754358  0.10469676  0.18040646  1
  Ti  Ti46  1  0.62198121  0.21600605  0.52655430  1
  Ti  Ti47  1  0.75086309  0.25840282  0.81272512  1
  Ti  Ti48  1  0.70253977  0.53942889  0.29450417  1
  Ti  Ti49  1  0.74031870  0.43329467  0.48882679  1
  Ti  Ti50  1  0.59661326  0.47662273  0.82480739  1
  Ti  Ti51  1  0.70438543  0.86934726  0.09111813  1
  Ti  Ti52  1  0.68930650  0.70052013  0.53830947  1
  Ti  Ti53  1  0.58313956  0.82691399  0.88216605  1
  Ti  Ti54  1  0.22087757  0.02031710  0.19559452  1
  Ti  Ti55  1  0.12854268  -0.03649491  0.55779257  1
  Ti  Ti56  1  0.11362765  0.02896651  0.80796933  1
  Ti  Ti57  1  0.20562031  0.33267623  0.20660645  1
  Ti  Ti58  1  0.18342824  0.33642810  0.54825452  1
  Ti  Ti59  1  0.18607619  0.33425787  0.80439030  1
  Ti  Ti60  1  0.16854697  0.64565164  0.06285468  1
  Ti  Ti61  1  0.17923558  0.69988452  0.54769610  1
  Ti  Ti62  1  0.09855300  0.65253216  0.86383794  1
  Ti  Ti63  1  0.54531569  0.00475964  0.19753054  1
  Ti  Ti64  1  0.56245484  0.00847120  0.47546604  1
  Ti  Ti65  1  0.54854871  0.05771516  0.82109023  1
  Ti  Ti66  1  0.45968991  0.34320923  0.19834550  1
  Ti  Ti67  1  0.54788350  0.42833608  0.51662610  1
  Ti  Ti68  1  0.48147420  0.30815759  0.87425200  1
  Ti  Ti69  1  0.47128610  0.70884605  0.18902819  1
  Ti  Ti70  1  0.49097217  0.66826096  0.47897315  1
  Ti  Ti71  1  0.44604608  0.68567444  0.89521455  1
  Ti  Ti72  1  0.88226465  -0.04039550  0.18003130  1
  Ti  Ti73  1  0.86861014  -0.03187592  0.53773743  1
  Ti  Ti74  1  0.83346112  -0.00468246  0.81410921  1
  Ti  Ti75  1  0.76286473  0.32551799  0.17220795  1
  Ti  Ti76  1  0.88542713  0.33434917  0.43275410  1
  Ti  Ti77  1  0.78662962  0.43561719  0.88850521  1
  Ti  Ti78  1  0.70559864  0.68050153  0.15070012  1
  Ti  Ti79  1  0.87640652  0.66071542  0.57493108  1
  Ti  Ti80  1  0.87106677  0.69474431  0.85196678  1
  Ti  Ti81  1  0.16482228  0.12539093  -0.03514027  1
  Ti  Ti82  1  0.16167424  0.16724090  0.32062201  1
  Ti  Ti83  1  0.14231760  0.14962760  0.63105015  1
  Ti  Ti84  1  0.12190279  0.47519255  -0.04200330  1
  Ti  Ti85  1  0.13269410  0.49958671  0.28739751  1
  Ti  Ti86  1  0.12868793  0.49187371  0.64482164  1
  Ti  Ti87  1  0.22813095  0.80876320  -0.06742470  1
  Ti  Ti88  1  0.16516781  0.83873147  0.25772060  1
  Ti  Ti89  1  0.18871380  0.85092841  0.75861533  1
  Ti  Ti90  1  0.50455782  0.21381498  0.03512481  1
  Ti  Ti91  1  0.47655057  0.16774360  0.33357175  1
  Ti  Ti92  1  0.45829078  0.19913224  0.69135864  1
  Ti  Ti93  1  0.52827137  0.42452050  0.04677451  1
  Ti  Ti94  1  0.52619681  0.51123987  0.32553559  1
  Ti  Ti95  1  0.46920196  0.42166252  0.70217497  1
  Ti  Ti96  1  0.42548356  0.83254005  0.00303011  1
  Ti  Ti97  1  0.51315225  0.86396704  0.33849022  1
  Ti  Ti98  1  0.55086409  0.86485098  0.63628541  1
  Ti  Ti99  1  0.85517930  0.15404833  0.08425671  1
  Ti  Ti100  1  0.82461999  0.09147219  0.32663394  1
  Ti  Ti101  1  0.83580686  0.13598673  0.67780669  1
  Ti  Ti102  1  0.80786862  0.56488312  0.03387734  1
  Ti  Ti103  1  0.86222674  0.48237596  0.23004754  1
  Ti  Ti104  1  0.89100464  0.47593000  0.62469324  1
  Ti  Ti105  1  0.82820601  0.86081587  -0.04522969  1
  Ti  Ti106  1  0.80769118  0.77396307  0.41540424  1
  Ti  Ti107  1  0.77725855  0.83975651  0.66080158  1
  Co  Co108  1  0.04426594  0.24630012  0.22677834  1
  Co  Co109  1  0.31327455  0.11403377  0.32002130  1
  Co  Co110  1  0.03387597  0.74826684  0.13865918  1
  Co  Co111  1  0.07154073  0.35978840  0.10684607  1
  Co  Co112  1  0.10645229  0.84713136  0.41278345  1
  Co  Co113  1  0.45169933  0.97302317  0.91893136  1
  Co  Co114  1  0.13245478  0.96433716  0.95796550  1
  Co  Co115  1  0.86643495  0.25757345  0.29043160  1
  Co  Co116  1  0.87499644  0.66065301  0.15120442  1
  Co  Co117  1  0.94778750  0.11584327  0.21069553  1
  Co  Co118  1  0.39919087  0.04159388  0.76302396  1
  Co  Co119  1  0.91875159  0.31382830  0.13787422  1
  Co  Co120  1  0.17291601  0.47729155  0.11382114  1
  Co  Co121  1  0.89791369  0.84956482  0.80002404  1
  Co  Co122  1  0.73372404  0.59395881  0.87346168  1
  Co  Co123  1  0.27478703  0.40923544  0.68007122  1
  Co  Co124  1  0.16617160  0.88891895  0.09436320  1
  Co  Co125  1  0.60314515  0.52949714  0.63649822  1
  Co  Co126  1  0.37743088  0.31672490  0.01639494  1
  Co  Co127  1  0.53001153  0.60607235  0.77517855  1
  Co  Co128  1  0.55950133  0.70075713  0.62714682  1
  Co  Co129  1  0.25096026  0.57676675  0.42448920  1
  Co  Co130  1  0.04345864  0.78489203  0.77968622  1
  Co  Co131  1  0.02709498  0.24121479  0.52946331  1
  Co  Co132  1  0.85880594  0.26969679  0.96375528  1
  Co  Co133  1  0.87722318  0.80949097  1.09180880  1
  Co  Co134  1  0.13111933  0.65451071  0.21044521  1
  Co  Co135  1  0.40770725  0.04276502  0.44435799  1
  Co  Co136  1  0.93462676  0.79335485  0.65347541  1
  Co  Co137  1  0.24453156  1.02091754  0.69471527  1
  Co  Co138  1  0.63029599  0.36168334  0.93087823  1
  Co  Co139  1  0.95234811  0.68184656  0.41398510  1
  Co  Co140  1  0.82961134  0.65438987  0.30063516  1
  Co  Co141  1  0.80009895  0.59131799  0.44183282  1
  Co  Co142  1  0.45097638  0.57899812  0.62493704  1
  Co  Co143  1  0.72897193  0.72383840  -0.02003750  1
  Co  Co144  1  0.17943774  0.18039436  0.13777862  1
  Co  Co145  1  0.68107127  0.95426330  0.91337249  1
  Co  Co146  1  0.98209115  0.17511347  0.36997914  1
  Co  Co147  1  0.27141038  -0.01550399  0.86302844  1
  Co  Co148  1  0.61360118  0.40503707  0.22439870  1
  Co  Co149  1  0.18422135  0.98994785  0.35982234  1
  Co  Co150  1  0.88059838  0.56588632  0.76035157  1
  Co  Co151  1  0.99640968  0.40021327  0.25889823  1
  Co  Co152  1  0.10049950  0.81392232  0.62099707  1
  Co  Co153  1  0.47292593  0.75358407  0.74645076  1
  Co  Co154  1  0.53768864  0.05666449  0.64727587  1
  Co  Co155  1  0.74987367  0.55582663  0.59409410  1
  Co  Co156  1  0.94689264  0.54485714  0.92039754  1
  Co  Co157  1  0.06182330  0.96462445  0.23979125  1
  Co  Co158  1  0.09130304  0.31236487  0.68047543  1
  Co  Co159  1  0.70744733  0.08882492  0.78717497  1
  Co  Co160  1  1.00781687  0.90044813  0.09697094  1
  Co  Co161  1  0.98841671  0.60977372  0.26589406  1
  Ni  Ni162  1  0.46451251  0.17263468  0.52466487  1
  Ni  Ni163  1  0.27601538  0.71111127  0.24972311  1
  Ni  Ni164  1  0.22560611  0.35713565  0.38543857  1
  Ni  Ni165  1  0.10470506  0.11586247  0.46621115  1
  Ni  Ni166  1  0.13282508  0.48098230  0.46001170  1
  Ni  Ni167  1  0.64899437  0.93608478  0.75079942  1
  Ni  Ni168  1  0.56791747  0.74543950  1.04709856  1
  Ni  Ni169  1  1.01663064  0.40520239  0.54445630  1
  Ni  Ni170  1  0.25470216  0.05793148  0.49551890  1
  Ni  Ni171  1  0.38639882  0.64383704  0.05407562  1
  Ni  Ni172  1  0.31069472  0.72727640  0.79821911  1
  Ni  Ni173  1  0.33943522  0.27340579  0.29640039  1
  Ni  Ni174  1  0.63318265  0.56504592  0.45632636  1
  Ni  Ni175  1  0.90758448  0.32995233  0.81505299  1
  Ni  Ni176  1  0.69362581  0.44839473  0.06986198  1
  Ni  Ni177  1  0.58839487  0.55936190  0.15398972  1
  Ni  Ni178  1  0.47180616  0.33791562  0.38583326  1
  Ni  Ni179  1  0.43054264  0.53347198  0.18611596  1
  Ni  Ni180  1  0.60217710  0.81951766  0.20449613  1
  Ni  Ni181  1  0.36905426  0.79744653  0.33908616  1
  Ni  Ni182  1  0.55550048  0.91930548  0.04595831  1
  Ni  Ni183  1  0.40995006  0.49776456  0.46285225  1
  Ni  Ni184  1  0.60477044  0.24905322  0.16306744  1
  Ni  Ni185  1  0.18722611  0.51104847  0.80324631  1
  Ni  Ni186  1  0.26636896  0.87159991  0.61473193  1
  Ni  Ni187  1  0.00298683  0.12850723  0.72364405  1
  Ni  Ni188  1  0.72213077  0.90632489  0.50591178  1
  Ni  Ni189  1  0.86818262  0.91796891  0.36110762  1
  Ni  Ni190  1  0.27306253  0.56039750  0.20425944  1
  Ni  Ni191  1  0.77796578  0.28258321  0.57270379  1
  Ni  Ni192  1  0.27901420  0.23672457  0.65612815  1
  Ni  Ni193  1  0.34162742  0.14755201  0.98082661  1
  Ni  Ni194  1  0.44819054  0.04907743  0.06837132  1
  Ni  Ni195  1  0.41406470  0.89507437  0.16671626  1
  Ni  Ni196  1  0.59387931  0.82037549  0.47275362  1
  Ni  Ni197  1  0.63217165  0.19934184  0.69720249  1
  Ni  Ni198  1  0.20745331  0.64703796  0.70332873  1
  Ni  Ni199  1  0.07829506  0.05076916  0.10359301  1
  Ni  Ni200  1  0.05496946  0.30015007  0.90284267  1
  Ni  Ni201  1  0.35098590  0.30923449  0.78250112  1
  Ni  Ni202  1  0.73431787  0.81225049  0.82085834  1
  Ni  Ni203  1  0.61269046  0.19702795  0.88506624  1
  Ni  Ni204  1  0.44624973  0.51754801  0.91988814  1
  Ni  Ni205  1  0.78455684  0.00614416  0.03947557  1
  Ni  Ni206  1  0.74046726  0.49282884  0.73886565  1
  Ni  Ni207  1  0.78486579  0.12064640  0.92462833  1
  Ni  Ni208  1  0.78876658  0.80641076  0.24205234  1
  Ni  Ni209  1  0.62479193  0.07867906  0.32762747  1
  Ni  Ni210  1  0.99017777  0.07337179  0.57492630  1
  Ni  Ni211  1  0.71958728  0.08114767  0.46266333  1
  Ni  Ni212  1  0.03542294  0.59147464  0.53563245  1
  Ni  Ni213  1  0.30458841  0.42768145  0.89824289  1
  Ni  Ni214  1  0.75416340  0.38234902  0.33087116  1
  Ni  Ni215  1  0.43400422  0.86098381  0.49556649  1
