# generated using pymatgen
data_Ti2CoNi
_symmetry_space_group_name_H-M   'P 1'
_cell_length_a   14.65483430
_cell_length_b   14.63115913
_cell_length_c   14.64144608
_cell_angle_alpha   90.00718616
_cell_angle_beta   90.30027515
_cell_angle_gamma   90.11672930
_symmetry_Int_Tables_number   1
_chemical_formula_structural   Ti2CoNi
_chemical_formula_sum   'Ti108 Co54 Ni54'
_cell_volume   3139.32839804
_cell_formula_units_Z   54
loop_
 _symmetry_equiv_pos_site_id
 _symmetry_equiv_pos_as_xyz
  1  'x, y, z'
loop_
 _atom_site_type_symbol
 _atom_site_label
 _atom_site_symmetry_multiplicity
 _atom_site_fract_x
 _atom_site_fract_y
 _atom_site_fract_z
 _atom_site_occupancy
  Ti  Ti0  1  0.10646385  0.06014267  -0.02929311  1
  Ti  Ti1  1  -0.03870481  -0.02729700  0.30345993  1
  Ti  Ti2  1  0.00812106  0.02794939  0.66387702  1
  Ti  Ti3  1  -0.00825900  0.36071151  -0.05760774  1
  Ti  Ti4  1  -0.00301498  0.36073441  0.30179521  1
  Ti  Ti5  1  -0.06677657  0.35732918  0.65413749  1
  Ti  Ti6  1  0.03752893  0.68841976  -0.03054763  1
  Ti  Ti7  1  -0.06788292  0.68634521  0.30666814  1
  Ti  Ti8  1  -0.04227896  0.70760059  0.73520872  1
  Ti  Ti9  1  0.38591820  -0.00317644  -0.01714591  1
  Ti  Ti10  1  0.38892542  0.03938322  0.29462480  1
  Ti  Ti11  1  0.33530347  -0.10876058  0.66298073  1
  Ti  Ti12  1  0.33108327  0.34551737  -0.04597515  1
  Ti  Ti13  1  0.32447222  0.33140599  0.40476422  1
  Ti  Ti14  1  0.35278255  0.32988003  0.60640208  1
  Ti  Ti15  1  0.31685278  0.76788990  0.06431321  1
  Ti  Ti16  1  0.36995942  0.65627679  0.30156134  1
  Ti  Ti17  1  0.30789964  0.64722747  0.67071544  1
  Ti  Ti18  1  0.65691812  -0.05180555  0.01668855  1
  Ti  Ti19  1  0.64592301  -0.05975775  0.31928544  1
  Ti  Ti20  1  0.68160524  0.01270291  0.74992194  1
  Ti  Ti21  1  0.61502335  0.33719913  0.02242157  1
  Ti  Ti22  1  0.71069552  0.34225162  0.30978813  1
  Ti  Ti23  1  0.64293180  0.30607555  0.61293140  1
  Ti  Ti24  1  0.68806875  0.63724226  -0.04763217  1
  Ti  Ti25  1  0.59136382  0.62038857  0.36232713  1
  Ti  Ti26  1  0.60385221  0.68047124  0.62591489  1
  Ti  Ti27  1  -0.05098254  0.14421526  0.17505863  1
  Ti  Ti28  1  -0.01305081  0.18679331  0.56866951  1
  Ti  Ti29  1  -0.06028943  0.06984481  0.83129008  1
  Ti  Ti30  1  -0.05341407  0.54686908  0.15909511  1
  Ti  Ti31  1  0.06033740  0.46831278  0.52632560  1
  Ti  Ti32  1  0.03047713  0.52682892  0.82056426  1
  Ti  Ti33  1  -0.02833641  0.80956882  0.10753001  1
  Ti  Ti34  1  0.03275706  0.81090317  0.43546146  1
  Ti  Ti35  1  -0.03510218  0.89675603  0.91274378  1
  Ti  Ti36  1  0.27440490  0.19583827  0.24942602  1
  Ti  Ti37  1  0.33798517  0.13957620  0.55970534  1
  Ti  Ti38  1  0.33658394  0.21333806  0.78333511  1
  Ti  Ti39  1  0.35654996  0.46622500  0.13467872  1
  Ti  Ti40  1  0.26873903  0.51086857  0.48841305  1
  Ti  Ti41  1  0.39717629  0.50902656  0.85580171  1
  Ti  Ti42  1  0.29963558  0.86164592  0.23172095  1
  Ti  Ti43  1  0.33308847  0.94748682  0.46339971  1
  Ti  Ti44  1  0.33387138  0.76903785  0.82950154  1
  Ti  Ti45  1  0.70216704  0.09659072  0.20847012  1
  Ti  Ti46  1  0.62604845  0.13408824  0.46875805  1
  Ti  Ti47  1  0.64075892  0.20155257  0.79137833  1
  Ti  Ti48  1  0.67811699  0.51347536  0.21321075  1
  Ti  Ti49  1  0.70542745  0.47594198  0.49255345  1
  Ti  Ti50  1  0.63814767  0.47142116  0.87516158  1
  Ti  Ti51  1  0.72464232  0.83853992  0.16885680  1
  Ti  Ti52  1  0.69226069  0.85353757  0.55024493  1
  Ti  Ti53  1  0.66145122  0.83852806  0.85203195  1
  Ti  Ti54  1  0.12919554  -0.06601677  0.19905463  1
  Ti  Ti55  1  0.15298665  0.04475993  0.49965305  1
  Ti  Ti56  1  0.24191095  0.03925540  0.82925574  1
  Ti  Ti57  1  0.20611874  0.37210053  0.21793270  1
  Ti  Ti58  1  0.13057207  0.25796616  0.43942634  1
  Ti  Ti59  1  0.15871561  0.26727906  0.86197257  1
  Ti  Ti60  1  0.19169042  0.60981997  0.09611740  1
  Ti  Ti61  1  0.15787473  0.66744762  0.52158984  1
  Ti  Ti62  1  0.14572284  0.67608707  0.77806549  1
  Ti  Ti63  1  0.52901517  0.00863646  0.16116105  1
  Ti  Ti64  1  0.53125033  -0.06091773  0.45655009  1
  Ti  Ti65  1  0.47573960  0.09219653  0.83498409  1
  Ti  Ti66  1  0.48931004  0.20429069  0.16966527  1
  Ti  Ti67  1  0.50551728  0.41632382  0.51470059  1
  Ti  Ti68  1  0.49745876  0.31131544  0.86309963  1
  Ti  Ti69  1  0.60764449  0.67917633  0.14912754  1
  Ti  Ti70  1  0.42476097  0.66485993  0.51679255  1
  Ti  Ti71  1  0.51518171  0.65796960  0.83188552  1
  Ti  Ti72  1  0.85193283  -0.02267457  0.11930747  1
  Ti  Ti73  1  0.79388522  0.01146187  0.43565549  1
  Ti  Ti74  1  0.83795316  -0.09798986  0.75427943  1
  Ti  Ti75  1  0.89660695  0.35064870  0.12793899  1
  Ti  Ti76  1  0.80431144  0.29948647  0.49924915  1
  Ti  Ti77  1  0.78155663  0.32360968  0.85326970  1
  Ti  Ti78  1  0.81260319  0.66665630  0.10614972  1
  Ti  Ti79  1  0.86955809  0.66649229  0.53431128  1
  Ti  Ti80  1  0.78874730  0.68908071  0.79993984  1
  Ti  Ti81  1  0.18144207  0.22639908  0.06045979  1
  Ti  Ti82  1  0.11443289  0.09872015  0.31754670  1
  Ti  Ti83  1  0.17196371  0.18127278  0.64977335  1
  Ti  Ti84  1  0.16573386  0.42402952  0.01728955  1
  Ti  Ti85  1  0.11185802  0.54427206  0.28111964  1
  Ti  Ti86  1  0.19485762  0.48012793  0.68991704  1
  Ti  Ti87  1  0.15763645  0.87250595  -0.04432336  1
  Ti  Ti88  1  0.22058154  0.79589408  0.38353516  1
  Ti  Ti89  1  0.15244219  0.81787840  0.66108139  1
  Ti  Ti90  1  0.56391244  0.12948963  0.01182996  1
  Ti  Ti91  1  0.49148631  0.24261449  0.35793273  1
  Ti  Ti92  1  0.51605419  0.12821251  0.64716788  1
  Ti  Ti93  1  0.47899029  0.60052637  0.03804162  1
  Ti  Ti94  1  0.49655955  0.44313635  0.31036415  1
  Ti  Ti95  1  0.50717167  0.47397014  0.70673822  1
  Ti  Ti96  1  0.49673456  0.81027161  -0.00424784  1
  Ti  Ti97  1  0.47632074  0.84675788  0.28737764  1
  Ti  Ti98  1  0.53167749  0.90552752  0.69955706  1
  Ti  Ti99  1  0.85655628  0.20864161  -0.00248478  1
  Ti  Ti100  1  0.93457352  0.18245687  0.38639409  1
  Ti  Ti101  1  0.82987349  0.17600303  0.69908967  1
  Ti  Ti102  1  0.81428786  0.48145463  -0.00238290  1
  Ti  Ti103  1  0.80713134  0.56139036  0.36712210  1
  Ti  Ti104  1  0.77104955  0.44798482  0.69585474  1
  Ti  Ti105  1  0.81452550  0.81193878  -0.02611428  1
  Ti  Ti106  1  0.74630008  0.77254298  0.38055878  1
  Ti  Ti107  1  0.89770344  0.88372285  0.56068134  1
  Co  Co108  1  0.69638854  0.21714192  0.95050633  1
  Co  Co109  1  0.74337651  0.19057016  0.37727854  1
  Co  Co110  1  0.44790825  0.99553931  0.58465620  1
  Co  Co111  1  0.85084176  0.26873473  0.26524831  1
  Co  Co112  1  0.57454717  0.76282140  0.45152176  1
  Co  Co113  1  0.79725662  0.96368825  0.90397292  1
  Co  Co114  1  0.66028009  0.77501185  0.02161333  1
  Co  Co115  1  0.80154367  0.53104257  0.84085724  1
  Co  Co116  1  0.53642337  0.95429968  0.89356697  1
  Co  Co117  1  0.08194201  0.96557334  0.81281007  1
  Co  Co118  1  0.44096495  0.73286373  0.69151641  1
  Co  Co119  1  0.87090909  0.81132947  0.22836747  1
  Co  Co120  1  0.75130432  0.66849908  0.25342065  1
  Co  Co121  1  0.63550641  0.50297235  0.63414573  1
  Co  Co122  1  0.03938873  0.81813229  0.26719345  1
  Co  Co123  1  0.97721848  0.33419776  0.48038525  1
  Co  Co124  1  0.22376249  0.97554795  0.34737184  1
  Co  Co125  1  0.84074153  0.09602856  0.28541090  1
  Co  Co126  1  0.21998798  0.87552119  0.79726399  1
  Co  Co127  1  0.37545469  0.66857418  0.94585343  1
  Co  Co128  1  0.25713173  0.04205336  0.20042460  1
  Co  Co129  1  0.49619717  0.81453136  0.82242434  1
  Co  Co130  1  0.91533621  0.05812872  0.99108303  1
  Co  Co131  1  0.56383283  0.85109594  0.14579369  1
  Co  Co132  1  0.38988211  0.33123829  0.24567482  1
  Co  Co133  1  1.01459537  0.74980641  0.58639379  1
  Co  Co134  1  0.14459335  0.56311489  0.93341027  1
  Co  Co135  1  0.23195992  0.61149236  0.36991055  1
  Co  Co136  1  0.65360658  0.06116466  0.89512385  1
  Co  Co137  1  0.43121240  0.20775410  0.97305160  1
  Co  Co138  1  0.61309289  0.76789668  0.28573787  1
  Co  Co139  1  0.79785308  0.94318527  0.27849381  1
  Co  Co140  1  0.21947379  0.70753195  0.23073358  1
  Co  Co141  1  0.83536790  0.45521774  0.23632325  1
  Co  Co142  1  0.75162908  0.08418321  0.03558036  1
  Co  Co143  1  0.40875208  0.90962680  0.12277940  1
  Co  Co144  1  0.70340275  0.65943116  0.49940521  1
  Co  Co145  1  0.41943457  0.52406181  0.43064862  1
  Co  Co146  1  0.32188706  0.27394246  0.10613905  1
  Co  Co147  1  0.09717435  0.68946270  0.34247510  1
  Co  Co148  1  0.20725929  0.71308595  0.94611202  1
  Co  Co149  1  0.07383551  0.79952099  0.83440378  1
  Co  Co150  1  0.43982903  0.73540270  0.16790921  1
  Co  Co151  1  0.63183709  0.36374621  0.76088110  1
  Co  Co152  1  0.79352912  0.13168935  0.85532414  1
  Co  Co153  1  0.76686310  0.60511962  0.64748294  1
  Co  Co154  1  0.30336742  0.52383878  -0.01037089  1
  Co  Co155  1  0.07041614  0.37514987  0.77299262  1
  Co  Co156  1  0.08056665  0.31717008  0.61617611  1
  Co  Co157  1  0.21414115  0.43585369  0.84882012  1
  Co  Co158  1  0.98985868  0.86995323  0.70987009  1
  Co  Co159  1  0.67922733  0.21829816  0.11507189  1
  Co  Co160  1  0.55806659  0.57378951  0.51146347  1
  Co  Co161  1  0.21493561  0.32108167  0.71573814  1
  Ni  Ni162  1  0.87480672  0.47849414  0.53652686  1
  Ni  Ni163  1  0.55728260  0.09085815  0.31220120  1
  Ni  Ni164  1  0.79369923  0.77083155  0.65079204  1
  Ni  Ni165  1  0.35936301  0.37899777  0.76587362  1
  Ni  Ni166  1  0.49611104  0.45329275  0.97318375  1
  Ni  Ni167  1  0.91390759  0.54514057  0.69068246  1
  Ni  Ni168  1  0.16415905  0.41692228  0.38318282  1
  Ni  Ni169  1  0.94882594  0.24890947  0.79554796  1
  Ni  Ni170  1  0.65478537  0.59559230  0.77166544  1
  Ni  Ni171  1  1.00605471  0.61579870  0.45818958  1
  Ni  Ni172  1  0.28181784  0.15404331  0.94652580  1
  Ni  Ni173  1  0.31028225  0.47488421  0.30782390  1
  Ni  Ni174  1  0.02029138  0.19017093  0.93184688  1
  Ni  Ni175  1  0.05417594  0.67665424  0.17627261  1
  Ni  Ni176  1  0.64570713  0.50991810  0.05160073  1
  Ni  Ni177  1  0.06689733  0.59965659  0.64672168  1
  Ni  Ni178  1  0.05725339  0.41697167  0.14055866  1
  Ni  Ni179  1  0.82608150  0.14086185  0.52697069  1
  Ni  Ni180  1  0.57919530  0.33990851  0.20379605  1
  Ni  Ni181  1  0.27026546  0.59828126  0.83506398  1
  Ni  Ni182  1  0.38404879  0.93723752  0.82257126  1
  Ni  Ni183  1  0.62752483  0.00057292  0.58130617  1
  Ni  Ni184  1  0.35567507  0.06061122  0.70680470  1
  Ni  Ni185  1  0.45978791  0.34644579  0.08511058  1
  Ni  Ni186  1  0.44994839  0.09470886  0.44563864  1
  Ni  Ni187  1  1.01986226  0.96780845  0.07737866  1
  Ni  Ni188  1  0.48207560  0.24348215  0.52593969  1
  Ni  Ni189  1  0.07156820  0.91413473  0.56200678  1
  Ni  Ni190  1  0.09859717  0.24344017  0.23107296  1
  Ni  Ni191  1  0.25117904  0.93979011  0.07300046  1
  Ni  Ni192  1  0.99913363  0.51608556  0.00506611  1
  Ni  Ni193  1  0.85976698  0.40205722  0.38614468  1
  Ni  Ni194  1  0.20979234  0.36312234  0.53937347  1
  Ni  Ni195  1  0.88178171  0.85675341  0.39465773  1
  Ni  Ni196  1  0.18650860  0.00040465  0.66937264  1
  Ni  Ni197  1  0.37154603  0.10680073  0.10510893  1
  Ni  Ni198  1  0.09512011  0.12713753  0.78698268  1
  Ni  Ni199  1  0.29223246  0.77747294  0.54645536  1
  Ni  Ni200  1  1.02420368  0.25920931  0.07904260  1
  Ni  Ni201  1  0.27644048  0.13296816  0.40639819  1
  Ni  Ni202  1  0.10770274  0.09951948  0.14297105  1
  Ni  Ni203  1  -0.02063329  0.02686438  0.47140610  1
  Ni  Ni204  1  0.46418072  0.82739925  0.56171633  1
  Ni  Ni205  1  0.73166011  0.37435690  0.13399986  1
  Ni  Ni206  1  0.90863105  0.41516224  0.80812219  1
  Ni  Ni207  1  0.49180284  0.29061883  0.69514339  1
  Ni  Ni208  1  0.79684612  1.00705506  0.61944720  1
  Ni  Ni209  1  0.87745341  0.63966477  0.94830555  1
  Ni  Ni210  1  0.37248619  0.50250410  0.61714797  1
  Ni  Ni211  1  0.68781963  0.14327907  0.62765463  1
  Ni  Ni212  1  0.62394520  0.31094609  0.44681418  1
  Ni  Ni213  1  0.48655890  0.57341980  0.20754156  1
  Ni  Ni214  1  0.15031908  0.78539362  0.09886458  1
  Ni  Ni215  1  0.39367225  0.79445239  0.41397736  1
