# generated using pymatgen
data_Ti2CoNi
_symmetry_space_group_name_H-M   'P 1'
_cell_length_a   14.69277749
_cell_length_b   14.56251675
_cell_length_c   14.63618917
_cell_angle_alpha   90.40750454
_cell_angle_beta   90.28558315
_cell_angle_gamma   89.97753335
_symmetry_Int_Tables_number   1
_chemical_formula_structural   Ti2CoNi
_chemical_formula_sum   'Ti108 Co54 Ni54'
_cell_volume   3131.49661576
_cell_formula_units_Z   54
loop_
 _symmetry_equiv_pos_site_id
 _symmetry_equiv_pos_as_xyz
  1  'x, y, z'
loop_
 _atom_site_type_symbol
 _atom_site_label
 _atom_site_symmetry_multiplicity
 _atom_site_fract_x
 _atom_site_fract_y
 _atom_site_fract_z
 _atom_site_occupancy
  Ti  Ti0  1  -0.04993007  -0.06843830  -0.01054326  1
  Ti  Ti1  1  0.03373770  0.04353773  0.28074412  1
  Ti  Ti2  1  0.04010910  -0.03862513  0.62326316  1
  Ti  Ti3  1  -0.00772965  0.23617763  -0.02111270  1
  Ti  Ti4  1  0.00653837  0.39523530  0.34816794  1
  Ti  Ti5  1  -0.10047783  0.28047151  0.62555447  1
  Ti  Ti6  1  0.02635566  0.58720117  0.00252118  1
  Ti  Ti7  1  0.01217491  0.60500920  0.41758911  1
  Ti  Ti8  1  -0.00451299  0.62554032  0.69154934  1
  Ti  Ti9  1  0.31495864  -0.03477246  0.05158583  1
  Ti  Ti10  1  0.34573472  0.00761199  0.32305873  1
  Ti  Ti11  1  0.33053004  -0.07055270  0.66348911  1
  Ti  Ti12  1  0.34778397  0.36691981  -0.03488515  1
  Ti  Ti13  1  0.32156679  0.37342382  0.40258330  1
  Ti  Ti14  1  0.31331393  0.34293734  0.63104422  1
  Ti  Ti15  1  0.40535652  0.64742090  0.00477890  1
  Ti  Ti16  1  0.33182263  0.65791856  0.35939290  1
  Ti  Ti17  1  0.33776206  0.70670511  0.70774976  1
  Ti  Ti18  1  0.72135263  0.01268762  0.02585459  1
  Ti  Ti19  1  0.67644231  -0.00363471  0.33745957  1
  Ti  Ti20  1  0.56762185  0.03582703  0.66392500  1
  Ti  Ti21  1  0.73941043  0.38491309  0.00229617  1
  Ti  Ti22  1  0.71212457  0.29019952  0.25492278  1
  Ti  Ti23  1  0.64658711  0.31154483  0.69808352  1
  Ti  Ti24  1  0.59748279  0.70289079  -0.01258623  1
  Ti  Ti25  1  0.67215926  0.70376954  0.40805480  1
  Ti  Ti26  1  0.65780137  0.67107002  0.62221897  1
  Ti  Ti27  1  0.07304197  0.18094712  0.15595178  1
  Ti  Ti28  1  0.05654461  0.12059790  0.49218681  1
  Ti  Ti29  1  -0.01041328  0.21953355  0.78705688  1
  Ti  Ti30  1  -0.04310316  0.49026479  0.17368781  1
  Ti  Ti31  1  0.01255644  0.43201025  0.56262100  1
  Ti  Ti32  1  0.03903267  0.41072153  0.91512403  1
  Ti  Ti33  1  0.02865801  0.79820537  0.18229941  1
  Ti  Ti34  1  0.00484617  0.82444549  0.48951705  1
  Ti  Ti35  1  -0.07553914  0.76300966  0.82701435  1
  Ti  Ti36  1  0.35472204  0.16112569  0.15984198  1
  Ti  Ti37  1  0.40305944  0.08718445  0.55878863  1
  Ti  Ti38  1  0.28943881  0.15570420  0.89587711  1
  Ti  Ti39  1  0.32358946  0.58175896  0.16842702  1
  Ti  Ti40  1  0.35415774  0.51648361  0.57010166  1
  Ti  Ti41  1  0.29328380  0.56344548  0.83106232  1
  Ti  Ti42  1  0.34963257  0.76393122  0.19651009  1
  Ti  Ti43  1  0.37582215  0.78096664  0.53329215  1
  Ti  Ti44  1  0.24768339  0.84701060  0.82543045  1
  Ti  Ti45  1  0.62974567  0.11799432  0.16059335  1
  Ti  Ti46  1  0.63589331  0.26798904  0.44127778  1
  Ti  Ti47  1  0.68571638  0.06885673  0.83046592  1
  Ti  Ti48  1  0.66827723  0.56534377  0.13409943  1
  Ti  Ti49  1  0.63945219  0.44902810  0.53566810  1
  Ti  Ti50  1  0.71238661  0.46506757  0.82923365  1
  Ti  Ti51  1  0.65725842  0.82299755  0.12893029  1
  Ti  Ti52  1  0.66872341  0.87436621  0.53468432  1
  Ti  Ti53  1  0.72937397  0.85098963  0.77815065  1
  Ti  Ti54  1  0.11283104  -0.03937117  0.10042483  1
  Ti  Ti55  1  0.22974048  0.05675057  0.47723696  1
  Ti  Ti56  1  0.14680282  0.00228777  0.89405570  1
  Ti  Ti57  1  0.17281660  0.33732537  0.23665880  1
  Ti  Ti58  1  0.15137366  0.30466523  0.46396186  1
  Ti  Ti59  1  0.17633665  0.32068397  0.82805876  1
  Ti  Ti60  1  0.15523700  0.67332908  0.11869481  1
  Ti  Ti61  1  0.16938682  0.67434617  0.44662322  1
  Ti  Ti62  1  0.13560721  0.68515918  0.88132484  1
  Ti  Ti63  1  0.50973323  -0.01336905  0.10226530  1
  Ti  Ti64  1  0.55575565  0.07679662  0.45560783  1
  Ti  Ti65  1  0.45931826  0.06702803  0.83254990  1
  Ti  Ti66  1  0.49579973  0.33522635  0.16693022  1
  Ti  Ti67  1  0.45505605  0.27369229  0.49533140  1
  Ti  Ti68  1  0.50947706  0.36755283  0.81487438  1
  Ti  Ti69  1  0.50717609  0.65269022  0.16195310  1
  Ti  Ti70  1  0.48831345  0.61194047  0.47637274  1
  Ti  Ti71  1  0.49809118  0.66800476  0.81909547  1
  Ti  Ti72  1  0.84843887  0.00554344  0.18034277  1
  Ti  Ti73  1  0.86449960  0.04042801  0.53855752  1
  Ti  Ti74  1  0.87796733  0.05449328  0.74981604  1
  Ti  Ti75  1  0.87951574  0.29258473  0.13674326  1
  Ti  Ti76  1  0.83186512  0.31438828  0.42748005  1
  Ti  Ti77  1  0.86994559  0.36127965  0.83348970  1
  Ti  Ti78  1  0.79547843  0.70277447  0.21924983  1
  Ti  Ti79  1  0.84252175  0.71382029  0.51728267  1
  Ti  Ti80  1  0.73802930  0.66141810  0.84724505  1
  Ti  Ti81  1  0.18250006  0.27850515  0.02777670  1
  Ti  Ti82  1  0.20497592  0.17136986  0.31748215  1
  Ti  Ti83  1  0.16632656  0.17136896  0.70590191  1
  Ti  Ti84  1  0.19217874  0.46661212  0.08485181  1
  Ti  Ti85  1  0.17108686  0.53438302  0.28388164  1
  Ti  Ti86  1  0.16405835  0.46628421  0.70903519  1
  Ti  Ti87  1  0.21871198  0.80439074  0.00718445  1
  Ti  Ti88  1  0.23257740  0.84783010  0.38463883  1
  Ti  Ti89  1  0.15539915  0.76553006  0.62048334  1
  Ti  Ti90  1  0.57049970  0.19127824  -0.01887177  1
  Ti  Ti91  1  0.53395015  0.19575701  0.29497412  1
  Ti  Ti92  1  0.45796726  0.21735398  0.69483286  1
  Ti  Ti93  1  0.55127946  0.38950950  -0.01325736  1
  Ti  Ti94  1  0.45267822  0.49126236  0.29618821  1
  Ti  Ti95  1  0.44755140  0.51274088  0.72522551  1
  Ti  Ti96  1  0.44814062  0.86803192  -0.06882000  1
  Ti  Ti97  1  0.53019365  0.84220333  0.26416557  1
  Ti  Ti98  1  0.54099481  0.81826199  0.68400147  1
  Ti  Ti99  1  0.81800778  0.17126949  -0.05807882  1
  Ti  Ti100  1  0.89986328  0.14356249  0.36952307  1
  Ti  Ti101  1  0.73952910  0.15033411  0.63773584  1
  Ti  Ti102  1  0.84247037  0.55327481  0.01458848  1
  Ti  Ti103  1  0.84705613  0.53196691  0.37873745  1
  Ti  Ti104  1  0.79961594  0.54633043  0.66490654  1
  Ti  Ti105  1  0.76853606  0.83073418  -0.03755770  1
  Ti  Ti106  1  0.90213700  0.85373977  0.31713672  1
  Ti  Ti107  1  0.84992548  0.87607234  0.63447195  1
  Co  Co108  1  0.10055532  0.58031084  0.57372408  1
  Co  Co109  1  0.93358937  0.66544903  0.12287716  1
  Co  Co110  1  0.30221680  0.43865089  0.24208260  1
  Co  Co111  1  0.32627472  0.40514993  0.79815275  1
  Co  Co112  1  0.57316781  0.53477779  0.86185932  1
  Co  Co113  1  0.68793093  0.55842711  0.96932322  1
  Co  Co114  1  0.44047051  0.24406753  0.89552629  1
  Co  Co115  1  0.97195502  0.77939565  0.64469262  1
  Co  Co116  1  0.63632428  0.70391923  0.24986049  1
  Co  Co117  1  0.91583087  0.15684773  0.20849052  1
  Co  Co118  1  0.42678026  0.49881650  0.90414317  1
  Co  Co119  1  0.31090274  0.32433520  0.12911806  1
  Co  Co120  1  0.38416374  0.28661234  0.28046545  1
  Co  Co121  1  0.28749396  0.52474760  0.41565434  1
  Co  Co122  1  0.06186978  0.05899064  0.76233359  1
  Co  Co123  1  0.15279836  0.92484159  0.73087457  1
  Co  Co124  1  0.57259067  0.94473477  0.80948086  1
  Co  Co125  1  0.41705212  0.84373679  0.77977861  1
  Co  Co126  1  0.57905620  0.18746425  0.58389206  1
  Co  Co127  1  0.12241683  0.48158691  0.42468270  1
  Co  Co128  1  0.29065777  0.22047380  0.45573874  1
  Co  Co129  1  0.56396211  0.03383392  0.95705862  1
  Co  Co130  1  0.60037983  0.78813797  0.84721353  1
  Co  Co131  1  0.12120878  0.17339701  0.88362569  1
  Co  Co132  1  0.29050158  0.18686544  0.60556618  1
  Co  Co133  1  0.41372519  0.46278533  0.10087353  1
  Co  Co134  1  0.78560341  0.38671887  0.68698712  1
  Co  Co135  1  0.32516208  0.98543885  0.88091236  1
  Co  Co136  1  0.08294751  0.85361595  0.90777970  1
  Co  Co137  1  0.19600285  0.71013902  0.27246001  1
  Co  Co138  1  0.20585590  0.89064251  0.54696537  1
  Co  Co139  1  0.80224494  0.21647931  0.77673132  1
  Co  Co140  1  0.59438290  0.53274236  0.38390713  1
  Co  Co141  1  0.71933853  0.56590222  0.29475362  1
  Co  Co142  1  0.53946500  0.36134905  0.34645472  1
  Co  Co143  1  0.20276906  0.03595462  0.62977464  1
  Co  Co144  1  0.96360926  0.07499406  0.89480912  1
  Co  Co145  1  0.02145490  0.38021308  0.74113312  1
  Co  Co146  1  0.73599372  0.57221190  0.49136413  1
  Co  Co147  1  0.77594555  0.16029344  0.10940719  1
  Co  Co148  1  0.03440297  0.76165591  0.02362513  1
  Co  Co149  1  0.71434983  0.42165439  0.38228158  1
  Co  Co150  1  0.41062861  0.09603297  0.00286707  1
  Co  Co151  1  0.28323787  0.65052660  0.55461250  1
  Co  Co152  1  0.47253300  0.44370168  0.47100248  1
  Co  Co153  1  0.31962726  0.24578597  0.76686103  1
  Co  Co154  1  0.73817818  0.29104290  0.56085685  1
  Co  Co155  1  0.33362395  0.08239971  0.72485220  1
  Co  Co156  1  0.07934142  0.78358282  0.76214858  1
  Co  Co157  1  0.83089978  0.43062822  0.53675574  1
  Co  Co158  1  0.97985280  0.12834127  0.63519858  1
  Co  Co159  1  0.91729325  0.09577310  0.05653377  1
  Co  Co160  1  0.89230002  0.70658153  0.96621381  1
  Co  Co161  1  0.69705313  1.02452423  0.52143920  1
  Ni  Ni162  1  0.47437436  0.81436252  0.08959801  1
  Ni  Ni163  1  0.78139190  0.44236607  0.15323878  1
  Ni  Ni164  1  0.54328001  0.76918638  0.50855131  1
  Ni  Ni165  1  0.75089765  0.87538686  0.25005442  1
  Ni  Ni166  1  0.61421827  0.50393659  0.69623032  1
  Ni  Ni167  1  0.06423011  0.77340364  0.34617426  1
  Ni  Ni168  1  0.82009612  0.87850860  0.46214877  1
  Ni  Ni169  1  0.53081298  0.91691215  0.41058114  1
  Ni  Ni170  1  0.74926649  0.15027988  0.44010148  1
  Ni  Ni171  1  0.86537645  0.82931893  0.10843622  1
  Ni  Ni172  1  0.91571980  0.56690762  0.54486711  1
  Ni  Ni173  1  0.62664949  0.43622121  0.23375305  1
  Ni  Ni174  1  0.10064444  -0.04278829  0.43715866  1
  Ni  Ni175  1  0.19578838  0.46798338  0.91725676  1
  Ni  Ni176  1  0.24484127  0.61220585  -0.00461970  1
  Ni  Ni177  1  0.06524464  0.54435702  0.82433458  1
  Ni  Ni178  1  0.07366924  0.09282059  0.01510290  1
  Ni  Ni179  1  0.21938122  0.04798293  0.20207686  1
  Ni  Ni180  1  0.81568168  0.71606845  0.69756701  1
  Ni  Ni181  1  0.49089812  0.67919399  0.32159483  1
  Ni  Ni182  1  0.35362288  0.93861701  0.47778860  1
  Ni  Ni183  1  0.65341380  0.28796038  0.10058956  1
  Ni  Ni184  1  0.17386800  0.63511198  0.72138643  1
  Ni  Ni185  1  0.38871284  0.92161964  0.19613242  1
  Ni  Ni186  1  0.92308230  0.68644192  0.30941056  1
  Ni  Ni187  1  0.97415814  0.92069512  0.79658493  1
  Ni  Ni188  1  0.98611210  0.27123031  0.47213513  1
  Ni  Ni189  1  0.50808308  0.02868511  0.27220408  1
  Ni  Ni190  1  0.60564245  0.88238671  -0.01543140  1
  Ni  Ni191  1  0.04055671  0.22945729  0.31689872  1
  Ni  Ni192  1  0.49132024  0.92631581  0.56668548  1
  Ni  Ni193  1  0.75873015  0.69452448  0.05641845  1
  Ni  Ni194  1  0.04652325  0.62376346  0.23262751  1
  Ni  Ni195  1  0.33294618  0.72291162  0.88382936  1
  Ni  Ni196  1  0.40136638  0.81905087  0.36817995  1
  Ni  Ni197  1  0.49962643  0.38274648  0.62886132  1
  Ni  Ni198  1  0.48577174  0.65586663  0.63605092  1
  Ni  Ni199  1  0.20476154  0.44367650  0.55018971  1
  Ni  Ni200  1  0.53491314  0.54510860  0.02795976  1
  Ni  Ni201  1  0.90055741  0.55319472  0.85712266  1
  Ni  Ni202  1  0.85367186  0.39037946  0.28090634  1
  Ni  Ni203  1  0.82448512  0.97617624  0.89109872  1
  Ni  Ni204  1  0.90670642  0.39812944  1.01039883  1
  Ni  Ni205  1  0.40610621  0.14665039  0.37720021  1
  Ni  Ni206  1  0.12879857  0.91930497  0.27739860  1
  Ni  Ni207  1  0.75886006  0.13057000  0.27441105  1
  Ni  Ni208  1  0.07470500  0.27688052  0.61727589  1
  Ni  Ni209  1  0.69024463  0.29449462  0.87431450  1
  Ni  Ni210  1  0.23146950  0.10793276  1.04652584  1
  Ni  Ni211  1  0.94472442  0.98397658  0.41237574  1
  Ni  Ni212  1  0.72446822  -0.01750492  0.68129350  1
  Ni  Ni213  1  0.21881633  0.84941573  0.17047142  1
  Ni  Ni214  1  0.57932107  0.19495467  0.80633831  1
  Ni  Ni215  1  0.04817403  0.36298225  0.09636397  1
