# generated using pymatgen
data_Ti2CoNi
_symmetry_space_group_name_H-M   'P 1'
_cell_length_a   14.63209115
_cell_length_b   14.55271573
_cell_length_c   14.64534109
_cell_angle_alpha   89.71313386
_cell_angle_beta   90.03456138
_cell_angle_gamma   89.89017278
_symmetry_Int_Tables_number   1
_chemical_formula_structural   Ti2CoNi
_chemical_formula_sum   'Ti108 Co54 Ni54'
_cell_volume   3118.48465775
_cell_formula_units_Z   54
loop_
 _symmetry_equiv_pos_site_id
 _symmetry_equiv_pos_as_xyz
  1  'x, y, z'
loop_
 _atom_site_type_symbol
 _atom_site_label
 _atom_site_symmetry_multiplicity
 _atom_site_fract_x
 _atom_site_fract_y
 _atom_site_fract_z
 _atom_site_occupancy
  Ti  Ti0  1  -0.00731022  -0.04602485  -0.07041200  1
  Ti  Ti1  1  -0.04318809  0.05107140  0.25727762  1
  Ti  Ti2  1  0.03884419  0.08045069  0.68436167  1
  Ti  Ti3  1  -0.04535999  0.31257569  0.05252209  1
  Ti  Ti4  1  -0.00197262  0.39889975  0.36841427  1
  Ti  Ti5  1  -0.01645934  0.27435285  0.59339278  1
  Ti  Ti6  1  0.00403296  0.75017237  0.02521811  1
  Ti  Ti7  1  0.04076828  0.71667024  0.35138113  1
  Ti  Ti8  1  0.01660600  0.67711076  0.57218820  1
  Ti  Ti9  1  0.30491919  0.03886598  0.08642018  1
  Ti  Ti10  1  0.37906717  0.00295615  0.37965768  1
  Ti  Ti11  1  0.39481940  -0.00058267  0.66438400  1
  Ti  Ti12  1  0.40545446  0.27000940  0.08461727  1
  Ti  Ti13  1  0.35457051  0.44843618  0.29798784  1
  Ti  Ti14  1  0.28136736  0.37777457  0.69818478  1
  Ti  Ti15  1  0.29143846  0.68881588  -0.03735374  1
  Ti  Ti16  1  0.40757713  0.62674482  0.35900103  1
  Ti  Ti17  1  0.33504840  0.57037482  0.66787578  1
  Ti  Ti18  1  0.69468760  -0.02844999  -0.09844850  1
  Ti  Ti19  1  0.69514919  0.01459918  0.31888926  1
  Ti  Ti20  1  0.62510066  0.02964006  0.64228911  1
  Ti  Ti21  1  0.60071901  0.38154584  0.06521695  1
  Ti  Ti22  1  0.70395159  0.35050277  0.35510886  1
  Ti  Ti23  1  0.69943058  0.37051881  0.66570676  1
  Ti  Ti24  1  0.59074902  0.67173939  -0.00237131  1
  Ti  Ti25  1  0.67212545  0.65129422  0.34910532  1
  Ti  Ti26  1  0.68631894  0.70706852  0.70558146  1
  Ti  Ti27  1  0.06347828  0.23508286  0.22687752  1
  Ti  Ti28  1  -0.01011140  0.10047289  0.48850139  1
  Ti  Ti29  1  0.01007205  0.20484699  0.83440004  1
  Ti  Ti30  1  0.05503944  0.54135160  0.13857477  1
  Ti  Ti31  1  -0.04343235  0.48298590  0.55447599  1
  Ti  Ti32  1  0.00512774  0.49313759  0.83405873  1
  Ti  Ti33  1  0.04446543  0.87670776  0.18166995  1
  Ti  Ti34  1  -0.02788001  0.85798175  0.48713563  1
  Ti  Ti35  1  -0.06725914  0.75233476  0.83611733  1
  Ti  Ti36  1  0.37702025  0.13669278  0.22990377  1
  Ti  Ti37  1  0.28331226  0.24649903  0.50789431  1
  Ti  Ti38  1  0.27253997  0.11000955  0.81953998  1
  Ti  Ti39  1  0.26886114  0.55744587  0.15502484  1
  Ti  Ti40  1  0.40544833  0.48295163  0.50455533  1
  Ti  Ti41  1  0.39286759  0.49094199  0.83518646  1
  Ti  Ti42  1  0.34144664  0.85437760  0.15875961  1
  Ti  Ti43  1  0.28098850  0.84746654  0.52003645  1
  Ti  Ti44  1  0.37636907  0.83374546  0.81009423  1
  Ti  Ti45  1  0.64343160  0.15228129  0.12178893  1
  Ti  Ti46  1  0.69746874  0.21533682  0.52856567  1
  Ti  Ti47  1  0.59312418  0.15861925  0.85662508  1
  Ti  Ti48  1  0.72098531  0.54048291  0.10420416  1
  Ti  Ti49  1  0.70407619  0.50001307  0.47979183  1
  Ti  Ti50  1  0.67716852  0.46057150  0.84584931  1
  Ti  Ti51  1  0.63089768  0.76253371  0.17545919  1
  Ti  Ti52  1  0.57021147  0.78195528  0.43376346  1
  Ti  Ti53  1  0.60673258  0.80408461  0.86033376  1
  Ti  Ti54  1  0.09160919  0.07897538  0.07751170  1
  Ti  Ti55  1  0.24511515  0.04718220  0.51855052  1
  Ti  Ti56  1  0.17115223  -0.04652444  0.79480726  1
  Ti  Ti57  1  0.16308703  0.36678709  0.08404627  1
  Ti  Ti58  1  0.13354353  0.37971713  0.52166349  1
  Ti  Ti59  1  0.13820781  0.34247780  0.86951792  1
  Ti  Ti60  1  0.18455051  0.73326012  0.11522484  1
  Ti  Ti61  1  0.19502479  0.63612899  0.53129526  1
  Ti  Ti62  1  0.11129330  0.66294422  0.87996093  1
  Ti  Ti63  1  0.60356092  -0.03093629  0.15436368  1
  Ti  Ti64  1  0.54861784  -0.02780149  0.45529927  1
  Ti  Ti65  1  0.52107259  -0.02702260  0.82545072  1
  Ti  Ti66  1  0.55532186  0.27554597  0.24548516  1
  Ti  Ti67  1  0.55357991  0.32485105  0.50237618  1
  Ti  Ti68  1  0.50206795  0.35306797  0.89734148  1
  Ti  Ti69  1  0.43212249  0.69657527  0.10331421  1
  Ti  Ti70  1  0.39312211  0.69117752  0.52584150  1
  Ti  Ti71  1  0.49706694  0.65716431  0.78814028  1
  Ti  Ti72  1  0.79169608  -0.07261293  0.16515939  1
  Ti  Ti73  1  0.79012654  -0.06906903  0.51472789  1
  Ti  Ti74  1  0.85957742  0.08082098  0.85183933  1
  Ti  Ti75  1  0.84518184  0.28751100  0.21903443  1
  Ti  Ti76  1  0.85598334  0.31169999  0.44604543  1
  Ti  Ti77  1  0.80106448  0.29798889  0.86386319  1
  Ti  Ti78  1  0.87845605  0.75532330  0.17102576  1
  Ti  Ti79  1  0.83769873  0.69034056  0.50782325  1
  Ti  Ti80  1  0.83132195  0.59308461  0.82185687  1
  Ti  Ti81  1  0.23985280  0.20397437  -0.00850382  1
  Ti  Ti82  1  0.20028073  0.13075171  0.33701319  1
  Ti  Ti83  1  0.15774941  0.23613701  0.69851135  1
  Ti  Ti84  1  0.23243538  0.49186198  -0.07548933  1
  Ti  Ti85  1  0.16282808  0.41797953  0.28908734  1
  Ti  Ti86  1  0.17523209  0.52674943  0.74546025  1
  Ti  Ti87  1  0.15565144  0.86293478  -0.03340108  1
  Ti  Ti88  1  0.19232214  0.83265194  0.28960118  1
  Ti  Ti89  1  0.10622059  0.83958914  0.64170738  1
  Ti  Ti90  1  0.43016132  0.09226085  -0.04042210  1
  Ti  Ti91  1  0.45196831  0.18570128  0.39644920  1
  Ti  Ti92  1  0.50235931  0.20740277  0.65473456  1
  Ti  Ti93  1  0.41040718  0.47876807  0.04746857  1
  Ti  Ti94  1  0.54664661  0.46691108  0.34723723  1
  Ti  Ti95  1  0.50045306  0.42263505  0.69658412  1
  Ti  Ti96  1  0.47862720  0.91873335  0.02178689  1
  Ti  Ti97  1  0.39103008  0.82502901  0.34994270  1
  Ti  Ti98  1  0.53611150  0.86142860  0.67014101  1
  Ti  Ti99  1  0.80251871  0.17965993  0.02631654  1
  Ti  Ti100  1  0.81357552  0.14622834  0.37291328  1
  Ti  Ti101  1  0.83990982  0.08855658  0.65700009  1
  Ti  Ti102  1  0.85694112  0.47389856  -0.02215800  1
  Ti  Ti103  1  0.90435033  0.55943542  0.27174089  1
  Ti  Ti104  1  0.79447544  0.54816950  0.64636555  1
  Ti  Ti105  1  0.81336902  0.83506725  -0.01144551  1
  Ti  Ti106  1  0.88467961  0.86840786  0.32632287  1
  Ti  Ti107  1  0.84193467  0.86635455  0.69179919  1
  Co  Co108  1  0.48720290  0.41904613  0.18536494  1
  Co  Co109  1  0.75615868  0.02252565  0.04067767  1
  Co  Co110  1  0.54571147  0.08443772  0.28239822  1
  Co  Co111  1  0.76749301  0.64829096  0.22248672  1
  Co  Co112  1  0.39845962  0.29696824  0.25562709  1
  Co  Co113  1  0.59252498  0.05298404  0.99422869  1
  Co  Co114  1  0.39294139  0.33220118  0.58943975  1
  Co  Co115  1  0.85949451  0.71122802  0.34524315  1
  Co  Co116  1  0.74429389  0.70803759  0.07380792  1
  Co  Co117  1  0.25266302  0.47456042  0.55949242  1
  Co  Co118  1  0.27179366  0.27354149  0.82518557  1
  Co  Co119  1  0.76435014  0.75880376  0.84104375  1
  Co  Co120  1  0.48599778  0.09433909  0.11441938  1
  Co  Co121  1  0.40772911  0.75379714  0.67371208  1
  Co  Co122  1  0.35000339  0.97426790  0.87762734  1
  Co  Co123  1  0.10006644  0.52657677  0.44610125  1
  Co  Co124  1  0.85776358  0.67348483  0.96749013  1
  Co  Co125  1  0.21512980  0.95278160  0.39091077  1
  Co  Co126  1  0.55662811  0.55219703  0.11252595  1
  Co  Co127  1  0.43199952  0.57312476  0.21055874  1
  Co  Co128  1  0.95623986  0.34979757  0.88810861  1
  Co  Co129  1  0.41762400  0.29535739  0.75883477  1
  Co  Co130  1  0.07656485  0.23370348  0.99292804  1
  Co  Co131  1  0.10970434  0.97342198  0.55340716  1
  Co  Co132  1  0.30402360  0.37896717  0.15305369  1
  Co  Co133  1  0.09554933  0.52315432  0.61798575  1
  Co  Co134  1  0.71548160  0.59629739  0.93609443  1
  Co  Co135  1  0.03889470  0.69985586  0.19038950  1
  Co  Co136  1  0.44536715  0.86369225  0.52861794  1
  Co  Co137  1  0.05594747  0.44149560  -0.01027475  1
  Co  Co138  1  0.61964946  0.19089418  0.38850064  1
  Co  Co139  1  0.65924457  0.41843817  0.21257295  1
  Co  Co140  1  0.21234746  0.01859631  0.96063727  1
  Co  Co141  1  0.31801537  0.36069721  0.96353730  1
  Co  Co142  1  0.88905395  1.00468526  0.40842350  1
  Co  Co143  1  0.85435584  0.42638676  0.75959622  1
  Co  Co144  1  0.53339660  0.60273510  0.46064822  1
  Co  Co145  1  0.48551051  0.58668649  0.64285674  1
  Co  Co146  1  0.09042259  0.07844801  -0.12084222  1
  Co  Co147  1  0.74298800  0.79522669  0.43686154  1
  Co  Co148  1  0.89909467  0.26102730  0.74426745  1
  Co  Co149  1  0.95563633  0.12235472  0.98087049  1
  Co  Co150  1  0.05848824  -0.01782544  0.38664305  1
  Co  Co151  1  0.11929167  1.02221815  0.23959731  1
  Co  Co152  1  0.56528541  0.50873589  0.95018863  1
  Co  Co153  1  0.18966817  0.91982450  0.11411481  1
  Co  Co154  1  0.81842154  0.40090599  0.56825929  1
  Co  Co155  1  -0.00889096  0.59127013  0.97111882  1
  Co  Co156  1  0.94127045  0.16502379  0.13530214  1
  Co  Co157  1  0.70781107  0.20693254  0.26280415  1
  Co  Co158  1  0.55139983  0.89193988  0.30244174  1
  Co  Co159  1  0.83707823  0.91432592  0.84611207  1
  Co  Co160  1  0.40048401  0.23053898  0.90510086  1
  Co  Co161  1  0.26832048  0.90047240  0.66997951  1
  Ni  Ni162  1  0.53967627  0.21957417  0.01107072  1
  Ni  Ni163  1  0.66146283  0.29359269  0.93635043  1
  Ni  Ni164  1  0.68081224  0.82789998  0.58602008  1
  Ni  Ni165  1  0.67746782  0.66178284  0.52657910  1
  Ni  Ni166  1  0.71375748  0.83978801  0.29062746  1
  Ni  Ni167  1  0.32721026  0.18339924  0.66384523  1
  Ni  Ni168  1  0.77205480  0.35327736  0.06515991  1
  Ni  Ni169  1  0.44069310  0.97193255  0.21480750  1
  Ni  Ni170  1  0.20522363  0.06356210  0.67065503  1
  Ni  Ni171  1  0.71017102  0.07740525  0.77000412  1
  Ni  Ni172  1  0.12898276  0.81784474  0.45826213  1
  Ni  Ni173  1  0.69976863  0.05725719  0.48153648  1
  Ni  Ni174  1  0.49607939  0.72618268  0.26342533  1
  Ni  Ni175  1  0.97484997  0.59896071  0.71678853  1
  Ni  Ni176  1  0.93312508  0.93760393  0.08295994  1
  Ni  Ni177  1  0.96670272  0.21712260  0.36409956  1
  Ni  Ni178  1  0.31701222  0.85457758  -0.00503814  1
  Ni  Ni179  1  0.22921824  0.21377683  0.16813841  1
  Ni  Ni180  1  0.40060151  0.09600159  0.52864014  1
  Ni  Ni181  1  0.12866539  0.17345599  0.54843794  1
  Ni  Ni182  1  0.54613223  0.72277401  0.59256080  1
  Ni  Ni183  1  0.26832703  0.29027879  0.34170073  1
  Ni  Ni184  1  0.57419374  0.47770836  0.56183484  1
  Ni  Ni185  1  0.84460413  0.47658208  0.40814315  1
  Ni  Ni186  1  0.79626619  0.09697779  0.18630059  1
  Ni  Ni187  1  0.31332031  0.70570396  0.23358768  1
  Ni  Ni188  1  0.25213801  0.70964162  0.39343110  1
  Ni  Ni189  1  0.88926700  0.59653280  0.10814318  1
  Ni  Ni190  1  0.41409558  0.34462997  0.41625454  1
  Ni  Ni191  1  0.63489830  0.54227643  0.70417525  1
  Ni  Ni192  1  0.95733199  0.59411387  0.42471647  1
  Ni  Ni193  1  0.82357352  0.24577437  0.61153627  1
  Ni  Ni194  1  0.43940612  0.11291433  0.78011569  1
  Ni  Ni195  1  0.25323731  0.53710575  0.39770964  1
  Ni  Ni196  1  0.55604735  0.12778572  0.52230262  1
  Ni  Ni197  1  0.68877419  0.90272208  0.74216688  1
  Ni  Ni198  1  0.06729106  0.82586141  0.81573018  1
  Ni  Ni199  1  0.22011729  0.78444637  0.81705841  1
  Ni  Ni200  1  0.97321361  0.95480659  0.76558511  1
  Ni  Ni201  1  0.60102005  0.30101412  0.77321334  1
  Ni  Ni202  1  0.04660540  0.36996286  0.71881652  1
  Ni  Ni203  1  1.00581924  0.39776488  0.20149821  1
  Ni  Ni204  1  0.27720174  -0.01027456  0.24471836  1
  Ni  Ni205  1  0.64175320  0.85278154  0.02780427  1
  Ni  Ni206  1  0.11738869  0.26482629  0.39894646  1
  Ni  Ni207  1  0.15742887  0.58902496  0.02675714  1
  Ni  Ni208  1  0.11456227  0.68423459  0.71541692  1
  Ni  Ni209  1  0.16160394  0.61719557  0.27584438  1
  Ni  Ni210  1  0.45898748  0.77405244  0.94259480  1
  Ni  Ni211  1  0.94904122  -0.03578474  0.60464193  1
  Ni  Ni212  1  0.25353741  0.73336665  0.65617304  1
  Ni  Ni213  1  0.43561617  0.61119649  0.94696009  1
  Ni  Ni214  1  0.30946298  0.65066251  0.80512582  1
  Ni  Ni215  1  0.85783619  0.70288643  0.68527238  1
