# generated using pymatgen
data_Ti2CoNi
_symmetry_space_group_name_H-M   'P 1'
_cell_length_a   14.45501814
_cell_length_b   14.55051431
_cell_length_c   14.54121704
_cell_angle_alpha   89.94663670
_cell_angle_beta   89.90102324
_cell_angle_gamma   89.89291293
_symmetry_Int_Tables_number   1
_chemical_formula_structural   Ti2CoNi
_chemical_formula_sum   'Ti108 Co54 Ni54'
_cell_volume   3058.41312130
_cell_formula_units_Z   54
loop_
 _symmetry_equiv_pos_site_id
 _symmetry_equiv_pos_as_xyz
  1  'x, y, z'
loop_
 _atom_site_type_symbol
 _atom_site_label
 _atom_site_symmetry_multiplicity
 _atom_site_fract_x
 _atom_site_fract_y
 _atom_site_fract_z
 _atom_site_occupancy
  Ti  Ti0  1  0.03270620  0.08388570  -0.03142962  1
  Ti  Ti1  1  -0.01804277  -0.00040401  0.37670054  1
  Ti  Ti2  1  0.04914556  0.09306289  0.68669460  1
  Ti  Ti3  1  -0.04569540  0.31165714  -0.02685996  1
  Ti  Ti4  1  0.00243760  0.34303860  0.25556530  1
  Ti  Ti5  1  -0.03166204  0.29724677  0.67131138  1
  Ti  Ti6  1  -0.01527650  0.67552636  -0.05691830  1
  Ti  Ti7  1  -0.11480389  0.65970319  0.30850381  1
  Ti  Ti8  1  0.01958981  0.63541439  0.62508654  1
  Ti  Ti9  1  0.28047232  -0.03104364  -0.02074774  1
  Ti  Ti10  1  0.26596066  0.11713469  0.41509936  1
  Ti  Ti11  1  0.29888981  -0.06119395  0.65318248  1
  Ti  Ti12  1  0.31559342  0.36583956  -0.00290030  1
  Ti  Ti13  1  0.22209605  0.33233121  0.31758809  1
  Ti  Ti14  1  0.35570141  0.30904328  0.57841447  1
  Ti  Ti15  1  0.29437885  0.56499928  -0.03120753  1
  Ti  Ti16  1  0.35621785  0.75714755  0.28707575  1
  Ti  Ti17  1  0.31161967  0.74410030  0.68963019  1
  Ti  Ti18  1  0.65510238  -0.05151995  -0.08183546  1
  Ti  Ti19  1  0.59581752  0.01675742  0.44433771  1
  Ti  Ti20  1  0.62450635  -0.01546806  0.73977553  1
  Ti  Ti21  1  0.72009752  0.24285099  0.00548822  1
  Ti  Ti22  1  0.66611869  0.36849253  0.36334120  1
  Ti  Ti23  1  0.65240022  0.47837014  0.59487251  1
  Ti  Ti24  1  0.65639928  0.60371452  0.01818730  1
  Ti  Ti25  1  0.68560015  0.66769819  0.27675922  1
  Ti  Ti26  1  0.62693643  0.66705598  0.67362059  1
  Ti  Ti27  1  -0.02510832  0.06901554  0.19783119  1
  Ti  Ti28  1  -0.00389692  0.15115696  0.51872517  1
  Ti  Ti29  1  -0.04151589  0.18395672  0.82626314  1
  Ti  Ti30  1  0.02230943  0.54589592  0.19621158  1
  Ti  Ti31  1  -0.02255900  0.44924936  0.53907385  1
  Ti  Ti32  1  0.09483371  0.50987096  0.84198510  1
  Ti  Ti33  1  0.02810818  0.85849687  0.11152746  1
  Ti  Ti34  1  0.05686634  0.73842455  0.43426316  1
  Ti  Ti35  1  -0.03626618  0.88056283  0.87846767  1
  Ti  Ti36  1  0.39859695  0.14014052  0.17960986  1
  Ti  Ti37  1  0.32095883  0.13277304  0.61367871  1
  Ti  Ti38  1  0.32635571  0.08638524  0.80426304  1
  Ti  Ti39  1  0.36383898  0.60329417  0.18060727  1
  Ti  Ti40  1  0.38514074  0.50012171  0.47438762  1
  Ti  Ti41  1  0.28578256  0.46707308  0.82007023  1
  Ti  Ti42  1  0.35640383  0.88375001  0.15885821  1
  Ti  Ti43  1  0.40609347  0.85248048  0.50316847  1
  Ti  Ti44  1  0.40805009  0.74527049  0.87240412  1
  Ti  Ti45  1  0.71002479  0.10254844  0.16996499  1
  Ti  Ti46  1  0.64196555  0.20911079  0.49176959  1
  Ti  Ti47  1  0.65617178  0.27846013  0.82305699  1
  Ti  Ti48  1  0.60711628  0.49465004  0.20166659  1
  Ti  Ti49  1  0.76047929  0.52756331  0.44410205  1
  Ti  Ti50  1  0.68251700  0.47424121  0.88386954  1
  Ti  Ti51  1  0.67779609  0.85003571  0.23944243  1
  Ti  Ti52  1  0.68621704  0.84029625  0.56806104  1
  Ti  Ti53  1  0.71938973  0.81307197  0.75836890  1
  Ti  Ti54  1  0.19875077  0.00379717  0.19012747  1
  Ti  Ti55  1  0.10551706  -0.08978485  0.53630454  1
  Ti  Ti56  1  0.14635623  -0.00755249  0.81468104  1
  Ti  Ti57  1  0.14381186  0.36808155  0.11911819  1
  Ti  Ti58  1  0.20798589  0.41670251  0.49982953  1
  Ti  Ti59  1  0.24525457  0.25435622  0.87969457  1
  Ti  Ti60  1  0.17529034  0.66236090  0.19748479  1
  Ti  Ti61  1  0.26549011  0.66125952  0.48132980  1
  Ti  Ti62  1  0.12904199  0.66379455  0.76074302  1
  Ti  Ti63  1  0.51842688  -0.01479430  0.13678895  1
  Ti  Ti64  1  0.42860442  0.03850090  0.51008887  1
  Ti  Ti65  1  0.45812367  -0.03631099  0.88635362  1
  Ti  Ti66  1  0.47211413  0.32964730  0.09600598  1
  Ti  Ti67  1  0.51780802  0.36906439  0.53877042  1
  Ti  Ti68  1  0.46419004  0.30720785  0.86180560  1
  Ti  Ti69  1  0.52888167  0.72342951  0.15137245  1
  Ti  Ti70  1  0.58479171  0.65558766  0.44204477  1
  Ti  Ti71  1  0.58726840  0.64847887  0.85713282  1
  Ti  Ti72  1  0.83146510  -0.05327260  0.16731212  1
  Ti  Ti73  1  0.82563192  0.01383894  0.48836348  1
  Ti  Ti74  1  0.83664736  0.01669695  0.73054261  1
  Ti  Ti75  1  0.85517375  0.28735748  0.15473756  1
  Ti  Ti76  1  0.81673796  0.33470175  0.49618771  1
  Ti  Ti77  1  0.85629824  0.38687085  0.82801479  1
  Ti  Ti78  1  0.79208491  0.61215706  0.13094324  1
  Ti  Ti79  1  0.86769803  0.72823401  0.50285386  1
  Ti  Ti80  1  0.88611673  0.60650838  0.77804579  1
  Ti  Ti81  1  0.25337326  0.16923800  0.06723711  1
  Ti  Ti82  1  0.07799462  0.20506168  0.36747730  1
  Ti  Ti83  1  0.17814451  0.26704376  0.66854054  1
  Ti  Ti84  1  0.09997670  0.54481259  0.02615074  1
  Ti  Ti85  1  0.22189470  0.52659660  0.33125407  1
  Ti  Ti86  1  0.11448977  0.45971924  0.65916221  1
  Ti  Ti87  1  0.26436529  0.72358311  0.04691277  1
  Ti  Ti88  1  0.22480216  0.88913174  0.36039562  1
  Ti  Ti89  1  0.12862491  0.83717824  0.71085428  1
  Ti  Ti90  1  0.57110825  0.13030138  -0.02079437  1
  Ti  Ti91  1  0.56336116  0.16704383  0.29699134  1
  Ti  Ti92  1  0.50575911  0.21523361  0.68159202  1
  Ti  Ti93  1  0.48594734  0.48184610  -0.07324549  1
  Ti  Ti94  1  0.45773451  0.44406489  0.31172117  1
  Ti  Ti95  1  0.40517690  0.52894830  0.67432753  1
  Ti  Ti96  1  0.54965126  0.82765852  0.00533213  1
  Ti  Ti97  1  0.48176857  0.92695632  0.32504276  1
  Ti  Ti98  1  0.47136429  0.85239542  0.71017604  1
  Ti  Ti99  1  0.87206861  0.13008536  0.04569373  1
  Ti  Ti100  1  0.86720002  0.18954475  0.35055107  1
  Ti  Ti101  1  0.70021493  0.14873008  0.69517053  1
  Ti  Ti102  1  0.80520102  0.44167902  0.02607691  1
  Ti  Ti103  1  0.92470766  0.48399773  0.35348282  1
  Ti  Ti104  1  0.83506447  0.54434465  0.61150770  1
  Ti  Ti105  1  0.80725890  0.85876339  0.01139082  1
  Ti  Ti106  1  0.86412985  0.84918179  0.33365687  1
  Ti  Ti107  1  0.87347811  0.85567000  0.64879094  1
  Co  Co108  1  0.19171519  0.09798136  0.93722288  1
  Co  Co109  1  0.46606555  0.19630299  0.50147016  1
  Co  Co110  1  0.99149161  0.93711114  0.73331189  1
  Co  Co111  1  0.71296350  0.42197025  0.74019256  1
  Co  Co112  1  0.51322243  0.29703802  0.39084358  1
  Co  Co113  1  0.11403582  0.09935109  0.10106019  1
  Co  Co114  1  0.39582562  0.66763987  0.57458908  1
  Co  Co115  1  -0.03575994  0.99100858  0.58025317  1
  Co  Co116  1  0.27012705  0.64704084  0.82375888  1
  Co  Co117  1  -0.01747286  0.42211574  0.08435143  1
  Co  Co118  1  0.57988147  0.49037934  0.41811930  1
  Co  Co119  1  -0.02660349  0.75451659  0.76421132  1
  Co  Co120  1  0.57492589  0.84070989  0.43676741  1
  Co  Co121  1  0.81981987  0.25709910  0.73070281  1
  Co  Co122  1  0.51298378  0.55720400  0.56279037  1
  Co  Co123  1  0.97067718  0.47228243  0.73424371  1
  Co  Co124  1  0.95977970  0.30494911  0.43389255  1
  Co  Co125  1  0.63149676  0.01161038  0.26785794  1
  Co  Co126  1  0.40858770  0.28024373  0.27024953  1
  Co  Co127  1  0.38767307  0.84641654  1.00730259  1
  Co  Co128  1  0.15420241  0.67450232  0.93368504  1
  Co  Co129  1  0.18811886  0.81906490  0.22469271  1
  Co  Co130  1  0.87155244  0.46874363  0.18691919  1
  Co  Co131  1  0.32983888  0.42490376  0.22452808  1
  Co  Co132  1  1.01002175  0.79515183  0.60824986  1
  Co  Co133  1  0.19835246  0.71758853  0.35056641  1
  Co  Co134  1  0.53085537  0.77165946  0.30132913  1
  Co  Co135  1  0.53020754  0.75976202  0.57411847  1
  Co  Co136  1  0.83065542  0.39352470  0.63954248  1
  Co  Co137  1  0.41824981  0.13897497  0.35302927  1
  Co  Co138  1  0.50971044  0.61310259  0.28399160  1
  Co  Co139  1  0.12152084  0.03521567  0.42981422  1
  Co  Co140  1  0.74238470  0.04698135  0.00809656  1
  Co  Co141  1  0.29349987  0.28412872  0.16564331  1
  Co  Co142  1  0.66492343  0.93344531  0.10116179  1
  Co  Co143  1  0.92395398  0.57513119  0.06131575  1
  Co  Co144  1  0.24857610  0.15689505  0.26405274  1
  Co  Co145  1  0.93982280  0.59756867  0.46379322  1
  Co  Co146  1  0.47875770  0.68072672  0.72140583  1
  Co  Co147  1  0.81466079  0.19735268  0.88804944  1
  Co  Co148  1  0.36116298  0.60188730  0.34708645  1
  Co  Co149  1  0.99531430  0.21418914  0.11373692  1
  Co  Co150  1  0.93208522  0.97121681  0.03743190  1
  Co  Co151  1  0.13496043  0.16644344  0.80638113  1
  Co  Co152  1  0.95557719  0.86638480  0.46873248  1
  Co  Co153  1  0.56633631  0.33380495  0.23247510  1
  Co  Co154  1  0.43908514  0.71862956  0.42849759  1
  Co  Co155  1  0.80301518  0.89728227  0.85061169  1
  Co  Co156  1  0.69092346  0.10145705  0.86047777  1
  Co  Co157  1  0.41610113  0.58084515  0.82991033  1
  Co  Co158  1  0.05286488  0.69745154  0.09369826  1
  Co  Co159  1  0.16829963  0.07719716  0.58032537  1
  Co  Co160  1  0.10363870  0.24370224  0.98548892  1
  Co  Co161  1  0.55987187  0.36569015  0.70092053  1
  Ni  Ni162  1  0.59662034  0.35918155  0.97740417  1
  Ni  Ni163  1  0.32860139  0.24166990  0.74228815  1
  Ni  Ni164  1  0.42989723  0.68103175  0.02154341  1
  Ni  Ni165  1  0.06861634  0.60268844  0.34496443  1
  Ni  Ni166  1  0.23233051  0.50736019  0.12402391  1
  Ni  Ni167  1  0.95162929  0.50020114  0.91793251  1
  Ni  Ni168  1  0.82217336  0.76395983  0.19214743  1
  Ni  Ni169  1  0.44631756  0.02501652  0.69500293  1
  Ni  Ni170  1  0.72008352  0.24611538  0.26224551  1
  Ni  Ni171  1  0.81108096  0.59820618  0.93963527  1
  Ni  Ni172  1  0.08270246  0.43011813  0.37887202  1
  Ni  Ni173  1  0.07485688  0.31049857  0.54491914  1
  Ni  Ni174  1  0.59556122  0.21744860  0.12873936  1
  Ni  Ni175  1  0.52824842  0.12500958  0.81834999  1
  Ni  Ni176  1  0.21336033  0.24417151  0.49694249  1
  Ni  Ni177  1  0.26766001  0.42184370  0.66492392  1
  Ni  Ni178  1  0.70462418  1.01154146  0.59099299  1
  Ni  Ni179  1  0.71252265  0.12033590  0.37415126  1
  Ni  Ni180  1  0.54418257  0.92884775  0.58206627  1
  Ni  Ni181  1  0.71946416  0.66650439  0.53779889  1
  Ni  Ni182  1  0.19572966  0.86015844  0.07711364  1
  Ni  Ni183  1  0.10551734  0.93664815  0.97268021  1
  Ni  Ni184  1  0.42270934  0.05337094  0.02615213  1
  Ni  Ni185  1  0.75249223  0.50980229  0.28350733  1
  Ni  Ni186  1  0.52040918  0.56513540  0.08300612  1
  Ni  Ni187  1  0.80767062  0.70464564  0.66850987  1
  Ni  Ni188  1  0.11388112  0.55675104  0.50451867  1
  Ni  Ni189  1  0.85025988  0.74142596  0.86967243  1
  Ni  Ni190  1  0.72031545  0.38019599  0.16309838  1
  Ni  Ni191  1  0.68114419  0.31092298  0.61039110  1
  Ni  Ni192  1  0.87202935  0.04116240  0.88963033  1
  Ni  Ni193  1  0.35221814  0.33775340  0.41843458  1
  Ni  Ni194  1  0.56975130  0.81874664  0.82689337  1
  Ni  Ni195  1  0.82482261  0.02686324  0.30789964  1
  Ni  Ni196  1  0.71393153  0.93119873  0.38129385  1
  Ni  Ni197  1  0.56066081  0.51604510  0.74995433  1
  Ni  Ni198  1  0.34454044  1.01130441  0.28948966  1
  Ni  Ni199  1  0.86110610  0.13478620  0.61769978  1
  Ni  Ni200  1  0.11902144  0.22626915  0.20884104  1
  Ni  Ni201  1  0.24670577  0.59203713  0.63980690  1
  Ni  Ni202  1  0.06788663  0.92459880  0.26311108  1
  Ni  Ni203  1  0.26705783  0.96877975  0.49451267  1
  Ni  Ni204  1  0.39364114  0.47767056  0.08185390  1
  Ni  Ni205  1  0.83239103  0.35749760  0.31372267  1
  Ni  Ni206  1  0.40781415  0.37451651  0.72665993  1
  Ni  Ni207  1  0.69387403  0.75818812  0.08547962  1
  Ni  Ni208  1  0.56577764  0.09528085  0.59507521  1
  Ni  Ni209  1  0.69643540  0.76171911  0.91707664  1
  Ni  Ni210  1  0.07861833  0.31980610  0.81517062  1
  Ni  Ni211  1  0.72823857  0.77327430  0.41073390  1
  Ni  Ni212  1  0.24660420  0.80880731  0.54365484  1
  Ni  Ni213  1  0.38700325  0.17769627  0.93656764  1
  Ni  Ni214  1  0.15695558  0.39592241  0.94693560  1
  Ni  Ni215  1  0.31331444  0.88662540  0.80979675  1
