# generated using pymatgen
data_Ti2CoNi
_symmetry_space_group_name_H-M   'P 1'
_cell_length_a   14.42120929
_cell_length_b   14.47913379
_cell_length_c   14.46345503
_cell_angle_alpha   89.98515928
_cell_angle_beta   90.23422537
_cell_angle_gamma   90.03350588
_symmetry_Int_Tables_number   1
_chemical_formula_structural   Ti2CoNi
_chemical_formula_sum   'Ti108 Co54 Ni54'
_cell_volume   3020.03928858
_cell_formula_units_Z   54
loop_
 _symmetry_equiv_pos_site_id
 _symmetry_equiv_pos_as_xyz
  1  'x, y, z'
loop_
 _atom_site_type_symbol
 _atom_site_label
 _atom_site_symmetry_multiplicity
 _atom_site_fract_x
 _atom_site_fract_y
 _atom_site_fract_z
 _atom_site_occupancy
  Ti  Ti0  1  -0.09459037  0.01753082  0.02106197  1
  Ti  Ti1  1  -0.02773544  0.02382192  0.31432476  1
  Ti  Ti2  1  -0.04510469  0.02937825  0.65323605  1
  Ti  Ti3  1  0.02463425  0.37703460  0.06838824  1
  Ti  Ti4  1  -0.04935067  0.33344743  0.28412654  1
  Ti  Ti5  1  0.07814285  0.39491504  0.69966489  1
  Ti  Ti6  1  0.05278040  0.67226748  0.01529474  1
  Ti  Ti7  1  -0.04399280  0.65948641  0.30934975  1
  Ti  Ti8  1  -0.08889557  0.67500883  0.68847708  1
  Ti  Ti9  1  0.36343479  -0.03749244  -0.04019082  1
  Ti  Ti10  1  0.37215222  0.00706045  0.32268076  1
  Ti  Ti11  1  0.36791234  0.02089866  0.62165674  1
  Ti  Ti12  1  0.43638562  0.27463035  0.03118918  1
  Ti  Ti13  1  0.31833390  0.33838555  0.38584171  1
  Ti  Ti14  1  0.38513623  0.33754749  0.65816578  1
  Ti  Ti15  1  0.38433394  0.76101615  -0.03189166  1
  Ti  Ti16  1  0.42461334  0.66237588  0.31117067  1
  Ti  Ti17  1  0.34406657  0.69994128  0.73725973  1
  Ti  Ti18  1  0.66348921  -0.02482937  0.03710827  1
  Ti  Ti19  1  0.68694051  0.06389502  0.36092451  1
  Ti  Ti20  1  0.67977355  -0.06065957  0.64451350  1
  Ti  Ti21  1  0.64037871  0.35470473  0.00947399  1
  Ti  Ti22  1  0.61070947  0.34059479  0.27979126  1
  Ti  Ti23  1  0.62482010  0.33439814  0.67421710  1
  Ti  Ti24  1  0.65138223  0.54524896  -0.04238836  1
  Ti  Ti25  1  0.62141200  0.69236777  0.37856472  1
  Ti  Ti26  1  0.71168636  0.69025848  0.64597564  1
  Ti  Ti27  1  -0.03342825  0.17842459  0.15050407  1
  Ti  Ti28  1  0.04629415  0.09959592  0.47942995  1
  Ti  Ti29  1  0.07038680  0.13796070  0.93158648  1
  Ti  Ti30  1  0.07316469  0.48761218  0.27658728  1
  Ti  Ti31  1  0.02597115  0.50692447  0.53545429  1
  Ti  Ti32  1  -0.05838706  0.47535424  0.74632144  1
  Ti  Ti33  1  -0.01249733  0.82497004  0.17726432  1
  Ti  Ti34  1  0.03536499  0.79976145  0.57780787  1
  Ti  Ti35  1  -0.04494421  0.80039609  0.86154525  1
  Ti  Ti36  1  0.34525117  0.08438258  0.16739029  1
  Ti  Ti37  1  0.24653426  0.18589245  0.59000242  1
  Ti  Ti38  1  0.34085227  0.22041109  0.82985738  1
  Ti  Ti39  1  0.26574689  0.60168449  0.13263927  1
  Ti  Ti40  1  0.36520157  0.51445583  0.51923908  1
  Ti  Ti41  1  0.31510282  0.39386824  0.92511356  1
  Ti  Ti42  1  0.34885445  0.84219974  0.19869396  1
  Ti  Ti43  1  0.33379755  0.81324823  0.41192718  1
  Ti  Ti44  1  0.33551299  0.88762315  0.76753040  1
  Ti  Ti45  1  0.67967089  0.12855314  0.18062543  1
  Ti  Ti46  1  0.72073724  0.16525372  0.50562306  1
  Ti  Ti47  1  0.65849367  0.07856007  0.80047894  1
  Ti  Ti48  1  0.66587688  0.60038627  0.14920843  1
  Ti  Ti49  1  0.65775974  0.50464048  0.54713627  1
  Ti  Ti50  1  0.63060395  0.52984238  0.73113392  1
  Ti  Ti51  1  0.67756354  0.79012665  0.19160188  1
  Ti  Ti52  1  0.61032166  0.87581741  0.45091222  1
  Ti  Ti53  1  0.64793609  0.88438594  0.87265753  1
  Ti  Ti54  1  0.21475566  -0.00431578  0.12807742  1
  Ti  Ti55  1  0.23681703  -0.03439947  0.48364412  1
  Ti  Ti56  1  0.16773325  -0.04889563  0.86434391  1
  Ti  Ti57  1  0.15424116  0.31682699  0.22807410  1
  Ti  Ti58  1  0.12518806  0.29824919  0.51514955  1
  Ti  Ti59  1  0.11895675  0.34159638  0.88943157  1
  Ti  Ti60  1  0.10680355  0.66900199  0.19509983  1
  Ti  Ti61  1  0.18427770  0.67332711  0.52723048  1
  Ti  Ti62  1  0.15349974  0.68660937  0.83204382  1
  Ti  Ti63  1  0.50832400  0.08805237  0.08101532  1
  Ti  Ti64  1  0.53386475  0.05731199  0.52179020  1
  Ti  Ti65  1  0.50847236  -0.04836859  0.76630218  1
  Ti  Ti66  1  0.42896444  0.33613614  0.22856396  1
  Ti  Ti67  1  0.54857257  0.26894927  0.51990507  1
  Ti  Ti68  1  0.47945097  0.35695915  0.81648113  1
  Ti  Ti69  1  0.42310855  0.51327322  0.16703240  1
  Ti  Ti70  1  0.52670723  0.63888415  0.56584111  1
  Ti  Ti71  1  0.47458393  0.59810460  0.86748322  1
  Ti  Ti72  1  0.80694801  -0.07996682  0.14573515  1
  Ti  Ti73  1  0.77508482  -0.03762427  0.49663718  1
  Ti  Ti74  1  0.84675746  -0.05970320  0.82925305  1
  Ti  Ti75  1  0.83298459  0.30326264  0.08000151  1
  Ti  Ti76  1  0.83567340  0.39245362  0.43943794  1
  Ti  Ti77  1  0.91105395  0.35961260  0.90175562  1
  Ti  Ti78  1  0.85850770  0.66961402  0.12882234  1
  Ti  Ti79  1  0.80306332  0.64172148  0.42846663  1
  Ti  Ti80  1  0.80331741  0.64677546  0.84531402  1
  Ti  Ti81  1  0.25575130  0.20933249  0.04178209  1
  Ti  Ti82  1  0.17367309  0.07552908  0.31440520  1
  Ti  Ti83  1  0.14225714  0.20957913  0.74104553  1
  Ti  Ti84  1  0.16439229  0.51701987  -0.02040407  1
  Ti  Ti85  1  0.20830546  0.49118643  0.41896390  1
  Ti  Ti86  1  0.22137380  0.54862213  0.68111965  1
  Ti  Ti87  1  0.10224572  0.88017105  0.04116627  1
  Ti  Ti88  1  0.13299630  0.79619613  0.36397540  1
  Ti  Ti89  1  0.15870082  0.92666452  0.68553790  1
  Ti  Ti90  1  0.65123590  0.16716816  -0.02523244  1
  Ti  Ti91  1  0.48695394  0.16432142  0.29581320  1
  Ti  Ti92  1  0.48656723  0.17258468  0.70975874  1
  Ti  Ti93  1  0.46807191  0.44560147  -0.00728711  1
  Ti  Ti94  1  0.57288170  0.51995482  0.29050586  1
  Ti  Ti95  1  0.44741444  0.52791247  0.69204085  1
  Ti  Ti96  1  0.58672649  0.74880487  0.01849508  1
  Ti  Ti97  1  0.51890584  0.83437558  0.30116702  1
  Ti  Ti98  1  0.44219200  0.82937304  0.62437247  1
  Ti  Ti99  1  0.82539684  0.17256741  -0.14103411  1
  Ti  Ti100  1  0.79236397  0.22649316  0.30555713  1
  Ti  Ti101  1  0.87121313  0.24036130  0.68832372  1
  Ti  Ti102  1  0.86129254  0.51785678  0.01409023  1
  Ti  Ti103  1  0.79653364  0.49388466  0.27142784  1
  Ti  Ti104  1  0.80477485  0.41413368  0.62009699  1
  Ti  Ti105  1  0.76990863  0.82046722  -0.00582918  1
  Ti  Ti106  1  0.93212097  0.84192520  0.39312336  1
  Ti  Ti107  1  0.85667641  0.87010311  0.64930593  1
  Co  Co108  1  0.75046666  0.30120549  0.91183784  1
  Co  Co109  1  0.70897702  0.31812011  0.16894994  1
  Co  Co110  1  0.88890601  0.75603049  0.52808276  1
  Co  Co111  1  0.93557971  0.22130407  -0.01924726  1
  Co  Co112  1  0.56419230  0.42921319  0.13586465  1
  Co  Co113  1  0.46880546  0.80398841  0.82117359  1
  Co  Co114  1  0.15890370  0.46359750  0.14632618  1
  Co  Co115  1  0.18467480  0.35911399  1.03639815  1
  Co  Co116  1  0.28106066  0.44766890  0.24621622  1
  Co  Co117  1  0.00732420  0.65656281  0.47659228  1
  Co  Co118  1  0.16529585  0.14790922  0.18631677  1
  Co  Co119  1  0.78138101  0.52861094  0.71041787  1
  Co  Co120  1  0.74050083  0.80953783  0.52837187  1
  Co  Co121  1  0.33758004  0.09276545  0.45357493  1
  Co  Co122  1  0.54281724  0.04403500  0.90161567  1
  Co  Co123  1  0.62981916  0.24494842  0.80550567  1
  Co  Co124  1  0.53582696  0.69053994  0.19637321  1
  Co  Co125  1  0.09076058  0.93767451  0.54964927  1
  Co  Co126  1  0.77004309  0.47441297  0.87458518  1
  Co  Co127  1  0.39902466  0.49782510  0.33504923  1
  Co  Co128  1  0.29520549  0.63923105  0.39613242  1
  Co  Co129  1  0.38807415  0.12197755  -0.02408392  1
  Co  Co130  1  0.74470621  0.45614842  0.09516059  1
  Co  Co131  1  0.78495048  0.28227135  0.54841741  1
  Co  Co132  1  0.13008495  0.63148172  0.35408877  1
  Co  Co133  1  0.75993575  0.65680091  0.27222563  1
  Co  Co134  1  0.30359338  0.26582075  0.18168180  1
  Co  Co135  1  0.34716056  0.56248292  0.99230607  1
  Co  Co136  1  0.93078274  0.83716764  0.01288066  1
  Co  Co137  1  0.50443939  0.20395221  0.88140910  1
  Co  Co138  1  0.01839519  0.96179417  0.92476922  1
  Co  Co139  1  0.73323811  0.66259840  0.01246793  1
  Co  Co140  1  0.59596978  0.77770421  0.57156810  1
  Co  Co141  1  0.50546382  0.90413946  0.95918467  1
  Co  Co142  1  0.94366939  0.08564452  0.80750541  1
  Co  Co143  1  0.31800405  0.43351481  0.09203178  1
  Co  Co144  1  0.78267908  0.79077063  0.78526046  1
  Co  Co145  1  0.76924720  1.03942433  0.91819836  1
  Co  Co146  1  0.25377050  0.71682613  0.26334787  1
  Co  Co147  1  0.08119421  0.23090030  1.05543012  1
  Co  Co148  1  -0.00803421  0.63308097  0.82468842  1
  Co  Co149  1  0.91096015  0.26014780  0.42448055  1
  Co  Co150  1  0.18229175  0.82333749  0.16841125  1
  Co  Co151  1  0.95598458  0.51161383  0.39101763  1
  Co  Co152  1  0.40565836  0.69400526  0.11615617  1
  Co  Co153  1  0.04103521  0.37501756  0.41807233  1
  Co  Co154  1  0.07733518  -0.06706133  0.39601083  1
  Co  Co155  1  0.14590300  0.07580746  0.61020081  1
  Co  Co156  1  0.10488904  0.05998989  0.76703803  1
  Co  Co157  1  0.63969488  0.70421850  0.86485511  1
  Co  Co158  1  0.96652564  0.34183874  0.56568591  1
  Co  Co159  1  0.08381636  0.94856354  0.22393444  1
  Co  Co160  1  0.93839517  0.95860980  0.50509822  1
  Co  Co161  1  0.76715002  0.35376425  0.75871698  1
  Ni  Ni162  1  0.23126263  0.12109298  0.87305201  1
  Ni  Ni163  1  0.23983504  0.41508614  0.58619130  1
  Ni  Ni164  1  0.67827305  0.43091087  0.40314543  1
  Ni  Ni165  1  0.39150229  0.06032728  0.82201712  1
  Ni  Ni166  1  0.50688100  0.42787377  0.57746884  1
  Ni  Ni167  1  0.22076268  0.67974113  -0.00562205  1
  Ni  Ni168  1  0.41236194  0.21244366  0.56200479  1
  Ni  Ni169  1  0.33282570  0.45451272  0.77192153  1
  Ni  Ni170  1  0.06540712  0.61104848  0.66617481  1
  Ni  Ni171  1  0.90351478  0.42075159  0.17663778  1
  Ni  Ni172  1  0.57418883  0.25444775  0.12728707  1
  Ni  Ni173  1  0.53400731  1.00349910  0.35716689  1
  Ni  Ni174  1  0.06643915  0.04288224  0.07615406  1
  Ni  Ni175  1  0.27421666  0.82604279  0.56754615  1
  Ni  Ni176  1  0.78841216  0.11844739  0.05296775  1
  Ni  Ni177  1  0.76107289  0.79254434  0.38120785  1
  Ni  Ni178  1  0.28233640  0.87525174  0.04663933  1
  Ni  Ni179  1  0.25256916  1.07308627  0.72615915  1
  Ni  Ni180  1  0.23670321  0.33707280  0.77875264  1
  Ni  Ni181  1  0.63497413  -0.03137267  0.22805353  1
  Ni  Ni182  1  0.52446602  0.67564181  0.73297709  1
  Ni  Ni183  1  0.09901995  0.51978818  0.80351361  1
  Ni  Ni184  1  0.05059219  0.76673016  0.73109387  1
  Ni  Ni185  1  0.46206491  0.96948730  0.18419923  1
  Ni  Ni186  1  0.27988589  0.57792584  0.85051106  1
  Ni  Ni187  1  1.00893382  0.54620988  0.12185197  1
  Ni  Ni188  1  0.64391342  0.11078973  0.62589105  1
  Ni  Ni189  1  0.02583083  0.20697850  0.63633372  1
  Ni  Ni190  1  0.80288449  0.04857669  0.68766234  1
  Ni  Ni191  1  0.33081811  0.18566512  0.31989629  1
  Ni  Ni192  1  0.36210836  0.69175006  0.54819425  1
  Ni  Ni193  1  0.61322001  0.20479081  0.39354774  1
  Ni  Ni194  1  0.61876349  0.42160151  0.85264431  1
  Ni  Ni195  1  0.85021644  0.79149374  0.25470272  1
  Ni  Ni196  1  1.01213246  0.91627381  0.76549917  1
  Ni  Ni197  1  0.43221099  0.94110593  0.47775123  1
  Ni  Ni198  1  0.03171833  0.19443869  0.31969178  1
  Ni  Ni199  1  0.83191596  0.08521906  0.20838885  1
  Ni  Ni200  1  0.89440465  0.14740165  0.55707701  1
  Ni  Ni201  1  0.98763916  0.24956133  0.81395792  1
  Ni  Ni202  1  0.19373031  0.18815429  0.42503920  1
  Ni  Ni203  1  0.22544852  0.92210256  0.31702198  1
  Ni  Ni204  1  0.23643019  0.80854475  0.90986882  1
  Ni  Ni205  1  0.84378524  0.56241786  0.55424996  1
  Ni  Ni206  1  0.49406028  0.37213365  0.39013761  1
  Ni  Ni207  1  0.84226454  0.09982718  0.40791138  1
  Ni  Ni208  1  0.90902217  0.68070197  0.97363778  1
  Ni  Ni209  1  1.01146764  0.48947731  0.94029503  1
  Ni  Ni210  1  0.80852099  0.95798490  0.30818847  1
  Ni  Ni211  1  0.52481007  0.53837092  0.44172360  1
  Ni  Ni212  1  0.51481436  0.59396523  0.04837970  1
  Ni  Ni213  1  0.55520595  0.87730901  0.10925374  1
  Ni  Ni214  1  0.48399711  0.76197631  0.45916272  1
  Ni  Ni215  1  0.62281713  0.81006178  0.72533647  1
