# generated using pymatgen
data_Ti2CoNi
_symmetry_space_group_name_H-M   'P 1'
_cell_length_a   14.62012550
_cell_length_b   14.65822555
_cell_length_c   14.61419891
_cell_angle_alpha   89.98529410
_cell_angle_beta   90.12313916
_cell_angle_gamma   90.32435506
_symmetry_Int_Tables_number   1
_chemical_formula_structural   Ti2CoNi
_chemical_formula_sum   'Ti108 Co54 Ni54'
_cell_volume   3131.83980279
_cell_formula_units_Z   54
loop_
 _symmetry_equiv_pos_site_id
 _symmetry_equiv_pos_as_xyz
  1  'x, y, z'
loop_
 _atom_site_type_symbol
 _atom_site_label
 _atom_site_symmetry_multiplicity
 _atom_site_fract_x
 _atom_site_fract_y
 _atom_site_fract_z
 _atom_site_occupancy
  Ti  Ti0  1  -0.01023757  -0.01794726  0.04513293  1
  Ti  Ti1  1  0.04944892  0.01112166  0.38548997  1
  Ti  Ti2  1  -0.04884162  -0.08246608  0.64866026  1
  Ti  Ti3  1  0.02646467  0.29811591  0.03803142  1
  Ti  Ti4  1  -0.01676676  0.35698490  0.31807153  1
  Ti  Ti5  1  -0.02499301  0.30087085  0.64640575  1
  Ti  Ti6  1  -0.01102872  0.69989485  -0.04312927  1
  Ti  Ti7  1  0.01232995  0.68939397  0.26274241  1
  Ti  Ti8  1  -0.04874353  0.61433867  0.71272040  1
  Ti  Ti9  1  0.30426027  0.02016600  0.05194220  1
  Ti  Ti10  1  0.38034777  -0.00401821  0.34494412  1
  Ti  Ti11  1  0.31974655  0.03460176  0.66083695  1
  Ti  Ti12  1  0.31099309  0.30054789  -0.02667345  1
  Ti  Ti13  1  0.31586692  0.29403613  0.32330065  1
  Ti  Ti14  1  0.38013373  0.31305521  0.69663623  1
  Ti  Ti15  1  0.29829430  0.60612725  0.00150098  1
  Ti  Ti16  1  0.36890208  0.69529236  0.39918459  1
  Ti  Ti17  1  0.40919278  0.64618871  0.69688154  1
  Ti  Ti18  1  0.70037585  -0.03649349  -0.01358543  1
  Ti  Ti19  1  0.63093975  -0.05257643  0.26396556  1
  Ti  Ti20  1  0.72792187  -0.04948184  0.73549271  1
  Ti  Ti21  1  0.57847621  0.28431762  -0.03636511  1
  Ti  Ti22  1  0.69102407  0.33756801  0.38342730  1
  Ti  Ti23  1  0.66854605  0.34029139  0.58089394  1
  Ti  Ti24  1  0.66386761  0.63786008  -0.07918761  1
  Ti  Ti25  1  0.71290432  0.70708580  0.44121121  1
  Ti  Ti26  1  0.60092236  0.65962767  0.71690595  1
  Ti  Ti27  1  0.02985775  0.17272791  0.25994965  1
  Ti  Ti28  1  -0.05515888  0.13358371  0.52246579  1
  Ti  Ti29  1  0.05782512  0.19405426  0.80533986  1
  Ti  Ti30  1  0.00749673  0.51120812  0.19190847  1
  Ti  Ti31  1  0.03914021  0.55085095  0.53455811  1
  Ti  Ti32  1  -0.03042339  0.51473284  0.87886132  1
  Ti  Ti33  1  0.05579022  0.88523565  0.23214138  1
  Ti  Ti34  1  0.00361330  0.80655687  0.42560033  1
  Ti  Ti35  1  0.10678846  0.86778800  0.84016888  1
  Ti  Ti36  1  0.20182825  0.21579586  0.16038770  1
  Ti  Ti37  1  0.37840729  0.18797611  0.54429141  1
  Ti  Ti38  1  0.41125428  0.15163095  0.81432131  1
  Ti  Ti39  1  0.32749194  0.56041044  0.22827373  1
  Ti  Ti40  1  0.36500071  0.49393848  0.45579651  1
  Ti  Ti41  1  0.29587718  0.53827489  0.78655984  1
  Ti  Ti42  1  0.34276806  0.77127354  0.20933924  1
  Ti  Ti43  1  0.46983335  0.85145963  0.50455142  1
  Ti  Ti44  1  0.30104674  0.75951581  0.83348469  1
  Ti  Ti45  1  0.69002057  0.15620907  0.06650579  1
  Ti  Ti46  1  0.68927819  0.06508971  0.53189980  1
  Ti  Ti47  1  0.69989546  0.13108219  0.87389871  1
  Ti  Ti48  1  0.68598923  0.50430104  0.06738203  1
  Ti  Ti49  1  0.58717963  0.48478764  0.46973424  1
  Ti  Ti50  1  0.76154525  0.45092994  0.88562885  1
  Ti  Ti51  1  0.56797912  0.80608939  0.12260574  1
  Ti  Ti52  1  0.65415260  0.88740400  0.45728755  1
  Ti  Ti53  1  0.59108595  0.82410395  0.85551342  1
  Ti  Ti54  1  0.14275883  0.03626030  0.16282451  1
  Ti  Ti55  1  0.21372523  -0.01806752  0.48681267  1
  Ti  Ti56  1  0.20272048  0.04542460  0.80745518  1
  Ti  Ti57  1  0.17217987  0.40198372  0.20648627  1
  Ti  Ti58  1  0.18485425  0.38679935  0.50567050  1
  Ti  Ti59  1  0.17398783  0.32202745  0.70481358  1
  Ti  Ti60  1  0.11118832  0.65633056  0.09734502  1
  Ti  Ti61  1  0.19738902  0.72178948  0.52589416  1
  Ti  Ti62  1  0.12511484  0.66717276  0.80574114  1
  Ti  Ti63  1  0.48452542  0.07078408  0.17842148  1
  Ti  Ti64  1  0.50012134  0.03202465  0.54868511  1
  Ti  Ti65  1  0.56016505  0.00333185  0.82528653  1
  Ti  Ti66  1  0.42538254  0.34013718  0.15672965  1
  Ti  Ti67  1  0.48987493  0.31754280  0.41518132  1
  Ti  Ti68  1  0.58676472  0.35590340  0.77170390  1
  Ti  Ti69  1  0.51435687  0.65197747  0.23975871  1
  Ti  Ti70  1  0.51204797  0.64849178  0.53209937  1
  Ti  Ti71  1  0.48525829  0.58753495  0.88518200  1
  Ti  Ti72  1  0.79425848  0.02870948  0.18300341  1
  Ti  Ti73  1  0.85483524  -0.03376767  0.46286122  1
  Ti  Ti74  1  0.88253207  -0.00490451  0.86350171  1
  Ti  Ti75  1  0.71725209  0.31958093  0.18048843  1
  Ti  Ti76  1  0.85512160  0.34887161  0.48459262  1
  Ti  Ti77  1  0.86779111  0.25256919  0.81095918  1
  Ti  Ti78  1  0.76712164  0.68592811  0.10616814  1
  Ti  Ti79  1  0.88013043  0.62364980  0.48230552  1
  Ti  Ti80  1  0.82975036  0.73232974  0.86507909  1
  Ti  Ti81  1  0.14115929  0.16131723  -0.00966066  1
  Ti  Ti82  1  0.22129659  0.12406275  0.33910753  1
  Ti  Ti83  1  0.09284966  0.06388697  0.63229832  1
  Ti  Ti84  1  0.18291547  0.44806936  -0.08080624  1
  Ti  Ti85  1  0.10936513  0.50001865  0.36350937  1
  Ti  Ti86  1  0.12146209  0.50020895  0.69987830  1
  Ti  Ti87  1  0.14854003  0.86369812  0.04000978  1
  Ti  Ti88  1  0.18934040  0.76999316  0.34597835  1
  Ti  Ti89  1  0.14263219  0.83824728  0.65972770  1
  Ti  Ti90  1  0.43669251  0.16448272  0.00463307  1
  Ti  Ti91  1  0.60560331  0.15803713  0.35763520  1
  Ti  Ti92  1  0.53794045  0.19379477  0.66847920  1
  Ti  Ti93  1  0.47972342  0.51798016  0.07160773  1
  Ti  Ti94  1  0.57880985  0.46833111  0.25292672  1
  Ti  Ti95  1  0.46927277  0.48056185  0.63616144  1
  Ti  Ti96  1  0.48171476  0.93066194  -0.00058792  1
  Ti  Ti97  1  0.48894173  0.84305502  0.31354343  1
  Ti  Ti98  1  0.44929211  0.85453495  0.69447246  1
  Ti  Ti99  1  0.84954119  0.22826221  0.01443952  1
  Ti  Ti100  1  0.81400871  0.20306000  0.29622887  1
  Ti  Ti101  1  0.79131753  0.20433689  0.62276966  1
  Ti  Ti102  1  0.87171172  0.44511843  0.07487017  1
  Ti  Ti103  1  0.77500298  0.51487510  0.33958343  1
  Ti  Ti104  1  0.77852665  0.51412480  0.66109702  1
  Ti  Ti105  1  0.84967993  0.84537741  0.03115523  1
  Ti  Ti106  1  0.78125763  0.84096516  0.30529439  1
  Ti  Ti107  1  0.82823911  0.73542839  0.63088475  1
  Co  Co108  1  0.57297975  0.30887928  0.26504244  1
  Co  Co109  1  0.24700749  0.68446584  0.69185588  1
  Co  Co110  1  0.36884156  0.47223077  0.93164819  1
  Co  Co111  1  0.30940159  0.06030962  0.21428353  1
  Co  Co112  1  0.10371007  0.24500198  0.57214712  1
  Co  Co113  1  0.35296763  0.19283046  0.13475349  1
  Co  Co114  1  0.10144645  0.14794199  0.44571811  1
  Co  Co115  1  0.23440183  0.60461266  0.40703829  1
  Co  Co116  1  0.47551367  0.56965920  0.37156475  1
  Co  Co117  1  0.63159780  0.59857123  0.36193764  1
  Co  Co118  1  0.45683744  0.45537770  0.79399334  1
  Co  Co119  1  0.58331481  0.20792212  0.50976953  1
  Co  Co120  1  0.84406821  0.80214849  0.46657002  1
  Co  Co121  1  0.68084292  0.78418911  -0.00449366  1
  Co  Co122  1  0.59200710  0.64358045  0.07973147  1
  Co  Co123  1  0.59310347  0.45052240  0.93526832  1
  Co  Co124  1  0.76245025  0.20562886  0.45680763  1
  Co  Co125  1  0.44498192  0.30357310  0.86665790  1
  Co  Co126  1  0.29829953  0.37273996  0.81796480  1
  Co  Co127  1  0.42285930  0.43240416  0.29257353  1
  Co  Co128  1  0.46055503  0.73636262  0.82095439  1
  Co  Co129  1  0.64694084  0.08040573  0.68925177  1
  Co  Co130  1  0.59175214  0.92570656  0.63668152  1
  Co  Co131  1  0.86464954  0.84829476  0.76044736  1
  Co  Co132  1  0.06913673  0.65742454  0.41521499  1
  Co  Co133  1  0.72300465  0.29291910  0.87576272  1
  Co  Co134  1  0.51799600  0.73818167  0.97254423  1
  Co  Co135  1  0.96784414  0.85741104  0.91485000  1
  Co  Co136  1  0.09618741  0.66333331  0.64496043  1
  Co  Co137  1  0.24003659  0.24145818  0.46120377  1
  Co  Co138  1  0.90000842  0.92055757  0.16951241  1
  Co  Co139  1  0.47330846  0.03492229  0.70480491  1
  Co  Co140  1  0.98296187  0.74050528  0.56915853  1
  Co  Co141  1  0.50596551  0.33801403  0.58091127  1
  Co  Co142  1  0.66248688  0.12275745  0.21709296  1
  Co  Co143  1  0.72614073  0.34834713  0.02132201  1
  Co  Co144  1  0.92284679  0.90282794  0.32487947  1
  Co  Co145  1  0.75195210  0.87169551  0.87449565  1
  Co  Co146  1  0.15577727  0.29447584  0.88767098  1
  Co  Co147  1  0.72875244  0.86102125  0.14371146  1
  Co  Co148  1  0.64817366  0.75396008  0.26230799  1
  Co  Co149  1  0.57853593  0.38249233  0.09792963  1
  Co  Co150  1  0.55317701  0.73489375  0.40535329  1
  Co  Co151  1  0.17515303  0.34815263  0.05321436  1
  Co  Co152  1  0.17342690  0.60105687  0.24884734  1
  Co  Co153  1  0.22273597  0.12751223  0.56536907  1
  Co  Co154  1  0.00569094  0.79879637  0.09867733  1
  Co  Co155  1  0.18319406  0.51831409  0.09710509  1
  Co  Co156  1  0.68289195  0.22635641  0.73808195  1
  Co  Co157  1  0.00084249  0.76929404  0.74498493  1
  Co  Co158  1  0.25904298  0.44689464  0.33965011  1
  Co  Co159  1  0.14191290  0.28827018  0.33282196  1
  Co  Co160  1  0.95010762  0.22093934  0.39752154  1
  Co  Co161  1  0.93437707  0.63367024  0.10478555  1
  Ni  Ni162  1  0.73419147  0.03972693  0.36226337  1
  Ni  Ni163  1  0.69004504  0.59154732  0.21321848  1
  Ni  Ni164  1  0.83204740  0.58750637  0.97807507  1
  Ni  Ni165  1  0.62474741  0.77174899  0.58389234  1
  Ni  Ni166  1  0.84862989  0.41068731  0.24234444  1
  Ni  Ni167  1  0.87997000  0.76553511  0.20104616  1
  Ni  Ni168  1  0.31775361  0.85661870  0.41721010  1
  Ni  Ni169  1  0.01792022  0.37994406  0.49548202  1
  Ni  Ni170  1  0.02741613  0.37755875  0.79102834  1
  Ni  Ni171  1  0.27056697  0.90118735  0.75423161  1
  Ni  Ni172  1  0.29397351  0.58720081  0.56691745  1
  Ni  Ni173  1  0.44664172  0.20104379  0.26954514  1
  Ni  Ni174  1  0.77270238  0.36194590  0.72332515  1
  Ni  Ni175  1  0.94625850  0.13359195  0.69230277  1
  Ni  Ni176  1  -0.00668123  0.14187132  0.09840390  1
  Ni  Ni177  1  0.06625511  0.91342831  0.53055230  1
  Ni  Ni178  1  0.89960034  0.06560729  0.32759366  1
  Ni  Ni179  1  0.26084262  0.90770113  0.16618981  1
  Ni  Ni180  1  0.12173388  1.00474237  0.94764213  1
  Ni  Ni181  1  0.54799892  0.21824340  0.13107048  1
  Ni  Ni182  1  0.91762571  0.36416715  0.92501402  1
  Ni  Ni183  1  0.94583869  0.53679206  0.35436388  1
  Ni  Ni184  1  0.29052664  0.12543762  0.93021927  1
  Ni  Ni185  1  0.81059306  0.58587392  0.80790889  1
  Ni  Ni186  1  0.32039743  0.44477825  0.08413633  1
  Ni  Ni187  1  0.28212742  0.44403559  0.64151266  1
  Ni  Ni188  1  0.42144387  0.67813859  0.09532210  1
  Ni  Ni189  1  0.03167344  0.02077971  0.79295486  1
  Ni  Ni190  1  0.42946180  0.91567834  0.16687350  1
  Ni  Ni191  1  0.11719605  0.58620902  0.94912444  1
  Ni  Ni192  1  0.17175455  0.77203383  0.18691402  1
  Ni  Ni193  1  0.93897455  0.45950591  0.63444125  1
  Ni  Ni194  1  0.36356186  0.73840543  0.56871050  1
  Ni  Ni195  1  0.41250890  0.90495552  0.84942867  1
  Ni  Ni196  1  0.83917898  0.06043003  0.01889664  1
  Ni  Ni197  1  0.54917842  1.00007846  0.39375522  1
  Ni  Ni198  1  0.25308067  0.20440936  0.78812038  1
  Ni  Ni199  1  0.70935699  0.78181442  0.73533824  1
  Ni  Ni200  1  0.75200733  0.48002206  0.50032982  1
  Ni  Ni201  1  0.60756468  0.98632569  0.11191427  1
  Ni  Ni202  1  0.20530635  0.95182191  0.31483777  1
  Ni  Ni203  1  0.91105162  0.27611492  0.16834411  1
  Ni  Ni204  1  0.03746667  0.46758426  0.03222477  1
  Ni  Ni205  1  0.80277078  0.10137875  0.75767656  1
  Ni  Ni206  1  0.18386767  0.73553652  0.95021414  1
  Ni  Ni207  1  0.75971214  0.88230098  0.58919734  1
  Ni  Ni208  1  0.44740578  0.13285999  0.41209108  1
  Ni  Ni209  1  0.56837879  0.08153832  0.97474194  1
  Ni  Ni210  1  0.30377042  0.88367344  0.58731192  1
  Ni  Ni211  1  0.68302228  0.61496034  0.57179703  1
  Ni  Ni212  1  0.63385645  0.51507122  0.78526260  1
  Ni  Ni213  1  0.97410165  0.12550332  0.93201515  1
  Ni  Ni214  1  0.83310371  0.03285728  0.61680557  1
  Ni  Ni215  1  0.35136461  0.34725588  0.52277232  1
