# generated using pymatgen
data_Ti2CoNi
_symmetry_space_group_name_H-M   'P 1'
_cell_length_a   14.68788317
_cell_length_b   14.53313719
_cell_length_c   14.58167150
_cell_angle_alpha   89.77679110
_cell_angle_beta   89.91017942
_cell_angle_gamma   89.84309264
_symmetry_Int_Tables_number   1
_chemical_formula_structural   Ti2CoNi
_chemical_formula_sum   'Ti108 Co54 Ni54'
_cell_volume   3112.57942468
_cell_formula_units_Z   54
loop_
 _symmetry_equiv_pos_site_id
 _symmetry_equiv_pos_as_xyz
  1  'x, y, z'
loop_
 _atom_site_type_symbol
 _atom_site_label
 _atom_site_symmetry_multiplicity
 _atom_site_fract_x
 _atom_site_fract_y
 _atom_site_fract_z
 _atom_site_occupancy
  Ti  Ti0  1  -0.00660492  0.09630655  -0.00103262  1
  Ti  Ti1  1  0.01367122  -0.01540557  0.27674379  1
  Ti  Ti2  1  0.01209880  0.03585639  0.61715905  1
  Ti  Ti3  1  0.06281543  0.35309133  0.10056972  1
  Ti  Ti4  1  -0.05948042  0.30275295  0.30003642  1
  Ti  Ti5  1  -0.05110564  0.33946016  0.67725903  1
  Ti  Ti6  1  -0.03162515  0.64018674  0.07255980  1
  Ti  Ti7  1  0.05485540  0.72025273  0.24527286  1
  Ti  Ti8  1  -0.05707677  0.69241578  0.61731225  1
  Ti  Ti9  1  0.39474889  0.01022619  -0.00971525  1
  Ti  Ti10  1  0.36319951  0.03181212  0.31943284  1
  Ti  Ti11  1  0.38054232  -0.02355809  0.66203163  1
  Ti  Ti12  1  0.31338019  0.34447827  -0.01810597  1
  Ti  Ti13  1  0.26446170  0.30358938  0.28158851  1
  Ti  Ti14  1  0.37414026  0.28612892  0.66994533  1
  Ti  Ti15  1  0.27155828  0.67782603  -0.00655797  1
  Ti  Ti16  1  0.24401533  0.62530948  0.37611073  1
  Ti  Ti17  1  0.31959913  0.73411771  0.71086085  1
  Ti  Ti18  1  0.62798746  -0.02858125  -0.00493338  1
  Ti  Ti19  1  0.67694888  -0.05148191  0.29107525  1
  Ti  Ti20  1  0.70120440  0.06981877  0.68337065  1
  Ti  Ti21  1  0.66061371  0.31216288  -0.04175132  1
  Ti  Ti22  1  0.63030282  0.30486762  0.34319242  1
  Ti  Ti23  1  0.64474820  0.38529171  0.71686490  1
  Ti  Ti24  1  0.66009320  0.72780267  -0.02936698  1
  Ti  Ti25  1  0.67788751  0.72037158  0.33608595  1
  Ti  Ti26  1  0.57285812  0.53966745  0.57880087  1
  Ti  Ti27  1  -0.04014884  0.15654339  0.17505192  1
  Ti  Ti28  1  -0.00912590  0.20419611  0.51048478  1
  Ti  Ti29  1  0.02516914  0.22256847  0.83704509  1
  Ti  Ti30  1  -0.04177553  0.51555249  0.21749278  1
  Ti  Ti31  1  0.05740535  0.55103795  0.48811703  1
  Ti  Ti32  1  0.02401126  0.49670971  0.80065202  1
  Ti  Ti33  1  -0.01643587  0.83240383  0.05179413  1
  Ti  Ti34  1  0.03166152  0.84822217  0.51843052  1
  Ti  Ti35  1  0.01222430  0.81949369  0.84109982  1
  Ti  Ti36  1  0.30789542  0.12999210  0.14526957  1
  Ti  Ti37  1  0.30067145  0.14387897  0.55616497  1
  Ti  Ti38  1  0.38034681  0.19979388  0.88107663  1
  Ti  Ti39  1  0.40308412  0.47466944  0.20256542  1
  Ti  Ti40  1  0.34648030  0.49721406  0.50067327  1
  Ti  Ti41  1  0.34236618  0.54519048  0.83249552  1
  Ti  Ti42  1  0.36362731  0.81792636  0.18527088  1
  Ti  Ti43  1  0.32680852  0.81487922  0.39485623  1
  Ti  Ti44  1  0.34950465  0.86491209  0.85010105  1
  Ti  Ti45  1  0.75666568  0.14326340  0.20200381  1
  Ti  Ti46  1  0.66269714  0.16692246  0.51637585  1
  Ti  Ti47  1  0.72675533  0.17273291  0.84778903  1
  Ti  Ti48  1  0.69321445  0.45136767  0.19868280  1
  Ti  Ti49  1  0.65510277  0.49843144  0.40203075  1
  Ti  Ti50  1  0.66621751  0.52998071  0.90792376  1
  Ti  Ti51  1  0.59683661  0.76334265  0.16390214  1
  Ti  Ti52  1  0.72467457  0.94303834  0.53718966  1
  Ti  Ti53  1  0.65120331  0.75233235  0.76207428  1
  Ti  Ti54  1  0.10716415  -0.00890786  0.09898676  1
  Ti  Ti55  1  0.18062028  -0.03149168  0.56553270  1
  Ti  Ti56  1  0.18255947  -0.03061111  0.84497999  1
  Ti  Ti57  1  0.24030592  0.43238333  0.14621781  1
  Ti  Ti58  1  0.16146388  0.27741379  0.45329365  1
  Ti  Ti59  1  0.22270116  0.28930079  0.80838781  1
  Ti  Ti60  1  0.24552971  0.61988315  0.17293795  1
  Ti  Ti61  1  0.21717770  0.64659715  0.56293634  1
  Ti  Ti62  1  0.10631023  0.65108734  0.89203786  1
  Ti  Ti63  1  0.54739385  0.08073605  0.20763576  1
  Ti  Ti64  1  0.45787850  -0.06715762  0.48302654  1
  Ti  Ti65  1  0.51547384  -0.06795159  0.81960434  1
  Ti  Ti66  1  0.56418176  0.29659358  0.14497770  1
  Ti  Ti67  1  0.49056965  0.35018672  0.48743984  1
  Ti  Ti68  1  0.49133903  0.38489975  0.87892805  1
  Ti  Ti69  1  0.54603358  0.58910985  0.20203464  1
  Ti  Ti70  1  0.44252538  0.68841266  0.56984179  1
  Ti  Ti71  1  0.49782804  0.65015185  0.74835512  1
  Ti  Ti72  1  0.85807627  -0.03359685  0.13499599  1
  Ti  Ti73  1  0.91232278  0.00421678  0.45773288  1
  Ti  Ti74  1  0.95265862  -0.00520814  0.80570714  1
  Ti  Ti75  1  0.86163226  0.33166259  0.11183786  1
  Ti  Ti76  1  0.79027276  0.31851927  0.56708670  1
  Ti  Ti77  1  0.80851056  0.43756845  0.80708845  1
  Ti  Ti78  1  0.85090178  0.69763115  0.23401370  1
  Ti  Ti79  1  0.86225581  0.70418878  0.44752648  1
  Ti  Ti80  1  0.81417631  0.65033630  0.81827627  1
  Ti  Ti81  1  0.16528509  0.19056887  -0.01311742  1
  Ti  Ti82  1  0.16541363  0.11605106  0.32361996  1
  Ti  Ti83  1  0.13993922  0.21208107  0.64822198  1
  Ti  Ti84  1  0.19592799  0.49617207  -0.02124057  1
  Ti  Ti85  1  0.10786201  0.41504101  0.30184962  1
  Ti  Ti86  1  0.21615129  0.44131325  0.65072490  1
  Ti  Ti87  1  0.16907519  0.83840407  -0.00375595  1
  Ti  Ti88  1  0.16109878  0.90514141  0.36816397  1
  Ti  Ti89  1  0.11819761  0.75688631  0.68369798  1
  Ti  Ti90  1  0.54339810  0.13054465  -0.06693180  1
  Ti  Ti91  1  0.43749614  0.23427488  0.29514928  1
  Ti  Ti92  1  0.50395258  0.11848030  0.72759057  1
  Ti  Ti93  1  0.49243348  0.59491953  -0.01547338  1
  Ti  Ti94  1  0.47708470  0.55322713  0.37832261  1
  Ti  Ti95  1  0.44495693  0.44800344  0.66993238  1
  Ti  Ti96  1  0.49254924  0.82331936  0.01460678  1
  Ti  Ti97  1  0.50131991  0.88492134  0.30739803  1
  Ti  Ti98  1  0.57389737  0.83381245  0.58315921  1
  Ti  Ti99  1  0.79581562  0.13742445  0.02198634  1
  Ti  Ti100  1  0.81539115  0.19199437  0.38439933  1
  Ti  Ti101  1  0.88621172  0.14822726  0.70497988  1
  Ti  Ti102  1  0.87639096  0.49172380  -0.02305733  1
  Ti  Ti103  1  0.87450076  0.48965935  0.42486133  1
  Ti  Ti104  1  0.76824903  0.51334869  0.59723195  1
  Ti  Ti105  1  0.81961958  0.83972745  -0.07630830  1
  Ti  Ti106  1  0.82676917  0.86821938  0.35426334  1
  Ti  Ti107  1  0.80813297  0.85140270  0.72322648  1
  Co  Co108  1  0.64367016  0.92049603  0.70627007  1
  Co  Co109  1  0.34731631  0.38415577  0.80490909  1
  Co  Co110  1  0.79053024  0.00051941  0.81314651  1
  Co  Co111  1  0.22161786  0.04278767  0.70084568  1
  Co  Co112  1  0.75281090  0.29214419  0.23529632  1
  Co  Co113  1  0.67389268  0.87455146  0.87045213  1
  Co  Co114  1  0.84396424  0.28228784  0.79311995  1
  Co  Co115  1  0.82302671  0.30477260  0.95365415  1
  Co  Co116  1  0.20480835  0.61330561  0.74412835  1
  Co  Co117  1  0.38748479  0.67383281  0.43307448  1
  Co  Co118  1  0.41969159  0.68333614  0.10822791  1
  Co  Co119  1  0.36761974  0.03517343  0.82935587  1
  Co  Co120  1  0.84120106  0.42418068  0.25841731  1
  Co  Co121  1  0.93738095  0.45828485  0.57232074  1
  Co  Co122  1  0.92698598  0.83923148  0.20505492  1
  Co  Co123  1  0.09151577  0.35613828  0.74824491  1
  Co  Co124  1  0.76191411  0.37062139  0.38859716  1
  Co  Co125  1  0.43106858  0.41938322  0.05409361  1
  Co  Co126  1  0.57999606  0.44185319  1.03549943  1
  Co  Co127  1  0.72906371  0.61850870  0.48031625  1
  Co  Co128  1  0.07978031  0.09546421  0.75360718  1
  Co  Co129  1  0.10256893  0.86378958  0.19204339  1
  Co  Co130  1  0.85494200  0.98683286  0.64316079  1
  Co  Co131  1  0.71593744  0.78289415  0.48736580  1
  Co  Co132  1  0.09768624  0.92753205  0.71181416  1
  Co  Co133  1  0.88377400  0.13975437  0.88175584  1
  Co  Co134  1  0.97702577  0.25522181  0.00602932  1
  Co  Co135  1  0.33075040  0.14955041  0.72093017  1
  Co  Co136  1  0.49412425  0.27561218  1.00232777  1
  Co  Co137  1  0.89963848  0.32161825  0.46181532  1
  Co  Co138  1  0.34112661  0.54311086  0.04331615  1
  Co  Co139  1  0.85965947  0.84151564  0.54799766  1
  Co  Co140  1  0.63532542  0.15735156  0.06563359  1
  Co  Co141  1  0.36116230  0.83550199  0.57156069  1
  Co  Co142  1  0.95588134  0.37021405  0.87701844  1
  Co  Co143  1  0.96496456  0.85686063  0.67358751  1
  Co  Co144  1  0.20846184  0.80771543  0.53106565  1
  Co  Co145  1  0.24706460  0.87654028  0.69660574  1
  Co  Co146  1  0.45991529  0.14044775  0.08714438  1
  Co  Co147  1  0.74788298  0.83182687  0.20145514  1
  Co  Co148  1  0.09204114  0.36538390  0.58268272  1
  Co  Co149  1  0.79080043  0.63122287  0.98501488  1
  Co  Co150  1  0.62797656  0.68193097  0.60718987  1
  Co  Co151  1  0.47290432  0.81605325  0.70849407  1
  Co  Co152  1  0.87777908  0.98128534  -0.03303466  1
  Co  Co153  1  0.82086829  0.55146650  0.13579505  1
  Co  Co154  1  0.57152334  0.67803898  0.45699971  1
  Co  Co155  1  0.03406316  0.38960422  0.43986589  1
  Co  Co156  1  0.26364132  0.48101561  0.30782839  1
  Co  Co157  1  0.52779732  0.76840588  0.86854179  1
  Co  Co158  1  0.50648011  0.72309126  0.31089520  1
  Co  Co159  1  0.63526425  0.03703291  0.83130977  1
  Co  Co160  1  0.38664270  0.28847493  0.14757241  1
  Co  Co161  1  0.37189980  0.65513254  0.26662554  1
  Ni  Ni162  1  0.82878918  0.76128679  0.07604137  1
  Ni  Ni163  1  0.86259516  0.04340340  0.29238409  1
  Ni  Ni164  1  0.29725614  0.98610572  0.46163135  1
  Ni  Ni165  1  -0.01759043  0.66708957  0.77705913  1
  Ni  Ni166  1  0.09814537  0.25713157  0.24891446  1
  Ni  Ni167  1  0.78222158  0.69421471  0.63669486  1
  Ni  Ni168  1  0.38382900  0.70505009  0.88083496  1
  Ni  Ni169  1  0.21984682  0.12937363  0.84457022  1
  Ni  Ni170  1  0.73951761  0.43674111  0.03767983  1
  Ni  Ni171  1  0.68917162  0.57213054  0.73364435  1
  Ni  Ni172  1  0.56813094  1.02764220  0.39793206  1
  Ni  Ni173  1  0.89196339  0.54884792  0.70136400  1
  Ni  Ni174  1  0.26656320  0.95845347  0.07528266  1
  Ni  Ni175  1  0.65733889  0.58559481  0.07429763  1
  Ni  Ni176  1  0.38476520  0.38997283  0.36654602  1
  Ni  Ni177  1  0.78149636  0.57034596  0.30846383  1
  Ni  Ni178  1  0.19055184  0.45173218  0.46265074  1
  Ni  Ni179  1  0.12855268  0.13925697  0.14700246  1
  Ni  Ni180  1  0.48560915  0.19911338  0.58103168  1
  Ni  Ni181  1  0.82815186  0.12446495  0.54901748  1
  Ni  Ni182  1  0.55814235  0.04141566  0.57473570  1
  Ni  Ni183  1  0.72191746  0.23667981  0.68930524  1
  Ni  Ni184  1  0.65631930  0.14485827  0.32964126  1
  Ni  Ni185  1  0.22310092  0.77094613  0.26746025  1
  Ni  Ni186  1  0.11205737  0.35034161  0.92825678  1
  Ni  Ni187  1  0.22399245  -0.01672190  0.22975079  1
  Ni  Ni188  1  0.34597292  0.57486527  0.65736932  1
  Ni  Ni189  1  0.10023949  0.53579675  0.12753567  1
  Ni  Ni190  1  0.22146528  0.27292527  0.11662377  1
  Ni  Ni191  1  0.30565506  0.32980909  0.51678703  1
  Ni  Ni192  1  0.92689879  0.70356173  0.93123119  1
  Ni  Ni193  1  0.11835696  0.73029690  0.41298217  1
  Ni  Ni194  1  0.12330919  0.70859247  0.08753533  1
  Ni  Ni195  1  0.64344206  0.38295857  0.53661146  1
  Ni  Ni196  1  0.97221302  0.62016998  0.35941735  1
  Ni  Ni197  1  0.53414959  0.42130080  0.28629458  1
  Ni  Ni198  1  0.42497392  0.09350988  0.46675075  1
  Ni  Ni199  1  0.20307179  0.77729885  0.83511736  1
  Ni  Ni200  1  0.06785497  0.57923336  0.65487398  1
  Ni  Ni201  1  0.40434290  0.98668432  0.16536130  1
  Ni  Ni202  1  0.07078068  0.05298490  0.45115488  1
  Ni  Ni203  1  0.04408054  0.94808206  0.94330519  1
  Ni  Ni204  1  0.19451626  0.46347884  0.82074657  1
  Ni  Ni205  1  0.33645380  0.82448659  1.01599490  1
  Ni  Ni206  1  0.99169889  0.83098530  0.35870083  1
  Ni  Ni207  1  0.74863361  0.04010013  0.41257983  1
  Ni  Ni208  1  0.03509171  0.50050470  0.97769240  1
  Ni  Ni209  1  0.55001762  0.50431004  0.78685180  1
  Ni  Ni210  1  0.57685700  0.24990636  0.80006158  1
  Ni  Ni211  1  0.11579379  0.57281966  0.29642728  1
  Ni  Ni212  1  0.30586082  0.18562103  0.39180188  1
  Ni  Ni213  1  0.55265556  0.92054571  0.14655766  1
  Ni  Ni214  1  0.53415241  0.19519074  0.42303297  1
  Ni  Ni215  1  0.69815328  0.00324337  0.13502323  1
