# generated using pymatgen
data_Ti2CoNi
_symmetry_space_group_name_H-M   'P 1'
_cell_length_a   14.64982748
_cell_length_b   14.60524131
_cell_length_c   14.61913040
_cell_angle_alpha   89.71248379
_cell_angle_beta   90.59645106
_cell_angle_gamma   90.36233476
_symmetry_Int_Tables_number   1
_chemical_formula_structural   Ti2CoNi
_chemical_formula_sum   'Ti108 Co54 Ni54'
_cell_volume   3127.70110844
_cell_formula_units_Z   54
loop_
 _symmetry_equiv_pos_site_id
 _symmetry_equiv_pos_as_xyz
  1  'x, y, z'
loop_
 _atom_site_type_symbol
 _atom_site_label
 _atom_site_symmetry_multiplicity
 _atom_site_fract_x
 _atom_site_fract_y
 _atom_site_fract_z
 _atom_site_occupancy
  Ti  Ti0  1  0.06767282  0.02300985  -0.06863416  1
  Ti  Ti1  1  0.01170323  0.01427536  0.35839026  1
  Ti  Ti2  1  0.04553454  0.03368230  0.57815378  1
  Ti  Ti3  1  0.02245152  0.25448385  -0.01129460  1
  Ti  Ti4  1  -0.03701907  0.22987148  0.29896289  1
  Ti  Ti5  1  -0.01689294  0.31059546  0.67131424  1
  Ti  Ti6  1  -0.00994689  0.71641144  -0.06081867  1
  Ti  Ti7  1  -0.03372891  0.65998596  0.42513298  1
  Ti  Ti8  1  0.06594037  0.60980102  0.67822599  1
  Ti  Ti9  1  0.31555866  0.07071782  0.03126550  1
  Ti  Ti10  1  0.29444335  -0.09866478  0.30375044  1
  Ti  Ti11  1  0.34896961  -0.01049180  0.61424994  1
  Ti  Ti12  1  0.35246262  0.35764567  0.10907255  1
  Ti  Ti13  1  0.34797396  0.38157150  0.31569506  1
  Ti  Ti14  1  0.36389305  0.35832314  0.65170795  1
  Ti  Ti15  1  0.36025012  0.72216531  0.00533472  1
  Ti  Ti16  1  0.34136385  0.70101617  0.27012929  1
  Ti  Ti17  1  0.28190038  0.70127450  0.60431504  1
  Ti  Ti18  1  0.71924216  0.06270269  0.00708632  1
  Ti  Ti19  1  0.62792614  -0.00652481  0.32512291  1
  Ti  Ti20  1  0.60956463  -0.03373152  0.63151108  1
  Ti  Ti21  1  0.69578283  0.36324514  -0.01872463  1
  Ti  Ti22  1  0.71148902  0.34948892  0.28339207  1
  Ti  Ti23  1  0.69872193  0.40096157  0.65052548  1
  Ti  Ti24  1  0.66371484  0.69550702  0.03126165  1
  Ti  Ti25  1  0.65250800  0.65855938  0.38331723  1
  Ti  Ti26  1  0.62934022  0.59641097  0.58137730  1
  Ti  Ti27  1  0.07340173  0.15905943  0.16316241  1
  Ti  Ti28  1  -0.03215638  0.25161557  0.48290281  1
  Ti  Ti29  1  -0.07765345  0.14555897  0.80850827  1
  Ti  Ti30  1  -0.01863790  0.52410156  0.29621154  1
  Ti  Ti31  1  0.03628824  0.47076602  0.51658774  1
  Ti  Ti32  1  0.04202955  0.42534222  0.90537412  1
  Ti  Ti33  1  -0.04892473  0.78950536  0.11989581  1
  Ti  Ti34  1  -0.06475588  0.85688046  0.51611488  1
  Ti  Ti35  1  0.00804271  0.90223730  0.80327459  1
  Ti  Ti36  1  0.27849340  0.20085009  0.18589260  1
  Ti  Ti37  1  0.30710067  0.16556358  0.50775339  1
  Ti  Ti38  1  0.36949028  0.12816389  0.86599087  1
  Ti  Ti39  1  0.34928535  0.54611397  0.09897906  1
  Ti  Ti40  1  0.35977733  0.54378063  0.49072902  1
  Ti  Ti41  1  0.34532062  0.56679738  0.87423338  1
  Ti  Ti42  1  0.33633873  0.89037575  0.11044087  1
  Ti  Ti43  1  0.37962249  0.75828520  0.45482406  1
  Ti  Ti44  1  0.32573723  0.89369574  0.88723716  1
  Ti  Ti45  1  0.63972001  0.17103778  0.20643417  1
  Ti  Ti46  1  0.63178937  0.11853601  0.47726304  1
  Ti  Ti47  1  0.71185641  0.23171191  0.82961089  1
  Ti  Ti48  1  0.65338680  0.49825531  0.18623916  1
  Ti  Ti49  1  0.61705673  0.46151765  0.42150473  1
  Ti  Ti50  1  0.68915653  0.54452028  0.88714087  1
  Ti  Ti51  1  0.62554369  0.80510049  0.20895351  1
  Ti  Ti52  1  0.70390347  0.81141554  0.55703810  1
  Ti  Ti53  1  0.71448954  0.75909717  0.79854088  1
  Ti  Ti54  1  0.11114382  -0.04553487  0.14251125  1
  Ti  Ti55  1  0.22381732  -0.01313745  0.46364146  1
  Ti  Ti56  1  0.19964368  -0.01573306  0.73572272  1
  Ti  Ti57  1  0.06405084  0.38136864  0.19550916  1
  Ti  Ti58  1  0.16265376  0.29922898  0.45827595  1
  Ti  Ti59  1  0.22030288  0.40467053  0.81771857  1
  Ti  Ti60  1  0.16273291  0.58519671  0.18523653  1
  Ti  Ti61  1  0.12050610  0.71570411  0.50454422  1
  Ti  Ti62  1  0.15387568  0.59001866  0.88073770  1
  Ti  Ti63  1  0.54970134  -0.01920265  0.14685474  1
  Ti  Ti64  1  0.43964259  0.01535793  0.43302905  1
  Ti  Ti65  1  0.49555782  -0.00056634  0.81937293  1
  Ti  Ti66  1  0.53802528  0.30311434  0.10957256  1
  Ti  Ti67  1  0.56282356  0.32754543  0.54154092  1
  Ti  Ti68  1  0.50179811  0.28499956  0.89816149  1
  Ti  Ti69  1  0.50638807  0.65387634  0.14048324  1
  Ti  Ti70  1  0.46674372  0.66925340  0.62274879  1
  Ti  Ti71  1  0.51932654  0.71719866  0.83854300  1
  Ti  Ti72  1  0.85252475  -0.04332498  0.15180668  1
  Ti  Ti73  1  0.87234406  0.06856921  0.49073829  1
  Ti  Ti74  1  0.75886381  -0.05385715  0.79140064  1
  Ti  Ti75  1  0.86177755  0.41695367  0.16626231  1
  Ti  Ti76  1  0.77783490  0.24726819  0.53445753  1
  Ti  Ti77  1  0.88545213  0.33900742  0.84529840  1
  Ti  Ti78  1  0.83166037  0.62601005  0.14552376  1
  Ti  Ti79  1  0.80570586  0.66625795  0.49438117  1
  Ti  Ti80  1  0.85491612  0.63248316  0.79802854  1
  Ti  Ti81  1  0.22103563  0.25156592  -0.05275437  1
  Ti  Ti82  1  0.18302226  0.09949988  0.31564093  1
  Ti  Ti83  1  0.20256384  0.21012089  0.74159313  1
  Ti  Ti84  1  0.19103035  0.44415578  0.02487844  1
  Ti  Ti85  1  0.18357078  0.48685672  0.37676596  1
  Ti  Ti86  1  0.16889184  0.40809821  0.63784875  1
  Ti  Ti87  1  0.15875271  0.79695384  -0.00361286  1
  Ti  Ti88  1  0.13149683  0.78339400  0.26571416  1
  Ti  Ti89  1  0.10657504  0.81955737  0.66224815  1
  Ti  Ti90  1  0.51968029  0.11662851  0.01688431  1
  Ti  Ti91  1  0.45975701  0.23756922  0.40716630  1
  Ti  Ti92  1  0.52499928  0.18964192  0.73531750  1
  Ti  Ti93  1  0.48860770  0.45934308  -0.04724707  1
  Ti  Ti94  1  0.47605319  0.53285493  0.29599471  1
  Ti  Ti95  1  0.51316375  0.51711771  0.74946107  1
  Ti  Ti96  1  0.51821620  0.83351604  0.01948192  1
  Ti  Ti97  1  0.49660307  0.84914224  0.34220553  1
  Ti  Ti98  1  0.42911508  0.84295778  0.70833297  1
  Ti  Ti99  1  0.91834082  0.09239327  0.02433619  1
  Ti  Ti100  1  0.79949430  0.08540201  0.30488094  1
  Ti  Ti101  1  0.77984672  0.09563302  0.66274707  1
  Ti  Ti102  1  0.90039658  0.53583786  -0.02844338  1
  Ti  Ti103  1  0.79226978  0.53559788  0.33105263  1
  Ti  Ti104  1  0.88292017  0.51697956  0.64757511  1
  Ti  Ti105  1  0.79576363  0.87084050  -0.01791719  1
  Ti  Ti106  1  0.84061397  0.77231584  0.30407631  1
  Ti  Ti107  1  0.88071365  0.80892664  0.68952702  1
  Co  Co108  1  0.87963838  0.37678299  0.33493340  1
  Co  Co109  1  0.81534004  0.25344447  0.22832213  1
  Co  Co110  1  0.34004906  0.27556868  0.80856381  1
  Co  Co111  1  0.28836033  0.23871545  0.36113454  1
  Co  Co112  1  0.97758057  0.57370390  0.14075516  1
  Co  Co113  1  0.79550400  0.13601750  0.13013262  1
  Co  Co114  1  0.93236211  0.15938995  0.62815514  1
  Co  Co115  1  0.48608985  0.62762527  0.96876063  1
  Co  Co116  1  0.45224997  0.80746598  0.18249363  1
  Co  Co117  1  0.34783677  0.09767977  0.33015137  1
  Co  Co118  1  0.65875258  0.21434085  0.02771757  1
  Co  Co119  1  0.52730779  0.35058325  0.70095402  1
  Co  Co120  1  0.16898738  0.29264736  0.10358673  1
  Co  Co121  1  0.16066759  0.87957873  0.85554989  1
  Co  Co122  1  0.59294135  0.88070480  0.77562768  1
  Co  Co123  1  0.64495036  0.82026533  0.92520032  1
  Co  Co124  1  0.55673848  0.75181964  0.49247445  1
  Co  Co125  1  0.49508610  0.48662318  0.58873986  1
  Co  Co126  1  0.06725649  0.56465349  1.01335213  1
  Co  Co127  1  0.39900276  0.42365283  0.80353492  1
  Co  Co128  1  0.74169778  0.91087821  0.25215369  1
  Co  Co129  1  0.10215608  0.88806408  0.50561292  1
  Co  Co130  1  0.45530975  0.41988450  0.43542158  1
  Co  Co131  1  0.82560824  0.21738852  0.96001024  1
  Co  Co132  1  0.59136890  0.13864403  0.88404808  1
  Co  Co133  1  0.25738670  0.85753064  0.57803050  1
  Co  Co134  1  0.22613934  0.62761446  0.02481962  1
  Co  Co135  1  0.75173148  0.51364525  0.52602909  1
  Co  Co136  1  0.30953759  0.54473212  0.28581804  1
  Co  Co137  1  0.93139878  0.25272020  0.11935305  1
  Co  Co138  1  0.59188646  0.76630127  0.66229740  1
  Co  Co139  1  0.89399257  0.50395273  0.45179905  1
  Co  Co140  1  -0.00977852  0.89718478  0.24293116  1
  Co  Co141  1  0.87311887  0.38315365  0.56197797  1
  Co  Co142  1  0.75609377  0.37980155  0.44457953  1
  Co  Co143  1  0.09579305  0.73132187  0.81009511  1
  Co  Co144  1  0.51177952  0.69390229  0.31230768  1
  Co  Co145  1  0.37621490  0.68401694  0.76043134  1
  Co  Co146  1  -0.00046965  0.42307237  0.06555963  1
  Co  Co147  1  0.86382161  0.36957414  1.00062334  1
  Co  Co148  1  0.98353385  0.69903915  0.25493330  1
  Co  Co149  1  0.93781768  0.08712770  0.20453068  1
  Co  Co150  1  0.22324665  0.81379565  0.41836845  1
  Co  Co151  1  0.67367091  0.90159324  0.08020820  1
  Co  Co152  1  0.99832097  0.57980443  0.83205677  1
  Co  Co153  1  0.63138325  0.97375861  0.91293389  1
  Co  Co154  1  0.81190525  0.22263582  0.38640373  1
  Co  Co155  1  0.01444405  0.82082511  0.38095583  1
  Co  Co156  1  0.25513152  0.72466501  0.87800041  1
  Co  Co157  1  0.20394143  0.95606885  0.00303148  1
  Co  Co158  1  0.08451786  0.70243616  0.10704491  1
  Co  Co159  1  0.64943504  0.06337363  0.75825250  1
  Co  Co160  1  0.33580367  0.38592104  0.94788013  1
  Co  Co161  1  0.77991934  0.78387535  0.13570231  1
  Ni  Ni162  1  0.73305391  -0.01816878  0.46525111  1
  Ni  Ni163  1  0.86515698  0.92582065  0.36907399  1
  Ni  Ni164  1  0.65364847  0.20597492  0.63860423  1
  Ni  Ni165  1  0.88840707  -0.00305827  0.88284500  1
  Ni  Ni166  1  0.04110256  0.37561557  0.36939803  1
  Ni  Ni167  1  0.53898831  0.37040999  0.28430968  1
  Ni  Ni168  1  0.49639515  0.07673118  0.57998650  1
  Ni  Ni169  1  0.15605971  0.11868667  0.03632521  1
  Ni  Ni170  1  0.80094142  0.93822444  0.61019744  1
  Ni  Ni171  1  0.78291113  0.45191575  0.78522885  1
  Ni  Ni172  1  0.81488680  0.27321058  0.69954571  1
  Ni  Ni173  1  0.11253664  0.13373282  0.45940986  1
  Ni  Ni174  1  0.26952450  0.02811200  0.18806459  1
  Ni  Ni175  1  0.21179749  0.07562238  0.87532636  1
  Ni  Ni176  1  0.44081861  0.22708112  0.58950320  1
  Ni  Ni177  1  0.26235942  0.81412929  0.74020482  1
  Ni  Ni178  1  0.37199302  0.12314404  0.70338931  1
  Ni  Ni179  1  0.80754452  0.68562306  0.95936049  1
  Ni  Ni180  1  0.14721731  0.26903067  0.28462037  1
  Ni  Ni181  1  0.03819180  0.45066600  0.73892666  1
  Ni  Ni182  1  0.97002539  0.89814505  -0.00773628  1
  Ni  Ni183  1  0.43006247  0.97834530  0.25592289  1
  Ni  Ni184  1  0.50904943  0.59606732  0.45636782  1
  Ni  Ni185  1  0.43478727  0.24822260  0.24027815  1
  Ni  Ni186  1  0.62415542  0.39404388  0.82734461  1
  Ni  Ni187  1  0.94554444  0.68983156  0.59628545  1
  Ni  Ni188  1  0.25370753  0.64941386  0.41758300  1
  Ni  Ni189  1  0.42834950  0.11163403  0.15731008  1
  Ni  Ni190  1  0.63248026  0.26207092  0.39357674  1
  Ni  Ni191  1  0.38848110  0.22824279  1.01794508  1
  Ni  Ni192  1  0.51842489  0.11608973  0.30843665  1
  Ni  Ni193  1  0.28045289  0.40430367  0.50547454  1
  Ni  Ni194  1  0.87662946  0.80783180  0.85759890  1
  Ni  Ni195  1  0.06579162  0.10294457  0.73499003  1
  Ni  Ni196  1  0.64183477  0.62303280  0.74621842  1
  Ni  Ni197  1  0.24698222  0.74942959  0.14338144  1
  Ni  Ni198  1  0.20177372  0.09618384  0.61183312  1
  Ni  Ni199  1  0.75901377  0.50758352  0.04637543  1
  Ni  Ni200  1  0.06615867  0.27837764  0.82176132  1
  Ni  Ni201  1  0.44930295  0.87241712  0.54725225  1
  Ni  Ni202  1  0.60203493  0.53529978  0.03718187  1
  Ni  Ni203  1  0.49214914  0.46104418  0.14173009  1
  Ni  Ni204  1  0.68683917  0.82261181  0.38705830  1
  Ni  Ni205  1  0.58290658  0.92310850  0.47252805  1
  Ni  Ni206  1  0.22954470  0.42710816  0.19912565  1
  Ni  Ni207  1  0.10278875  0.22505354  0.59832763  1
  Ni  Ni208  1  0.77155492  0.67416741  0.65481505  1
  Ni  Ni209  1  0.68624448  0.65553143  0.22221652  1
  Ni  Ni210  1  0.19468062  0.55385756  0.55425169  1
  Ni  Ni211  1  0.21999324  0.62998053  0.73554197  1
  Ni  Ni212  1  0.10857391  0.63461735  0.34644297  1
  Ni  Ni213  1  0.33524257  0.52800924  0.67038707  1
  Ni  Ni214  1  0.44306353  0.97146830  0.98399152  1
  Ni  Ni215  1  0.92344954  1.00405391  0.69777246  1
