# generated using pymatgen
data_Ti2CoNi
_symmetry_space_group_name_H-M   'P 1'
_cell_length_a   14.56470287
_cell_length_b   14.65383597
_cell_length_c   14.66251215
_cell_angle_alpha   90.20839059
_cell_angle_beta   89.89864935
_cell_angle_gamma   90.11932177
_symmetry_Int_Tables_number   1
_chemical_formula_structural   Ti2CoNi
_chemical_formula_sum   'Ti108 Co54 Ni54'
_cell_volume   3129.36954482
_cell_formula_units_Z   54
loop_
 _symmetry_equiv_pos_site_id
 _symmetry_equiv_pos_as_xyz
  1  'x, y, z'
loop_
 _atom_site_type_symbol
 _atom_site_label
 _atom_site_symmetry_multiplicity
 _atom_site_fract_x
 _atom_site_fract_y
 _atom_site_fract_z
 _atom_site_occupancy
  Ti  Ti0  1  -0.00535275  -0.03254157  0.00938727  1
  Ti  Ti1  1  0.05683522  0.01570843  0.31689379  1
  Ti  Ti2  1  -0.02244838  0.03567020  0.66767147  1
  Ti  Ti3  1  0.04712597  0.38221013  0.01203233  1
  Ti  Ti4  1  -0.00654921  0.26843267  0.29572857  1
  Ti  Ti5  1  0.06309810  0.36835592  0.62659109  1
  Ti  Ti6  1  0.03164928  0.67969417  -0.00497962  1
  Ti  Ti7  1  -0.00576725  0.70943037  0.33724713  1
  Ti  Ti8  1  -0.00229801  0.71819371  0.66587610  1
  Ti  Ti9  1  0.29719863  0.06524511  0.00488905  1
  Ti  Ti10  1  0.37179217  0.02143549  0.28730563  1
  Ti  Ti11  1  0.26931574  -0.02604355  0.63612862  1
  Ti  Ti12  1  0.26940053  0.31804008  -0.01000684  1
  Ti  Ti13  1  0.37810863  0.35302882  0.32717857  1
  Ti  Ti14  1  0.40763051  0.37289478  0.72242330  1
  Ti  Ti15  1  0.37742499  0.60762272  0.00871915  1
  Ti  Ti16  1  0.33839185  0.70380632  0.35376784  1
  Ti  Ti17  1  0.32718739  0.61264443  0.69570488  1
  Ti  Ti18  1  0.77130741  -0.04331735  -0.01730102  1
  Ti  Ti19  1  0.61395774  0.00984009  0.41385299  1
  Ti  Ti20  1  0.67599709  0.00662829  0.61654595  1
  Ti  Ti21  1  0.63786147  0.31834200  0.03467627  1
  Ti  Ti22  1  0.71673232  0.39309858  0.32424317  1
  Ti  Ti23  1  0.64715259  0.29844491  0.60460275  1
  Ti  Ti24  1  0.68220894  0.75604902  -0.00787894  1
  Ti  Ti25  1  0.75783031  0.68969636  0.28299408  1
  Ti  Ti26  1  0.69577905  0.80171701  0.62064848  1
  Ti  Ti27  1  -0.09831946  0.11809918  0.13775790  1
  Ti  Ti28  1  -0.04193849  0.19455279  0.58400149  1
  Ti  Ti29  1  0.03751846  0.10553981  0.84176437  1
  Ti  Ti30  1  -0.03557713  0.48934819  0.22879898  1
  Ti  Ti31  1  -0.00191900  0.47790060  0.46668035  1
  Ti  Ti32  1  -0.07429608  0.49133915  0.77797268  1
  Ti  Ti33  1  -0.04959269  0.79405448  0.17247391  1
  Ti  Ti34  1  0.02103548  0.82254312  0.48133568  1
  Ti  Ti35  1  -0.04338084  0.89656500  0.78867066  1
  Ti  Ti36  1  0.39468860  0.16341655  0.12976431  1
  Ti  Ti37  1  0.30713737  0.22891018  0.48257984  1
  Ti  Ti38  1  0.35077314  0.15783277  0.78699173  1
  Ti  Ti39  1  0.36163784  0.45167364  0.13786461  1
  Ti  Ti40  1  0.29681831  0.44802435  0.47010124  1
  Ti  Ti41  1  0.35820724  0.47275605  0.88275906  1
  Ti  Ti42  1  0.29121842  0.78998032  0.17576612  1
  Ti  Ti43  1  0.24727398  0.85371263  0.47592118  1
  Ti  Ti44  1  0.34204114  0.75096201  0.86843112  1
  Ti  Ti45  1  0.69140736  0.21339453  0.19029115  1
  Ti  Ti46  1  0.66867736  0.21628246  0.40858682  1
  Ti  Ti47  1  0.71255274  0.17325288  0.73613125  1
  Ti  Ti48  1  0.65383352  0.58730209  0.15477935  1
  Ti  Ti49  1  0.61727259  0.45733644  0.49329918  1
  Ti  Ti50  1  0.64921530  0.53277380  0.80685041  1
  Ti  Ti51  1  0.60756060  0.78515427  0.18393924  1
  Ti  Ti52  1  0.64700338  0.79749511  0.41595044  1
  Ti  Ti53  1  0.66231419  0.82822104  0.81240546  1
  Ti  Ti54  1  0.21075552  -0.02697437  0.18751326  1
  Ti  Ti55  1  0.09090041  0.00986720  0.51693727  1
  Ti  Ti56  1  0.24439628  -0.00983715  0.83852044  1
  Ti  Ti57  1  0.15269353  0.30417722  0.17642127  1
  Ti  Ti58  1  0.14485454  0.33522260  0.45094699  1
  Ti  Ti59  1  0.22255639  0.30991405  0.78394764  1
  Ti  Ti60  1  0.09266658  0.63757141  0.17262157  1
  Ti  Ti61  1  0.16348292  0.59307563  0.54959552  1
  Ti  Ti62  1  0.08774031  0.62653167  0.81687735  1
  Ti  Ti63  1  0.52817607  0.00970335  0.15960732  1
  Ti  Ti64  1  0.47439973  0.02883068  0.55271822  1
  Ti  Ti65  1  0.49391880  -0.04107498  0.86823206  1
  Ti  Ti66  1  0.51426566  0.28359394  0.21688444  1
  Ti  Ti67  1  0.46468855  0.32116479  0.54408600  1
  Ti  Ti68  1  0.54554017  0.38939987  0.87031276  1
  Ti  Ti69  1  0.44947237  0.65277910  0.18624146  1
  Ti  Ti70  1  0.52372042  0.63101656  0.43843400  1
  Ti  Ti71  1  0.52342715  0.68817608  0.74486964  1
  Ti  Ti72  1  0.76670434  0.06257576  0.29311310  1
  Ti  Ti73  1  0.89480377  -0.00390169  0.44680680  1
  Ti  Ti74  1  0.81989493  0.04752117  0.82290492  1
  Ti  Ti75  1  0.82913557  0.35897771  0.14664137  1
  Ti  Ti76  1  0.82376692  0.34026276  0.51192413  1
  Ti  Ti77  1  0.81052447  0.27489560  0.88052938  1
  Ti  Ti78  1  0.83240661  0.61920221  0.07175611  1
  Ti  Ti79  1  0.72731721  0.64190725  0.52030146  1
  Ti  Ti80  1  0.82595688  0.65625462  0.85412742  1
  Ti  Ti81  1  0.05037472  0.18717524  0.01594053  1
  Ti  Ti82  1  0.19322348  0.14066594  0.36515277  1
  Ti  Ti83  1  0.16499755  0.14822840  0.68846195  1
  Ti  Ti84  1  0.17995260  0.54182346  0.01333364  1
  Ti  Ti85  1  0.21343927  0.48095139  0.28225417  1
  Ti  Ti86  1  0.18683047  0.49876823  0.73473031  1
  Ti  Ti87  1  0.20858250  0.87534121  0.00698230  1
  Ti  Ti88  1  0.13219470  0.83589587  0.30029809  1
  Ti  Ti89  1  0.19764777  0.80302321  0.72216501  1
  Ti  Ti90  1  0.49935696  0.18673368  -0.06306991  1
  Ti  Ti91  1  0.48369027  0.16926018  0.40600910  1
  Ti  Ti92  1  0.53412445  0.11587929  0.72381147  1
  Ti  Ti93  1  0.53901844  0.48776146  0.04089368  1
  Ti  Ti94  1  0.53640155  0.48302049  0.27999426  1
  Ti  Ti95  1  0.45521697  0.51969700  0.59645857  1
  Ti  Ti96  1  0.49263890  0.85614044  0.04861057  1
  Ti  Ti97  1  0.45058068  0.88118154  0.40485201  1
  Ti  Ti98  1  0.51312749  0.87962393  0.69158197  1
  Ti  Ti99  1  0.73993605  0.15490340  0.00708202  1
  Ti  Ti100  1  0.85783020  0.18689521  0.42173632  1
  Ti  Ti101  1  0.86109901  0.32275372  0.70273984  1
  Ti  Ti102  1  0.86307617  0.45848799  -0.03349278  1
  Ti  Ti103  1  0.86897729  0.58615386  0.38370995  1
  Ti  Ti104  1  0.74391753  0.48602569  0.65070627  1
  Ti  Ti105  1  0.88752919  0.80351356  0.00323896  1
  Ti  Ti106  1  0.78905514  0.88007158  0.28099701  1
  Ti  Ti107  1  0.87326333  0.87949569  0.59466463  1
  Co  Co108  1  0.95427203  0.34538084  0.87563592  1
  Co  Co109  1  0.10401225  0.27726633  0.88901360  1
  Co  Co110  1  0.77215553  0.19821340  0.57997407  1
  Co  Co111  1  0.22660993  0.08646086  0.52775716  1
  Co  Co112  1  0.36109704  0.95723207  0.11685944  1
  Co  Co113  1  0.07275406  0.40752521  0.31930547  1
  Co  Co114  1  0.46746391  0.03941024  0.00882141  1
  Co  Co115  1  0.25707875  0.72894871  0.57764131  1
  Co  Co116  1  0.72965892  0.46670414  0.07148697  1
  Co  Co117  1  0.36966061  0.76202736  0.04000856  1
  Co  Co118  1  0.06662845  0.40363445  0.78271134  1
  Co  Co119  1  0.20932785  0.19364296  0.05915520  1
  Co  Co120  1  0.70227046  0.35914704  0.76262627  1
  Co  Co121  1  0.84483377  0.76739930  0.72138139  1
  Co  Co122  1  0.55379924  0.73026751  0.56751674  1
  Co  Co123  1  0.64589913  0.23913857  0.87468842  1
  Co  Co124  1  0.34748567  0.60219165  0.51040014  1
  Co  Co125  1  0.14519935  0.72052004  0.43802858  1
  Co  Co126  1  0.35181397  0.88174116  0.78012320  1
  Co  Co127  1  0.40729181  0.01470588  0.72094457  1
  Co  Co128  1  0.57131512  0.89033507  0.53393082  1
  Co  Co129  1  0.86409704  0.93620660  0.12287270  1
  Co  Co130  1  0.36257615  0.90961053  0.95330373  1
  Co  Co131  1  0.40631914  0.75069994  0.49727415  1
  Co  Co132  1  0.98466842  0.30851565  0.46353883  1
  Co  Co133  1  0.63983980  0.39621341  0.18148687  1
  Co  Co134  1  0.35683689  0.05512279  0.44465265  1
  Co  Co135  1  0.74832888  0.07572810  0.47474901  1
  Co  Co136  1  0.23315009  0.58699707  0.40024938  1
  Co  Co137  1  1.00278729  0.64850611  0.50214840  1
  Co  Co138  1  0.35633185  0.18948483  0.31063597  1
  Co  Co139  1  0.11883958  0.20548116  0.54541968  1
  Co  Co140  1  0.86652227  0.71852808  0.56093308  1
  Co  Co141  1  0.98975561  0.53656501  0.07017174  1
  Co  Co142  1  0.32246492  0.30010068  0.17243759  1
  Co  Co143  1  0.70299903  0.41516872  0.91852238  1
  Co  Co144  1  0.83047498  0.05505908  0.61996225  1
  Co  Co145  1  0.07450038  0.57392054  0.36072566  1
  Co  Co146  1  0.39170474  0.88424092  0.57831544  1
  Co  Co147  1  0.56237160  0.16252644  0.09143783  1
  Co  Co148  1  0.60240692  0.14665017  0.55079329  1
  Co  Co149  1  0.02443305  0.51085817  0.91305466  1
  Co  Co150  1  0.92660010  0.10690672  0.29460098  1
  Co  Co151  1  0.85746886  0.60788134  0.68203858  1
  Co  Co152  1  0.18714524  0.68600547  0.28336351  1
  Co  Co153  1  0.57418936  0.42747382  0.67305796  1
  Co  Co154  1  1.03345938  0.24472425  0.73621628  1
  Co  Co155  1  0.90369508  0.63907862  0.21301098  1
  Co  Co156  1  0.88745771  0.16722934  0.74050198  1
  Co  Co157  1  0.78828390  0.92546265  0.72675439  1
  Co  Co158  1  0.22524605  0.29772980  0.31860324  1
  Co  Co159  1  0.38141493  0.76050040  0.68193593  1
  Co  Co160  1  0.78411398  0.51222579  0.22981703  1
  Co  Co161  1  0.74447863  0.91290181  0.47944070  1
  Ni  Ni162  1  0.30268886  0.26973259  0.64242115  1
  Ni  Ni163  1  0.60561935  0.58589723  0.62756681  1
  Ni  Ni164  1  0.61853223  0.92568912  0.27445155  1
  Ni  Ni165  1  0.02367992  0.14399796  0.42713214  1
  Ni  Ni166  1  0.88422423  0.39653079  0.34650555  1
  Ni  Ni167  1  0.05872905  0.87724598  0.63319382  1
  Ni  Ni168  1  0.09323337  0.91858020  0.88259155  1
  Ni  Ni169  1  0.24211830  0.13740324  0.20461816  1
  Ni  Ni170  1  0.52116103  0.59317596  0.90567703  1
  Ni  Ni171  1  0.54162695  0.67431617  0.04795424  1
  Ni  Ni172  1  0.07360309  0.15046982  0.20664079  1
  Ni  Ni173  1  0.11571281  0.80199252  0.12545245  1
  Ni  Ni174  1  0.45720444  0.46900527  0.43347986  1
  Ni  Ni175  1  0.12535929  0.46547401  0.14564862  1
  Ni  Ni176  1  0.90422899  0.46031399  0.60515658  1
  Ni  Ni177  1  0.12118099  -0.01546989  0.73202929  1
  Ni  Ni178  1  0.47360994  0.52565366  0.76753434  1
  Ni  Ni179  1  0.20802185  0.15511011  0.88606011  1
  Ni  Ni180  1  0.37471994  0.53996888  0.30270038  1
  Ni  Ni181  1  0.89723459  0.26692299  0.02502750  1
  Ni  Ni182  1  0.12011060  0.05090466  0.08204802  1
  Ni  Ni183  1  0.43980706  0.86104954  0.23149939  1
  Ni  Ni184  1  0.82231563  0.24792158  0.27659491  1
  Ni  Ni185  1  0.51698187  0.76890592  0.90432057  1
  Ni  Ni186  1  0.03062841  0.94039699  0.17491134  1
  Ni  Ni187  1  0.81463545  0.83612323  0.86649673  1
  Ni  Ni188  1  0.95598884  0.88078931  0.32716225  1
  Ni  Ni189  1  0.28096570  0.60512610  0.15965701  1
  Ni  Ni190  1  0.97134684  0.74882354  0.85117672  1
  Ni  Ni191  1  0.18355105  0.43829039  0.89274361  1
  Ni  Ni192  1  0.65083794  0.91465153  0.08525896  1
  Ni  Ni193  1  0.73140419  0.04473769  0.13302918  1
  Ni  Ni194  1  0.58135482  0.11498646  0.27481760  1
  Ni  Ni195  1  0.51679352  0.74464716  0.31781082  1
  Ni  Ni196  1  0.67623414  0.56154381  0.35976088  1
  Ni  Ni197  1  0.03338798  0.55102653  0.65555660  1
  Ni  Ni198  1  0.39309110  0.30013757  0.87597071  1
  Ni  Ni199  1  0.70953043  0.66953114  0.72454820  1
  Ni  Ni200  1  0.62364252  0.07393637  0.92397445  1
  Ni  Ni201  1  0.64615256  0.99618344  0.78399007  1
  Ni  Ni202  1  0.25236777  0.60859975  0.86706926  1
  Ni  Ni203  1  0.84186015  0.78296188  0.41690641  1
  Ni  Ni204  1  0.15821675  0.76577675  0.88378301  1
  Ni  Ni205  1  0.21535826  0.70248362  1.02729166  1
  Ni  Ni206  1  0.22132622  0.97463900  0.36869560  1
  Ni  Ni207  1  0.78246222  0.48607490  0.47362499  1
  Ni  Ni208  1  0.54725942  0.27823156  0.74518810  1
  Ni  Ni209  1  0.90035105  0.10213623  0.96314364  1
  Ni  Ni210  1  0.68692405  0.58639599  0.96685027  1
  Ni  Ni211  1  0.55049705  0.33523943  0.39169795  1
  Ni  Ni212  1  0.36354075  0.12846470  0.61226980  1
  Ni  Ni213  1  0.44728331  0.32548027  0.04056641  1
  Ni  Ni214  1  0.77548719  0.78436063  0.13351100  1
  Ni  Ni215  1  0.28124380  0.42817976  0.62666932  1
