# generated using pymatgen
data_Ti2CoNi
_symmetry_space_group_name_H-M   'P 1'
_cell_length_a   14.62390701
_cell_length_b   14.56982274
_cell_length_c   14.62519692
_cell_angle_alpha   90.13150748
_cell_angle_beta   90.13583328
_cell_angle_gamma   90.10783323
_symmetry_Int_Tables_number   1
_chemical_formula_structural   Ti2CoNi
_chemical_formula_sum   'Ti108 Co54 Ni54'
_cell_volume   3116.13503473
_cell_formula_units_Z   54
loop_
 _symmetry_equiv_pos_site_id
 _symmetry_equiv_pos_as_xyz
  1  'x, y, z'
loop_
 _atom_site_type_symbol
 _atom_site_label
 _atom_site_symmetry_multiplicity
 _atom_site_fract_x
 _atom_site_fract_y
 _atom_site_fract_z
 _atom_site_occupancy
  Ti  Ti0  1  0.01601474  0.08363863  0.03894122  1
  Ti  Ti1  1  -0.12560188  -0.00163540  0.36826868  1
  Ti  Ti2  1  0.00174614  -0.09179838  0.63576767  1
  Ti  Ti3  1  -0.05088496  0.32689665  0.04407734  1
  Ti  Ti4  1  0.00624069  0.36200262  0.33023643  1
  Ti  Ti5  1  -0.03628334  0.33965806  0.69028764  1
  Ti  Ti6  1  -0.02507597  0.67241783  0.03928156  1
  Ti  Ti7  1  0.01211068  0.59377499  0.27693792  1
  Ti  Ti8  1  0.02109205  0.70258635  0.69951307  1
  Ti  Ti9  1  0.43623152  0.01864151  0.01796625  1
  Ti  Ti10  1  0.32290199  0.01065665  0.38809501  1
  Ti  Ti11  1  0.34508974  0.07777445  0.63870051  1
  Ti  Ti12  1  0.37600185  0.23755287  0.01167454  1
  Ti  Ti13  1  0.41273180  0.33437027  0.34211825  1
  Ti  Ti14  1  0.38031321  0.32539108  0.69231791  1
  Ti  Ti15  1  0.33428663  0.68089280  -0.06735310  1
  Ti  Ti16  1  0.35034232  0.70691518  0.28241241  1
  Ti  Ti17  1  0.22194933  0.62866574  0.69648846  1
  Ti  Ti18  1  0.71824580  -0.07506170  0.05082083  1
  Ti  Ti19  1  0.66470770  0.06429401  0.28364707  1
  Ti  Ti20  1  0.67824244  -0.07071104  0.71000089  1
  Ti  Ti21  1  0.69186992  0.34409842  0.08424940  1
  Ti  Ti22  1  0.65576554  0.30463991  0.30189685  1
  Ti  Ti23  1  0.58324318  0.31373855  0.66112706  1
  Ti  Ti24  1  0.67919708  0.65083916  -0.13490090  1
  Ti  Ti25  1  0.61706858  0.67802651  0.31053892  1
  Ti  Ti26  1  0.75300769  0.63874138  0.67554181  1
  Ti  Ti27  1  0.04026168  0.08426666  0.23126623  1
  Ti  Ti28  1  0.01289241  0.19127898  0.55241368  1
  Ti  Ti29  1  -0.01128759  0.17479086  0.84888249  1
  Ti  Ti30  1  0.04457890  0.49795972  0.09596038  1
  Ti  Ti31  1  -0.01030691  0.42867738  0.52751634  1
  Ti  Ti32  1  -0.01133217  0.48235995  0.81569205  1
  Ti  Ti33  1  0.00199018  0.88065227  0.09331233  1
  Ti  Ti34  1  0.03527016  0.86012497  0.41683469  1
  Ti  Ti35  1  0.00233427  0.96175154  0.89093498  1
  Ti  Ti36  1  0.31384433  0.11214851  0.21572806  1
  Ti  Ti37  1  0.38278340  0.17791189  0.45983612  1
  Ti  Ti38  1  0.33745353  0.13595841  0.85195920  1
  Ti  Ti39  1  0.33379482  0.41604005  0.11065527  1
  Ti  Ti40  1  0.28469741  0.52207448  0.55136641  1
  Ti  Ti41  1  0.32616487  0.48425972  0.83877314  1
  Ti  Ti42  1  0.40151646  0.80659158  0.10176500  1
  Ti  Ti43  1  0.36437115  0.81485333  0.46887343  1
  Ti  Ti44  1  0.35905163  0.76686711  0.75523037  1
  Ti  Ti45  1  0.62009763  0.17853680  0.10637770  1
  Ti  Ti46  1  0.61291954  0.13794283  0.47761839  1
  Ti  Ti47  1  0.69941277  0.08910999  0.84312516  1
  Ti  Ti48  1  0.68376458  0.50005526  0.19897962  1
  Ti  Ti49  1  0.63595344  0.42656216  0.50657207  1
  Ti  Ti50  1  0.62931242  0.50334928  0.73712483  1
  Ti  Ti51  1  0.63872597  0.79420930  0.15267295  1
  Ti  Ti52  1  0.59219242  0.81908937  0.51748025  1
  Ti  Ti53  1  0.61900556  0.83014781  0.91000359  1
  Ti  Ti54  1  0.17545601  -0.04513460  0.13335516  1
  Ti  Ti55  1  0.15023369  0.03216878  0.54724765  1
  Ti  Ti56  1  0.18222304  0.02498845  0.80630824  1
  Ti  Ti57  1  0.16212791  0.28024032  0.22843158  1
  Ti  Ti58  1  0.16718541  0.35009077  0.43293869  1
  Ti  Ti59  1  0.22972445  0.31234716  0.83035554  1
  Ti  Ti60  1  0.19377742  0.60683228  0.18387459  1
  Ti  Ti61  1  0.15069590  0.68809807  0.51886171  1
  Ti  Ti62  1  0.14700015  0.68879546  0.84644679  1
  Ti  Ti63  1  0.46601190  -0.02736892  0.21105368  1
  Ti  Ti64  1  0.48122620  0.00180027  0.50157145  1
  Ti  Ti65  1  0.49014134  0.00724816  0.81391112  1
  Ti  Ti66  1  0.50438960  0.40122547  0.20239850  1
  Ti  Ti67  1  0.44061050  0.37748300  0.51985352  1
  Ti  Ti68  1  0.56491949  0.34959112  0.88672319  1
  Ti  Ti69  1  0.50333282  0.61984618  0.15591581  1
  Ti  Ti70  1  0.58412841  0.62335426  0.56296105  1
  Ti  Ti71  1  0.50443117  0.55986306  0.89195498  1
  Ti  Ti72  1  0.86907062  0.02480126  0.18924432  1
  Ti  Ti73  1  0.83703721  0.03028759  0.57064399  1
  Ti  Ti74  1  0.86418798  0.00494668  0.75612504  1
  Ti  Ti75  1  0.83088357  0.33801302  0.24941334  1
  Ti  Ti76  1  0.81142364  0.37262250  0.45832896  1
  Ti  Ti77  1  0.79316833  0.38354193  0.91983184  1
  Ti  Ti78  1  0.84592466  0.76689680  0.14902494  1
  Ti  Ti79  1  0.81292867  0.71049372  0.49056009  1
  Ti  Ti80  1  0.88742182  0.65926208  0.84077842  1
  Ti  Ti81  1  0.15995003  0.18203186  -0.04577600  1
  Ti  Ti82  1  0.11708210  0.15603780  0.38662803  1
  Ti  Ti83  1  0.12621390  0.19152514  0.70292204  1
  Ti  Ti84  1  0.21665339  0.52686983  -0.00863659  1
  Ti  Ti85  1  0.22474077  0.54109096  0.35619508  1
  Ti  Ti86  1  0.17621672  0.42555997  0.68129894  1
  Ti  Ti87  1  0.16632380  0.79043412  0.00595504  1
  Ti  Ti88  1  0.15917310  0.82059616  0.28238620  1
  Ti  Ti89  1  0.21028129  0.86315102  0.69394014  1
  Ti  Ti90  1  0.53249273  0.16652196  -0.07647549  1
  Ti  Ti91  1  0.50350972  0.18675691  0.27127774  1
  Ti  Ti92  1  0.56875873  0.09620033  0.67206010  1
  Ti  Ti93  1  0.55056322  0.46672355  0.04252056  1
  Ti  Ti94  1  0.43819299  0.54785715  0.39142010  1
  Ti  Ti95  1  0.42330673  0.59393349  0.70689846  1
  Ti  Ti96  1  0.42031587  0.85989872  -0.08834930  1
  Ti  Ti97  1  0.50009894  0.86002065  0.35377256  1
  Ti  Ti98  1  0.44971353  0.90378915  0.64582591  1
  Ti  Ti99  1  0.81391226  0.17535864  0.03390804  1
  Ti  Ti100  1  0.79179255  0.18948073  0.40980032  1
  Ti  Ti101  1  0.80321898  0.23660982  0.75880546  1
  Ti  Ti102  1  0.78333940  0.57519795  0.01335170  1
  Ti  Ti103  1  0.81241796  0.61861209  0.30349360  1
  Ti  Ti104  1  0.79005017  0.43051351  0.64962883  1
  Ti  Ti105  1  0.85971951  0.82533297  -0.04728815  1
  Ti  Ti106  1  0.85205456  0.81982683  0.33037851  1
  Ti  Ti107  1  0.83568835  0.81170752  0.64899361  1
  Co  Co108  1  0.45687184  0.14104005  0.11963569  1
  Co  Co109  1  0.70634725  0.36748646  0.78530741  1
  Co  Co110  1  0.79482822  0.52570319  0.81505475  1
  Co  Co111  1  0.89783129  0.88323285  0.49795057  1
  Co  Co112  1  0.40098637  0.29482932  0.85136729  1
  Co  Co113  1  0.34009689  0.95183679  0.75611076  1
  Co  Co114  1  0.58136003  0.02058380  0.11682631  1
  Co  Co115  1  0.07231812  0.50924163  0.41170179  1
  Co  Co116  1  0.25342660  0.35590349  0.97211295  1
  Co  Co117  1  0.62311127  0.21911760  0.78365693  1
  Co  Co118  1  0.63567437  -0.01021609  0.56536973  1
  Co  Co119  1  0.31369487  0.42121979  0.42967176  1
  Co  Co120  1  0.07636758  0.24046637  0.08413719  1
  Co  Co121  1  0.62335987  0.61086892  0.03534590  1
  Co  Co122  1  0.62117459  0.57357571  0.41741198  1
  Co  Co123  1  0.48003355  0.74644485  0.62385761  1
  Co  Co124  1  0.93363120  0.32563092  0.87239423  1
  Co  Co125  1  0.11665283  0.45413842  0.25208530  1
  Co  Co126  1  0.72181942  0.65093205  0.16243079  1
  Co  Co127  1  0.23972096  0.24421025  0.08969898  1
  Co  Co128  1  0.16291482  0.39277440  0.10176727  1
  Co  Co129  1  0.53874348  0.87782641  0.05179260  1
  Co  Co130  1  0.08301845  0.37831813  0.95463538  1
  Co  Co131  1  0.73455975  0.11418894  0.66755782  1
  Co  Co132  1  0.48678166  0.69902925  0.42730344  1
  Co  Co133  1  0.62307137  0.94988356  0.39766434  1
  Co  Co134  1  0.45740442  0.18321107  0.75109259  1
  Co  Co135  1  0.29275971  0.90388283  0.03579918  1
  Co  Co136  1  0.07858856  0.32689464  0.80218767  1
  Co  Co137  1  0.50482765  0.71524355  0.01090583  1
  Co  Co138  1  0.49151618  0.05334705  0.35352966  1
  Co  Co139  1  0.36813276  0.26966528  0.19722352  1
  Co  Co140  1  0.57811210  0.66191141  0.73435015  1
  Co  Co141  1  0.73506088  0.06071166  0.12213600  1
  Co  Co142  1  0.74357648  0.87725171  0.52598391  1
  Co  Co143  1  0.27897952  0.19895708  0.70521272  1
  Co  Co144  1  0.16678264  0.11795775  0.14979925  1
  Co  Co145  1  0.86172087  0.27475847  0.58411361  1
  Co  Co146  1  0.11222504  0.31571815  0.58788144  1
  Co  Co147  1  0.74022148  0.03722626  0.44589542  1
  Co  Co148  1  0.51129974  0.29888778  0.07578058  1
  Co  Co149  1  0.30085584  0.75857520  0.60227140  1
  Co  Co150  1  0.87738413  0.58915169  0.14689825  1
  Co  Co151  1  0.20796439  0.18364807  0.52433312  1
  Co  Co152  1  0.66483435  0.48754051  0.91571581  1
  Co  Co153  1  0.39886347  0.63118418  0.54906814  1
  Co  Co154  1  0.29168460  0.67227191  0.43307020  1
  Co  Co155  1  0.14822329  0.97282466  0.96596810  1
  Co  Co156  1  0.31408806  0.98882816  0.90591140  1
  Co  Co157  1  0.39807216  0.55102117  1.01453969  1
  Co  Co158  1  0.13055137  0.68096081  0.35496065  1
  Co  Co159  1  0.49502372  0.77981785  0.22492415  1
  Co  Co160  1  0.66197299  0.77374368  0.65615122  1
  Co  Co161  1  0.41338126  0.40428242  -0.03988500  1
  Ni  Ni162  1  0.94042003  0.45422566  0.21335071  1
  Ni  Ni163  1  0.69797950  0.80017785  0.37843629  1
  Ni  Ni164  1  0.00530807  0.92346684  0.25770260  1
  Ni  Ni165  1  0.24435829  0.78530477  0.15212526  1
  Ni  Ni166  1  0.92431470  0.49175277  0.96968989  1
  Ni  Ni167  1  0.36892312  0.53960199  0.22424182  1
  Ni  Ni168  1  0.76214287  0.54412895  0.51058799  1
  Ni  Ni169  1  0.29587997  0.93913300  0.55975656  1
  Ni  Ni170  1  0.15992018  0.51241404  0.82422039  1
  Ni  Ni171  1  0.05943983  0.53897961  0.65386686  1
  Ni  Ni172  1  0.99366302  0.75948250  0.27311453  1
  Ni  Ni173  1  0.47229057  0.20662557  0.58801990  1
  Ni  Ni174  1  0.90190097  0.56191121  0.68962283  1
  Ni  Ni175  1  0.82760603  0.43530893  0.09664003  1
  Ni  Ni176  1  0.32613690  0.88395989  0.26808236  1
  Ni  Ni177  1  0.76467446  0.19150043  0.21948487  1
  Ni  Ni178  1  0.94025386  0.26577385  0.43617541  1
  Ni  Ni179  1  0.92932178  0.19713864  0.15621122  1
  Ni  Ni180  1  0.06147480  0.57506531  0.93735822  1
  Ni  Ni181  1  0.86606814  0.08431172  0.90591481  1
  Ni  Ni182  1  0.73202968  0.73968681  0.01218372  1
  Ni  Ni183  1  0.90000728  0.49935661  0.38393487  1
  Ni  Ni184  1  0.08646527  0.72531681  0.14737703  1
  Ni  Ni185  1  0.50669867  0.48221839  0.61881370  1
  Ni  Ni186  1  0.92472578  0.16644170  0.31361774  1
  Ni  Ni187  1  0.73575620  0.91490307  0.24059579  1
  Ni  Ni188  1  0.60068061  -0.00106461  0.94706424  1
  Ni  Ni189  1  0.53884030  0.83471592  0.76168778  1
  Ni  Ni190  1  0.21143670  0.89497930  0.41951279  1
  Ni  Ni191  1  0.27500756  0.33349167  0.56569881  1
  Ni  Ni192  1  0.32525867  0.65358003  0.10341370  1
  Ni  Ni193  1  0.92357432  0.14999476  0.68448620  1
  Ni  Ni194  1  0.98601738  0.75386075  0.54685406  1
  Ni  Ni195  1  0.27373937  0.40104880  0.27010724  1
  Ni  Ni196  1  0.48580379  0.71341005  0.85255996  1
  Ni  Ni197  1  0.56289937  0.43436144  0.35440264  1
  Ni  Ni198  1  0.76278670  0.94076861  0.88172345  1
  Ni  Ni199  1  0.73193565  0.47238558  0.35436667  1
  Ni  Ni200  1  0.03975858  0.03888771  0.72660904  1
  Ni  Ni201  1  0.27429128  0.08003079  1.03476162  1
  Ni  Ni202  1  0.70240926  0.26575780  0.55447674  1
  Ni  Ni203  1  0.27186464  0.22308259  0.35086974  1
  Ni  Ni204  1  0.08990079  0.85510647  0.80035692  1
  Ni  Ni205  1  -0.00263727  0.05472728  0.45575914  1
  Ni  Ni206  1  0.47419632  0.43341992  0.77462641  1
  Ni  Ni207  1  0.54993946  0.28304909  0.43752816  1
  Ni  Ni208  1  0.76507960  0.78710265  0.80670479  1
  Ni  Ni209  1  0.69133876  0.23961726  0.93488209  1
  Ni  Ni210  1  0.13767418  0.85234504  0.55502021  1
  Ni  Ni211  1  0.24680345  0.84325876  0.86527664  1
  Ni  Ni212  1  0.92586775  0.83333783  0.78893013  1
  Ni  Ni213  1  1.01429842  0.77786997  0.92027837  1
  Ni  Ni214  1  0.87599904  0.98250195  0.02674783  1
  Ni  Ni215  1  0.17951054  0.00389249  0.29684374  1
