# generated using pymatgen
data_Ti2CoNi
_symmetry_space_group_name_H-M   'P 1'
_cell_length_a   14.66210186
_cell_length_b   14.71239470
_cell_length_c   14.55656517
_cell_angle_alpha   89.93050247
_cell_angle_beta   90.18358507
_cell_angle_gamma   89.97252876
_symmetry_Int_Tables_number   1
_chemical_formula_structural   Ti2CoNi
_chemical_formula_sum   'Ti108 Co54 Ni54'
_cell_volume   3140.04527102
_cell_formula_units_Z   54
loop_
 _symmetry_equiv_pos_site_id
 _symmetry_equiv_pos_as_xyz
  1  'x, y, z'
loop_
 _atom_site_type_symbol
 _atom_site_label
 _atom_site_symmetry_multiplicity
 _atom_site_fract_x
 _atom_site_fract_y
 _atom_site_fract_z
 _atom_site_occupancy
  Ti  Ti0  1  -0.03481809  -0.04026491  -0.03272971  1
  Ti  Ti1  1  0.02266022  0.05449780  0.35782158  1
  Ti  Ti2  1  0.03146554  -0.02431084  0.56729715  1
  Ti  Ti3  1  0.03956182  0.33752083  0.00930552  1
  Ti  Ti4  1  0.01011424  0.38121532  0.31510307  1
  Ti  Ti5  1  -0.05218606  0.27439781  0.69344456  1
  Ti  Ti6  1  -0.07378015  0.61843061  -0.00367169  1
  Ti  Ti7  1  -0.00675696  0.70824436  0.32651080  1
  Ti  Ti8  1  0.03973690  0.73943073  0.67119880  1
  Ti  Ti9  1  0.35935079  0.03673619  0.08408012  1
  Ti  Ti10  1  0.45143809  -0.06280014  0.30296781  1
  Ti  Ti11  1  0.30463112  0.00848493  0.73943724  1
  Ti  Ti12  1  0.38365325  0.36943179  -0.02948132  1
  Ti  Ti13  1  0.33960558  0.32826234  0.37630957  1
  Ti  Ti14  1  0.29483699  0.34115383  0.64259468  1
  Ti  Ti15  1  0.26624522  0.63494132  -0.06274614  1
  Ti  Ti16  1  0.31639352  0.61510144  0.27279849  1
  Ti  Ti17  1  0.37114856  0.65519210  0.70950549  1
  Ti  Ti18  1  0.65940578  0.01665907  -0.01268234  1
  Ti  Ti19  1  0.64601668  -0.06007686  0.40149262  1
  Ti  Ti20  1  0.72428903  0.01873734  0.62277853  1
  Ti  Ti21  1  0.62300055  0.31915653  -0.01660077  1
  Ti  Ti22  1  0.67325697  0.39227089  0.30818512  1
  Ti  Ti23  1  0.64562820  0.29342277  0.73775579  1
  Ti  Ti24  1  0.65089677  0.70451381  -0.00290748  1
  Ti  Ti25  1  0.67153738  0.61051240  0.30934882  1
  Ti  Ti26  1  0.71191447  0.69322725  0.66962939  1
  Ti  Ti27  1  -0.03405427  0.15435854  0.05935965  1
  Ti  Ti28  1  -0.00260502  0.16657995  0.54631795  1
  Ti  Ti29  1  -0.05259916  0.12978373  0.85148421  1
  Ti  Ti30  1  -0.08723757  0.47729235  0.13545136  1
  Ti  Ti31  1  0.04286768  0.49353459  0.49642573  1
  Ti  Ti32  1  -0.01141479  0.44857885  0.78848645  1
  Ti  Ti33  1  0.04129707  0.87774680  0.18273756  1
  Ti  Ti34  1  0.14183969  0.82106925  0.49915746  1
  Ti  Ti35  1  -0.05254313  0.79989788  0.85634665  1
  Ti  Ti36  1  0.31857877  0.15655511  0.23214954  1
  Ti  Ti37  1  0.31311018  0.13872898  0.56797052  1
  Ti  Ti38  1  0.40840366  0.14385392  0.82693176  1
  Ti  Ti39  1  0.38813835  0.45291619  0.16200161  1
  Ti  Ti40  1  0.29840408  0.52826421  0.47102411  1
  Ti  Ti41  1  0.38596920  0.50365501  0.82786290  1
  Ti  Ti42  1  0.32011911  0.85766063  0.14149225  1
  Ti  Ti43  1  0.34302305  0.83753660  0.44483001  1
  Ti  Ti44  1  0.36893635  0.82660211  0.84498814  1
  Ti  Ti45  1  0.67054312  0.12056205  0.19316613  1
  Ti  Ti46  1  0.65991310  0.22323575  0.41875599  1
  Ti  Ti47  1  0.71410775  0.16635816  0.86321242  1
  Ti  Ti48  1  0.63427333  0.50492660  0.14880081  1
  Ti  Ti49  1  0.65811599  0.56896790  0.52614157  1
  Ti  Ti50  1  0.68568205  0.52639245  0.76934214  1
  Ti  Ti51  1  0.68122527  0.83029039  0.21988865  1
  Ti  Ti52  1  0.67214580  0.75857814  0.46100278  1
  Ti  Ti53  1  0.65933602  0.85898288  0.75914975  1
  Ti  Ti54  1  0.18927580  0.00294021  0.19004250  1
  Ti  Ti55  1  0.20860045  -0.00822469  0.46629105  1
  Ti  Ti56  1  0.13254748  0.05623356  0.81940652  1
  Ti  Ti57  1  0.21566956  0.36744008  0.21419933  1
  Ti  Ti58  1  0.17780876  0.28938377  0.49807795  1
  Ti  Ti59  1  0.19650722  0.34028806  0.83589435  1
  Ti  Ti60  1  0.18849361  0.71075786  0.13879193  1
  Ti  Ti61  1  0.17513385  0.62503990  0.59290777  1
  Ti  Ti62  1  0.08236763  0.63124055  0.84244210  1
  Ti  Ti63  1  0.55904239  -0.01241110  0.15856886  1
  Ti  Ti64  1  0.47900514  -0.00582538  0.50410741  1
  Ti  Ti65  1  0.50729690  -0.03793732  0.80153205  1
  Ti  Ti66  1  0.57183583  0.28300813  0.16838816  1
  Ti  Ti67  1  0.53877731  0.32276023  0.55771183  1
  Ti  Ti68  1  0.42031664  0.32280886  0.78139609  1
  Ti  Ti69  1  0.42065712  0.68238880  0.13082782  1
  Ti  Ti70  1  0.47337159  0.68910846  0.54890174  1
  Ti  Ti71  1  0.47770462  0.67111574  0.89161291  1
  Ti  Ti72  1  0.82409674  -0.04396410  0.11387924  1
  Ti  Ti73  1  0.83729992  -0.08068459  0.49868649  1
  Ti  Ti74  1  0.82610407  -0.01061410  0.80653270  1
  Ti  Ti75  1  0.88146621  0.29204148  0.19351112  1
  Ti  Ti76  1  0.86646775  0.34394541  0.49682498  1
  Ti  Ti77  1  0.87195047  0.30147321  0.87616727  1
  Ti  Ti78  1  0.84415699  0.65673609  0.21028265  1
  Ti  Ti79  1  0.84718812  0.71644926  0.53748175  1
  Ti  Ti80  1  0.87614571  0.62729035  0.76604027  1
  Ti  Ti81  1  0.18398220  0.15643824  0.04909656  1
  Ti  Ti82  1  0.14013093  0.22012407  0.31213331  1
  Ti  Ti83  1  0.12953987  0.22544276  0.67967744  1
  Ti  Ti84  1  0.12326751  0.53779131  0.04908186  1
  Ti  Ti85  1  0.13130731  0.54844184  0.31015139  1
  Ti  Ti86  1  0.21013678  0.50970556  0.75289399  1
  Ti  Ti87  1  0.07155126  0.75822375  -0.00655045  1
  Ti  Ti88  1  0.17977556  0.78826708  0.30756755  1
  Ti  Ti89  1  0.24299566  0.81433742  0.66535753  1
  Ti  Ti90  1  0.43459635  0.19270848  0.01982252  1
  Ti  Ti91  1  0.46400443  0.17053667  0.38922327  1
  Ti  Ti92  1  0.57342866  0.12935588  0.70311849  1
  Ti  Ti93  1  0.57563940  0.50657544  -0.07039780  1
  Ti  Ti94  1  0.47404853  0.49346274  0.37798077  1
  Ti  Ti95  1  0.50299385  0.48692748  0.68659187  1
  Ti  Ti96  1  0.47461409  0.88552709  0.01137022  1
  Ti  Ti97  1  0.50575363  0.74308982  0.30977091  1
  Ti  Ti98  1  0.42777069  0.86441456  0.64119108  1
  Ti  Ti99  1  0.77156949  0.18938251  0.04759877  1
  Ti  Ti100  1  0.85124740  0.17300099  0.35576487  1
  Ti  Ti101  1  0.80751419  0.17435395  0.57074761  1
  Ti  Ti102  1  0.77044873  0.46230487  0.00054653  1
  Ti  Ti103  1  0.81304718  0.50045655  0.39426207  1
  Ti  Ti104  1  0.80482914  0.38480636  0.69673387  1
  Ti  Ti105  1  0.76768462  0.86892601  -0.05747462  1
  Ti  Ti106  1  0.82392145  0.83511120  0.34345665  1
  Ti  Ti107  1  0.88669360  0.85982608  0.67510089  1
  Co  Co108  1  0.82048280  0.71747554  0.93563860  1
  Co  Co109  1  0.03207953  0.33426956  0.54645099  1
  Co  Co110  1  0.34349546  0.77606052  0.27755795  1
  Co  Co111  1  0.13266415  0.13328490  0.47190463  1
  Co  Co112  1  0.48629405  0.53251046  0.53581339  1
  Co  Co113  1  0.66797549  1.01888798  0.79489230  1
  Co  Co114  1  0.38821371  0.67208263  0.40892182  1
  Co  Co115  1  0.95074563  0.52593593  0.30440917  1
  Co  Co116  1  0.20410922  0.07607584  0.32970747  1
  Co  Co117  1  0.55037369  0.63212896  0.41501465  1
  Co  Co118  1  0.79891416  0.78257506  0.78414596  1
  Co  Co119  1  0.94169704  0.44479240  0.61976354  1
  Co  Co120  1  0.53920405  0.24480089  0.87001141  1
  Co  Co121  1  0.93679592  0.45532404  0.96235341  1
  Co  Co122  1  0.52003832  0.32693530  0.38597170  1
  Co  Co123  1  0.22814335  0.89647769  0.81921574  1
  Co  Co124  1  0.28937285  0.18091693  0.41234429  1
  Co  Co125  1  0.28734651  0.92904567  0.30541467  1
  Co  Co126  1  0.21613727  0.78850553  0.93787406  1
  Co  Co127  1  0.55792831  0.40392994  0.81735944  1
  Co  Co128  1  0.01898706  0.10781555  0.70829537  1
  Co  Co129  1  0.72382289  0.36293500  0.86499281  1
  Co  Co130  1  0.52228107  0.41897653  0.24243403  1
  Co  Co131  1  0.10610181  0.38476905  0.68590584  1
  Co  Co132  1  0.18697872  0.45222838  0.56699096  1
  Co  Co133  1  0.24991507  0.47308433  0.92338709  1
  Co  Co134  1  0.76271306  0.60797328  0.08120332  1
  Co  Co135  1  0.55362097  0.09238556  0.89239008  1
  Co  Co136  1  0.78366342  0.49304078  0.22645319  1
  Co  Co137  1  0.57859371  0.96588556  0.64239405  1
  Co  Co138  1  0.13160649  0.91844887  0.67889370  1
  Co  Co139  1  0.50661210  0.58495659  0.24157489  1
  Co  Co140  1  0.43835890  0.04987532  0.65579339  1
  Co  Co141  1  0.81761256  0.17319976  0.73608164  1
  Co  Co142  1  0.77304288  0.77200170  0.09149462  1
  Co  Co143  1  0.51640758  0.42283687  0.06327390  1
  Co  Co144  1  0.64133309  0.86615195  0.06205306  1
  Co  Co145  1  0.83369265  0.48413660  0.83929132  1
  Co  Co146  1  0.12275305  0.93189388  0.33658370  1
  Co  Co147  1  0.15643578  0.39850221  0.38700181  1
  Co  Co148  1  0.35773819  0.03535487  0.40633409  1
  Co  Co149  1  0.73748132  0.59226712  0.90890527  1
  Co  Co150  1  0.80031306  0.67845944  0.38096323  1
  Co  Co151  1  0.91644068  0.81746798  0.02988730  1
  Co  Co152  1  0.83056731  0.05612845  0.96880285  1
  Co  Co153  1  0.10084598  0.80105398  0.80571487  1
  Co  Co154  1  0.30912167  0.95919363  0.58309748  1
  Co  Co155  1  0.59350842  0.15906457  0.03946922  1
  Co  Co156  1  0.86450613  0.32206813  0.03453836  1
  Co  Co157  1  0.73208698  0.85013492  0.60018907  1
  Co  Co158  1  0.06588753  0.55375566  0.68833596  1
  Co  Co159  1  0.29025631  0.46776988  0.31886998  1
  Co  Co160  1  0.10458226  0.91812530  0.91638177  1
  Co  Co161  1  0.09133265  0.47151826  0.90685268  1
  Ni  Ni162  1  0.40288086  1.00406587  0.92275095  1
  Ni  Ni163  1  0.26595227  0.08144361  0.91415000  1
  Ni  Ni164  1  0.06613991  0.02140248  0.07917284  1
  Ni  Ni165  1  0.50518266  0.77617524  0.75718095  1
  Ni  Ni166  1  0.34020658  0.50445810  0.63524673  1
  Ni  Ni167  1  0.99938125  0.24375509  0.40248524  1
  Ni  Ni168  1  0.79861380  0.54246575  0.62530951  1
  Ni  Ni169  1  -0.00222990  0.72214759  0.13873977  1
  Ni  Ni170  1  0.41875880  0.28655158  0.23242529  1
  Ni  Ni171  1  0.73551015  0.24820586  0.26080374  1
  Ni  Ni172  1  0.58131666  0.79981514  0.60829933  1
  Ni  Ni173  1  0.50665781  0.82842714  0.16788007  1
  Ni  Ni174  1  0.73329456  0.98606708  0.25859495  1
  Ni  Ni175  1  0.40077341  0.39386000  0.51638368  1
  Ni  Ni176  1  0.28006743  0.23793503  0.93215867  1
  Ni  Ni177  1  0.48160985  0.13304131  0.18339978  1
  Ni  Ni178  1  0.30697376  0.71095194  0.54966901  1
  Ni  Ni179  1  0.53244089  0.59681040  0.06168868  1
  Ni  Ni180  1  0.92744614  0.60232085  0.44142827  1
  Ni  Ni181  1  0.30410362  0.27877622  0.10052858  1
  Ni  Ni182  1  0.98895502  0.17105781  0.23989725  1
  Ni  Ni183  1  0.70646800  0.29397808  0.57660048  1
  Ni  Ni184  1  0.26986871  0.18881525  0.75199156  1
  Ni  Ni185  1  0.59721783  0.11050342  0.52752969  1
  Ni  Ni186  1  0.89186459  0.03612763  0.64723025  1
  Ni  Ni187  1  0.58123180  0.07209313  0.32769761  1
  Ni  Ni188  1  0.23084901  0.70106888  0.78700439  1
  Ni  Ni189  1  0.55904443  0.63938632  0.69290296  1
  Ni  Ni190  1  0.95020643  0.61096782  0.60299566  1
  Ni  Ni191  1  0.05943480  0.67984980  0.48489196  1
  Ni  Ni192  1  0.51702724  0.83305519  0.45352165  1
  Ni  Ni193  1  0.43455986  0.21943712  0.65128162  1
  Ni  Ni194  1  0.97624517  0.81903994  0.53105359  1
  Ni  Ni195  1  0.39767593  0.53844416  0.99492507  1
  Ni  Ni196  1  0.08890181  0.20427235  0.91198918  1
  Ni  Ni197  1  0.73422399  0.07292667  0.44027033  1
  Ni  Ni198  1  0.99850542  0.95299465  0.77974678  1
  Ni  Ni199  1  0.03605642  0.58216407  0.18198962  1
  Ni  Ni200  1  0.07043880  0.41973446  0.15944301  1
  Ni  Ni201  1  0.72856731  0.35784754  0.13400673  1
  Ni  Ni202  1  0.57233318  0.82264146  0.90114990  1
  Ni  Ni203  1  0.09632905  0.25691361  0.15236616  1
  Ni  Ni204  1  0.88868873  0.82548442  0.19954129  1
  Ni  Ni205  1  0.61982792  0.68752726  0.16713287  1
  Ni  Ni206  1  0.65178333  0.43625416  0.62910129  1
  Ni  Ni207  1  0.36230040  0.75649273  0.00044416  1
  Ni  Ni208  1  0.89631897  0.06040453  0.47092962  1
  Ni  Ni209  1  0.98247628  0.87414989  0.37756152  1
  Ni  Ni210  1  0.17115171  0.06813340  0.63091386  1
  Ni  Ni211  1  0.21199752  0.66843269  0.41686522  1
  Ni  Ni212  1  0.16809808  0.88125537  0.06820438  1
  Ni  Ni213  1  0.67395726  0.40991342  0.46836594  1
  Ni  Ni214  1  0.27982294  0.57253015  0.10552351  1
  Ni  Ni215  1  0.84467623  0.11262539  0.19049102  1
