# generated using pymatgen
data_Ti2CoNi
_symmetry_space_group_name_H-M   'P 1'
_cell_length_a   14.72629156
_cell_length_b   14.61897794
_cell_length_c   14.69519643
_cell_angle_alpha   90.16365349
_cell_angle_beta   90.08951137
_cell_angle_gamma   90.10696722
_symmetry_Int_Tables_number   1
_chemical_formula_structural   Ti2CoNi
_chemical_formula_sum   'Ti108 Co54 Ni54'
_cell_volume   3163.60853807
_cell_formula_units_Z   54
loop_
 _symmetry_equiv_pos_site_id
 _symmetry_equiv_pos_as_xyz
  1  'x, y, z'
loop_
 _atom_site_type_symbol
 _atom_site_label
 _atom_site_symmetry_multiplicity
 _atom_site_fract_x
 _atom_site_fract_y
 _atom_site_fract_z
 _atom_site_occupancy
  Ti  Ti0  1  0.01758606  -0.08045147  -0.03504554  1
  Ti  Ti1  1  -0.00302463  -0.01440354  0.36392587  1
  Ti  Ti2  1  0.07222070  0.02976309  0.62777056  1
  Ti  Ti3  1  0.00105212  0.32984691  0.07660565  1
  Ti  Ti4  1  -0.00219845  0.40883674  0.34574129  1
  Ti  Ti5  1  -0.07110064  0.28966266  0.64608994  1
  Ti  Ti6  1  -0.06580111  0.69489431  -0.00820338  1
  Ti  Ti7  1  -0.07842784  0.62781748  0.29831392  1
  Ti  Ti8  1  0.04308898  0.69971677  0.61347696  1
  Ti  Ti9  1  0.31270859  0.00722728  -0.03579081  1
  Ti  Ti10  1  0.27112449  -0.02405419  0.29361589  1
  Ti  Ti11  1  0.33391651  -0.07232926  0.65488008  1
  Ti  Ti12  1  0.34055601  0.29470052  0.00994259  1
  Ti  Ti13  1  0.35662064  0.36891329  0.31240611  1
  Ti  Ti14  1  0.35967997  0.36106183  0.67126033  1
  Ti  Ti15  1  0.33628513  0.66838491  -0.05723309  1
  Ti  Ti16  1  0.33963777  0.69130008  0.37302775  1
  Ti  Ti17  1  0.37291901  0.58762602  0.70747796  1
  Ti  Ti18  1  0.60258195  -0.04697565  0.00676666  1
  Ti  Ti19  1  0.60850071  0.02846446  0.33524572  1
  Ti  Ti20  1  0.66097957  0.03549956  0.70560197  1
  Ti  Ti21  1  0.71381016  0.42469743  -0.03912968  1
  Ti  Ti22  1  0.56474910  0.36420041  0.26548924  1
  Ti  Ti23  1  0.70966806  0.24210550  0.66638996  1
  Ti  Ti24  1  0.72145209  0.64573715  -0.00719853  1
  Ti  Ti25  1  0.62746821  0.67350019  0.33431829  1
  Ti  Ti26  1  0.56003888  0.74232928  0.65238530  1
  Ti  Ti27  1  -0.01519528  0.14040374  0.22684247  1
  Ti  Ti28  1  0.00355530  0.17727180  0.42943585  1
  Ti  Ti29  1  0.01279003  0.25143713  0.89361017  1
  Ti  Ti30  1  0.04959934  0.53001601  0.18422858  1
  Ti  Ti31  1  -0.01874657  0.45395677  0.55214685  1
  Ti  Ti32  1  -0.02538390  0.52328342  0.81784144  1
  Ti  Ti33  1  -0.00209554  0.87844764  0.15973459  1
  Ti  Ti34  1  -0.10072557  0.82891275  0.49437793  1
  Ti  Ti35  1  0.07951659  0.76979895  0.83294274  1
  Ti  Ti36  1  0.32459397  0.16862025  0.21218497  1
  Ti  Ti37  1  0.31173646  0.10417147  0.46225357  1
  Ti  Ti38  1  0.33420267  0.05988341  0.78881127  1
  Ti  Ti39  1  0.39316046  0.53694316  0.22434659  1
  Ti  Ti40  1  0.27937224  0.48342824  0.54149427  1
  Ti  Ti41  1  0.33988887  0.45743002  0.85590736  1
  Ti  Ti42  1  0.34170805  0.77008812  0.13188069  1
  Ti  Ti43  1  0.31685345  0.75011220  0.56195035  1
  Ti  Ti44  1  0.28190403  0.84110518  0.83079239  1
  Ti  Ti45  1  0.61837053  0.18602910  0.19825839  1
  Ti  Ti46  1  0.68136993  0.10172396  0.51757368  1
  Ti  Ti47  1  0.64636836  0.26529268  0.86030552  1
  Ti  Ti48  1  0.73896951  0.51819532  0.18592500  1
  Ti  Ti49  1  0.69899909  0.51897499  0.50127488  1
  Ti  Ti50  1  0.65046260  0.57281452  0.81529253  1
  Ti  Ti51  1  0.64593716  0.84312878  0.20626332  1
  Ti  Ti52  1  0.69541605  0.80998819  0.53100771  1
  Ti  Ti53  1  0.74380306  0.82798033  0.86519910  1
  Ti  Ti54  1  0.18336875  -0.02246184  0.09123367  1
  Ti  Ti55  1  0.22362353  -0.06768474  0.49949201  1
  Ti  Ti56  1  0.07797861  0.07046191  0.83028447  1
  Ti  Ti57  1  0.19769541  0.31461443  0.16695272  1
  Ti  Ti58  1  0.15403125  0.31747256  0.43186156  1
  Ti  Ti59  1  0.18601908  0.34011959  0.83723835  1
  Ti  Ti60  1  0.20820641  0.66934012  0.22173095  1
  Ti  Ti61  1  0.16318912  0.63874068  0.46427526  1
  Ti  Ti62  1  0.19886279  0.60347597  0.82027623  1
  Ti  Ti63  1  0.46742164  0.02841369  0.19303590  1
  Ti  Ti64  1  0.50935221  -0.01711829  0.49815768  1
  Ti  Ti65  1  0.51342844  0.13117974  0.79392913  1
  Ti  Ti66  1  0.54658008  0.35985212  0.06545138  1
  Ti  Ti67  1  0.55498478  0.29639501  0.51602195  1
  Ti  Ti68  1  0.47001098  0.31751340  0.85711820  1
  Ti  Ti69  1  0.50970868  0.68736892  0.14272641  1
  Ti  Ti70  1  0.50535284  0.77271071  0.45958545  1
  Ti  Ti71  1  0.47946087  0.71294706  0.82443576  1
  Ti  Ti72  1  0.79106663  0.09737254  0.15484588  1
  Ti  Ti73  1  0.87425806  0.02744545  0.50726023  1
  Ti  Ti74  1  0.86791758  -0.01234899  0.84746844  1
  Ti  Ti75  1  0.85460004  0.30426742  0.18645299  1
  Ti  Ti76  1  0.76234728  0.27668933  0.45397558  1
  Ti  Ti77  1  0.82920179  0.31606473  0.81640402  1
  Ti  Ti78  1  0.81886617  0.73947162  0.16972182  1
  Ti  Ti79  1  0.88741712  0.60098118  0.49469330  1
  Ti  Ti80  1  0.83867659  0.67632115  0.77448764  1
  Ti  Ti81  1  0.10262108  0.15299285  0.02482671  1
  Ti  Ti82  1  0.16886739  0.15414324  0.32667086  1
  Ti  Ti83  1  0.19972214  0.19063989  0.70124343  1
  Ti  Ti84  1  0.16531715  0.58880866  0.03665767  1
  Ti  Ti85  1  0.18576045  0.49652161  0.32675136  1
  Ti  Ti86  1  0.13184680  0.36860256  0.64343183  1
  Ti  Ti87  1  0.13022323  0.77245157  0.03023072  1
  Ti  Ti88  1  0.11007955  0.83000464  0.33099068  1
  Ti  Ti89  1  0.13910783  0.85283495  0.65749623  1
  Ti  Ti90  1  0.52065545  0.16895944  0.01294846  1
  Ti  Ti91  1  0.46437782  0.19308965  0.35331152  1
  Ti  Ti92  1  0.38971586  0.17038652  0.64131040  1
  Ti  Ti93  1  0.43966303  0.50820653  0.02192698  1
  Ti  Ti94  1  0.51213698  0.50787108  0.39775419  1
  Ti  Ti95  1  0.51503139  0.47777951  0.59317719  1
  Ti  Ti96  1  0.44401528  0.84328623  -0.02624025  1
  Ti  Ti97  1  0.46184398  0.85114023  0.29267016  1
  Ti  Ti98  1  0.49884760  0.90289035  0.77546537  1
  Ti  Ti99  1  0.80635762  0.16227570  -0.04174688  1
  Ti  Ti100  1  0.80387834  0.10932792  0.34597545  1
  Ti  Ti101  1  0.85739209  0.08394603  0.68167518  1
  Ti  Ti102  1  0.87487380  0.48546060  0.03877312  1
  Ti  Ti103  1  0.81280099  0.43926859  0.36085636  1
  Ti  Ti104  1  0.79733372  0.49320474  0.68240626  1
  Ti  Ti105  1  0.83423834  0.86402730  0.02710232  1
  Ti  Ti106  1  0.77732017  0.78891580  0.34829182  1
  Ti  Ti107  1  0.91079324  0.86148257  0.69058956  1
  Co  Co108  1  0.88007300  1.00868907  0.05621914  1
  Co  Co109  1  0.77052000  0.59650246  0.33441376  1
  Co  Co110  1  0.40496445  0.39643454  0.47941390  1
  Co  Co111  1  0.90019576  -0.00839530  0.22509364  1
  Co  Co112  1  0.39273837  0.09503553  0.07407869  1
  Co  Co113  1  0.56337113  0.44075961  0.90875332  1
  Co  Co114  1  0.23701027  0.62202872  0.61927311  1
  Co  Co115  1  0.33981102  0.93322816  0.13331640  1
  Co  Co116  1  0.75228009  0.99626755  0.95382601  1
  Co  Co117  1  0.66845251  0.25484751  0.02016264  1
  Co  Co118  1  0.63025854  0.10042137  0.90136032  1
  Co  Co119  1  0.54357922  0.59271529  0.70184509  1
  Co  Co120  1  0.90693333  0.16064174  0.81143259  1
  Co  Co121  1  0.74154303  0.96375832  0.26704862  1
  Co  Co122  1  0.47669516  1.01210612  0.90939376  1
  Co  Co123  1  0.70216985  0.63329754  0.64481096  1
  Co  Co124  1  0.04394361  0.20674824  0.72590711  1
  Co  Co125  1  0.37277489  0.88277820  0.43825694  1
  Co  Co126  1  0.13941594  0.02754054  0.41591384  1
  Co  Co127  1  0.93132201  0.18312814  0.07536424  1
  Co  Co128  1  0.15808861  0.12504840  0.17467750  1
  Co  Co129  1  0.61945292  0.85508725  0.37091501  1
  Co  Co130  1  1.03062660  0.91941087  0.78117994  1
  Co  Co131  1  0.62262491  0.00467209  0.16995284  1
  Co  Co132  1  0.46001351  0.85707604  0.59189853  1
  Co  Co133  1  0.17727677  0.84239739  0.17724283  1
  Co  Co134  1  0.29858730  0.82013041  0.28170907  1
  Co  Co135  1  0.10913796  0.22616015  0.56667731  1
  Co  Co136  1  0.74719150  0.13957971  0.79941048  1
  Co  Co137  1  0.60809802  0.91551280  0.61290400  1
  Co  Co138  1  0.12917726  0.46150122  0.48282835  1
  Co  Co139  1  0.10796037  0.98777952  0.24618432  1
  Co  Co140  1  0.08429239  0.65470483  0.31035281  1
  Co  Co141  1  0.46438333  0.56066963  0.86166750  1
  Co  Co142  1  0.22600485  0.79297122  0.42500952  1
  Co  Co143  1  0.63586344  0.95216657  0.83926109  1
  Co  Co144  1  0.66709550  0.10042388  0.05497443  1
  Co  Co145  1  0.25717129  0.16679705  0.05506695  1
  Co  Co146  1  0.97813665  0.14460648  0.58323134  1
  Co  Co147  1  0.29532876  0.24936576  0.38549185  1
  Co  Co148  1  0.26335855  0.28500339  0.55556779  1
  Co  Co149  1  0.48560835  0.44750921  0.75286066  1
  Co  Co150  1  0.16369797  0.92581746  0.90949432  1
  Co  Co151  1  0.82843668  0.31248862  1.01969353  1
  Co  Co152  1  0.17023147  0.29922469  0.99009491  1
  Co  Co153  1  0.85169149  0.93056169  0.36845465  1
  Co  Co154  1  0.10259469  0.54533472  0.62424608  1
  Co  Co155  1  0.47430932  0.65299291  0.31013474  1
  Co  Co156  1  0.40667276  0.24173682  0.50187087  1
  Co  Co157  1  0.89838040  0.61187389  0.12987642  1
  Co  Co158  1  1.02085016  0.55371899  0.41434762  1
  Co  Co159  1  0.02404214  0.03548705  0.11042209  1
  Co  Co160  1  0.82964658  0.18695906  0.55411253  1
  Co  Co161  1  0.21251597  0.73241671  0.72414543  1
  Ni  Ni162  1  0.66561454  0.38961758  0.60143043  1
  Ni  Ni163  1  0.06047128  0.62567264  0.91824230  1
  Ni  Ni164  1  0.31940554  0.60749666  0.09549795  1
  Ni  Ni165  1  0.67856400  0.79364954  0.05034631  1
  Ni  Ni166  1  0.06370441  0.28157667  0.26455024  1
  Ni  Ni167  1  0.41145380  0.61181277  0.52169413  1
  Ni  Ni168  1  0.96490789  0.08660535  0.94821927  1
  Ni  Ni169  1  0.82276396  0.40511166  0.53875738  1
  Ni  Ni170  1  0.84487544  0.71808394  0.61315539  1
  Ni  Ni171  1  0.81378513  0.53678726  0.87810714  1
  Ni  Ni172  1  0.19209765  0.97963229  0.75225640  1
  Ni  Ni173  1  0.77605140  0.94250846  0.61423947  1
  Ni  Ni174  1  0.55768539  0.15589859  0.61624025  1
  Ni  Ni175  1  0.01730375  0.36538389  0.77259136  1
  Ni  Ni176  1  0.46559211  0.24568896  0.17793171  1
  Ni  Ni177  1  0.70131537  0.36395006  0.13527834  1
  Ni  Ni178  1  0.94184575  0.58430961  0.66683337  1
  Ni  Ni179  1  0.12042884  0.43354483  0.06558237  1
  Ni  Ni180  1  0.42332686  0.02729742  0.35572905  1
  Ni  Ni181  1  0.94352377  0.80022552  0.30245576  1
  Ni  Ni182  1  0.72649414  0.28630382  0.28501803  1
  Ni  Ni183  1  0.62716082  0.19821271  0.37853331  1
  Ni  Ni184  1  0.03296050  0.71070341  0.16089506  1
  Ni  Ni185  1  0.59465908  0.79250992  0.90767354  1
  Ni  Ni186  1  0.23475747  0.47835310  0.71818173  1
  Ni  Ni187  1  0.47755748  0.01948032  0.66116160  1
  Ni  Ni188  1  0.52024614  0.66225314  -0.01728519  1
  Ni  Ni189  1  0.67935264  0.40716890  0.77353234  1
  Ni  Ni190  1  0.74568944  0.67245090  0.47618778  1
  Ni  Ni191  1  0.38370431  0.15749225  0.91905477  1
  Ni  Ni192  1  0.90155268  0.46353825  0.21162703  1
  Ni  Ni193  1  0.37281927  0.76739132  0.71355742  1
  Ni  Ni194  1  0.27540950  0.84111825  0.99786067  1
  Ni  Ni195  1  0.23796011  0.48194256  0.17311434  1
  Ni  Ni196  1  0.34284323  0.52584197  0.39086926  1
  Ni  Ni197  1  0.01260663  0.72322400  0.44227961  1
  Ni  Ni198  1  0.26989438  0.45470147  1.00615542  1
  Ni  Ni199  1  0.54556540  0.30290965  0.69696252  1
  Ni  Ni200  1  0.21473525  0.16543118  0.88711178  1
  Ni  Ni201  1  0.50068912  0.86690911  0.12717473  1
  Ni  Ni202  1  0.58019567  0.63249018  0.51950254  1
  Ni  Ni203  1  0.66806374  0.66475037  0.16325215  1
  Ni  Ni204  1  0.89315044  0.26404918  0.34287918  1
  Ni  Ni205  1  0.24621260  0.06145513  0.61423642  1
  Ni  Ni206  1  0.71837181  -0.04317106  0.45219371  1
  Ni  Ni207  1  0.91526197  0.81508579  0.86673442  1
  Ni  Ni208  1  0.92792929  0.39445164  0.91676978  1
  Ni  Ni209  1  0.38169830  0.38518046  0.14479588  1
  Ni  Ni210  1  0.72014518  0.80727164  0.70165860  1
  Ni  Ni211  1  0.04939493  0.89898475  0.51508722  1
  Ni  Ni212  1  0.32975767  0.24948540  0.79655287  1
  Ni  Ni213  1  0.64759058  0.38843417  0.40485527  1
  Ni  Ni214  1  0.56500702  0.53441003  0.22052345  1
  Ni  Ni215  1  0.60827467  0.53297856  0.05663597  1
