# generated using pymatgen
data_Ti2CoNi
_symmetry_space_group_name_H-M   'P 1'
_cell_length_a   14.52527071
_cell_length_b   14.51011840
_cell_length_c   14.49726439
_cell_angle_alpha   90.28341740
_cell_angle_beta   90.34660548
_cell_angle_gamma   90.17937991
_symmetry_Int_Tables_number   1
_chemical_formula_structural   Ti2CoNi
_chemical_formula_sum   'Ti108 Co54 Ni54'
_cell_volume   3055.38415035
_cell_formula_units_Z   54
loop_
 _symmetry_equiv_pos_site_id
 _symmetry_equiv_pos_as_xyz
  1  'x, y, z'
loop_
 _atom_site_type_symbol
 _atom_site_label
 _atom_site_symmetry_multiplicity
 _atom_site_fract_x
 _atom_site_fract_y
 _atom_site_fract_z
 _atom_site_occupancy
  Ti  Ti0  1  -0.03047067  -0.03537771  -0.08823209  1
  Ti  Ti1  1  0.04876023  -0.05234516  0.37373910  1
  Ti  Ti2  1  -0.04980810  0.02003232  0.67872477  1
  Ti  Ti3  1  0.02948249  0.27970497  -0.04994112  1
  Ti  Ti4  1  0.12220897  0.28793867  0.25413702  1
  Ti  Ti5  1  0.03324914  0.33888064  0.67227393  1
  Ti  Ti6  1  0.06529592  0.66345561  0.01262005  1
  Ti  Ti7  1  0.01950862  0.75906996  0.35241863  1
  Ti  Ti8  1  -0.05924624  0.66574409  0.65937148  1
  Ti  Ti9  1  0.32912131  -0.02791007  0.02638746  1
  Ti  Ti10  1  0.32463457  0.00816707  0.31745535  1
  Ti  Ti11  1  0.30434587  0.01695128  0.56959850  1
  Ti  Ti12  1  0.36470758  0.24381543  -0.02791672  1
  Ti  Ti13  1  0.25743150  0.38812197  0.40096519  1
  Ti  Ti14  1  0.32112377  0.32432667  0.64506601  1
  Ti  Ti15  1  0.28330426  0.62589774  -0.00468701  1
  Ti  Ti16  1  0.28794429  0.62464497  0.31373398  1
  Ti  Ti17  1  0.41394233  0.63189522  0.68963174  1
  Ti  Ti18  1  0.67684894  0.02712739  -0.05803758  1
  Ti  Ti19  1  0.69093891  0.03773256  0.28785391  1
  Ti  Ti20  1  0.64337982  -0.00282818  0.73942891  1
  Ti  Ti21  1  0.64007612  0.33123108  0.08079500  1
  Ti  Ti22  1  0.72504836  0.36332149  0.35508715  1
  Ti  Ti23  1  0.68089942  0.35457861  0.69738432  1
  Ti  Ti24  1  0.68686323  0.70492092  0.08477803  1
  Ti  Ti25  1  0.66892312  0.63763216  0.32471792  1
  Ti  Ti26  1  0.62779585  0.67679877  0.62735614  1
  Ti  Ti27  1  -0.02438417  0.15314226  0.17731425  1
  Ti  Ti28  1  0.01593188  0.20686935  0.51763209  1
  Ti  Ti29  1  -0.07184320  0.13979172  0.84960836  1
  Ti  Ti30  1  -0.02736997  0.50454295  0.17596343  1
  Ti  Ti31  1  -0.00925758  0.53212249  0.44250706  1
  Ti  Ti32  1  0.06367465  0.53954885  0.78353816  1
  Ti  Ti33  1  -0.03324081  0.85117205  0.18625111  1
  Ti  Ti34  1  -0.03150073  0.84704350  0.58818921  1
  Ti  Ti35  1  0.07263675  0.76091530  0.82761033  1
  Ti  Ti36  1  0.36717516  0.18039926  0.20083525  1
  Ti  Ti37  1  0.31993372  0.18943640  0.44437530  1
  Ti  Ti38  1  0.33297624  0.16850569  0.76662041  1
  Ti  Ti39  1  0.34471225  0.53762011  0.14915697  1
  Ti  Ti40  1  0.27726391  0.53883645  0.53200614  1
  Ti  Ti41  1  0.36695931  0.53306054  0.86286632  1
  Ti  Ti42  1  0.37782168  0.81724269  0.27624393  1
  Ti  Ti43  1  0.30898344  0.83890547  0.46330758  1
  Ti  Ti44  1  0.38226513  0.82134551  0.91823849  1
  Ti  Ti45  1  0.66770722  0.22293581  0.23912791  1
  Ti  Ti46  1  0.67849333  0.16402007  0.42355714  1
  Ti  Ti47  1  0.61554053  0.21107854  0.79244650  1
  Ti  Ti48  1  0.63265573  0.51169430  0.14504989  1
  Ti  Ti49  1  0.62078920  0.46811760  0.46566613  1
  Ti  Ti50  1  0.76323695  0.48014045  0.85536012  1
  Ti  Ti51  1  0.70863539  0.81973428  0.26339302  1
  Ti  Ti52  1  0.65828967  0.89752500  0.45355033  1
  Ti  Ti53  1  0.69872425  0.83227972  0.90297431  1
  Ti  Ti54  1  0.11638767  0.00196471  0.05591124  1
  Ti  Ti55  1  0.15355282  0.10643315  0.48348748  1
  Ti  Ti56  1  0.18434578  -0.07183573  0.89128566  1
  Ti  Ti57  1  0.23541438  0.31314219  0.08842942  1
  Ti  Ti58  1  0.08301246  0.38429070  0.48039888  1
  Ti  Ti59  1  0.22615538  0.43693694  0.82080563  1
  Ti  Ti60  1  0.14700618  0.70271816  0.21984235  1
  Ti  Ti61  1  0.14912266  0.66867359  0.43355376  1
  Ti  Ti62  1  0.21657389  0.64926021  0.72543193  1
  Ti  Ti63  1  0.59482288  0.00114706  0.12106467  1
  Ti  Ti64  1  0.50462108  -0.02683092  0.57917702  1
  Ti  Ti65  1  0.40916917  -0.04732384  0.78354616  1
  Ti  Ti66  1  0.50477722  0.36990316  0.21908423  1
  Ti  Ti67  1  0.49237325  0.27663580  0.50303726  1
  Ti  Ti68  1  0.50236947  0.36177619  0.91247088  1
  Ti  Ti69  1  0.47779643  0.69176086  0.14981034  1
  Ti  Ti70  1  0.42154702  0.68968314  0.49020204  1
  Ti  Ti71  1  0.51157482  0.67994408  0.84390274  1
  Ti  Ti72  1  0.80955572  -0.01825571  0.14287101  1
  Ti  Ti73  1  0.78210404  -0.06975108  0.58493193  1
  Ti  Ti74  1  0.80013851  -0.01100319  0.82477992  1
  Ti  Ti75  1  0.81337669  0.37048117  0.17497199  1
  Ti  Ti76  1  0.83444881  0.27590514  0.48067472  1
  Ti  Ti77  1  0.87184256  0.31365370  0.78448594  1
  Ti  Ti78  1  0.83214339  0.61461146  0.15415163  1
  Ti  Ti79  1  0.83311823  0.62240599  0.42852107  1
  Ti  Ti80  1  0.79411179  0.64948667  0.79605999  1
  Ti  Ti81  1  0.14082939  0.12498274  -0.07890295  1
  Ti  Ti82  1  0.18912238  0.13415188  0.28947202  1
  Ti  Ti83  1  0.12641731  0.12417449  0.68230587  1
  Ti  Ti84  1  0.12056869  0.44447918  -0.00050849  1
  Ti  Ti85  1  0.17765401  0.47159910  0.21326113  1
  Ti  Ti86  1  0.08714508  0.56830220  0.58906350  1
  Ti  Ti87  1  0.22576619  0.80508447  0.04339973  1
  Ti  Ti88  1  0.19154109  0.86470321  0.31157961  1
  Ti  Ti89  1  0.18567420  0.86922635  0.66860554  1
  Ti  Ti90  1  0.57224473  0.15660022  -0.01319780  1
  Ti  Ti91  1  0.48466896  0.13060554  0.33825003  1
  Ti  Ti92  1  0.59350867  0.16823323  0.61783065  1
  Ti  Ti93  1  0.46752603  0.51662040  0.03608118  1
  Ti  Ti94  1  0.43264145  0.50090217  0.40584385  1
  Ti  Ti95  1  0.49011263  0.44334521  0.74656741  1
  Ti  Ti96  1  0.55091228  0.81237416  0.00445565  1
  Ti  Ti97  1  0.53219640  0.93275347  0.27115553  1
  Ti  Ti98  1  0.48955057  0.81440072  0.69528064  1
  Ti  Ti99  1  0.80858038  0.22893726  -0.02497077  1
  Ti  Ti100  1  0.88628542  0.10561192  0.36952039  1
  Ti  Ti101  1  0.77740647  0.15263615  0.67517177  1
  Ti  Ti102  1  0.92248291  0.54966154  0.00438892  1
  Ti  Ti103  1  0.89841738  0.42317910  0.35700988  1
  Ti  Ti104  1  0.82277818  0.51023957  0.63841582  1
  Ti  Ti105  1  0.89563320  0.78138489  -0.04136162  1
  Ti  Ti106  1  0.83630838  0.79225040  0.42972949  1
  Ti  Ti107  1  0.81068069  0.82457216  0.73471450  1
  Co  Co108  1  0.68293617  0.72976654  0.44869443  1
  Co  Co109  1  0.26551799  0.13236710  0.02761935  1
  Co  Co110  1  0.57760999  1.03647287  0.44155895  1
  Co  Co111  1  0.48410456  0.96920458  0.98694973  1
  Co  Co112  1  0.25722350  0.05517263  0.17381622  1
  Co  Co113  1  0.27371952  0.89114186  0.15820868  1
  Co  Co114  1  0.55099460  0.38579503  0.60150387  1
  Co  Co115  1  0.05404435  0.43136611  0.31259264  1
  Co  Co116  1  0.49095527  0.27149118  0.70685327  1
  Co  Co117  1  0.15782183  0.59389113  0.88745271  1
  Co  Co118  1  0.11938398  1.00768569  0.23448230  1
  Co  Co119  1  0.78639659  0.40275426  0.01468368  1
  Co  Co120  1  0.82374740  0.07508936  0.98346826  1
  Co  Co121  1  0.67336457  0.66226093  0.90328523  1
  Co  Co122  1  0.91163845  0.50608901  0.78368551  1
  Co  Co123  1  0.98595510  0.29715255  0.40018257  1
  Co  Co124  1  0.17116615  0.44052074  0.64973591  1
  Co  Co125  1  0.12736189  0.16277300  0.11252731  1
  Co  Co126  1  0.75099010  0.02301352  0.44466751  1
  Co  Co127  1  0.43283529  0.10398163  0.06084499  1
  Co  Co128  1  0.90804454  0.58543689  0.30002173  1
  Co  Co129  1  0.10968932  0.86701940  0.15631958  1
  Co  Co130  1  0.16378769  0.28264589  0.57262380  1
  Co  Co131  1  0.76327325  0.15238470  0.83889693  1
  Co  Co132  1  0.55250484  0.79219432  0.53466014  1
  Co  Co133  1  0.63276421  0.74950130  0.76413134  1
  Co  Co134  1  0.78647061  0.44467142  0.48681657  1
  Co  Co135  1  0.46644622  0.19387114  0.86675560  1
  Co  Co136  1  0.64400589  0.87115869  0.65084254  1
  Co  Co137  1  0.74915257  0.56320378  1.00415085  1
  Co  Co138  1  0.54247088  0.13487849  0.19862142  1
  Co  Co139  1  0.65942095  0.03546873  0.57914154  1
  Co  Co140  1  0.15951577  0.25339592  0.40867611  1
  Co  Co141  1  0.94681609  0.96654520  0.06339726  1
  Co  Co142  1  0.62714464  0.46938851  0.97549386  1
  Co  Co143  1  0.94207147  0.01388079  0.24984404  1
  Co  Co144  1  0.56568772  0.64676882  0.01686955  1
  Co  Co145  1  0.41569936  0.99530088  0.19391960  1
  Co  Co146  1  0.24479752  0.70453185  0.57291105  1
  Co  Co147  1  0.05752109  0.23176628  0.78848943  1
  Co  Co148  1  -0.02489682  0.14580908  0.01812027  1
  Co  Co149  1  0.56585787  0.62212813  0.46333670  1
  Co  Co150  1  0.32973653  0.48924120  0.67779609  1
  Co  Co151  1  0.93982904  0.18470206  0.66495300  1
  Co  Co152  1  0.26191946  0.17137671  0.61729621  1
  Co  Co153  1  0.53586596  0.04979347  0.85230278  1
  Co  Co154  1  0.42571405  0.68253893  0.98385934  1
  Co  Co155  1  0.04246094  0.84595932  0.99286113  1
  Co  Co156  1  0.09365535  0.03448559  0.79465688  1
  Co  Co157  1  0.48289507  0.09109744  0.71098139  1
  Co  Co158  1  0.08406820  0.58995699  0.29777487  1
  Co  Co159  1  0.20481445  0.27018081  0.75092224  1
  Co  Co160  1  0.80893651  0.91664593  0.97529737  1
  Co  Co161  1  0.81601145  0.91716526  0.32006590  1
  Ni  Ni162  1  0.35135903  0.31497853  0.82686387  1
  Ni  Ni163  1  0.35224104  0.84780911  0.60794349  1
  Ni  Ni164  1  0.56894328  0.29497534  0.35574918  1
  Ni  Ni165  1  -0.02697523  0.71318145  0.50102478  1
  Ni  Ni166  1  0.11909015  0.81795598  0.50006602  1
  Ni  Ni167  1  0.85086484  0.74749016  0.26512091  1
  Ni  Ni168  1  0.07001943  0.34041915  0.12080916  1
  Ni  Ni169  1  0.41393557  0.16079050  0.59250392  1
  Ni  Ni170  1  0.85816334  0.09607026  0.53808446  1
  Ni  Ni171  1  0.30565541  0.40638185  0.96835759  1
  Ni  Ni172  1  0.42205569  0.01209330  0.44243652  1
  Ni  Ni173  1  0.90605578  0.27659425  0.08021162  1
  Ni  Ni174  1  0.38742248  0.41130601  0.52686548  1
  Ni  Ni175  1  0.47966884  0.85180655  0.40171137  1
  Ni  Ni176  1  0.54899784  0.88490112  0.84480048  1
  Ni  Ni177  1  0.21560874  0.76592884  0.87440296  1
  Ni  Ni178  1  0.75703585  0.50510697  0.27335758  1
  Ni  Ni179  1  0.68627604  0.32731695  0.88799765  1
  Ni  Ni180  1  0.40462050  0.30810661  0.35752889  1
  Ni  Ni181  1  0.82492818  0.80024765  0.10439353  1
  Ni  Ni182  1  0.30951091  0.71240293  0.14934890  1
  Ni  Ni183  1  0.16640556  0.51236569  0.41111772  1
  Ni  Ni184  1  0.71988047  0.58637253  0.54317703  1
  Ni  Ni185  1  0.95774447  0.64196564  0.87137574  1
  Ni  Ni186  1  0.26064257  0.99128309  0.75259486  1
  Ni  Ni187  1  0.33469467  0.78433849  0.75288583  1
  Ni  Ni188  1  0.82564768  0.34187329  0.62962712  1
  Ni  Ni189  1  0.41181052  0.84295698  0.10647353  1
  Ni  Ni190  1  0.68546587  0.87104072  0.08947627  1
  Ni  Ni191  1  0.90292067  0.94254045  0.46680586  1
  Ni  Ni192  1  0.08194196  0.73653779  0.64311780  1
  Ni  Ni193  1  0.08155077  0.97125867  0.56585018  1
  Ni  Ni194  1  0.07097984  0.38227774  0.83113096  1
  Ni  Ni195  1  0.57894895  0.48160112  0.32456229  1
  Ni  Ni196  1  0.92814111  0.40247039  0.90302732  1
  Ni  Ni197  1  0.97677873  0.69865883  0.17491018  1
  Ni  Ni198  1  0.30700978  0.36103223  0.24953674  1
  Ni  Ni199  1  0.46947894  0.60367114  0.28313838  1
  Ni  Ni200  1  0.40670347  0.37039826  0.10258101  1
  Ni  Ni201  1  0.49610495  0.24452270  0.09640139  1
  Ni  Ni202  1  0.67651459  0.31498702  0.52033153  1
  Ni  Ni203  1  0.95280517  0.31988106  0.23293212  1
  Ni  Ni204  1  0.55367454  0.74337311  0.28823987  1
  Ni  Ni205  1  0.04509859  0.12291479  0.34714686  1
  Ni  Ni206  1  0.94777301  0.87283041  0.77891730  1
  Ni  Ni207  1  0.47428035  0.53991885  0.57547245  1
  Ni  Ni208  1  0.62870837  0.56712776  0.77158178  1
  Ni  Ni209  1  0.69822448  0.14473870  0.10881134  1
  Ni  Ni210  1  0.94663294  0.42651505  0.55683630  1
  Ni  Ni211  1  0.83355284  0.24292959  0.31059179  1
  Ni  Ni212  1  0.21225455  0.96361100  0.45629695  1
  Ni  Ni213  1  0.29873424  0.06963863  0.88593160  1
  Ni  Ni214  1  0.80803275  0.73757306  0.59735551  1
  Ni  Ni215  1  0.17222996  0.57946785  0.10241468  1
