# generated using pymatgen
data_Ti2CoNi
_symmetry_space_group_name_H-M   'P 1'
_cell_length_a   14.61935710
_cell_length_b   14.58063145
_cell_length_c   14.66924451
_cell_angle_alpha   89.96310760
_cell_angle_beta   90.24024399
_cell_angle_gamma   89.69925498
_symmetry_Int_Tables_number   1
_chemical_formula_structural   Ti2CoNi
_chemical_formula_sum   'Ti108 Co54 Ni54'
_cell_volume   3126.81695077
_cell_formula_units_Z   54
loop_
 _symmetry_equiv_pos_site_id
 _symmetry_equiv_pos_as_xyz
  1  'x, y, z'
loop_
 _atom_site_type_symbol
 _atom_site_label
 _atom_site_symmetry_multiplicity
 _atom_site_fract_x
 _atom_site_fract_y
 _atom_site_fract_z
 _atom_site_occupancy
  Ti  Ti0  1  -0.06773412  0.01238499  -0.03060532  1
  Ti  Ti1  1  0.02896769  0.04944024  0.32512731  1
  Ti  Ti2  1  -0.08639083  -0.04747570  0.71660369  1
  Ti  Ti3  1  0.02349845  0.30852462  -0.06936224  1
  Ti  Ti4  1  -0.03066083  0.33773837  0.21984066  1
  Ti  Ti5  1  -0.04599426  0.34906080  0.71099028  1
  Ti  Ti6  1  -0.03036412  0.68742198  0.05901239  1
  Ti  Ti7  1  -0.05042501  0.61130450  0.36282458  1
  Ti  Ti8  1  0.04481606  0.63060153  0.65344784  1
  Ti  Ti9  1  0.35640233  -0.01322511  -0.04265757  1
  Ti  Ti10  1  0.28815671  -0.02275843  0.30420051  1
  Ti  Ti11  1  0.42215092  -0.01082704  0.72250494  1
  Ti  Ti12  1  0.31346447  0.38544322  0.07723438  1
  Ti  Ti13  1  0.28660503  0.30996408  0.25056293  1
  Ti  Ti14  1  0.36666040  0.34079104  0.69352782  1
  Ti  Ti15  1  0.33765809  0.67860225  -0.09080034  1
  Ti  Ti16  1  0.30943206  0.65088841  0.41350792  1
  Ti  Ti17  1  0.24884674  0.68800607  0.72759376  1
  Ti  Ti18  1  0.70345163  0.03565319  0.04887794  1
  Ti  Ti19  1  0.72774999  -0.02895881  0.37615598  1
  Ti  Ti20  1  0.68549592  -0.04054360  0.69136479  1
  Ti  Ti21  1  0.60586657  0.38026297  0.04588482  1
  Ti  Ti22  1  0.64757311  0.27405003  0.33808358  1
  Ti  Ti23  1  0.61740062  0.40711470  0.66138798  1
  Ti  Ti24  1  0.72274769  0.65579056  0.03004366  1
  Ti  Ti25  1  0.69112552  0.70878668  0.33998179  1
  Ti  Ti26  1  0.67192667  0.64562554  0.68480568  1
  Ti  Ti27  1  0.07787815  0.18125706  0.21001331  1
  Ti  Ti28  1  0.04397039  0.24146045  0.55755910  1
  Ti  Ti29  1  0.00696599  0.18512627  0.77457825  1
  Ti  Ti30  1  0.02823191  0.53073715  0.20301956  1
  Ti  Ti31  1  0.07225842  0.50969988  0.50439762  1
  Ti  Ti32  1  -0.08398516  0.54067515  0.80461202  1
  Ti  Ti33  1  -0.02520202  0.88752655  0.15570609  1
  Ti  Ti34  1  0.06294865  0.87204022  0.47226868  1
  Ti  Ti35  1  0.02958060  0.84293342  0.90648324  1
  Ti  Ti36  1  0.27891468  0.17619936  0.08507184  1
  Ti  Ti37  1  0.34846061  0.09638340  0.47984245  1
  Ti  Ti38  1  0.39218894  0.15697973  0.83090240  1
  Ti  Ti39  1  0.34461021  0.54046319  0.21592669  1
  Ti  Ti40  1  0.43027454  0.50788379  0.43920972  1
  Ti  Ti41  1  0.36192119  0.51260841  0.79913495  1
  Ti  Ti42  1  0.34809746  0.74976878  0.22844064  1
  Ti  Ti43  1  0.26672238  0.81348732  0.58012669  1
  Ti  Ti44  1  0.29250541  0.87658689  0.80795179  1
  Ti  Ti45  1  0.64356338  0.10999986  0.21490655  1
  Ti  Ti46  1  0.64175471  0.23102531  0.53035577  1
  Ti  Ti47  1  0.66492783  0.25190742  0.78242962  1
  Ti  Ti48  1  0.69079715  0.46830721  0.23481145  1
  Ti  Ti49  1  0.60876352  0.41538715  0.45510845  1
  Ti  Ti50  1  0.70431540  0.49660210  0.81562506  1
  Ti  Ti51  1  0.65894200  0.81937628  0.13497990  1
  Ti  Ti52  1  0.66292631  0.82075818  0.49044360  1
  Ti  Ti53  1  0.67530258  0.81674331  0.83922185  1
  Ti  Ti54  1  0.16552792  -0.01374479  0.14901149  1
  Ti  Ti55  1  0.17453299  0.01319259  0.47205472  1
  Ti  Ti56  1  0.16221688  -0.00317943  0.89661295  1
  Ti  Ti57  1  0.13066906  0.32573099  0.10931274  1
  Ti  Ti58  1  0.18341828  0.35340850  0.46427157  1
  Ti  Ti59  1  0.20057555  0.34271894  0.81805675  1
  Ti  Ti60  1  0.18576391  0.65958458  0.12063816  1
  Ti  Ti61  1  0.12578854  0.67760976  0.46520897  1
  Ti  Ti62  1  0.08252254  0.65216067  0.83450699  1
  Ti  Ti63  1  0.41672780  0.04677154  0.15746813  1
  Ti  Ti64  1  0.56064258  0.01991401  0.53269301  1
  Ti  Ti65  1  0.55631418  -0.00596309  0.89597192  1
  Ti  Ti66  1  0.45775957  0.24847108  0.13691929  1
  Ti  Ti67  1  0.46129857  0.27618174  0.42588067  1
  Ti  Ti68  1  0.44853244  0.38739671  0.93055476  1
  Ti  Ti69  1  0.51048912  0.65240007  0.14604459  1
  Ti  Ti70  1  0.51368069  0.68158916  0.46619242  1
  Ti  Ti71  1  0.52041482  0.72229225  0.81503461  1
  Ti  Ti72  1  0.85461039  0.02990123  0.25008242  1
  Ti  Ti73  1  0.90298352  -0.00024628  0.50176781  1
  Ti  Ti74  1  0.76267347  -0.02094548  0.88393654  1
  Ti  Ti75  1  0.77785688  0.28032917  0.17601102  1
  Ti  Ti76  1  0.93256989  0.37926601  0.51256729  1
  Ti  Ti77  1  0.82446507  0.36468319  0.85745988  1
  Ti  Ti78  1  0.84064688  0.60479011  0.20379571  1
  Ti  Ti79  1  0.77625405  0.65726748  0.51420343  1
  Ti  Ti80  1  0.81456889  0.68897608  0.81595477  1
  Ti  Ti81  1  0.09341825  0.14093391  0.00733435  1
  Ti  Ti82  1  0.17595784  0.17810646  0.37805506  1
  Ti  Ti83  1  0.15612060  0.10411129  0.65840686  1
  Ti  Ti84  1  0.15051994  0.48796279  -0.02580304  1
  Ti  Ti85  1  0.18486875  0.50165493  0.32708015  1
  Ti  Ti86  1  0.19623021  0.45205945  0.64307606  1
  Ti  Ti87  1  0.24067494  0.83542224  0.00959507  1
  Ti  Ti88  1  0.20122961  0.80497303  0.35462026  1
  Ti  Ti89  1  0.11756350  0.87328441  0.73253334  1
  Ti  Ti90  1  0.55154156  0.21458297  -0.05602951  1
  Ti  Ti91  1  0.49071322  0.07794868  0.33270710  1
  Ti  Ti92  1  0.46982331  0.17754916  0.63404767  1
  Ti  Ti93  1  0.52911284  0.56001741  -0.05756755  1
  Ti  Ti94  1  0.50209596  0.44482263  0.27754865  1
  Ti  Ti95  1  0.46401957  0.51755187  0.61709621  1
  Ti  Ti96  1  0.47047408  0.84058133  0.05331297  1
  Ti  Ti97  1  0.53629564  0.80178940  0.29674824  1
  Ti  Ti98  1  0.48568280  0.83501263  0.58496035  1
  Ti  Ti99  1  0.83966281  0.18780263  -0.03307594  1
  Ti  Ti100  1  0.87435673  0.19344886  0.42813584  1
  Ti  Ti101  1  0.82172023  0.16544643  0.63424382  1
  Ti  Ti102  1  0.76589013  0.47077585  0.01037509  1
  Ti  Ti103  1  0.85500084  0.42388602  0.34611624  1
  Ti  Ti104  1  0.80005182  0.49034279  0.63753098  1
  Ti  Ti105  1  0.81841557  0.82053659  -0.00925647  1
  Ti  Ti106  1  0.82988644  0.81768610  0.27255097  1
  Ti  Ti107  1  0.92795761  0.81513814  0.59310811  1
  Co  Co108  1  0.75950239  0.15200968  0.32577309  1
  Co  Co109  1  0.56919798  0.72644083  0.98660517  1
  Co  Co110  1  0.49368103  0.42397690  0.76911111  1
  Co  Co111  1  0.83192316  0.75397867  0.13544853  1
  Co  Co112  1  0.50205334  0.27054377  0.78369953  1
  Co  Co113  1  0.49725966  0.33619297  0.57484241  1
  Co  Co114  1  0.30766682  0.25921465  0.41743426  1
  Co  Co115  1  0.24959325  -0.02461169  0.62212960  1
  Co  Co116  1  0.94534600  0.44209357  0.93094848  1
  Co  Co117  1  0.10603389  0.77315816  0.61053124  1
  Co  Co118  1  0.62015508  0.11929264  0.40255327  1
  Co  Co119  1  0.36342479  0.26023214  0.96260629  1
  Co  Co120  1  0.27055882  0.12343568  0.93627268  1
  Co  Co121  1  0.01947944  0.57361926  0.95861627  1
  Co  Co122  1  0.28623102  0.90801989  0.45809973  1
  Co  Co123  1  0.56925743  -0.04024425  0.23731449  1
  Co  Co124  1  0.12002256  0.29580137  0.68649227  1
  Co  Co125  1  0.72155295  0.95039108  0.20340279  1
  Co  Co126  1  0.38723991  0.79297626  0.38319868  1
  Co  Co127  1  0.34243115  0.38574244  0.53218482  1
  Co  Co128  1  0.42655662  -0.04887930  0.40705885  1
  Co  Co129  1  0.21149743  0.62444343  0.58864487  1
  Co  Co130  1  0.85048325  0.43888084  0.17613928  1
  Co  Co131  1  0.68331684  0.66053016  0.19427156  1
  Co  Co132  1  0.96687770  0.69324859  0.50692792  1
  Co  Co133  1  0.33297859  0.41769435  0.35845042  1
  Co  Co134  1  0.39893817  0.96909094  0.56611293  1
  Co  Co135  1  0.93848080  0.70662241  0.90251256  1
  Co  Co136  1  0.19806585  0.28415026  -0.02986166  1
  Co  Co137  1  0.06425995  0.95736330  0.60722826  1
  Co  Co138  1  0.68825364  0.13675457  0.91690376  1
  Co  Co139  1  0.91234541  0.18491334  0.25738524  1
  Co  Co140  1  0.30780397  0.23067436  0.57306704  1
  Co  Co141  1  0.02008727  0.43686683  0.07514606  1
  Co  Co142  1  0.45443013  0.63503901  0.30965395  1
  Co  Co143  1  0.29027924  0.42960940  0.91934275  1
  Co  Co144  1  -0.02591082  0.76338832  0.74583458  1
  Co  Co145  1  0.57753832  0.92621999  0.39830844  1
  Co  Co146  1  0.89782289  0.54045053  0.06095506  1
  Co  Co147  1  0.90145204  0.54701429  0.50499896  1
  Co  Co148  1  0.61154740  0.38742664  0.87424527  1
  Co  Co149  1  0.71988316  0.30114867  0.95777686  1
  Co  Co150  1  0.87158097  0.34707453  0.04067539  1
  Co  Co151  1  0.81804320  0.12860812  0.12400807  1
  Co  Co152  1  0.64746062  0.88055483  0.98410389  1
  Co  Co153  1  0.42271315  0.90490166  0.24800833  1
  Co  Co154  1  0.26415890  1.04746605  0.77961504  1
  Co  Co155  1  0.25257013  0.51155660  0.48195051  1
  Co  Co156  1  0.97241636  0.48970650  0.64493140  1
  Co  Co157  1  0.54602950  0.88613137  0.74821587  1
  Co  Co158  1  0.05454444  0.02576648  0.77900244  1
  Co  Co159  1  0.13333859  0.33890329  0.27809311  1
  Co  Co160  1  0.83583043  0.94506442  0.08707039  1
  Co  Co161  1  0.55790766  0.56288646  0.76946115  1
  Ni  Ni162  1  0.75988937  0.46555172  0.48062653  1
  Ni  Ni163  1  1.01430484  0.72681178  0.20906282  1
  Ni  Ni164  1  0.07164210  0.95819585  1.02768500  1
  Ni  Ni165  1  0.44716883  0.85842301  0.88067123  1
  Ni  Ni166  1  0.76713632  0.56581356  0.35659237  1
  Ni  Ni167  1  0.05996161  0.45227332  0.80070389  1
  Ni  Ni168  1  0.86935544  0.85433197  0.84077188  1
  Ni  Ni169  1  0.59457147  0.31665056  0.19383962  1
  Ni  Ni170  1  0.59875235  0.56389008  0.37976224  1
  Ni  Ni171  1  0.43911284  0.11637743  0.00637120  1
  Ni  Ni172  1  0.97561335  0.09173330  0.63537873  1
  Ni  Ni173  1  0.09264277  0.80025534  0.07119608  1
  Ni  Ni174  1  0.36225448  0.16499432  0.28664011  1
  Ni  Ni175  1  0.35456719  0.70916285  0.07070487  1
  Ni  Ni176  1  -0.02229970  0.06064841  0.13274385  1
  Ni  Ni177  1  0.08333116  0.89940358  0.28433078  1
  Ni  Ni178  1  0.66260133  0.64542777  0.87363162  1
  Ni  Ni179  1  0.13297142  0.65707432  0.29456269  1
  Ni  Ni180  1  0.77614254  0.33408508  0.68498211  1
  Ni  Ni181  1  0.74475505  0.08109455  0.50581234  1
  Ni  Ni182  1  0.79913893  0.80649866  0.69723333  1
  Ni  Ni183  1  0.64337392  0.11688318  0.64125312  1
  Ni  Ni184  1  0.32360506  0.91456908  0.12262714  1
  Ni  Ni185  1  0.77923524  0.91368098  0.56323659  1
  Ni  Ni186  1  0.41477856  0.63962275  0.72212138  1
  Ni  Ni187  1  0.55988057  0.10964088  0.77938032  1
  Ni  Ni188  1  0.03253826  0.10011632  0.48206370  1
  Ni  Ni189  1  0.19841071  0.53338909  0.79148623  1
  Ni  Ni190  1  0.89507995  0.07330874  0.82084978  1
  Ni  Ni191  1  0.92905122  0.91818055  0.35963379  1
  Ni  Ni192  1  0.62908653  0.55423897  0.55295578  1
  Ni  Ni193  1  0.64102228  0.79952107  0.65054616  1
  Ni  Ni194  1  0.84473692  0.22335257  0.78955702  1
  Ni  Ni195  1  0.20046145  0.82309514  0.19054657  1
  Ni  Ni196  1  0.26901665  0.20643494  0.72765094  1
  Ni  Ni197  1  0.54932674  0.98730898  0.07678949  1
  Ni  Ni198  1  0.37530198  0.68286962  0.57131801  1
  Ni  Ni199  1  0.18980837  0.48809760  0.14828887  1
  Ni  Ni200  1  0.02740193  0.43078889  0.36569225  1
  Ni  Ni201  1  0.78503828  0.30759991  0.52283302  1
  Ni  Ni202  1  0.96382022  0.22101285  0.08544656  1
  Ni  Ni203  1  0.31754817  0.55299386  0.03593573  1
  Ni  Ni204  1  0.22588364  0.11713374  0.22693498  1
  Ni  Ni205  1  0.65973246  0.20438823  0.07761047  1
  Ni  Ni206  1  0.15147163  0.17288786  0.84062869  1
  Ni  Ni207  1  0.46461970  0.44557605  0.11532425  1
  Ni  Ni208  1  0.39859915  0.79831652  0.71919303  1
  Ni  Ni209  1  0.00154152  0.76779328  0.36170269  1
  Ni  Ni210  1  0.18860059  0.76587008  0.87537556  1
  Ni  Ni211  1  0.83294786  0.80171756  0.43929218  1
  Ni  Ni212  1  0.61798334  0.53819836  0.09889356  1
  Ni  Ni213  1  0.73907464  0.09616475  0.77032221  1
  Ni  Ni214  1  1.02186161  0.25605789  0.37895213  1
  Ni  Ni215  1  0.87050277  0.64738137  0.65582063  1
