# generated using pymatgen
data_Ti2CoNi
_symmetry_space_group_name_H-M   'P 1'
_cell_length_a   14.56535254
_cell_length_b   14.57327576
_cell_length_c   14.60072942
_cell_angle_alpha   90.13099162
_cell_angle_beta   89.93896680
_cell_angle_gamma   89.74466282
_symmetry_Int_Tables_number   1
_chemical_formula_structural   Ti2CoNi
_chemical_formula_sum   'Ti108 Co54 Ni54'
_cell_volume   3099.18168811
_cell_formula_units_Z   54
loop_
 _symmetry_equiv_pos_site_id
 _symmetry_equiv_pos_as_xyz
  1  'x, y, z'
loop_
 _atom_site_type_symbol
 _atom_site_label
 _atom_site_symmetry_multiplicity
 _atom_site_fract_x
 _atom_site_fract_y
 _atom_site_fract_z
 _atom_site_occupancy
  Ti  Ti0  1  -0.07399705  -0.02216346  -0.01995901  1
  Ti  Ti1  1  -0.04591395  -0.06095529  0.31496266  1
  Ti  Ti2  1  0.10671648  0.00777465  0.70638693  1
  Ti  Ti3  1  0.04849477  0.40606259  -0.07448143  1
  Ti  Ti4  1  0.05428837  0.34293371  0.38126359  1
  Ti  Ti5  1  0.01886614  0.30952813  0.61570209  1
  Ti  Ti6  1  -0.00331106  0.74377209  -0.00651644  1
  Ti  Ti7  1  -0.01780134  0.67128968  0.30939153  1
  Ti  Ti8  1  -0.00181063  0.65771830  0.64671000  1
  Ti  Ti9  1  0.39954367  -0.06637301  0.01071802  1
  Ti  Ti10  1  0.29665856  -0.00938201  0.39943033  1
  Ti  Ti11  1  0.32113082  -0.02347244  0.69684064  1
  Ti  Ti12  1  0.37339137  0.41255269  0.05360940  1
  Ti  Ti13  1  0.33790136  0.40031011  0.28606818  1
  Ti  Ti14  1  0.33925274  0.34446160  0.65687806  1
  Ti  Ti15  1  0.31455457  0.70973634  0.00892218  1
  Ti  Ti16  1  0.31940759  0.60911478  0.36925074  1
  Ti  Ti17  1  0.28243781  0.65821139  0.70004118  1
  Ti  Ti18  1  0.64272222  0.04027308  -0.02847160  1
  Ti  Ti19  1  0.74987683  -0.03652128  0.33854268  1
  Ti  Ti20  1  0.65803914  -0.00411217  0.60829012  1
  Ti  Ti21  1  0.59764104  0.34112681  -0.03583150  1
  Ti  Ti22  1  0.58091453  0.38215817  0.35322452  1
  Ti  Ti23  1  0.68777576  0.39733675  0.60249072  1
  Ti  Ti24  1  0.68066730  0.59687745  0.09961361  1
  Ti  Ti25  1  0.66493639  0.66994258  0.29777600  1
  Ti  Ti26  1  0.71292912  0.70544256  0.68979023  1
  Ti  Ti27  1  -0.05797687  0.14538113  0.12206374  1
  Ti  Ti28  1  -0.03153729  0.13100331  0.49932839  1
  Ti  Ti29  1  -0.02555140  0.16292478  0.72521192  1
  Ti  Ti30  1  0.00276517  0.47163918  0.20220125  1
  Ti  Ti31  1  -0.07965664  0.51233997  0.48966630  1
  Ti  Ti32  1  0.03109154  0.58231097  0.86838665  1
  Ti  Ti33  1  0.02162689  0.90595178  0.12551497  1
  Ti  Ti34  1  0.00604771  0.85646316  0.55429964  1
  Ti  Ti35  1  0.02527284  0.89556525  0.82719962  1
  Ti  Ti36  1  0.33650101  0.19663340  0.19945787  1
  Ti  Ti37  1  0.38182736  0.20456891  0.41125005  1
  Ti  Ti38  1  0.32006312  0.13321479  0.90205993  1
  Ti  Ti39  1  0.40518186  0.56514779  0.17568634  1
  Ti  Ti40  1  0.36504495  0.49787244  0.53304071  1
  Ti  Ti41  1  0.24372845  0.54361881  0.88560144  1
  Ti  Ti42  1  0.31028459  0.83715875  0.16705462  1
  Ti  Ti43  1  0.29429391  0.76122042  0.52859472  1
  Ti  Ti44  1  0.35584351  0.79790416  0.83255889  1
  Ti  Ti45  1  0.71768814  0.14053098  0.14396156  1
  Ti  Ti46  1  0.68850860  0.19424801  0.58484013  1
  Ti  Ti47  1  0.53907196  0.19884662  0.84611487  1
  Ti  Ti48  1  0.66984757  0.43260125  0.19855905  1
  Ti  Ti49  1  0.71663161  0.49670398  0.42616243  1
  Ti  Ti50  1  0.71939381  0.51097380  0.84498130  1
  Ti  Ti51  1  0.61664476  0.79732980  0.10584006  1
  Ti  Ti52  1  0.59872335  0.81929034  0.52810715  1
  Ti  Ti53  1  0.61468996  0.84201459  0.85524279  1
  Ti  Ti54  1  0.15732883  0.00328075  0.23900751  1
  Ti  Ti55  1  0.15409947  0.01883231  0.52990268  1
  Ti  Ti56  1  0.18174853  0.01832244  0.88997494  1
  Ti  Ti57  1  0.17307280  0.33185502  0.20300911  1
  Ti  Ti58  1  0.20692156  0.21280304  0.50627418  1
  Ti  Ti59  1  0.20308914  0.32260159  0.79089848  1
  Ti  Ti60  1  0.12490951  0.65532097  0.16282627  1
  Ti  Ti61  1  0.14065930  0.67421020  0.40645554  1
  Ti  Ti62  1  0.15906241  0.74243601  0.88445048  1
  Ti  Ti63  1  0.50096570  0.07266606  0.13363815  1
  Ti  Ti64  1  0.48582229  0.01539988  0.48681703  1
  Ti  Ti65  1  0.58057720  0.00712009  0.78588460  1
  Ti  Ti66  1  0.54265678  0.28509026  0.15605462  1
  Ti  Ti67  1  0.51367573  0.32477245  0.52879430  1
  Ti  Ti68  1  0.41929156  0.40604272  0.85036731  1
  Ti  Ti69  1  0.47718492  0.72557528  0.23576153  1
  Ti  Ti70  1  0.46091474  0.68146703  0.51339255  1
  Ti  Ti71  1  0.51686612  0.61919067  0.78656861  1
  Ti  Ti72  1  0.78271170  -0.06386161  0.14512289  1
  Ti  Ti73  1  0.83239720  -0.01629376  0.50817675  1
  Ti  Ti74  1  0.77203251  0.00330869  0.83921113  1
  Ti  Ti75  1  0.85436460  0.30868840  0.19328576  1
  Ti  Ti76  1  0.84402382  0.32301028  0.48771856  1
  Ti  Ti77  1  0.79099328  0.33411551  0.90020456  1
  Ti  Ti78  1  0.89242046  0.63894843  0.11959584  1
  Ti  Ti79  1  0.80260495  0.67971078  0.46101667  1
  Ti  Ti80  1  0.85643791  0.65781490  0.82686236  1
  Ti  Ti81  1  0.10704103  0.22938235  -0.01314426  1
  Ti  Ti82  1  0.09463275  0.15270949  0.34455370  1
  Ti  Ti83  1  0.27717983  0.15497231  0.69484324  1
  Ti  Ti84  1  0.17076433  0.46776459  0.07629137  1
  Ti  Ti85  1  0.19360997  0.46862521  0.40662742  1
  Ti  Ti86  1  0.16586827  0.47435220  0.64880206  1
  Ti  Ti87  1  0.21219106  0.97216951  0.07437129  1
  Ti  Ti88  1  0.23229245  0.82829734  0.33406459  1
  Ti  Ti89  1  0.12275803  0.78564089  0.70764439  1
  Ti  Ti90  1  0.43080129  0.22735424  0.01852842  1
  Ti  Ti91  1  0.58270592  0.12123407  0.32461707  1
  Ti  Ti92  1  0.49639239  0.12410409  0.65579298  1
  Ti  Ti93  1  0.56453397  0.52764906  -0.05507643  1
  Ti  Ti94  1  0.50130829  0.56281817  0.36671247  1
  Ti  Ti95  1  0.49977113  0.45688817  0.68236958  1
  Ti  Ti96  1  0.51040469  0.72676369  -0.05833816  1
  Ti  Ti97  1  0.46235012  0.91425517  0.30907922  1
  Ti  Ti98  1  0.48309131  0.89412208  0.66435251  1
  Ti  Ti99  1  0.89133108  0.16069241  -0.09310589  1
  Ti  Ti100  1  0.78262872  0.16472114  0.35349812  1
  Ti  Ti101  1  0.81670582  0.08905320  0.66793787  1
  Ti  Ti102  1  0.89290908  0.45800097  0.01128538  1
  Ti  Ti103  1  0.83294502  0.56613942  0.29192876  1
  Ti  Ti104  1  0.82791732  0.54610434  0.66912856  1
  Ti  Ti105  1  0.75798298  0.74456041  -0.01615103  1
  Ti  Ti106  1  0.82917583  0.78810705  0.28975172  1
  Ti  Ti107  1  0.84887388  0.87850154  0.69527405  1
  Co  Co108  1  0.66562979  0.66573654  0.86966960  1
  Co  Co109  1  -0.00880743  0.73638565  0.80015985  1
  Co  Co110  1  0.48084806  0.06668277  0.95165016  1
  Co  Co111  1  0.97122285  0.01665949  0.61329077  1
  Co  Co112  1  0.25967437  0.27912577  0.06578480  1
  Co  Co113  1  0.28562062  0.57042963  0.07771024  1
  Co  Co114  1  0.42721162  0.08419245  0.30822938  1
  Co  Co115  1  0.64651897  0.84346571  0.25794205  1
  Co  Co116  1  0.54504163  0.45579389  0.08457524  1
  Co  Co117  1  0.87290331  0.83611016  0.44361064  1
  Co  Co118  1  0.33038853  0.99509215  0.20939343  1
  Co  Co119  1  0.64876223  0.85664533  0.69348543  1
  Co  Co120  1  0.15315365  0.63956834  1.00298195  1
  Co  Co121  1  0.54726857  0.77247098  0.37341512  1
  Co  Co122  1  0.90093580  0.32128545  0.77750777  1
  Co  Co123  1  0.39427429  0.21619459  0.57474527  1
  Co  Co124  1  0.13568328  0.71670424  0.56821221  1
  Co  Co125  1  0.64480947  0.53089696  0.70437170  1
  Co  Co126  1  0.35370712  0.08854805  0.07125767  1
  Co  Co127  1  0.49580053  0.91082533  0.15960504  1
  Co  Co128  1  0.56021356  0.90511683  -0.00040209  1
  Co  Co129  1  0.51385329  0.63210028  0.07485577  1
  Co  Co130  1  0.89017092  0.40667742  0.62961815  1
  Co  Co131  1  0.25301291  0.11992939  0.31688507  1
  Co  Co132  1  0.56831177  0.56657797  0.21875965  1
  Co  Co133  1  0.87288030  0.82816933  0.06560148  1
  Co  Co134  1  0.32976923  0.29339160  0.91076182  1
  Co  Co135  1  0.89396785  0.48199543  0.83579850  1
  Co  Co136  1  0.76298986  0.73558407  0.16104413  1
  Co  Co137  1  1.03385898  0.07830057  0.88126938  1
  Co  Co138  1  0.31193689  0.48468658  0.74021267  1
  Co  Co139  1  0.70842840  0.80609774  0.40782945  1
  Co  Co140  1  0.02828953  0.81403561  0.38926276  1
  Co  Co141  1  0.47161244  0.26576305  0.29692716  1
  Co  Co142  1  0.95434643  0.77392638  0.18869514  1
  Co  Co143  1  0.80438378  0.07106743  0.02592709  1
  Co  Co144  1  0.21639940  0.39380678  0.94120659  1
  Co  Co145  1  0.08817643  0.89891941  0.97422946  1
  Co  Co146  1  0.59869080  0.93647069  0.39762098  1
  Co  Co147  1  0.43178260  0.40806849  0.41192799  1
  Co  Co148  1  0.48113304  0.42414726  0.22789981  1
  Co  Co149  1  0.57040013  0.66962069  0.63161308  1
  Co  Co150  1  0.13610439  0.36741927  0.52364734  1
  Co  Co151  1  0.16062046  0.79316136  0.07813251  1
  Co  Co152  1  0.46306254  0.90856627  0.85791451  1
  Co  Co153  1  0.62117093  0.65748168  0.45597607  1
  Co  Co154  1  0.41931265  0.59282478  0.64708036  1
  Co  Co155  1  0.21188801  0.12692857  1.03043228  1
  Co  Co156  1  0.75683429  0.84517190  0.56414789  1
  Co  Co157  1  0.83289392  0.25902471  0.64670457  1
  Co  Co158  1  0.99133991  0.51582748  0.69494844  1
  Co  Co159  1  0.16151709  0.85194800  0.47484157  1
  Co  Co160  1  0.39433174  0.24053881  0.77036105  1
  Co  Co161  1  0.76447097  0.39540319  0.73917044  1
  Ni  Ni162  1  1.02309887  0.55774681  0.04638375  1
  Ni  Ni163  1  0.88781258  0.83893269  0.89729469  1
  Ni  Ni164  1  0.32032770  0.07608809  0.54575186  1
  Ni  Ni165  1  0.09905100  -0.03083520  0.38480441  1
  Ni  Ni166  1  0.05136769  0.39412226  0.76149904  1
  Ni  Ni167  1  0.43920280  0.74359860  0.70255428  1
  Ni  Ni168  1  0.72141743  0.17984721  0.91591865  1
  Ni  Ni169  1  0.63026052  -0.00127185  0.21115964  1
  Ni  Ni170  1  0.68023280  0.07061129  0.45713339  1
  Ni  Ni171  1  0.91007820  0.41554071  0.33523922  1
  Ni  Ni172  1  0.67860821  0.29111405  0.45143769  1
  Ni  Ni173  1  0.42143956  0.06234919  0.79207437  1
  Ni  Ni174  1  0.92633869  0.23941637  0.35722709  1
  Ni  Ni175  1  0.23076498  0.28089758  0.34999398  1
  Ni  Ni176  1  0.20953953  0.88338732  0.62067933  1
  Ni  Ni177  1  0.23935031  0.59654096  0.53284191  1
  Ni  Ni178  1  0.76171175  0.36384146  0.32946119  1
  Ni  Ni179  1  0.02092721  0.26147511  0.22503541  1
  Ni  Ni180  1  0.22092749  0.52672552  0.23865469  1
  Ni  Ni181  1  0.06315986  0.05900848  0.04618817  1
  Ni  Ni182  1  0.21573172  0.88634444  0.79404852  1
  Ni  Ni183  1  0.59442791  0.18589837  0.02686635  1
  Ni  Ni184  1  0.70917281  0.58033562  0.56478299  1
  Ni  Ni185  1  0.92993294  0.28951563  0.00379388  1
  Ni  Ni186  1  0.86071704  0.06214046  0.24037187  1
  Ni  Ni187  1  0.28087322  0.68561090  0.23006435  1
  Ni  Ni188  1  0.86300823  0.73081647  0.60435976  1
  Ni  Ni189  1  0.67713609  0.13620182  0.75322482  1
  Ni  Ni190  1  0.10307728  0.81268206  0.23979188  1
  Ni  Ni191  1  0.54761815  0.16788986  0.48795590  1
  Ni  Ni192  1  0.75023284  0.91012882  0.97704419  1
  Ni  Ni193  1  0.07976728  0.54627318  0.51665063  1
  Ni  Ni194  1  0.02710085  0.25784843  0.84934514  1
  Ni  Ni195  1  0.14554480  0.16075871  0.79372151  1
  Ni  Ni196  1  0.35866304  0.91325624  0.53858791  1
  Ni  Ni197  1  0.29840672  0.35024226  0.49052795  1
  Ni  Ni198  1  0.38112240  0.76369177  0.36955667  1
  Ni  Ni199  1  0.55563682  0.51462429  0.52654473  1
  Ni  Ni200  1  0.44663053  0.78147284  0.08181334  1
  Ni  Ni201  1  0.10717536  0.15679039  0.62504952  1
  Ni  Ni202  1  0.13318334  0.61494230  0.74903673  1
  Ni  Ni203  1  0.60008055  0.39354284  0.80239480  1
  Ni  Ni204  1  0.67078060  0.25678266  0.25420208  1
  Ni  Ni205  1  0.82514727  0.47452849  0.15986433  1
  Ni  Ni206  1  0.79332829  0.58146755  0.97151071  1
  Ni  Ni207  1  0.04127035  0.35493937  0.09533063  1
  Ni  Ni208  1  0.53606346  0.28634179  0.69031468  1
  Ni  Ni209  1  0.97743347  0.68329138  0.47907296  1
  Ni  Ni210  1  0.04129036  0.52117479  0.35487965  1
  Ni  Ni211  1  0.71516723  0.44268952  0.02930041  1
  Ni  Ni212  1  0.76175197  0.80470111  0.81440387  1
  Ni  Ni213  1  0.92387832  1.01352706  0.78018265  1
  Ni  Ni214  1  0.40509348  0.57058603  0.94405628  1
  Ni  Ni215  1  0.25277273  0.86374980  0.95497496  1
