# generated using pymatgen
data_Ti2CoNi
_symmetry_space_group_name_H-M   'P 1'
_cell_length_a   14.59321230
_cell_length_b   14.61224491
_cell_length_c   14.62983106
_cell_angle_alpha   90.26866246
_cell_angle_beta   89.95356776
_cell_angle_gamma   89.91566845
_symmetry_Int_Tables_number   1
_chemical_formula_structural   Ti2CoNi
_chemical_formula_sum   'Ti108 Co54 Ni54'
_cell_volume   3119.62049143
_cell_formula_units_Z   54
loop_
 _symmetry_equiv_pos_site_id
 _symmetry_equiv_pos_as_xyz
  1  'x, y, z'
loop_
 _atom_site_type_symbol
 _atom_site_label
 _atom_site_symmetry_multiplicity
 _atom_site_fract_x
 _atom_site_fract_y
 _atom_site_fract_z
 _atom_site_occupancy
  Ti  Ti0  1  0.02329276  0.06401222  0.00091307  1
  Ti  Ti1  1  -0.01578815  0.03701081  0.36240098  1
  Ti  Ti2  1  -0.00674566  0.02249627  0.74693629  1
  Ti  Ti3  1  -0.00166300  0.36077969  -0.05092406  1
  Ti  Ti4  1  0.02274340  0.31399983  0.38928024  1
  Ti  Ti5  1  0.00200407  0.25214817  0.70039767  1
  Ti  Ti6  1  0.03410490  0.61568143  0.02443955  1
  Ti  Ti7  1  -0.00016432  0.61485638  0.34151850  1
  Ti  Ti8  1  -0.06617823  0.63940288  0.55617343  1
  Ti  Ti9  1  0.28463466  0.02884366  0.04201860  1
  Ti  Ti10  1  0.31722985  0.06535074  0.36631265  1
  Ti  Ti11  1  0.32051677  -0.03657329  0.61833680  1
  Ti  Ti12  1  0.32867838  0.33080818  0.04509190  1
  Ti  Ti13  1  0.30866971  0.26148478  0.34447577  1
  Ti  Ti14  1  0.33561522  0.41016947  0.73136725  1
  Ti  Ti15  1  0.36992639  0.68219714  0.01427192  1
  Ti  Ti16  1  0.29191989  0.64117437  0.35601224  1
  Ti  Ti17  1  0.36450798  0.63473437  0.69837235  1
  Ti  Ti18  1  0.68600544  0.06610107  -0.04889918  1
  Ti  Ti19  1  0.69170269  0.07885019  0.31571780  1
  Ti  Ti20  1  0.69066550  -0.09594967  0.67702635  1
  Ti  Ti21  1  0.62205342  0.39083112  -0.03540962  1
  Ti  Ti22  1  0.67761651  0.29535683  0.39765674  1
  Ti  Ti23  1  0.70183340  0.34461888  0.65682093  1
  Ti  Ti24  1  0.68838621  0.61662753  0.02150375  1
  Ti  Ti25  1  0.66501770  0.61886331  0.34022831  1
  Ti  Ti26  1  0.57221985  0.70192392  0.70245154  1
  Ti  Ti27  1  0.06622482  0.16727296  0.24435685  1
  Ti  Ti28  1  -0.05009410  0.17459046  0.50635816  1
  Ti  Ti29  1  0.13500893  0.15409975  0.81461233  1
  Ti  Ti30  1  -0.11412939  0.56695575  0.16217175  1
  Ti  Ti31  1  -0.09786273  0.47720142  0.44260419  1
  Ti  Ti32  1  -0.00374365  0.51372959  0.82678942  1
  Ti  Ti33  1  -0.02695100  0.75262271  0.15354083  1
  Ti  Ti34  1  0.05866095  0.79552764  0.53596185  1
  Ti  Ti35  1  -0.00898985  0.83865417  0.81777220  1
  Ti  Ti36  1  0.40926762  0.14398302  0.18421457  1
  Ti  Ti37  1  0.38735370  0.13916129  0.52426799  1
  Ti  Ti38  1  0.37935389  0.17332359  0.82205890  1
  Ti  Ti39  1  0.33002782  0.52259875  0.12608258  1
  Ti  Ti40  1  0.40809851  0.54875227  0.46542645  1
  Ti  Ti41  1  0.29824440  0.48732377  0.92391491  1
  Ti  Ti42  1  0.28985009  0.87765017  0.15663443  1
  Ti  Ti43  1  0.32738967  0.77797628  0.51495113  1
  Ti  Ti44  1  0.31661573  0.89334627  0.83836447  1
  Ti  Ti45  1  0.74272754  0.14051433  0.12546199  1
  Ti  Ti46  1  0.55640283  0.23082443  0.54987294  1
  Ti  Ti47  1  0.69504176  0.06273108  0.76897689  1
  Ti  Ti48  1  0.63633454  0.46342250  0.18158296  1
  Ti  Ti49  1  0.67517110  0.51858560  0.59995558  1
  Ti  Ti50  1  0.71109948  0.57371745  0.80246871  1
  Ti  Ti51  1  0.60658049  0.86809599  0.17445035  1
  Ti  Ti52  1  0.63623411  0.87887930  0.43813304  1
  Ti  Ti53  1  0.67303883  0.84394796  0.87235436  1
  Ti  Ti54  1  0.12212746  -0.02388049  0.21495903  1
  Ti  Ti55  1  0.17153145  -0.06142567  0.46381134  1
  Ti  Ti56  1  0.13656199  -0.03960454  0.87655166  1
  Ti  Ti57  1  0.13334664  0.29460944  0.12499703  1
  Ti  Ti58  1  0.16209175  0.38239344  0.55179809  1
  Ti  Ti59  1  0.15745596  0.36845759  0.79957019  1
  Ti  Ti60  1  0.17264463  0.65473687  0.18854246  1
  Ti  Ti61  1  0.13783602  0.61196747  0.49377802  1
  Ti  Ti62  1  0.11920023  0.68357944  0.83149965  1
  Ti  Ti63  1  0.47470347  -0.01923561  0.11189476  1
  Ti  Ti64  1  0.52587163  0.01780888  0.48764393  1
  Ti  Ti65  1  0.45258565  0.01499332  0.92329412  1
  Ti  Ti66  1  0.50078935  0.34104616  0.12094630  1
  Ti  Ti67  1  0.38392328  0.35994311  0.51812959  1
  Ti  Ti68  1  0.52448026  0.28880091  0.77513910  1
  Ti  Ti69  1  0.53970870  0.66647608  0.19328187  1
  Ti  Ti70  1  0.52766490  0.71170303  0.49560654  1
  Ti  Ti71  1  0.45607122  0.76556524  0.85679504  1
  Ti  Ti72  1  0.82162793  -0.05603924  0.16743662  1
  Ti  Ti73  1  0.80122694  0.03104552  0.50498768  1
  Ti  Ti74  1  0.86058276  -0.00316364  0.88410676  1
  Ti  Ti75  1  0.84663836  0.33909954  0.13428877  1
  Ti  Ti76  1  0.82025183  0.32837353  0.51947403  1
  Ti  Ti77  1  0.71926679  0.27529764  0.83096529  1
  Ti  Ti78  1  0.77088698  0.75178741  0.21379448  1
  Ti  Ti79  1  0.74149038  0.69597122  0.52069015  1
  Ti  Ti80  1  0.89034375  0.67696679  0.77174831  1
  Ti  Ti81  1  0.22575861  0.19434991  -0.03727953  1
  Ti  Ti82  1  0.15583649  0.16376484  0.41283155  1
  Ti  Ti83  1  0.24622656  0.20292341  0.67158547  1
  Ti  Ti84  1  0.15353476  0.47185291  0.08487108  1
  Ti  Ti85  1  0.18992331  0.47218311  0.29132956  1
  Ti  Ti86  1  0.16950566  0.53364622  0.66920977  1
  Ti  Ti87  1  0.21985670  0.79922068  -0.02258964  1
  Ti  Ti88  1  0.07774306  0.81387924  0.32407783  1
  Ti  Ti89  1  0.17413652  0.84643727  0.71016317  1
  Ti  Ti90  1  0.55775754  0.17518976  0.03649312  1
  Ti  Ti91  1  0.51127197  0.15286989  0.34522607  1
  Ti  Ti92  1  0.50641456  0.08564724  0.68141172  1
  Ti  Ti93  1  0.52245663  0.56935683  -0.06097082  1
  Ti  Ti94  1  0.51996580  0.45121725  0.33736266  1
  Ti  Ti95  1  0.51067903  0.43083408  0.65632748  1
  Ti  Ti96  1  0.54117026  0.76113369  0.02527029  1
  Ti  Ti97  1  0.42981570  0.83116520  0.33710222  1
  Ti  Ti98  1  0.49427271  0.88429366  0.70078068  1
  Ti  Ti99  1  0.87648603  0.19526448  -0.01058558  1
  Ti  Ti100  1  0.88370768  0.18296475  0.25771853  1
  Ti  Ti101  1  0.82872074  0.16081206  0.66260619  1
  Ti  Ti102  1  0.85196500  0.53235757  -0.05058618  1
  Ti  Ti103  1  0.79342572  0.46474881  0.28602202  1
  Ti  Ti104  1  0.87933187  0.46286643  0.66542715  1
  Ti  Ti105  1  0.87120127  0.82554777  -0.01426638  1
  Ti  Ti106  1  0.85472311  0.89795415  0.36146093  1
  Ti  Ti107  1  0.88990352  0.83620485  0.63749440  1
  Co  Co108  1  0.15741525  0.30243350  0.29200804  1
  Co  Co109  1  0.22736850  0.07977487  0.54695575  1
  Co  Co110  1  0.06937159  0.05859011  0.49925761  1
  Co  Co111  1  0.70491244  0.91744584  0.28936121  1
  Co  Co112  1  0.66982884  0.31205790  0.11186992  1
  Co  Co113  1  0.94474882  0.03762405  0.59468152  1
  Co  Co114  1  0.48926364  0.30011732  0.40695685  1
  Co  Co115  1  0.46419466  0.42884200  0.84047415  1
  Co  Co116  1  0.58912079  0.17537650  0.19730183  1
  Co  Co117  1  0.72605937  0.73955182  0.73442447  1
  Co  Co118  1  0.09778221  0.95146960  0.61629140  1
  Co  Co119  1  1.01830498  0.58612708  0.68776982  1
  Co  Co120  1  0.84388045  0.67843212  0.05546767  1
  Co  Co121  1  0.13964436  0.11375939  0.09972829  1
  Co  Co122  1  0.02453817  0.50123101  0.55271276  1
  Co  Co123  1  0.73984718  0.25653786  0.25079723  1
  Co  Co124  1  0.96774496  0.92229342  0.48387450  1
  Co  Co125  1  0.70896686  0.23295984  0.98240239  1
  Co  Co126  1  0.90100100  0.76299569  0.46293866  1
  Co  Co127  1  0.43783589  0.29095324  0.25499009  1
  Co  Co128  1  0.03576184  0.74235616  0.68852766  1
  Co  Co129  1  0.61500050  0.69039124  0.87278226  1
  Co  Co130  1  0.85992226  0.03439426  0.03853756  1
  Co  Co131  1  0.91150854  0.74507086  0.30364462  1
  Co  Co132  1  0.25351134  0.76731089  0.26439107  1
  Co  Co133  1  0.78502379  0.86870174  0.52119211  1
  Co  Co134  1  0.83031677  -0.00786040  0.69534104  1
  Co  Co135  1  0.10675545  0.23018635  0.55241026  1
  Co  Co136  1  0.38570236  0.01900191  0.75984564  1
  Co  Co137  1  0.38921824  0.59950185  0.85290997  1
  Co  Co138  1  0.63157493  0.79913381  0.58631696  1
  Co  Co139  1  0.35235156  0.42027475  0.35812639  1
  Co  Co140  1  0.55349574  0.97202318  0.32296742  1
  Co  Co141  1  0.24204828  0.49405077  0.45336071  1
  Co  Co142  1  0.27452760  0.05750688  0.87631551  1
  Co  Co143  1  0.20678142  1.01929286  0.72838247  1
  Co  Co144  1  0.59789774  0.77674999  0.31351392  1
  Co  Co145  1  -0.03081409  0.90236268  0.24183679  1
  Co  Co146  1  0.72402840  0.60031326  0.18024981  1
  Co  Co147  1  0.07773645  0.46755905  0.40675062  1
  Co  Co148  1  0.06804626  0.22229939  0.97209938  1
  Co  Co149  1  0.09307626  0.11311666  0.65256056  1
  Co  Co150  1  0.83233597  0.61751812  0.38479123  1
  Co  Co151  1  0.04426819  0.41567952  0.69346606  1
  Co  Co152  1  0.26646189  0.24323206  0.51336049  1
  Co  Co153  1  0.27933747  0.20249292  0.12241743  1
  Co  Co154  1  0.53221162  0.56486395  0.77184467  1
  Co  Co155  1  0.28061849  0.72697926  0.82415551  1
  Co  Co156  1  0.98001898  0.23133051  0.10946902  1
  Co  Co157  1  0.75203478  0.76877221  0.37575828  1
  Co  Co158  1  0.94887929  0.68838674  0.92074984  1
  Co  Co159  1  0.78104483  0.70285929  0.90009239  1
  Co  Co160  1  0.59366306  0.31906767  0.26409165  1
  Co  Co161  1  0.23596447  0.56673463  0.80164197  1
  Ni  Ni162  1  0.75828775  0.46466031  0.07170238  1
  Ni  Ni163  1  0.72195401  0.19326247  0.53835549  1
  Ni  Ni164  1  0.58671273  0.39568133  0.50626188  1
  Ni  Ni165  1  0.57645210  0.92084421  -0.00903821  1
  Ni  Ni166  1  0.12707019  0.80739366  0.13448343  1
  Ni  Ni167  1  0.56245889  0.14952363  0.85992992  1
  Ni  Ni168  1  0.64163390  0.19308662  0.69187101  1
  Ni  Ni169  1  0.43680541  0.80201082  0.15758171  1
  Ni  Ni170  1  0.95899403  0.05789113  0.16833481  1
  Ni  Ni171  1  0.58077743  0.55447572  0.46407319  1
  Ni  Ni172  1  0.32172450  0.50050395  0.59657558  1
  Ni  Ni173  1  0.44355815  0.44302958  0.00110993  1
  Ni  Ni174  1  0.66009346  0.05344415  0.59566286  1
  Ni  Ni175  1  0.73860838  0.93269914  1.01934844  1
  Ni  Ni176  1  0.31695578  0.31962601  0.86779238  1
  Ni  Ni177  1  0.22458355  0.13008257  0.24882313  1
  Ni  Ni178  1  0.19063324  0.76310428  0.42883454  1
  Ni  Ni179  1  0.79524975  0.61508223  0.65243930  1
  Ni  Ni180  1  0.98205946  0.34305641  0.55858843  1
  Ni  Ni181  1  0.39769058  0.54617271  0.26872152  1
  Ni  Ni182  1  0.49613737  0.52736223  0.12528220  1
  Ni  Ni183  1  0.49682406  0.58306701  0.60743985  1
  Ni  Ni184  1  0.82304768  0.85627982  0.79788499  1
  Ni  Ni185  1  0.17809331  0.35892592  0.96234955  1
  Ni  Ni186  1  0.70742358  0.78142439  0.05736062  1
  Ni  Ni187  1  0.04784356  0.54859369  0.19151084  1
  Ni  Ni188  1  0.85682358  0.32597830  0.35068547  1
  Ni  Ni189  1  0.81163092  0.17229957  0.40386433  1
  Ni  Ni190  1  0.98117216  0.91545114  0.08237059  1
  Ni  Ni191  1  0.47744766  0.86342585  0.54001592  1
  Ni  Ni192  1  0.39927308  0.97351344  0.25693881  1
  Ni  Ni193  1  0.21276906  0.62659241  0.02362161  1
  Ni  Ni194  1  0.47364837  0.66348163  0.35076792  1
  Ni  Ni195  1  0.39459509  0.15582261  0.00668762  1
  Ni  Ni196  1  0.81937586  0.35829623  0.95844943  1
  Ni  Ni197  1  0.29131017  0.36683114  0.20446338  1
  Ni  Ni198  1  0.80311027  0.42826806  0.80848977  1
  Ni  Ni199  1  0.20532517  0.70368478  0.63039874  1
  Ni  Ni200  1  0.82149656  0.14803662  0.83063982  1
  Ni  Ni201  1  0.97499455  0.16440883  0.85305344  1
  Ni  Ni202  1  0.25821023  0.90816327  0.32883307  1
  Ni  Ni203  1  0.72269649  0.46766289  0.43697659  1
  Ni  Ni204  1  0.96364662  0.43723430  0.27900582  1
  Ni  Ni205  1  0.14371798  0.94287443  0.04676635  1
  Ni  Ni206  1  0.39345488  0.86442064  1.00120946  1
  Ni  Ni207  1  0.05245074  0.81224605  0.97231416  1
  Ni  Ni208  1  0.56813939  0.97133543  0.81966985  1
  Ni  Ni209  1  0.36381022  -0.05545089  0.45954484  1
  Ni  Ni210  1  -0.01735685  0.42939866  0.09781358  1
  Ni  Ni211  1  0.47190105  0.28775677  0.93859047  1
  Ni  Ni212  1  0.12909088  0.51597818  0.91991341  1
  Ni  Ni213  1  0.63078193  0.42842741  0.78991787  1
  Ni  Ni214  1  0.41055441  0.25541956  0.65388174  1
  Ni  Ni215  1  0.34965348  0.79968216  0.68561445  1
