# generated using pymatgen
data_Ti2CoNi
_symmetry_space_group_name_H-M   'P 1'
_cell_length_a   14.59731043
_cell_length_b   14.59206609
_cell_length_c   14.59951553
_cell_angle_alpha   89.79791649
_cell_angle_beta   89.99050429
_cell_angle_gamma   89.85450201
_symmetry_Int_Tables_number   1
_chemical_formula_structural   Ti2CoNi
_chemical_formula_sum   'Ti108 Co54 Ni54'
_cell_volume   3109.73920874
_cell_formula_units_Z   54
loop_
 _symmetry_equiv_pos_site_id
 _symmetry_equiv_pos_as_xyz
  1  'x, y, z'
loop_
 _atom_site_type_symbol
 _atom_site_label
 _atom_site_symmetry_multiplicity
 _atom_site_fract_x
 _atom_site_fract_y
 _atom_site_fract_z
 _atom_site_occupancy
  Ti  Ti0  1  0.03644956  0.06508131  -0.04986523  1
  Ti  Ti1  1  0.02457119  0.01252792  0.39417371  1
  Ti  Ti2  1  -0.02863646  -0.00740197  0.67710544  1
  Ti  Ti3  1  0.03150141  0.34963719  0.01665643  1
  Ti  Ti4  1  -0.00540277  0.30973163  0.29940544  1
  Ti  Ti5  1  -0.04479971  0.36012578  0.69774998  1
  Ti  Ti6  1  0.01884100  0.63184121  0.07544829  1
  Ti  Ti7  1  0.05501799  0.68919230  0.39842044  1
  Ti  Ti8  1  -0.01530926  0.61257134  0.68302748  1
  Ti  Ti9  1  0.36545986  -0.01080391  -0.02253392  1
  Ti  Ti10  1  0.36177408  -0.00985842  0.35721759  1
  Ti  Ti11  1  0.40383146  0.08379356  0.68670732  1
  Ti  Ti12  1  0.28890236  0.35671643  -0.07016829  1
  Ti  Ti13  1  0.39129899  0.30227534  0.27516904  1
  Ti  Ti14  1  0.40644667  0.28686282  0.66146563  1
  Ti  Ti15  1  0.30276038  0.62999307  0.10976673  1
  Ti  Ti16  1  0.34132128  0.61976143  0.32781933  1
  Ti  Ti17  1  0.37936415  0.73927615  0.66048677  1
  Ti  Ti18  1  0.69560027  -0.03925498  -0.02290009  1
  Ti  Ti19  1  0.64078624  -0.13084080  0.33075924  1
  Ti  Ti20  1  0.72643566  0.04819443  0.63123194  1
  Ti  Ti21  1  0.69199195  0.31743201  0.04084216  1
  Ti  Ti22  1  0.68974169  0.31980867  0.41118751  1
  Ti  Ti23  1  0.65131976  0.31498582  0.65259205  1
  Ti  Ti24  1  0.65566214  0.64063157  0.03981023  1
  Ti  Ti25  1  0.65496094  0.66946826  0.28748229  1
  Ti  Ti26  1  0.60990661  0.70315223  0.69559371  1
  Ti  Ti27  1  -0.06899583  0.21002830  0.13364054  1
  Ti  Ti28  1  0.05645368  0.13573859  0.56229936  1
  Ti  Ti29  1  0.05704306  0.17588718  0.74931521  1
  Ti  Ti30  1  0.02977363  0.44513316  0.17093535  1
  Ti  Ti31  1  0.00457323  0.47779437  0.41742336  1
  Ti  Ti32  1  0.04529769  0.49086876  0.80447523  1
  Ti  Ti33  1  -0.05966438  0.89623772  0.22440938  1
  Ti  Ti34  1  -0.02855022  0.87643671  0.52345375  1
  Ti  Ti35  1  -0.05071307  0.90037646  0.84602994  1
  Ti  Ti36  1  0.28100892  0.13936072  0.23988896  1
  Ti  Ti37  1  0.36541949  0.16644067  0.50211801  1
  Ti  Ti38  1  0.27452354  0.16239295  0.83812712  1
  Ti  Ti39  1  0.37106260  0.47598626  0.22511775  1
  Ti  Ti40  1  0.25190519  0.49623035  0.47826039  1
  Ti  Ti41  1  0.31195616  0.56825831  0.92419535  1
  Ti  Ti42  1  0.31543318  0.82579998  0.08989995  1
  Ti  Ti43  1  0.34405818  0.77718729  0.44824268  1
  Ti  Ti44  1  0.30072629  0.83332394  0.80190936  1
  Ti  Ti45  1  0.61933230  0.12972169  0.18682479  1
  Ti  Ti46  1  0.65636043  0.12657393  0.45366761  1
  Ti  Ti47  1  0.58294019  0.12989154  0.90724376  1
  Ti  Ti48  1  0.65862658  0.47614638  0.20576828  1
  Ti  Ti49  1  0.62046959  0.56444610  0.57707025  1
  Ti  Ti50  1  0.63003271  0.48177808  0.90235792  1
  Ti  Ti51  1  0.73385018  0.82546001  0.16146526  1
  Ti  Ti52  1  0.71897142  0.80967926  0.51647622  1
  Ti  Ti53  1  0.66433632  0.82765564  0.82927141  1
  Ti  Ti54  1  0.17190213  -0.02798052  0.09721879  1
  Ti  Ti55  1  0.20034129  0.09971184  0.44697615  1
  Ti  Ti56  1  0.14101023  -0.02861411  0.82393379  1
  Ti  Ti57  1  0.20258754  0.34753835  0.22990044  1
  Ti  Ti58  1  0.17868863  0.30736674  0.51729574  1
  Ti  Ti59  1  0.12998052  0.32133643  0.83976598  1
  Ti  Ti60  1  0.14785700  0.71001755  0.19339287  1
  Ti  Ti61  1  0.19731121  0.69969834  0.58981894  1
  Ti  Ti62  1  0.17208276  0.66852338  0.79652154  1
  Ti  Ti63  1  0.43754310  0.01663681  0.15941461  1
  Ti  Ti64  1  0.42549801  -0.05735765  0.52767915  1
  Ti  Ti65  1  0.50301532  -0.05914315  0.84518120  1
  Ti  Ti66  1  0.51893579  0.33483327  0.14265459  1
  Ti  Ti67  1  0.48448150  0.31228475  0.44944310  1
  Ti  Ti68  1  0.50974233  0.39514421  0.76930453  1
  Ti  Ti69  1  0.49140202  0.62211885  0.15007227  1
  Ti  Ti70  1  0.46785058  0.60584669  0.46536406  1
  Ti  Ti71  1  0.45896722  0.63429882  0.82384338  1
  Ti  Ti72  1  0.80425487  0.04231531  0.14646147  1
  Ti  Ti73  1  0.80320654  -0.03705991  0.43027811  1
  Ti  Ti74  1  0.77737300  0.06652004  0.82621655  1
  Ti  Ti75  1  0.82129344  0.36983479  0.18789266  1
  Ti  Ti76  1  0.85706075  0.33004015  0.52944705  1
  Ti  Ti77  1  0.78819483  0.35747437  0.86337597  1
  Ti  Ti78  1  0.86859765  0.68630122  0.17098487  1
  Ti  Ti79  1  0.89947245  0.65965961  0.51402535  1
  Ti  Ti80  1  0.88910696  0.65606950  0.84900937  1
  Ti  Ti81  1  0.17363010  0.21120592  0.02122752  1
  Ti  Ti82  1  0.09648053  0.15389397  0.27632310  1
  Ti  Ti83  1  0.23077149  0.18737077  0.65439596  1
  Ti  Ti84  1  0.14120716  0.51355333  -0.03236505  1
  Ti  Ti85  1  0.16947904  0.53559575  0.30463678  1
  Ti  Ti86  1  0.16542748  0.50878444  0.65401259  1
  Ti  Ti87  1  0.13615012  0.75156353  -0.01721762  1
  Ti  Ti88  1  0.15563958  0.85889045  0.31258039  1
  Ti  Ti89  1  0.13230982  0.86286157  0.66994394  1
  Ti  Ti90  1  0.40971297  0.20689311  -0.00532434  1
  Ti  Ti91  1  0.46283384  0.14587968  0.32143387  1
  Ti  Ti92  1  0.57755844  0.16378312  0.73231191  1
  Ti  Ti93  1  0.44979699  0.44690500  -0.04672322  1
  Ti  Ti94  1  0.62580607  0.50584200  0.40168653  1
  Ti  Ti95  1  0.42579793  0.52349002  0.64599945  1
  Ti  Ti96  1  0.53766086  0.85894700  0.04213238  1
  Ti  Ti97  1  0.44693356  0.84546179  0.25688487  1
  Ti  Ti98  1  0.58845551  0.88570929  0.64072396  1
  Ti  Ti99  1  0.86369306  0.15149403  -0.02566168  1
  Ti  Ti100  1  0.85468244  0.13810782  0.34982209  1
  Ti  Ti101  1  0.88561004  0.16807608  0.65145590  1
  Ti  Ti102  1  0.90761951  0.49603908  -0.02357268  1
  Ti  Ti103  1  0.80956811  0.49633652  0.42933481  1
  Ti  Ti104  1  0.80280219  0.52613823  0.64418065  1
  Ti  Ti105  1  0.87242302  0.86600258  0.03038321  1
  Ti  Ti106  1  0.82991164  0.77510691  0.35056725  1
  Ti  Ti107  1  0.88082948  0.79225383  0.68054083  1
  Co  Co108  1  0.28934026  0.40258307  0.35892061  1
  Co  Co109  1  0.01644720  0.80045390  0.10565234  1
  Co  Co110  1  0.12281015  0.96419952  0.53559803  1
  Co  Co111  1  0.96606580  0.76099880  0.95465605  1
  Co  Co112  1  0.07269145  0.99069067  0.21924124  1
  Co  Co113  1  0.59132567  0.22744303  0.32447505  1
  Co  Co114  1  0.12920540  0.34439323  0.67852391  1
  Co  Co115  1  0.94139169  0.07322012  0.81486975  1
  Co  Co116  1  0.94364626  0.07967084  0.23286484  1
  Co  Co117  1  0.19687953  0.01461913  0.31082717  1
  Co  Co118  1  0.55433315  0.74930282  0.91994897  1
  Co  Co119  1  0.27885615  0.98457039  0.72980713  1
  Co  Co120  1  0.77695957  0.56473076  0.26101031  1
  Co  Co121  1  0.88789270  0.52766845  0.13645421  1
  Co  Co122  1  0.83087337  0.93330263  0.59134895  1
  Co  Co123  1  0.79267047  0.93955127  0.27114364  1
  Co  Co124  1  0.27879449  0.85997151  0.59904624  1
  Co  Co125  1  0.75565426  0.64297256  0.42252770  1
  Co  Co126  1  0.01719253  0.29944306  0.56114584  1
  Co  Co127  1  0.21455866  0.66029681  0.42471720  1
  Co  Co128  1  0.30099617  0.60286512  0.72981910  1
  Co  Co129  1  0.43913419  0.17820194  0.15641483  1
  Co  Co130  1  0.74213229  0.20417042  0.74337221  1
  Co  Co131  1  0.61583656  0.69525163  0.45425450  1
  Co  Co132  1  0.70379605  0.10840484  0.03765723  1
  Co  Co133  1  0.90570888  0.46589501  0.28729434  1
  Co  Co134  1  0.50550553  0.59862572  0.97697754  1
  Co  Co135  1  0.28221550  0.31803262  0.76847779  1
  Co  Co136  1  0.32833149  0.61640406  0.55068457  1
  Co  Co137  1  0.23098960  0.88642110  -0.05365182  1
  Co  Co138  1  0.98290168  0.84666909  0.37496943  1
  Co  Co139  1  0.86017330  0.33201215  0.01798694  1
  Co  Co140  1  0.74853593  0.67044893  0.58558885  1
  Co  Co141  1  0.49189783  0.79462565  0.77101115  1
  Co  Co142  1  0.14278559  0.04554249  0.67348498  1
  Co  Co143  1  0.43656571  0.72550521  0.03861050  1
  Co  Co144  1  0.56860178  0.19825584  0.05549893  1
  Co  Co145  1  0.28343328  0.02939477  0.57119417  1
  Co  Co146  1  0.64694753  0.96239068  0.15943511  1
  Co  Co147  1  0.90090662  0.62397871  0.34712148  1
  Co  Co148  1  0.75415411  0.47298930  0.05261281  1
  Co  Co149  1  0.29517189  0.94324915  0.20355248  1
  Co  Co150  1  0.08536330  0.27533806  0.15163685  1
  Co  Co151  1  0.21119813  0.47612012  0.81272775  1
  Co  Co152  1  0.42045961  0.91401309  0.68561769  1
  Co  Co153  1  0.99730472  0.74310775  0.25369143  1
  Co  Co154  1  0.14097333  0.81265052  0.47769521  1
  Co  Co155  1  0.40736691  0.83728711  0.92596643  1
  Co  Co156  1  0.72652384  0.21126188  0.91632109  1
  Co  Co157  1  0.63418328  0.30411833  0.82468796  1
  Co  Co158  1  0.02513859  0.58658103  0.24888909  1
  Co  Co159  1  0.36876510  0.46447526  0.79613213  1
  Co  Co160  1  0.07243408  0.12005345  0.11053802  1
  Co  Co161  1  0.25430131  0.91995649  0.44495509  1
  Ni  Ni162  1  0.69753910  0.42420049  0.54296149  1
  Ni  Ni163  1  0.76572241  0.70089726  0.74579668  1
  Ni  Ni164  1  0.51529975  0.55209793  0.29182655  1
  Ni  Ni165  1  0.53216319  0.20500023  0.57326012  1
  Ni  Ni166  1  0.54642608  0.03183689  1.03368480  1
  Ni  Ni167  1  0.16315656  0.54459922  0.13630585  1
  Ni  Ni168  1  0.86975158  0.49158668  0.79044222  1
  Ni  Ni169  1  0.05702361  0.89946099  0.97654682  1
  Ni  Ni170  1  0.49586171  0.71377055  0.33527235  1
  Ni  Ni171  1  0.53122536  -0.00884680  0.30371384  1
  Ni  Ni172  1  0.68930514  0.05122771  0.31362393  1
  Ni  Ni173  1  0.90044450  0.07105361  0.51172083  1
  Ni  Ni174  1  0.81780065  0.80626915  0.87538805  1
  Ni  Ni175  1  0.30627004  0.26760081  0.11547267  1
  Ni  Ni176  1  0.74452737  0.20913063  0.56795135  1
  Ni  Ni177  1  1.03401164  0.74096664  0.59648713  1
  Ni  Ni178  1  0.55035078  0.38392737  0.30643192  1
  Ni  Ni179  1  0.29299133  0.72571386  0.94413505  1
  Ni  Ni180  1  0.50313538  0.07532878  0.45997250  1
  Ni  Ni181  1  0.57910185  0.47659208  0.06245412  1
  Ni  Ni182  1  0.04253787  0.62913918  0.89783336  1
  Ni  Ni183  1  0.78834698  0.91950611  0.74836880  1
  Ni  Ni184  1  0.50593381  0.73104390  0.56890028  1
  Ni  Ni185  1  0.35849425  0.41416445  0.08103375  1
  Ni  Ni186  1  0.52818676  0.40283187  0.57938124  1
  Ni  Ni187  1  0.29948624  0.76249203  0.25254195  1
  Ni  Ni188  1  0.20730883  0.05780460  0.94878442  1
  Ni  Ni189  1  0.52789877  0.83759598  0.44591380  1
  Ni  Ni190  1  0.96314420  1.00094453  0.08415365  1
  Ni  Ni191  1  0.42419027  0.08719161  0.85437689  1
  Ni  Ni192  1  -0.00298130  0.19571647  0.42321081  1
  Ni  Ni193  1  0.55415686  0.04372579  0.61049671  1
  Ni  Ni194  1  0.76640799  0.56110938  0.90928270  1
  Ni  Ni195  1  0.24581282  0.24410159  0.37014844  1
  Ni  Ni196  1  0.43045043  0.46075729  0.39599204  1
  Ni  Ni197  1  0.54272979  0.31790436  0.95254869  1
  Ni  Ni198  1  0.70584315  0.79246205  -0.00334964  1
  Ni  Ni199  1  0.95061347  0.48335749  0.57529571  1
  Ni  Ni200  1  0.57928094  0.54759837  0.74260548  1
  Ni  Ni201  1  0.84782017  0.32744562  0.36341260  1
  Ni  Ni202  1  0.19202637  0.38648202  0.06690501  1
  Ni  Ni203  1  0.57478853  0.76827827  0.17720847  1
  Ni  Ni204  1  0.28891894  0.39975221  0.62490005  1
  Ni  Ni205  1  0.63514945  0.99646855  0.76593729  1
  Ni  Ni206  1  0.89081483  0.23225247  0.80573248  1
  Ni  Ni207  1  0.95602209  0.36760473  0.87080362  1
  Ni  Ni208  1  0.44776323  0.24718110  0.82955054  1
  Ni  Ni209  1  0.07724842  0.58467985  0.52853892  1
  Ni  Ni210  1  0.70323987  0.44509540  0.74971940  1
  Ni  Ni211  1  0.29680617  0.10281612  0.08061385  1
  Ni  Ni212  1  0.12959989  0.37846929  0.37865462  1
  Ni  Ni213  1  0.02595436  0.76365574  0.78275729  1
  Ni  Ni214  1  0.74584471  0.22465580  0.26504272  1
  Ni  Ni215  1  0.01315323  0.21958540  0.91552644  1
