# generated using pymatgen
data_Ti2CoNi
_symmetry_space_group_name_H-M   'P 1'
_cell_length_a   14.65201927
_cell_length_b   14.62705903
_cell_length_c   14.58508280
_cell_angle_alpha   90.09513884
_cell_angle_beta   90.03978261
_cell_angle_gamma   90.18669412
_symmetry_Int_Tables_number   1
_chemical_formula_structural   Ti2CoNi
_chemical_formula_sum   'Ti108 Co54 Ni54'
_cell_volume   3125.79421884
_cell_formula_units_Z   54
loop_
 _symmetry_equiv_pos_site_id
 _symmetry_equiv_pos_as_xyz
  1  'x, y, z'
loop_
 _atom_site_type_symbol
 _atom_site_label
 _atom_site_symmetry_multiplicity
 _atom_site_fract_x
 _atom_site_fract_y
 _atom_site_fract_z
 _atom_site_occupancy
  Ti  Ti0  1  0.03129414  0.02207124  -0.05344768  1
  Ti  Ti1  1  -0.01963276  0.01963394  0.25716121  1
  Ti  Ti2  1  -0.02200177  -0.05240105  0.68612339  1
  Ti  Ti3  1  0.03071470  0.33348593  -0.00240480  1
  Ti  Ti4  1  0.03236694  0.30905182  0.24573849  1
  Ti  Ti5  1  0.02420918  0.32873175  0.59968214  1
  Ti  Ti6  1  -0.04235714  0.68963494  0.00476691  1
  Ti  Ti7  1  0.08354157  0.65242208  0.34083605  1
  Ti  Ti8  1  -0.03750820  0.62039058  0.73447469  1
  Ti  Ti9  1  0.32642979  -0.02413446  0.03861388  1
  Ti  Ti10  1  0.35667258  -0.02865467  0.27242287  1
  Ti  Ti11  1  0.38308077  0.00225416  0.77800643  1
  Ti  Ti12  1  0.28411270  0.28262417  -0.05301702  1
  Ti  Ti13  1  0.33375484  0.25454302  0.40103259  1
  Ti  Ti14  1  0.37251122  0.39750411  0.66161561  1
  Ti  Ti15  1  0.42158278  0.70108317  0.01204796  1
  Ti  Ti16  1  0.27521944  0.63289348  0.34734632  1
  Ti  Ti17  1  0.37960183  0.61462142  0.61539850  1
  Ti  Ti18  1  0.64852150  -0.02316027  0.00015011  1
  Ti  Ti19  1  0.67228706  0.05064928  0.42819149  1
  Ti  Ti20  1  0.66560672  0.07417347  0.64360069  1
  Ti  Ti21  1  0.68788480  0.29648974  -0.02972842  1
  Ti  Ti22  1  0.73633917  0.31771094  0.35864886  1
  Ti  Ti23  1  0.61681751  0.37481680  0.78154673  1
  Ti  Ti24  1  0.72404676  0.61955228  0.00082228  1
  Ti  Ti25  1  0.60972410  0.67305056  0.27135964  1
  Ti  Ti26  1  0.60576511  0.71946086  0.70905334  1
  Ti  Ti27  1  -0.03326461  0.18579575  0.10385587  1
  Ti  Ti28  1  -0.03927680  0.18274912  0.47270480  1
  Ti  Ti29  1  0.03662486  0.26055131  0.79355386  1
  Ti  Ti30  1  -0.05690653  0.43163466  0.13888822  1
  Ti  Ti31  1  0.02573221  0.47421536  0.46401014  1
  Ti  Ti32  1  0.00294655  0.51441320  0.90481959  1
  Ti  Ti33  1  -0.04152691  0.80286084  0.18059621  1
  Ti  Ti34  1  -0.00003185  0.76701397  0.47239565  1
  Ti  Ti35  1  0.01474882  0.80411942  0.83131883  1
  Ti  Ti36  1  0.34804085  0.15157320  0.21211501  1
  Ti  Ti37  1  0.39186614  0.10421019  0.56074108  1
  Ti  Ti38  1  0.29815442  0.22757253  0.75457993  1
  Ti  Ti39  1  0.27900909  0.48314669  0.13885135  1
  Ti  Ti40  1  0.34991763  0.46583380  0.45215816  1
  Ti  Ti41  1  0.34607229  0.54703006  0.90288051  1
  Ti  Ti42  1  0.35938203  0.81424801  0.14555737  1
  Ti  Ti43  1  0.31438802  0.82616280  0.48963966  1
  Ti  Ti44  1  0.22659674  0.81635397  0.79449572  1
  Ti  Ti45  1  0.61117250  0.22286489  0.18802854  1
  Ti  Ti46  1  0.66861158  0.25324501  0.54620595  1
  Ti  Ti47  1  0.66503928  0.09221017  0.84474467  1
  Ti  Ti48  1  0.58088308  0.50545766  0.17015187  1
  Ti  Ti49  1  0.66543497  0.46248722  0.49109536  1
  Ti  Ti50  1  0.73354163  0.57881066  0.79843110  1
  Ti  Ti51  1  0.67222827  0.78072043  0.09348933  1
  Ti  Ti52  1  0.65639312  0.80742698  0.43339884  1
  Ti  Ti53  1  0.71237774  0.78614803  0.86541282  1
  Ti  Ti54  1  0.18049965  0.03960336  0.23198723  1
  Ti  Ti55  1  0.18536676  0.02916744  0.52343113  1
  Ti  Ti56  1  0.15437725  0.00968318  0.76947122  1
  Ti  Ti57  1  0.23779263  0.32644553  0.25654135  1
  Ti  Ti58  1  0.20914085  0.34880335  0.53312869  1
  Ti  Ti59  1  0.16355440  0.40482246  0.85636025  1
  Ti  Ti60  1  0.17149058  0.70849980  0.17598046  1
  Ti  Ti61  1  0.17565052  0.64975064  0.53066913  1
  Ti  Ti62  1  0.16273089  0.61161809  0.83407254  1
  Ti  Ti63  1  0.50455106  0.06559576  0.10819435  1
  Ti  Ti64  1  0.52521590  -0.04525634  0.52672845  1
  Ti  Ti65  1  0.54539806  -0.10433276  0.83916187  1
  Ti  Ti66  1  0.44214198  0.34927905  0.16272692  1
  Ti  Ti67  1  0.52153800  0.32853229  0.43572252  1
  Ti  Ti68  1  0.43664270  0.36591405  0.84627148  1
  Ti  Ti69  1  0.41611897  0.65507360  0.20880553  1
  Ti  Ti70  1  0.54833058  0.66130287  0.51007138  1
  Ti  Ti71  1  0.46126476  0.69546455  0.82792657  1
  Ti  Ti72  1  0.79264709  -0.07545968  0.15730633  1
  Ti  Ti73  1  0.86477163  0.02280027  0.49799525  1
  Ti  Ti74  1  0.86900251  0.03869122  0.82469013  1
  Ti  Ti75  1  0.79126099  0.27601522  0.15729301  1
  Ti  Ti76  1  0.84324353  0.33069545  0.53424182  1
  Ti  Ti77  1  0.81327112  0.23211614  0.83583108  1
  Ti  Ti78  1  0.88499939  0.59970223  0.24391317  1
  Ti  Ti79  1  0.83068314  0.65895089  0.49649304  1
  Ti  Ti80  1  0.80499790  0.72405281  0.69503242  1
  Ti  Ti81  1  0.20376407  0.12232514  0.03603219  1
  Ti  Ti82  1  0.14637888  0.17361280  0.35089907  1
  Ti  Ti83  1  0.13538875  0.17513497  0.65870157  1
  Ti  Ti84  1  0.11193858  0.52762634  0.05072731  1
  Ti  Ti85  1  0.11069643  0.48641456  0.26227146  1
  Ti  Ti86  1  0.11138003  0.51448811  0.65812541  1
  Ti  Ti87  1  0.20541790  0.82012479  0.01937729  1
  Ti  Ti88  1  0.09344940  0.86164680  0.31383921  1
  Ti  Ti89  1  0.12887174  0.84108700  0.59114069  1
  Ti  Ti90  1  0.49182549  0.24362339  -0.00485486  1
  Ti  Ti91  1  0.47043640  0.09967446  0.38355844  1
  Ti  Ti92  1  0.49921186  0.22451586  0.69686961  1
  Ti  Ti93  1  0.52905383  0.50967533  -0.02361521  1
  Ti  Ti94  1  0.52269058  0.52423462  0.36519208  1
  Ti  Ti95  1  0.57173730  0.52851142  0.66489742  1
  Ti  Ti96  1  0.49237745  0.87943487  0.02185432  1
  Ti  Ti97  1  0.46191136  0.80054709  0.34027904  1
  Ti  Ti98  1  0.42594092  0.81933773  0.67738513  1
  Ti  Ti99  1  0.80892309  0.10048802  0.01158194  1
  Ti  Ti100  1  0.88848120  0.20046428  0.30530238  1
  Ti  Ti101  1  0.87696164  0.16115870  0.65710404  1
  Ti  Ti102  1  0.83256691  0.43643645  -0.02390701  1
  Ti  Ti103  1  0.72801520  0.50249481  0.30594811  1
  Ti  Ti104  1  0.77715753  0.46344795  0.65086129  1
  Ti  Ti105  1  0.86386883  0.86059561  -0.02365020  1
  Ti  Ti106  1  0.81011431  0.87023515  0.35165233  1
  Ti  Ti107  1  0.83694544  0.85216718  0.56195481  1
  Co  Co108  1  0.73171352  0.14792146  0.28898261  1
  Co  Co109  1  0.01156285  0.62507715  0.56603870  1
  Co  Co110  1  0.93998005  0.47816318  0.61263975  1
  Co  Co111  1  0.85919069  0.58270204  0.90182470  1
  Co  Co112  1  0.27826030  0.47233496  0.30592478  1
  Co  Co113  1  0.72615694  0.60707684  0.16478654  1
  Co  Co114  1  0.56687030  0.07313395  0.26080205  1
  Co  Co115  1  0.05021082  0.04737871  0.41252420  1
  Co  Co116  1  0.18228394  0.50889797  0.43162384  1
  Co  Co117  1  0.41681617  0.17943615  0.85426266  1
  Co  Co118  1  0.62339951  0.93851231  0.15087982  1
  Co  Co119  1  0.57243402  0.22709001  0.84918101  1
  Co  Co120  1  0.86376556  0.38574367  0.27520258  1
  Co  Co121  1  0.56089491  0.93756984  0.68918731  1
  Co  Co122  1  0.11037422  0.20805099  0.50063878  1
  Co  Co123  1  0.01030267  0.93300756  0.52700446  1
  Co  Co124  1  0.02981885  0.42422287  0.75560706  1
  Co  Co125  1  0.62808190  0.14814025  0.99972859  1
  Co  Co126  1  0.70318829  0.86207565  0.70457036  1
  Co  Co127  1  0.58574222  0.81242256  0.58311251  1
  Co  Co128  1  0.24864750  0.45697974  0.98099292  1
  Co  Co129  1  1.01897844  0.08550525  0.59339571  1
  Co  Co130  1  0.92969098  0.74849082  0.32895734  1
  Co  Co131  1  0.24255473  0.91950211  0.66740073  1
  Co  Co132  1  0.17232128  0.77506041  0.42526922  1
  Co  Co133  1  0.41293010  0.54944733  1.07979026  1
  Co  Co134  1  0.92750484  0.35134549  0.87048437  1
  Co  Co135  1  0.48079997  0.92451388  0.20260391  1
  Co  Co136  1  0.88562441  0.48517602  0.77502572  1
  Co  Co137  1  0.85905379  0.27680961  0.01063793  1
  Co  Co138  1  0.69136770  0.08743352  0.13667064  1
  Co  Co139  1  0.89557922  0.33105338  0.70487048  1
  Co  Co140  1  0.37348352  0.94983035  0.59833319  1
  Co  Co141  1  0.77052422  0.38916878  0.81576787  1
  Co  Co142  1  0.95414756  0.91234358  0.38021440  1
  Co  Co143  1  0.54559479  0.93879579  0.35860847  1
  Co  Co144  1  0.49735027  0.04068925  0.93101153  1
  Co  Co145  1  0.86100660  0.86802948  0.77511027  1
  Co  Co146  1  0.52735200  0.07780564  0.76337419  1
  Co  Co147  1  0.94928134  0.33596124  0.40696126  1
  Co  Co148  1  0.56725908  0.64128210  0.08983419  1
  Co  Co149  1  0.38522223  -0.03731176  0.43342828  1
  Co  Co150  1  0.88200492  0.56535789  0.07257884  1
  Co  Co151  1  0.41211106  0.37325304  0.32455259  1
  Co  Co152  1  0.69977093  0.93623563  0.55303083  1
  Co  Co153  1  0.40585969  0.39650487  0.00682512  1
  Co  Co154  1  0.61580865  0.20431511  0.38122240  1
  Co  Co155  1  0.86362046  0.72907039  0.85996412  1
  Co  Co156  1  0.52154778  0.77696410  0.16334397  1
  Co  Co157  1  0.64278126  0.83201815  0.26817832  1
  Co  Co158  1  0.59200554  0.37318420  0.28588931  1
  Co  Co159  1  0.29134258  0.09617301  0.38312282  1
  Co  Co160  1  0.70447696  0.98484374  0.28419315  1
  Co  Co161  1  0.27586877  0.08189786  0.67833954  1
  Ni  Ni162  1  0.27378056  0.09689243  0.87854569  1
  Ni  Ni163  1  0.47983630  0.23249971  0.28453889  1
  Ni  Ni164  1  0.42143104  0.49959413  0.23556338  1
  Ni  Ni165  1  0.28757566  0.79459063  0.30315709  1
  Ni  Ni166  1  0.93620170  0.97384428  0.08242676  1
  Ni  Ni167  1  0.18007767  0.34849143  0.69851759  1
  Ni  Ni168  1  0.03738096  0.84753003  -0.00395636  1
  Ni  Ni169  1  0.76938691  0.71409816  0.29694655  1
  Ni  Ni170  1  0.57132472  0.55836755  0.82727710  1
  Ni  Ni171  1  0.22115039  0.94107816  0.38196214  1
  Ni  Ni172  1  0.31113505  0.65877496  0.75955058  1
  Ni  Ni173  1  0.26468953  0.49363519  0.75326126  1
  Ni  Ni174  1  0.25653719  0.50477727  0.58463998  1
  Ni  Ni175  1  0.68601243  0.62053384  0.42352422  1
  Ni  Ni176  1  0.16023083  0.36092071  0.09710651  1
  Ni  Ni177  1  0.27055449  0.75540222  0.63864968  1
  Ni  Ni178  1  0.35882569  0.86519636  0.90561498  1
  Ni  Ni179  1  0.67725645  0.46848275  0.92615224  1
  Ni  Ni180  1  0.18466317  0.95061532  0.92240494  1
  Ni  Ni181  1  0.22486159  0.88968347  0.18439197  1
  Ni  Ni182  1  0.78786920  0.17425165  0.45335780  1
  Ni  Ni183  1  0.12231392  0.34631411  0.38960951  1
  Ni  Ni184  1  0.82727909  0.72860142  0.11810737  1
  Ni  Ni185  1  0.39137905  0.67195704  0.45687669  1
  Ni  Ni186  1  0.70122033  0.61542346  0.60088450  1
  Ni  Ni187  1  0.54997619  0.14382788  0.53144701  1
  Ni  Ni188  1  0.95305266  0.17266894  0.92166244  1
  Ni  Ni189  1  0.55915327  0.36381000  0.61421660  1
  Ni  Ni190  1  0.83552431  0.46996816  0.44328440  1
  Ni  Ni191  1  0.81057844  -0.00682744  0.66810922  1
  Ni  Ni192  1  0.40865354  0.28418784  0.55149597  1
  Ni  Ni193  1  0.94268481  0.59749144  0.40137584  1
  Ni  Ni194  1  0.57984507  0.73258477  0.94709793  1
  Ni  Ni195  1  0.26123596  0.63504705  0.05479836  1
  Ni  Ni196  1  0.11887785  0.68841143  0.97047157  1
  Ni  Ni197  1  0.26256378  0.19186523  0.54528458  1
  Ni  Ni198  1  0.01261988  0.09823058  0.77128149  1
  Ni  Ni199  1  0.73518559  0.28289655  0.68983102  1
  Ni  Ni200  1  0.14862635  0.20444194  0.17284900  1
  Ni  Ni201  1  0.42762922  0.52813105  0.75777798  1
  Ni  Ni202  1  0.28814157  0.71414394  0.91106369  1
  Ni  Ni203  1  0.07558885  0.91102023  0.14584903  1
  Ni  Ni204  1  0.12184416  0.21299723  0.92943542  1
  Ni  Ni205  1  0.30219479  0.26891508  0.10652898  1
  Ni  Ni206  1  0.84583140  0.08909860  0.18011098  1
  Ni  Ni207  1  0.96475616  0.77152608  0.64430124  1
  Ni  Ni208  1  0.37303283  0.13322759  0.01961151  1
  Ni  Ni209  1  0.02981216  0.61354349  0.16625385  1
  Ni  Ni210  1  0.75448048  0.94610178  0.88547884  1
  Ni  Ni211  1  0.60403151  0.36552049  0.09173153  1
  Ni  Ni212  1  0.49122874  0.48817733  0.52935132  1
  Ni  Ni213  1  0.07070438  0.06694850  0.10907548  1
  Ni  Ni214  1  0.11553161  0.70623441  0.69731447  1
  Ni  Ni215  1  0.75819124  0.44317541  0.14555509  1
