# generated using pymatgen
data_Ti2CoNi
_symmetry_space_group_name_H-M   'P 1'
_cell_length_a   14.67654334
_cell_length_b   14.66247252
_cell_length_c   14.57556451
_cell_angle_alpha   89.99823668
_cell_angle_beta   89.87044398
_cell_angle_gamma   90.06987506
_symmetry_Int_Tables_number   1
_chemical_formula_structural   Ti2CoNi
_chemical_formula_sum   'Ti108 Co54 Ni54'
_cell_volume   3136.56970112
_cell_formula_units_Z   54
loop_
 _symmetry_equiv_pos_site_id
 _symmetry_equiv_pos_as_xyz
  1  'x, y, z'
loop_
 _atom_site_type_symbol
 _atom_site_label
 _atom_site_symmetry_multiplicity
 _atom_site_fract_x
 _atom_site_fract_y
 _atom_site_fract_z
 _atom_site_occupancy
  Ti  Ti0  1  0.04115941  -0.05374831  0.02924745  1
  Ti  Ti1  1  0.01282848  -0.01393561  0.36010636  1
  Ti  Ti2  1  0.07746225  0.01218676  0.72313295  1
  Ti  Ti3  1  0.00897037  0.36493456  0.01023537  1
  Ti  Ti4  1  0.05967311  0.32576510  0.37793261  1
  Ti  Ti5  1  -0.03446954  0.34706178  0.57136875  1
  Ti  Ti6  1  0.02710075  0.60385984  0.00962714  1
  Ti  Ti7  1  0.02201505  0.64724303  0.35067554  1
  Ti  Ti8  1  -0.07579064  0.64655151  0.64507919  1
  Ti  Ti9  1  0.27230185  0.01829303  0.04654300  1
  Ti  Ti10  1  0.38884647  0.00038351  0.40716591  1
  Ti  Ti11  1  0.38730033  -0.05355358  0.72611123  1
  Ti  Ti12  1  0.39364406  0.35220169  0.05757414  1
  Ti  Ti13  1  0.34229955  0.31768475  0.24674255  1
  Ti  Ti14  1  0.27781143  0.29377551  0.71537646  1
  Ti  Ti15  1  0.38183260  0.65735873  0.04600482  1
  Ti  Ti16  1  0.32237320  0.71825521  0.33388861  1
  Ti  Ti17  1  0.36819368  0.75785128  0.66788114  1
  Ti  Ti18  1  0.69543052  -0.01895175  0.01152880  1
  Ti  Ti19  1  0.68000619  -0.06351377  0.34778399  1
  Ti  Ti20  1  0.66992244  -0.00232572  0.60048109  1
  Ti  Ti21  1  0.69057543  0.41734900  -0.02048435  1
  Ti  Ti22  1  0.72421826  0.36064904  0.28372043  1
  Ti  Ti23  1  0.66745835  0.30975099  0.74485836  1
  Ti  Ti24  1  0.63023581  0.69155588  0.04296842  1
  Ti  Ti25  1  0.61284900  0.72185605  0.34204669  1
  Ti  Ti26  1  0.70813478  0.70896139  0.58952765  1
  Ti  Ti27  1  -0.02953477  0.17555697  0.26684718  1
  Ti  Ti28  1  -0.03512179  0.15779023  0.48596040  1
  Ti  Ti29  1  -0.07711883  0.10627818  0.79473833  1
  Ti  Ti30  1  0.01486822  0.39920380  0.21048840  1
  Ti  Ti31  1  0.05904224  0.52238917  0.50534364  1
  Ti  Ti32  1  -0.00090807  0.43308728  0.82869114  1
  Ti  Ti33  1  -0.05554604  0.90909383  0.19277310  1
  Ti  Ti34  1  0.03568474  0.82207049  0.61445041  1
  Ti  Ti35  1  -0.01741154  0.85313820  0.83059533  1
  Ti  Ti36  1  0.38926936  0.13151612  0.16696736  1
  Ti  Ti37  1  0.33420728  0.20679895  0.51123527  1
  Ti  Ti38  1  0.39631300  0.13044012  0.81780492  1
  Ti  Ti39  1  0.26115965  0.48751850  0.12741820  1
  Ti  Ti40  1  0.35783702  0.49683116  0.52478060  1
  Ti  Ti41  1  0.33483623  0.52996858  0.81244095  1
  Ti  Ti42  1  0.30218644  0.86233400  0.18318519  1
  Ti  Ti43  1  0.25273347  0.89153633  0.54819648  1
  Ti  Ti44  1  0.28225336  0.81791672  0.90939049  1
  Ti  Ti45  1  0.64693864  0.18415798  0.20891924  1
  Ti  Ti46  1  0.63418986  0.18142081  0.48015621  1
  Ti  Ti47  1  0.69682500  0.11329107  0.81379418  1
  Ti  Ti48  1  0.66150044  0.56027526  0.24199162  1
  Ti  Ti49  1  0.58306858  0.51966950  0.52421388  1
  Ti  Ti50  1  0.69868878  0.53096280  0.79017023  1
  Ti  Ti51  1  0.73111728  0.75721602  0.17732477  1
  Ti  Ti52  1  0.57366576  0.84153808  0.50010197  1
  Ti  Ti53  1  0.63101843  0.81693424  0.88705297  1
  Ti  Ti54  1  0.12611830  0.03458971  0.18850723  1
  Ti  Ti55  1  0.19890508  0.02688108  0.39531215  1
  Ti  Ti56  1  0.23505602  0.03339522  0.85244652  1
  Ti  Ti57  1  0.19271728  0.31834625  0.07136182  1
  Ti  Ti58  1  0.13987263  0.28684400  0.55482934  1
  Ti  Ti59  1  0.12489434  0.27336190  0.84716950  1
  Ti  Ti60  1  0.19635091  0.69367415  0.10659419  1
  Ti  Ti61  1  0.20920953  0.65774147  0.49955876  1
  Ti  Ti62  1  0.20596915  0.66503325  0.77914060  1
  Ti  Ti63  1  0.52430554  0.02554869  0.08311022  1
  Ti  Ti64  1  0.48840934  0.06065392  0.57985669  1
  Ti  Ti65  1  0.53088558  -0.02788057  0.88257178  1
  Ti  Ti66  1  0.55728356  0.40154106  0.18260927  1
  Ti  Ti67  1  0.47382468  0.34242144  0.44981252  1
  Ti  Ti68  1  0.42293777  0.34970536  0.82606858  1
  Ti  Ti69  1  0.49210119  0.65205885  0.20791228  1
  Ti  Ti70  1  0.44198213  0.67159287  0.48716493  1
  Ti  Ti71  1  0.51693136  0.66734509  0.78818220  1
  Ti  Ti72  1  0.81181814  0.06943683  0.17210968  1
  Ti  Ti73  1  0.88573816  -0.03815605  0.53105819  1
  Ti  Ti74  1  0.82568369  -0.05333923  0.87597700  1
  Ti  Ti75  1  0.84103145  0.37637708  0.12091152  1
  Ti  Ti76  1  0.74164389  0.41320307  0.47895040  1
  Ti  Ti77  1  0.84584542  0.29339394  0.80881055  1
  Ti  Ti78  1  0.91199248  0.68740587  0.18449464  1
  Ti  Ti79  1  0.85804311  0.62269221  0.45101351  1
  Ti  Ti80  1  0.79911834  0.70518961  0.86465597  1
  Ti  Ti81  1  0.10171512  0.14946498  0.02068619  1
  Ti  Ti82  1  0.20628874  0.18555053  0.25105803  1
  Ti  Ti83  1  0.15647326  0.10187879  0.56990841  1
  Ti  Ti84  1  0.17095121  0.47493498  -0.06703535  1
  Ti  Ti85  1  0.16503240  0.51202570  0.30086534  1
  Ti  Ti86  1  0.17828914  0.47169682  0.65405865  1
  Ti  Ti87  1  0.10736601  0.75541721  -0.06509397  1
  Ti  Ti88  1  0.13028081  0.81883120  0.41177017  1
  Ti  Ti89  1  0.18204240  0.85443604  0.75304056  1
  Ti  Ti90  1  0.54616708  0.24141184  0.01897342  1
  Ti  Ti91  1  0.53078558  0.07748007  0.30196518  1
  Ti  Ti92  1  0.48417305  0.22516399  0.66849973  1
  Ti  Ti93  1  0.50806142  0.52674153  -0.06576483  1
  Ti  Ti94  1  0.41463092  0.49185518  0.29741408  1
  Ti  Ti95  1  0.52238277  0.45269131  0.70908898  1
  Ti  Ti96  1  0.43530879  0.85325098  0.01739282  1
  Ti  Ti97  1  0.47000773  0.85051670  0.33380180  1
  Ti  Ti98  1  0.55620798  0.86336488  0.70229962  1
  Ti  Ti99  1  0.82700459  0.16135902  -0.01125935  1
  Ti  Ti100  1  0.79332034  0.18166351  0.35418271  1
  Ti  Ti101  1  0.80362382  0.15662909  0.59891081  1
  Ti  Ti102  1  0.86056091  0.51474232  -0.05987938  1
  Ti  Ti103  1  0.84905632  0.51296893  0.27536461  1
  Ti  Ti104  1  0.84693162  0.45735940  0.69802549  1
  Ti  Ti105  1  0.91599753  0.79780159  0.02103821  1
  Ti  Ti106  1  0.84960096  0.82854403  0.35193959  1
  Ti  Ti107  1  0.79530268  0.85059417  0.68883699  1
  Co  Co108  1  0.45189666  0.79478258  0.16658501  1
  Co  Co109  1  0.86812710  0.77535454  0.54637500  1
  Co  Co110  1  0.91626024  0.57735881  0.79582949  1
  Co  Co111  1  0.68152797  0.13850355  0.05929277  1
  Co  Co112  1  0.18135977  0.35925220  0.24405191  1
  Co  Co113  1  0.32002831  0.39532983  0.38688695  1
  Co  Co114  1  0.88922917  0.33191093  0.29182578  1
  Co  Co115  1  0.50636837  0.71836443  0.94999254  1
  Co  Co116  1  0.44285345  0.90548993  0.56826762  1
  Co  Co117  1  0.10405939  0.62510210  0.63925399  1
  Co  Co118  1  0.20814666  0.15329059  0.74209596  1
  Co  Co119  1  0.93234576  0.93731565  0.70971873  1
  Co  Co120  1  0.27965065  0.60829446  0.64059995  1
  Co  Co121  1  0.04434598  0.72051586  0.75826700  1
  Co  Co122  1  0.18203090  0.43710626  0.46428541  1
  Co  Co123  1  0.92136643  0.24039709  0.67621922  1
  Co  Co124  1  0.80690541  0.22863791  0.18571731  1
  Co  Co125  1  0.07967891  0.58422254  0.84709701  1
  Co  Co126  1  0.61442258  0.59042883  0.66704768  1
  Co  Co127  1  0.28759161  0.35331928  0.55313392  1
  Co  Co128  1  1.00935740  0.79581154  0.28955704  1
  Co  Co129  1  0.75947629  0.56091778  0.58281938  1
  Co  Co130  1  0.08295979  0.10939570  0.85955977  1
  Co  Co131  1  0.36408668  0.80722067  0.47106054  1
  Co  Co132  1  0.78664429  0.66253399  0.30070960  1
  Co  Co133  1  0.40551059  0.09102476  -0.01278307  1
  Co  Co134  1  0.85104201  0.33659147  0.96208883  1
  Co  Co135  1  0.59307484  0.85456941  0.06052966  1
  Co  Co136  1  0.58318641  0.10943572  0.93323811  1
  Co  Co137  1  0.34229962  0.45036795  0.68440089  1
  Co  Co138  1  0.43746043  0.35232163  0.60892465  1
  Co  Co139  1  0.28556979  0.19324839  0.06998397  1
  Co  Co140  1  0.59793757  0.85108539  0.22388944  1
  Co  Co141  1  0.95311271  0.69271112  0.89765264  1
  Co  Co142  1  -0.02344551  0.07134008  0.12622345  1
  Co  Co143  1  0.02358121  0.69416454  0.50875440  1
  Co  Co144  1  0.44465352  0.82242139  0.83000964  1
  Co  Co145  1  0.44436797  0.96230054  0.21337969  1
  Co  Co146  1  0.40034225  0.23973759  0.94215063  1
  Co  Co147  1  0.96082332  0.07873648  0.62582658  1
  Co  Co148  1  0.68054606  0.44123731  0.64709418  1
  Co  Co149  1  0.94103659  0.23138092  0.08019459  1
  Co  Co150  1  0.64254870  0.00878994  0.19046618  1
  Co  Co151  1  0.06905659  0.18873745  0.68215668  1
  Co  Co152  1  0.19818648  0.75624264  0.62866923  1
  Co  Co153  1  0.95683805  0.06949173  0.95735002  1
  Co  Co154  1  0.54268851  0.21960564  0.82485570  1
  Co  Co155  1  0.70348414  0.56139774  0.40666351  1
  Co  Co156  1  0.74287608  0.88435810  0.51053167  1
  Co  Co157  1  0.07869593  0.23817680  0.16377268  1
  Co  Co158  1  0.55840388  1.00126215  0.44502638  1
  Co  Co159  1  0.24565596  0.18315429  0.91265018  1
  Co  Co160  1  -0.02497902  0.23589144  0.90872052  1
  Co  Co161  1  0.97772737  0.84095288  0.44629451  1
  Ni  Ni162  1  0.36959003  0.67725282  0.87436273  1
  Ni  Ni163  1  0.77491029  0.90963181  0.20219205  1
  Ni  Ni164  1  0.78714716  0.31727091  0.60977431  1
  Ni  Ni165  1  0.16329351  0.71558400  0.27222077  1
  Ni  Ni166  1  0.57827625  0.37985847  0.86793401  1
  Ni  Ni167  1  0.68601553  0.31069409  0.10375111  1
  Ni  Ni168  1  0.10107798  0.15761903  0.39810839  1
  Ni  Ni169  1  0.58319330  0.26702223  0.33953518  1
  Ni  Ni170  1  0.23014915  0.62991631  0.95324331  1
  Ni  Ni171  1  0.05284584  0.78195989  0.12306097  1
  Ni  Ni172  1  0.67746197  0.72315474  0.75277278  1
  Ni  Ni173  1  0.29263116  0.01820172  0.25264577  1
  Ni  Ni174  1  0.10279525  0.48181360  0.09766645  1
  Ni  Ni175  1  0.63886145  0.16424374  0.65324966  1
  Ni  Ni176  1  0.44246439  0.59125341  0.64738763  1
  Ni  Ni177  1  0.75754408  0.05366621  0.45891357  1
  Ni  Ni178  1  0.85480512  0.01560984  0.33020369  1
  Ni  Ni179  1  0.92546509  0.52406633  0.11495114  1
  Ni  Ni180  1  0.54438521  0.06049148  0.74213498  1
  Ni  Ni181  1  0.06691992  0.96804271  0.52390680  1
  Ni  Ni182  1  0.59366992  0.43245744  0.36070986  1
  Ni  Ni183  1  0.86106936  0.95922026  0.04705309  1
  Ni  Ni184  1  0.69167717  0.25067222  0.91881630  1
  Ni  Ni185  1  0.24023267  1.00112764  0.68289734  1
  Ni  Ni186  1  0.12415914  0.92750538  0.89605223  1
  Ni  Ni187  1  0.95687245  0.46086609  0.38712091  1
  Ni  Ni188  1  0.37134148  0.95958062  0.90085065  1
  Ni  Ni189  1  0.31458345  0.61514432  0.21126632  1
  Ni  Ni190  1  0.34251718  0.49536883  -0.02263880  1
  Ni  Ni191  1  0.27779463  0.88132235  0.35087913  1
  Ni  Ni192  1  0.28994944  0.56229427  0.38799261  1
  Ni  Ni193  1  0.89824713  0.49158064  0.54296202  1
  Ni  Ni194  1  0.07488139  0.35089059  0.70500796  1
  Ni  Ni195  1  0.53002449  0.58167131  0.37247012  1
  Ni  Ni196  1  0.75195211  0.52480301  0.10503061  1
  Ni  Ni197  1  0.69796385  0.57910192  0.94870207  1
  Ni  Ni198  1  0.27670547  0.35024336  0.90658469  1
  Ni  Ni199  1  0.42940305  0.50760659  0.12333734  1
  Ni  Ni200  1  0.79964137  0.02421706  0.70551900  1
  Ni  Ni201  1  0.86680813  0.29761833  0.44909733  1
  Ni  Ni202  1  0.75379765  0.81803007  1.00651517  1
  Ni  Ni203  1  0.49256582  0.25222239  0.19564303  1
  Ni  Ni204  1  0.06346820  0.61359604  0.18525204  1
  Ni  Ni205  1  0.32314733  0.04491929  0.55439756  1
  Ni  Ni206  1  0.58420491  0.53626651  0.07876052  1
  Ni  Ni207  1  0.19000471  0.86617818  0.05274033  1
  Ni  Ni208  1  0.82744423  0.65653326  0.03423061  1
  Ni  Ni209  1  0.67572889  0.94698160  0.78163243  1
  Ni  Ni210  1  0.22374139  0.27109315  0.39793159  1
  Ni  Ni211  1  0.53525613  0.72411654  0.61785275  1
  Ni  Ni212  1  0.13985768  0.88610263  0.24944689  1
  Ni  Ni213  1  0.60426450  0.31871698  0.57848719  1
  Ni  Ni214  1  0.73703531  0.74270199  0.43558699  1
  Ni  Ni215  1  0.47677661  0.16643712  0.43639631  1
