# generated using pymatgen
data_Ti2CoNi
_symmetry_space_group_name_H-M   'P 1'
_cell_length_a   14.64041756
_cell_length_b   14.70599104
_cell_length_c   14.64773770
_cell_angle_alpha   90.18147956
_cell_angle_beta   90.11604124
_cell_angle_gamma   90.38700022
_symmetry_Int_Tables_number   1
_chemical_formula_structural   Ti2CoNi
_chemical_formula_sum   'Ti108 Co54 Ni54'
_cell_volume   3153.59065593
_cell_formula_units_Z   54
loop_
 _symmetry_equiv_pos_site_id
 _symmetry_equiv_pos_as_xyz
  1  'x, y, z'
loop_
 _atom_site_type_symbol
 _atom_site_label
 _atom_site_symmetry_multiplicity
 _atom_site_fract_x
 _atom_site_fract_y
 _atom_site_fract_z
 _atom_site_occupancy
  Ti  Ti0  1  0.00784809  -0.04800629  0.01680489  1
  Ti  Ti1  1  0.07207448  0.02735906  0.38371529  1
  Ti  Ti2  1  0.06821672  0.00421566  0.65909379  1
  Ti  Ti3  1  -0.01814619  0.36984101  -0.03098406  1
  Ti  Ti4  1  0.00772392  0.41777734  0.32700704  1
  Ti  Ti5  1  -0.06406620  0.26080898  0.67369754  1
  Ti  Ti6  1  -0.01847070  0.62011614  -0.01828599  1
  Ti  Ti7  1  0.03493143  0.67571997  0.34246128  1
  Ti  Ti8  1  -0.06525979  0.68737119  0.62542121  1
  Ti  Ti9  1  0.23301004  0.01343958  0.04535005  1
  Ti  Ti10  1  0.30278659  -0.00364364  0.32300022  1
  Ti  Ti11  1  0.35797752  -0.03698299  0.73559901  1
  Ti  Ti12  1  0.30568844  0.31512150  0.06849564  1
  Ti  Ti13  1  0.36595892  0.33825636  0.37567075  1
  Ti  Ti14  1  0.30719853  0.34420463  0.71136528  1
  Ti  Ti15  1  0.39598487  0.59694843  0.07389293  1
  Ti  Ti16  1  0.25962965  0.69925455  0.37509187  1
  Ti  Ti17  1  0.24422639  0.63882187  0.65364304  1
  Ti  Ti18  1  0.69190989  0.04950793  0.00835206  1
  Ti  Ti19  1  0.63262496  0.08253948  0.31946896  1
  Ti  Ti20  1  0.68430965  -0.00265595  0.70645395  1
  Ti  Ti21  1  0.73505076  0.34912767  -0.03895474  1
  Ti  Ti22  1  0.56674676  0.28555382  0.32926271  1
  Ti  Ti23  1  0.69222342  0.31354747  0.65689048  1
  Ti  Ti24  1  0.59375267  0.60035640  0.00263921  1
  Ti  Ti25  1  0.61123088  0.59939760  0.27247783  1
  Ti  Ti26  1  0.73447807  0.67231587  0.64353283  1
  Ti  Ti27  1  -0.00865329  0.09684736  0.18009512  1
  Ti  Ti28  1  -0.05465556  0.21475130  0.43964439  1
  Ti  Ti29  1  0.07381956  0.21328026  0.88718755  1
  Ti  Ti30  1  -0.02321833  0.56131772  0.17276479  1
  Ti  Ti31  1  -0.05262435  0.55720114  0.49138868  1
  Ti  Ti32  1  0.02605741  0.52730622  0.77814112  1
  Ti  Ti33  1  0.04158548  0.78263102  0.12672203  1
  Ti  Ti34  1  -0.03912594  0.81653742  0.45902272  1
  Ti  Ti35  1  -0.03767214  0.72376859  0.81216270  1
  Ti  Ti36  1  0.35558978  0.12966917  0.16198140  1
  Ti  Ti37  1  0.36346111  0.17948719  0.61332263  1
  Ti  Ti38  1  0.38537751  0.12838233  0.83437026  1
  Ti  Ti39  1  0.25561641  0.50277798  0.14879577  1
  Ti  Ti40  1  0.39132038  0.55335394  0.44442478  1
  Ti  Ti41  1  0.32331528  0.60337721  0.86869213  1
  Ti  Ti42  1  0.38775714  0.90936718  0.15805889  1
  Ti  Ti43  1  0.38759968  0.84935343  0.41181155  1
  Ti  Ti44  1  0.32989330  0.81023047  0.85502825  1
  Ti  Ti45  1  0.65860572  0.21924114  0.15798063  1
  Ti  Ti46  1  0.62097726  0.19473539  0.49769275  1
  Ti  Ti47  1  0.64215189  0.18018409  0.84869533  1
  Ti  Ti48  1  0.72444971  0.48444978  0.13254537  1
  Ti  Ti49  1  0.65122276  0.44983672  0.51802427  1
  Ti  Ti50  1  0.63378140  0.46846760  0.82913587  1
  Ti  Ti51  1  0.69783003  0.86143450  0.09246753  1
  Ti  Ti52  1  0.66589776  0.83932658  0.52051487  1
  Ti  Ti53  1  0.72105557  0.87366708  0.86233554  1
  Ti  Ti54  1  0.17051350  0.04077910  0.21198730  1
  Ti  Ti55  1  0.22054169  0.04291161  0.51600113  1
  Ti  Ti56  1  0.15121191  0.02909581  0.84960501  1
  Ti  Ti57  1  0.13680314  0.33624365  0.18955615  1
  Ti  Ti58  1  0.17608704  0.32386888  0.43557248  1
  Ti  Ti59  1  0.18545432  0.38859234  0.86922053  1
  Ti  Ti60  1  0.21860032  0.71428155  0.15374660  1
  Ti  Ti61  1  0.13876945  0.61663399  0.49645468  1
  Ti  Ti62  1  0.16155610  0.70513617  0.83709012  1
  Ti  Ti63  1  0.54568950  0.03666123  0.12642255  1
  Ti  Ti64  1  0.53496038  -0.03008394  0.44887636  1
  Ti  Ti65  1  0.49018352  -0.05941118  0.88790704  1
  Ti  Ti66  1  0.56071913  0.37585207  0.08552491  1
  Ti  Ti67  1  0.47046868  0.39809482  0.56996253  1
  Ti  Ti68  1  0.48117822  0.30644356  0.78183106  1
  Ti  Ti69  1  0.55257896  0.73327877  0.14620148  1
  Ti  Ti70  1  0.50872967  0.70834978  0.48647437  1
  Ti  Ti71  1  0.50927346  0.75807084  0.79017968  1
  Ti  Ti72  1  0.79604395  -0.00257509  0.23148772  1
  Ti  Ti73  1  0.90836070  0.00497020  0.48917780  1
  Ti  Ti74  1  0.82057432  0.04502065  0.85027380  1
  Ti  Ti75  1  0.85516478  0.29922833  0.12898045  1
  Ti  Ti76  1  0.87186473  0.38566884  0.51318495  1
  Ti  Ti77  1  0.88252572  0.23003647  0.87042511  1
  Ti  Ti78  1  0.85614796  0.73031321  0.18129996  1
  Ti  Ti79  1  0.81113867  0.67816456  0.42964607  1
  Ti  Ti80  1  0.68981879  0.66897835  0.84272776  1
  Ti  Ti81  1  0.24875152  0.17483279  -0.04124000  1
  Ti  Ti82  1  0.10127746  0.20046103  0.30814179  1
  Ti  Ti83  1  0.16686078  0.21965405  0.61594117  1
  Ti  Ti84  1  0.11125474  0.48505058  0.04199931  1
  Ti  Ti85  1  0.21501990  0.48360906  0.32914287  1
  Ti  Ti86  1  0.16747074  0.43410742  0.62396239  1
  Ti  Ti87  1  0.18277380  0.85286055  -0.02278566  1
  Ti  Ti88  1  0.12848145  0.85283235  0.32193862  1
  Ti  Ti89  1  0.19253941  0.84278459  0.61218964  1
  Ti  Ti90  1  0.45604682  0.21234967  0.00858000  1
  Ti  Ti91  1  0.42838760  0.14157256  0.36972524  1
  Ti  Ti92  1  0.49359454  0.04997079  0.61832233  1
  Ti  Ti93  1  0.45642869  0.45261465  -0.06062867  1
  Ti  Ti94  1  0.43202485  0.49309757  0.26266413  1
  Ti  Ti95  1  0.45795876  0.51484143  0.73372052  1
  Ti  Ti96  1  0.45899855  0.75384054  -0.01393294  1
  Ti  Ti97  1  0.56449883  0.82837627  0.31863220  1
  Ti  Ti98  1  0.45539515  0.84626502  0.60287993  1
  Ti  Ti99  1  0.90654208  0.11184558  0.01909580  1
  Ti  Ti100  1  0.77653641  0.21059433  0.32350560  1
  Ti  Ti101  1  0.80380813  0.12274047  0.60257364  1
  Ti  Ti102  1  0.85299361  0.49259683  -0.12075806  1
  Ti  Ti103  1  0.76334717  0.48675848  0.36150212  1
  Ti  Ti104  1  0.84756185  0.47381695  0.68290252  1
  Ti  Ti105  1  0.86143119  0.78883920  -0.00762864  1
  Ti  Ti106  1  0.78617758  0.84479175  0.34714112  1
  Ti  Ti107  1  0.87913107  0.91346946  0.69090287  1
  Co  Co108  1  0.11746502  0.77041824  0.47872282  1
  Co  Co109  1  0.82394106  0.65719569  0.91494136  1
  Co  Co110  1  0.21132632  0.52375479  0.75845397  1
  Co  Co111  1  0.14424085  0.31850868  1.01759051  1
  Co  Co112  1  0.87062365  0.45353787  0.04787319  1
  Co  Co113  1  -0.03845999  0.26844054  0.25230272  1
  Co  Co114  1  0.35195810  0.29184944  0.88855939  1
  Co  Co115  1  0.54086947  0.53759819  0.13489980  1
  Co  Co116  1  0.06444838  0.57129575  0.62909122  1
  Co  Co117  1  0.85825446  0.34685726  0.35552244  1
  Co  Co118  1  0.39626612  0.05291052  0.01684941  1
  Co  Co119  1  0.78660784  0.25453600  0.51142213  1
  Co  Co120  1  0.98879560  0.06565783  0.87589945  1
  Co  Co121  1  0.40929229  0.43310553  0.10916285  1
  Co  Co122  1  0.11379879  0.16725257  0.46937800  1
  Co  Co123  1  0.53775324  0.90443345  0.04108122  1
  Co  Co124  1  0.08714618  0.09671737  0.01280937  1
  Co  Co125  1  0.36497478  0.88950832  1.00304960  1
  Co  Co126  1  0.64735129  0.04127249  0.54222464  1
  Co  Co127  1  0.07695822  0.92623138  0.50955185  1
  Co  Co128  1  0.45480289  0.25569244  0.48236946  1
  Co  Co129  1  0.32183612  0.61342241  0.25895881  1
  Co  Co130  1  0.64566942  0.93204070  0.23598826  1
  Co  Co131  1  0.29492447  0.44804240  0.97930137  1
  Co  Co132  1  0.77863788  0.09603275  0.43875749  1
  Co  Co133  1  0.32695145  0.93223135  0.58128150  1
  Co  Co134  1  0.28952351  0.82562065  0.27701783  1
  Co  Co135  1  0.70006985  0.96122168  0.40078588  1
  Co  Co136  1  0.84388274  0.60715422  0.07004218  1
  Co  Co137  1  0.71400819  0.69605747  0.06371689  1
  Co  Co138  1  0.69875034  0.34033644  0.41290515  1
  Co  Co139  1  0.61525678  0.20845795  0.01207705  1
  Co  Co140  1  0.29482204  0.73762788  1.00282740  1
  Co  Co141  1  0.38131361  0.02749346  0.46990388  1
  Co  Co142  1  0.51225548  0.41317651  0.40944775  1
  Co  Co143  1  0.77349572  0.19505481  0.99468439  1
  Co  Co144  1  0.72797062  0.52572099  0.97213650  1
  Co  Co145  1  0.18933253  0.88618731  0.15609330  1
  Co  Co146  1  0.23378040  0.88558428  0.44330934  1
  Co  Co147  1  0.12261636  0.55849742  0.89853946  1
  Co  Co148  1  0.85074520  0.61368096  0.76089612  1
  Co  Co149  1  0.77544013  0.95473243  0.56188716  1
  Co  Co150  1  0.86641767  0.44655229  0.22342191  1
  Co  Co151  1  0.54167906  0.07880266  0.94515630  1
  Co  Co152  1  0.45485261  0.30460110  0.19464611  1
  Co  Co153  1  0.04319751  0.29835727  0.54121566  1
  Co  Co154  1  0.07849828  0.15059634  0.73673190  1
  Co  Co155  1  0.52378198  0.07569941  0.77636404  1
  Co  Co156  1  0.30233158  -0.01523136  0.88889849  1
  Co  Co157  1  -0.00224702  0.39658347  0.14101864  1
  Co  Co158  1  0.23920752  0.59206215  0.00669687  1
  Co  Co159  1  0.34550708  0.44133608  0.82326523  1
  Co  Co160  1  0.12428408  0.69225585  0.01021282  1
  Co  Co161  1  0.81629088  0.77516121  0.76329421  1
  Ni  Ni162  1  0.33145155  0.77955247  0.69709658  1
  Ni  Ni163  1  0.95498735  0.37221026  0.79870726  1
  Ni  Ni164  1  0.23057853  0.21315164  0.78610831  1
  Ni  Ni165  1  0.56561716  0.56403485  0.42693775  1
  Ni  Ni166  1  0.28773581  0.19535101  0.45959184  1
  Ni  Ni167  1  0.63649736  0.15198079  0.67308985  1
  Ni  Ni168  1  0.14081525  0.60101687  0.24835610  1
  Ni  Ni169  1  0.80149453  0.13744468  0.15586791  1
  Ni  Ni170  1  0.09033036  0.72382079  0.68095226  1
  Ni  Ni171  1  0.82420002  0.95145446  0.99844960  1
  Ni  Ni172  1  0.51066167  0.15980139  0.22498266  1
  Ni  Ni173  1  0.30829931  0.34213109  0.54490451  1
  Ni  Ni174  1  0.19611964  0.87976323  0.78201528  1
  Ni  Ni175  1  0.58504403  0.75270714  0.64029602  1
  Ni  Ni176  1  0.78459955  0.35288587  0.79219623  1
  Ni  Ni177  1  0.34150199  0.50251980  0.61519559  1
  Ni  Ni178  1  0.02708146  0.80044415  0.94376272  1
  Ni  Ni179  1  1.01779929  0.23712214  0.08454049  1
  Ni  Ni180  1  0.51952822  0.24790691  0.62938865  1
  Ni  Ni181  1  0.03666422  0.93584303  0.20163548  1
  Ni  Ni182  1  0.61912444  0.78187362  0.95515859  1
  Ni  Ni183  1  0.99409669  0.13088633  0.58077329  1
  Ni  Ni184  1  0.89122131  0.89184565  0.13993008  1
  Ni  Ni185  1  0.92335325  0.09639893  0.72850533  1
  Ni  Ni186  1  0.58632582  0.42674516  0.24820946  1
  Ni  Ni187  1  0.10154369  0.32207889  0.73361488  1
  Ni  Ni188  1  0.58590918  0.61641945  0.72136248  1
  Ni  Ni189  1  0.24546594  0.48626640  0.48500648  1
  Ni  Ni190  1  0.77894785  0.19046308  0.74885588  1
  Ni  Ni191  1  0.46131663  0.68643804  0.32052965  1
  Ni  Ni192  1  0.29977991  0.35834308  0.23124736  1
  Ni  Ni193  1  0.77768591  0.60088664  0.23572715  1
  Ni  Ni194  1  0.38676813  0.74220862  0.16664145  1
  Ni  Ni195  1  0.26740143  0.19049336  0.28743359  1
  Ni  Ni196  1  0.82649887  0.80226392  0.56589483  1
  Ni  Ni197  1  0.50144024  0.61201771  0.86751055  1
  Ni  Ni198  1  0.23074816  0.06839789  0.68830807  1
  Ni  Ni199  1  0.57273563  0.33201821  0.91445418  1
  Ni  Ni200  1  0.91005817  0.11132266  0.31845018  1
  Ni  Ni201  1  0.78620092  0.54808701  0.53946492  1
  Ni  Ni202  1  0.69753289  0.74777508  0.23490862  1
  Ni  Ni203  1  0.90898728  0.57305729  0.32605206  1
  Ni  Ni204  1  0.72824031  0.35245966  0.24523445  1
  Ni  Ni205  1  0.18161329  0.18436992  0.12589369  1
  Ni  Ni206  1  0.54661961  0.91136315  0.72884359  1
  Ni  Ni207  1  0.32073608  0.74122729  0.53107935  1
  Ni  Ni208  1  0.68582208  0.49624331  0.67640008  1
  Ni  Ni209  1  0.99681807  0.42085979  0.63543609  1
  Ni  Ni210  1  0.95893097  0.80663340  0.28120941  1
  Ni  Ni211  1  0.65301349  0.70758666  0.39630544  1
  Ni  Ni212  1  0.07302949  0.45337358  0.48364559  1
  Ni  Ni213  1  0.93113953  0.95162403  0.33046550  1
  Ni  Ni214  1  0.90718006  0.89421224  0.86288530  1
  Ni  Ni215  1  0.47790204  0.99021749  0.28477469  1
