# generated using pymatgen
data_Ti2CoNi
_symmetry_space_group_name_H-M   'P 1'
_cell_length_a   14.63686548
_cell_length_b   14.69195385
_cell_length_c   14.74176529
_cell_angle_alpha   90.28766293
_cell_angle_beta   89.44313394
_cell_angle_gamma   89.89526601
_symmetry_Int_Tables_number   1
_chemical_formula_structural   Ti2CoNi
_chemical_formula_sum   'Ti108 Co54 Ni54'
_cell_volume   3169.93515529
_cell_formula_units_Z   54
loop_
 _symmetry_equiv_pos_site_id
 _symmetry_equiv_pos_as_xyz
  1  'x, y, z'
loop_
 _atom_site_type_symbol
 _atom_site_label
 _atom_site_symmetry_multiplicity
 _atom_site_fract_x
 _atom_site_fract_y
 _atom_site_fract_z
 _atom_site_occupancy
  Ti  Ti0  1  -0.08817650  -0.00568948  -0.03180060  1
  Ti  Ti1  1  -0.05372865  -0.01405826  0.34209900  1
  Ti  Ti2  1  0.03790943  -0.01298988  0.63279399  1
  Ti  Ti3  1  -0.01078968  0.33753131  -0.00362542  1
  Ti  Ti4  1  -0.00009712  0.40141665  0.29302703  1
  Ti  Ti5  1  -0.00190096  0.31780222  0.73584897  1
  Ti  Ti6  1  -0.04363999  0.71342686  0.11191398  1
  Ti  Ti7  1  0.03525402  0.71312148  0.30177575  1
  Ti  Ti8  1  0.01979040  0.58445855  0.61809867  1
  Ti  Ti9  1  0.36539673  -0.02749406  -0.00020297  1
  Ti  Ti10  1  0.30098581  0.04822355  0.36304127  1
  Ti  Ti11  1  0.35286452  0.01837152  0.73064290  1
  Ti  Ti12  1  0.34739633  0.37130084  0.05092529  1
  Ti  Ti13  1  0.28120752  0.27258398  0.35882825  1
  Ti  Ti14  1  0.34054587  0.31949188  0.74554540  1
  Ti  Ti15  1  0.37459785  0.67789591  -0.12549357  1
  Ti  Ti16  1  0.37799491  0.59833148  0.34704363  1
  Ti  Ti17  1  0.25419252  0.68190684  0.68914735  1
  Ti  Ti18  1  0.66222430  -0.01390516  0.09325823  1
  Ti  Ti19  1  0.63701733  -0.04973182  0.28594794  1
  Ti  Ti20  1  0.68077873  -0.00874391  0.69048813  1
  Ti  Ti21  1  0.73703523  0.38308801  -0.01611515  1
  Ti  Ti22  1  0.66733448  0.25703516  0.42307269  1
  Ti  Ti23  1  0.64817694  0.27485826  0.64426676  1
  Ti  Ti24  1  0.64172287  0.71605638  -0.03505037  1
  Ti  Ti25  1  0.59672441  0.62206453  0.31371780  1
  Ti  Ti26  1  0.66574523  0.67619907  0.74007363  1
  Ti  Ti27  1  -0.01957540  0.15801030  0.20905363  1
  Ti  Ti28  1  -0.03219830  0.13315696  0.50169578  1
  Ti  Ti29  1  0.03138727  0.14815251  0.89842328  1
  Ti  Ti30  1  0.07565846  0.48359619  0.09815157  1
  Ti  Ti31  1  0.01914427  0.43380462  0.48325937  1
  Ti  Ti32  1  0.01931201  0.53031050  0.89675039  1
  Ti  Ti33  1  0.01070159  0.91438294  0.11666663  1
  Ti  Ti34  1  -0.03230631  0.83701971  0.53984190  1
  Ti  Ti35  1  0.02631678  0.85145462  0.84989095  1
  Ti  Ti36  1  0.14857020  0.21580200  0.11571384  1
  Ti  Ti37  1  0.30868386  0.22355135  0.54321986  1
  Ti  Ti38  1  0.30000725  0.16880193  0.86260974  1
  Ti  Ti39  1  0.29213072  0.53780057  0.16818249  1
  Ti  Ti40  1  0.30652732  0.44873572  0.46818282  1
  Ti  Ti41  1  0.39063097  0.47726685  0.88743595  1
  Ti  Ti42  1  0.36128263  0.81877799  0.12682174  1
  Ti  Ti43  1  0.41602345  0.89103151  0.45076533  1
  Ti  Ti44  1  0.23637799  0.85101601  0.82460990  1
  Ti  Ti45  1  0.64449683  0.22645470  0.19444709  1
  Ti  Ti46  1  0.65756704  0.06588778  0.43296743  1
  Ti  Ti47  1  0.62492004  0.21803173  0.90622987  1
  Ti  Ti48  1  0.60007640  0.52504771  0.11700810  1
  Ti  Ti49  1  0.67382921  0.54667621  0.47993756  1
  Ti  Ti50  1  0.69487384  0.48856611  0.81834037  1
  Ti  Ti51  1  0.69646932  0.79822408  0.13901636  1
  Ti  Ti52  1  0.60177690  0.80978310  0.45493399  1
  Ti  Ti53  1  0.62762993  0.85071202  0.81307834  1
  Ti  Ti54  1  0.14661708  0.02455777  0.20879474  1
  Ti  Ti55  1  0.24660215  0.00863201  0.55578797  1
  Ti  Ti56  1  0.15451302  0.04054080  0.77383684  1
  Ti  Ti57  1  0.19474573  0.37294762  0.20491626  1
  Ti  Ti58  1  0.16849867  0.35229752  0.59649063  1
  Ti  Ti59  1  0.13501988  0.38776292  0.86593649  1
  Ti  Ti60  1  0.17046884  0.69454499  0.12475135  1
  Ti  Ti61  1  0.13090748  0.69674473  0.50679653  1
  Ti  Ti62  1  0.16186265  0.69924173  0.91127128  1
  Ti  Ti63  1  0.46073752  -0.00347701  0.16794643  1
  Ti  Ti64  1  0.51782276  0.01859383  0.56456927  1
  Ti  Ti65  1  0.61003515  0.03303073  0.88930141  1
  Ti  Ti66  1  0.48453546  0.36163628  0.17335342  1
  Ti  Ti67  1  0.47996333  0.32791140  0.49570205  1
  Ti  Ti68  1  0.52090854  0.41652329  0.70056384  1
  Ti  Ti69  1  0.47308846  0.66340968  0.15212273  1
  Ti  Ti70  1  0.39831695  0.71454949  0.54289159  1
  Ti  Ti71  1  0.47103060  0.64594210  0.70079500  1
  Ti  Ti72  1  0.84273454  0.02252088  0.16238428  1
  Ti  Ti73  1  0.82854064  0.00093264  0.53220147  1
  Ti  Ti74  1  0.80886195  -0.03412675  0.82029985  1
  Ti  Ti75  1  0.84044403  0.32261868  0.13937649  1
  Ti  Ti76  1  0.84689867  0.32524544  0.52407304  1
  Ti  Ti77  1  0.82947618  0.27856194  0.84893046  1
  Ti  Ti78  1  0.83020657  0.71647346  0.29090408  1
  Ti  Ti79  1  0.88734102  0.66662631  0.48040826  1
  Ti  Ti80  1  0.81150080  0.63873425  0.86770556  1
  Ti  Ti81  1  0.20066583  0.07577548  0.01320462  1
  Ti  Ti82  1  0.10626557  0.12016043  0.37006861  1
  Ti  Ti83  1  0.12503184  0.16542913  0.62858081  1
  Ti  Ti84  1  0.22454200  0.52605108  -0.01054382  1
  Ti  Ti85  1  0.15733921  0.55237244  0.34724406  1
  Ti  Ti86  1  0.20950435  0.48811423  0.70425325  1
  Ti  Ti87  1  0.18633171  0.88462769  0.03239820  1
  Ti  Ti88  1  0.21821799  0.83807063  0.27019356  1
  Ti  Ti89  1  0.08402378  0.78251685  0.68616932  1
  Ti  Ti90  1  0.44833207  0.15267048  0.00139828  1
  Ti  Ti91  1  0.47627998  0.19309710  0.33722789  1
  Ti  Ti92  1  0.53631843  0.12828630  0.72372139  1
  Ti  Ti93  1  0.55296157  0.41405072  -0.05129671  1
  Ti  Ti94  1  0.61011770  0.41670449  0.31075588  1
  Ti  Ti95  1  0.47461213  0.52936391  0.54939398  1
  Ti  Ti96  1  0.52446084  0.88444666  -0.02691114  1
  Ti  Ti97  1  0.49412278  0.81935078  0.27771834  1
  Ti  Ti98  1  0.54588408  0.82277278  0.63952181  1
  Ti  Ti99  1  0.87782140  0.17204004  0.02737766  1
  Ti  Ti100  1  0.85632234  0.22262328  0.34495751  1
  Ti  Ti101  1  0.83257068  0.19163304  0.66714427  1
  Ti  Ti102  1  0.87667930  0.53260695  0.02305411  1
  Ti  Ti103  1  0.80774980  0.51388162  0.30464157  1
  Ti  Ti104  1  0.82058186  0.53322200  0.66773041  1
  Ti  Ti105  1  0.86018546  0.80227922  -0.05515502  1
  Ti  Ti106  1  0.78694023  0.86818508  0.41074435  1
  Ti  Ti107  1  0.77275701  0.82189122  0.63215006  1
  Co  Co108  1  0.77888975  0.79652006  0.80114280  1
  Co  Co109  1  0.23623188  0.15899302  0.25286238  1
  Co  Co110  1  0.55733193  0.18324848  0.52353005  1
  Co  Co111  1  0.28195114  0.15832472  0.68434052  1
  Co  Co112  1  0.50832684  0.49915078  0.40336238  1
  Co  Co113  1  0.12729164  -0.02165593  0.41453741  1
  Co  Co114  1  0.53052999  0.59364208  -0.03271600  1
  Co  Co115  1  0.52434509  0.72931922  0.84358124  1
  Co  Co116  1  0.79773916  0.17135745  0.20178883  1
  Co  Co117  1  0.27375235  0.62920434  0.47168940  1
  Co  Co118  1  0.06544900  0.62464164  1.02562791  1
  Co  Co119  1  0.59652703  0.12038242  1.05646157  1
  Co  Co120  1  0.55154020  0.28181971  0.04162984  1
  Co  Co121  1  0.78562061  0.90035269  0.25039677  1
  Co  Co122  1  0.46898139  0.50909593  0.23923961  1
  Co  Co123  1  0.94373848  0.81809779  0.38780904  1
  Co  Co124  1  0.09444293  0.98074665  0.92617199  1
  Co  Co125  1  0.87273281  0.59894881  0.18379250  1
  Co  Co126  1  0.28232117  0.96288978  0.15489475  1
  Co  Co127  1  0.92691603  0.45255988  0.15655548  1
  Co  Co128  1  0.92642067  0.83449286  0.22815518  1
  Co  Co129  1  0.06478263  0.89471033  0.27608743  1
  Co  Co130  1  0.76218245  0.48389854  0.14471850  1
  Co  Co131  1  0.54128862  0.84260141  0.12498842  1
  Co  Co132  1  0.45098814  0.24044500  0.63473203  1
  Co  Co133  1  0.65502221  0.37085242  0.12684949  1
  Co  Co134  1  0.79708580  0.05095090  0.34122632  1
  Co  Co135  1  0.97531129  0.68664359  0.90618266  1
  Co  Co136  1  0.46916172  0.73846291  0.00639266  1
  Co  Co137  1  0.37520445  0.78312243  0.71927739  1
  Co  Co138  1  0.31746316  0.55702056  0.60069479  1
  Co  Co139  1  0.86571742  0.12104465  0.85044242  1
  Co  Co140  1  0.17501664  0.36789183  0.03605425  1
  Co  Co141  1  0.75028210  0.07249558  -0.03066709  1
  Co  Co142  1  0.68603786  0.11639605  0.60002900  1
  Co  Co143  1  0.29056973  0.22767009  0.01976485  1
  Co  Co144  1  0.27027333  0.79911572  0.56044546  1
  Co  Co145  1  0.22561795  0.89605990  0.67924450  1
  Co  Co146  1  0.11111344  0.81428131  0.40603595  1
  Co  Co147  1  0.38571552  0.51037904  0.73356505  1
  Co  Co148  1  0.99446203  0.27710921  0.40565750  1
  Co  Co149  1  0.36366237  0.39337959  0.60870313  1
  Co  Co150  1  0.72298360  0.22702082  1.04243538  1
  Co  Co151  1  0.28033747  0.34435265  0.89949058  1
  Co  Co152  1  1.02056793  0.31200109  0.15450676  1
  Co  Co153  1  0.66649046  0.33600513  0.80752891  1
  Co  Co154  1  0.36361514  0.91712741  0.29021933  1
  Co  Co155  1  0.26823322  -0.00438715  0.88144117  1
  Co  Co156  1  0.13224884  0.87980794  0.54825539  1
  Co  Co157  1  0.25758833  0.88755877  0.42493961  1
  Co  Co158  1  0.43167454  0.29665684  0.92083775  1
  Co  Co159  1  0.93337699  0.42503443  0.62330825  1
  Co  Co160  1  0.15186170  0.23886512  0.93887655  1
  Co  Co161  1  0.44621583  0.04026422  0.86848320  1
  Ni  Ni162  1  0.97369316  0.56250889  0.38142303  1
  Ni  Ni163  1  0.71708686  0.89787907  0.95710688  1
  Ni  Ni164  1  0.79739228  0.68202120  0.05089164  1
  Ni  Ni165  1  0.41186542  0.87353276  0.84973137  1
  Ni  Ni166  1  0.72701725  0.69549200  0.42861312  1
  Ni  Ni167  1  0.11155393  0.26266031  0.28919284  1
  Ni  Ni168  1  0.83905786  0.86985163  0.09054150  1
  Ni  Ni169  1  0.70456224  0.55502150  0.98494592  1
  Ni  Ni170  1  0.43052008  0.51508620  0.06889089  1
  Ni  Ni171  1  0.03466022  0.56770919  0.22670129  1
  Ni  Ni172  1  0.43450071  0.36220256  0.33782462  1
  Ni  Ni173  1  0.17190358  0.25060423  0.77079274  1
  Ni  Ni174  1  0.70664345  0.63750841  0.18824328  1
  Ni  Ni175  1  0.79899676  0.15845919  0.48695897  1
  Ni  Ni176  1  0.98836063  0.15053002  0.72759740  1
  Ni  Ni177  1  0.92324201  0.87129351  0.70931427  1
  Ni  Ni178  1  0.66996837  0.93205299  0.53741562  1
  Ni  Ni179  1  0.16057255  0.51880064  0.53027583  1
  Ni  Ni180  1  0.48968875  1.01554283  0.35996537  1
  Ni  Ni181  1  0.71389133  0.13785812  0.77697158  1
  Ni  Ni182  1  0.48257576  0.71036521  0.40358842  1
  Ni  Ni183  1  0.03777586  0.47316493  0.74080092  1
  Ni  Ni184  1  0.51233535  0.27896923  0.78461484  1
  Ni  Ni185  1  0.93689810  0.60187489  0.76754696  1
  Ni  Ni186  1  0.31342332  0.79997194  0.96820082  1
  Ni  Ni187  1  0.30364977  0.44505306  0.30164330  1
  Ni  Ni188  1  0.75010756  0.40665816  0.42177713  1
  Ni  Ni189  1  0.67223358  0.78074354  0.30188112  1
  Ni  Ni190  1  0.00634384  0.27920180  0.57287274  1
  Ni  Ni191  1  0.62856854  0.53980822  0.64900454  1
  Ni  Ni192  1  0.90273821  0.71123650  0.64831643  1
  Ni  Ni193  1  0.14144844  0.24229240  0.47446504  1
  Ni  Ni194  1  0.32658780  0.65585747  0.04970794  1
  Ni  Ni195  1  -0.01553991  0.00444913  0.80222247  1
  Ni  Ni196  1  0.87217905  0.03203919  0.68505065  1
  Ni  Ni197  1  0.79602910  0.36413284  0.70151916  1
  Ni  Ni198  1  0.10357640  0.62706600  0.76767240  1
  Ni  Ni199  1  0.74494496  0.66257723  0.58951991  1
  Ni  Ni200  1  0.75406776  0.34066316  0.27401373  1
  Ni  Ni201  1  0.15968708  0.39057442  0.39342463  1
  Ni  Ni202  1  0.39475903  0.90263327  0.61518247  1
  Ni  Ni203  1  0.51174546  0.95648459  0.73678315  1
  Ni  Ni204  1  0.33225723  0.11122459  0.12434017  1
  Ni  Ni205  1  0.41494376  0.11754463  0.47514910  1
  Ni  Ni206  1  0.30848659  0.69406312  0.22718259  1
  Ni  Ni207  1  0.62149338  0.39809790  0.52809083  1
  Ni  Ni208  1  0.04983081  0.79619397  0.00352119  1
  Ni  Ni209  1  0.03264417  0.07226184  0.06860398  1
  Ni  Ni210  1  0.53699103  0.55095138  0.81302842  1
  Ni  Ni211  1  0.86476711  0.45574805  0.84402014  1
  Ni  Ni212  1  0.24714974  0.56964113  0.83632572  1
  Ni  Ni213  1  0.56974797  0.09246631  0.23546593  1
  Ni  Ni214  1  0.34427693  0.26950522  0.19357479  1
  Ni  Ni215  1  0.57769040  0.67309067  0.55753155  1
