# generated using pymatgen
data_Ti2CoNi
_symmetry_space_group_name_H-M   'P 1'
_cell_length_a   14.58288237
_cell_length_b   14.51495130
_cell_length_c   14.58305394
_cell_angle_alpha   89.88991128
_cell_angle_beta   90.00693623
_cell_angle_gamma   89.98427065
_symmetry_Int_Tables_number   1
_chemical_formula_structural   Ti2CoNi
_chemical_formula_sum   'Ti108 Co54 Ni54'
_cell_volume   3086.78667444
_cell_formula_units_Z   54
loop_
 _symmetry_equiv_pos_site_id
 _symmetry_equiv_pos_as_xyz
  1  'x, y, z'
loop_
 _atom_site_type_symbol
 _atom_site_label
 _atom_site_symmetry_multiplicity
 _atom_site_fract_x
 _atom_site_fract_y
 _atom_site_fract_z
 _atom_site_occupancy
  Ti  Ti0  1  0.03488973  0.03717246  0.01634267  1
  Ti  Ti1  1  -0.07831447  -0.00921715  0.26688286  1
  Ti  Ti2  1  0.01293292  0.00341404  0.69447512  1
  Ti  Ti3  1  0.02844052  0.33450837  -0.07560833  1
  Ti  Ti4  1  0.07389572  0.26313937  0.38334581  1
  Ti  Ti5  1  -0.04269581  0.36835231  0.66716892  1
  Ti  Ti6  1  0.01256064  0.63323444  0.06625342  1
  Ti  Ti7  1  -0.08414476  0.67397388  0.32432811  1
  Ti  Ti8  1  0.00539923  0.67050885  0.64887870  1
  Ti  Ti9  1  0.33158748  0.05563832  0.00751490  1
  Ti  Ti10  1  0.25724397  0.01844182  0.32393520  1
  Ti  Ti11  1  0.38536741  -0.01766073  0.63963347  1
  Ti  Ti12  1  0.34771749  0.39490209  0.03276727  1
  Ti  Ti13  1  0.27056646  0.31743396  0.29074595  1
  Ti  Ti14  1  0.43898185  0.30920473  0.62744019  1
  Ti  Ti15  1  0.31118407  0.57673214  -0.06554041  1
  Ti  Ti16  1  0.27412389  0.73024097  0.24673477  1
  Ti  Ti17  1  0.31090671  0.68910693  0.67603549  1
  Ti  Ti18  1  0.62258400  -0.11982429  -0.04352206  1
  Ti  Ti19  1  0.61843189  0.04756759  0.27502347  1
  Ti  Ti20  1  0.69111635  -0.01152977  0.65866823  1
  Ti  Ti21  1  0.66087434  0.33155937  0.00163866  1
  Ti  Ti22  1  0.69999952  0.29897432  0.43382511  1
  Ti  Ti23  1  0.64847047  0.30682877  0.64479200  1
  Ti  Ti24  1  0.74103289  0.67999074  -0.07887995  1
  Ti  Ti25  1  0.66732580  0.71890857  0.34842710  1
  Ti  Ti26  1  0.69771338  0.71250284  0.62528224  1
  Ti  Ti27  1  0.02888327  0.22332433  0.08154775  1
  Ti  Ti28  1  -0.00383977  0.21762584  0.54933605  1
  Ti  Ti29  1  -0.01783854  0.19344627  0.77753438  1
  Ti  Ti30  1  0.04769042  0.52012054  0.21683377  1
  Ti  Ti31  1  0.06475450  0.42561361  0.49196796  1
  Ti  Ti32  1  0.11854854  0.52800184  0.85403166  1
  Ti  Ti33  1  0.02769785  0.86078175  0.13234089  1
  Ti  Ti34  1  -0.06913632  0.80512227  0.48597604  1
  Ti  Ti35  1  -0.04454597  0.84663916  0.82277648  1
  Ti  Ti36  1  0.34026568  0.18290484  0.17070084  1
  Ti  Ti37  1  0.36735199  0.14562559  0.53343424  1
  Ti  Ti38  1  0.31921269  0.15884540  0.82714465  1
  Ti  Ti39  1  0.34281778  0.56398940  0.12966949  1
  Ti  Ti40  1  0.26800773  0.53043239  0.50433851  1
  Ti  Ti41  1  0.31535782  0.50675617  0.74568817  1
  Ti  Ti42  1  0.32688609  0.86584464  0.11859808  1
  Ti  Ti43  1  0.32572553  0.73927620  0.46222302  1
  Ti  Ti44  1  0.32793383  0.86776625  0.93209669  1
  Ti  Ti45  1  0.66785206  0.23738729  0.20968395  1
  Ti  Ti46  1  0.67657133  0.11263851  0.49970357  1
  Ti  Ti47  1  0.68405115  0.01183917  0.83832787  1
  Ti  Ti48  1  0.68710467  0.46535184  0.15661285  1
  Ti  Ti49  1  0.59896238  0.50517251  0.44320024  1
  Ti  Ti50  1  0.61103440  0.48014104  0.86730591  1
  Ti  Ti51  1  0.65546772  0.85468163  0.19257225  1
  Ti  Ti52  1  0.70947477  0.89151783  0.47887272  1
  Ti  Ti53  1  0.64503186  0.80098254  0.77890661  1
  Ti  Ti54  1  0.09462263  0.04931697  0.21007624  1
  Ti  Ti55  1  0.08208504  -0.06033669  0.51954652  1
  Ti  Ti56  1  0.24173978  -0.00763890  0.79258631  1
  Ti  Ti57  1  0.09289741  0.33911177  0.21278614  1
  Ti  Ti58  1  0.25904993  0.31126794  0.49031340  1
  Ti  Ti59  1  0.19287210  0.30550723  0.77290843  1
  Ti  Ti60  1  0.09238237  0.69996461  0.24899999  1
  Ti  Ti61  1  0.15376421  0.76133081  0.55272692  1
  Ti  Ti62  1  0.21188102  0.71515488  0.85152971  1
  Ti  Ti63  1  0.43787354  -0.00192684  0.20631678  1
  Ti  Ti64  1  0.53116701  -0.02412231  0.48898317  1
  Ti  Ti65  1  0.45205521  0.01108371  0.84729742  1
  Ti  Ti66  1  0.51008005  0.32222364  0.13541738  1
  Ti  Ti67  1  0.48901838  0.32342161  0.43829284  1
  Ti  Ti68  1  0.42478474  0.32582382  0.81790538  1
  Ti  Ti69  1  0.55955203  0.65012254  0.19340767  1
  Ti  Ti70  1  0.54762674  0.70696567  0.51190119  1
  Ti  Ti71  1  0.49164583  0.62303798  0.78984622  1
  Ti  Ti72  1  0.76519586  0.02272862  0.16395254  1
  Ti  Ti73  1  0.86536646  0.10460429  0.43667028  1
  Ti  Ti74  1  0.87125203  0.02926696  0.89817202  1
  Ti  Ti75  1  0.91152982  0.38113167  0.17073662  1
  Ti  Ti76  1  0.86731687  0.40054353  0.49924313  1
  Ti  Ti77  1  0.78525325  0.29773073  0.86136803  1
  Ti  Ti78  1  0.76667599  0.66409287  0.18320621  1
  Ti  Ti79  1  0.78556287  0.58348918  0.48523572  1
  Ti  Ti80  1  0.91835073  0.62379831  0.87723784  1
  Ti  Ti81  1  0.21104556  0.24692813  -0.03768754  1
  Ti  Ti82  1  0.16654284  0.11111163  0.45199875  1
  Ti  Ti83  1  0.17558548  0.12038115  0.63373516  1
  Ti  Ti84  1  0.16070704  0.45980787  0.02347462  1
  Ti  Ti85  1  0.23669873  0.53343652  0.29245249  1
  Ti  Ti86  1  0.13177071  0.47752234  0.65803045  1
  Ti  Ti87  1  0.12870415  0.87143762  -0.06394230  1
  Ti  Ti88  1  0.14136053  0.84638264  0.36590105  1
  Ti  Ti89  1  0.14710832  0.84022420  0.72654560  1
  Ti  Ti90  1  0.51614279  0.19359204  -0.05802132  1
  Ti  Ti91  1  0.46279095  0.11324711  0.36754109  1
  Ti  Ti92  1  0.58895209  0.16071231  0.76143498  1
  Ti  Ti93  1  0.51231373  0.52273051  0.04415050  1
  Ti  Ti94  1  0.48914934  0.48017277  0.27047311  1
  Ti  Ti95  1  0.61810705  0.54380606  0.65123278  1
  Ti  Ti96  1  0.51832273  0.76153753  0.04609218  1
  Ti  Ti97  1  0.47043070  0.77752672  0.33755656  1
  Ti  Ti98  1  0.46811269  0.78731935  0.66896704  1
  Ti  Ti99  1  0.80189438  0.17002150  0.04222520  1
  Ti  Ti100  1  0.91831651  0.20051163  0.25333633  1
  Ti  Ti101  1  0.84280938  0.12672885  0.64782241  1
  Ti  Ti102  1  0.82527384  0.47910758  0.00295805  1
  Ti  Ti103  1  0.84529202  0.50453364  0.29376611  1
  Ti  Ti104  1  0.82115875  0.53380119  0.69429975  1
  Ti  Ti105  1  0.83884769  0.83424926  -0.01157140  1
  Ti  Ti106  1  0.81142262  0.83995128  0.31694774  1
  Ti  Ti107  1  0.84061984  0.85112594  0.66266864  1
  Co  Co108  1  0.05678784  0.38380428  0.78079449  1
  Co  Co109  1  0.19230985  0.04971086  0.93020102  1
  Co  Co110  1  0.21661094  0.43853153  0.16331718  1
  Co  Co111  1  0.36754740  0.00684813  0.45144662  1
  Co  Co112  1  0.20410703  0.66474076  0.39356463  1
  Co  Co113  1  0.67918469  0.16766249  0.92532979  1
  Co  Co114  1  0.18214730  0.60664594  0.13476794  1
  Co  Co115  1  0.14375065  0.13070497  0.78533985  1
  Co  Co116  1  0.07922440  0.56138717  0.36789327  1
  Co  Co117  1  0.77423069  0.74445758  0.46620951  1
  Co  Co118  1  0.77943424  0.86996058  0.83752889  1
  Co  Co119  1  0.77850566  0.14581972  0.79394965  1
  Co  Co120  1  0.60947149  0.37346358  0.30180836  1
  Co  Co121  1  0.63711166  0.12977608  0.08586717  1
  Co  Co122  1  0.16836129  0.17671770  0.26896452  1
  Co  Co123  1  0.92882170  0.09803366  0.13215400  1
  Co  Co124  1  0.27177312  0.03014203  0.16669352  1
  Co  Co125  1  0.92116585  0.18313819  0.92953855  1
  Co  Co126  1  0.59519737  0.20262914  0.36255730  1
  Co  Co127  1  0.17722662  0.94959833  0.06422532  1
  Co  Co128  1  0.30513575  0.83521491  0.61046413  1
  Co  Co129  1  0.53477096  0.62458301  0.36106424  1
  Co  Co130  1  0.74149910  0.44870705  0.39613495  1
  Co  Co131  1  0.77114385  0.52214582  0.86378416  1
  Co  Co132  1  0.67209082  0.62764160  0.77912543  1
  Co  Co133  1  0.60941395  0.31028959  0.83441427  1
  Co  Co134  1  0.47292092  0.10275489  0.07456123  1
  Co  Co135  1  0.71732913  0.42123762  0.74734907  1
  Co  Co136  1  0.93544298  0.95154882  0.42149847  1
  Co  Co137  1  0.49117363  0.84748306  0.19457277  1
  Co  Co138  1  0.93874693  0.54232693  0.42973551  1
  Co  Co139  1  0.00581063  0.83282813  0.64429984  1
  Co  Co140  1  0.96061558  0.52071260  0.58646498  1
  Co  Co141  1  0.84466941  0.99458508  0.74269450  1
  Co  Co142  1  0.02228541  0.10105730  0.37546671  1
  Co  Co143  1  0.59000879  0.97385727  0.10812884  1
  Co  Co144  1  0.21802061  0.28189632  0.11855292  1
  Co  Co145  1  0.41540502  0.60259229  0.46931863  1
  Co  Co146  1  0.99087515  0.06448528  0.54166559  1
  Co  Co147  1  0.14514366  0.63847188  0.97689111  1
  Co  Co148  1  0.56926040  0.04166938  0.95668798  1
  Co  Co149  1  0.07747009  0.16637255  0.92231565  1
  Co  Co150  1  0.43566580  0.85134305  0.50860077  1
  Co  Co151  1  0.73068686  0.00108356  0.00198183  1
  Co  Co152  1  0.15144570  0.76785748  0.09202972  1
  Co  Co153  1  0.51617925  0.16359151  0.21083430  1
  Co  Co154  1  0.17272028  0.41448992  0.37641803  1
  Co  Co155  1  0.71602487  0.43831046  0.56710131  1
  Co  Co156  1  0.45830843  0.93093787  1.02186755  1
  Co  Co157  1  0.17145175  0.12571946  0.07766659  1
  Co  Co158  1  0.20342685  -0.04048281  0.63152471  1
  Co  Co159  1  0.05469715  0.71552855  0.42469150  1
  Co  Co160  1  0.37159372  0.40282454  0.19468349  1
  Co  Co161  1  0.98525171  0.40502829  0.33574636  1
  Ni  Ni162  1  0.66697866  0.55187151  0.29164733  1
  Ni  Ni163  1  0.60472131  0.85377825  0.60718983  1
  Ni  Ni164  1  0.13274020  0.29659850  0.60836514  1
  Ni  Ni165  1  0.54307903  0.05871651  0.63398025  1
  Ni  Ni166  1  0.99108169  0.53545118  0.74917786  1
  Ni  Ni167  1  0.82208802  0.71456854  0.76535773  1
  Ni  Ni168  1  0.42872070  0.15214829  0.70568736  1
  Ni  Ni169  1  0.57765691  0.69162303  0.91019732  1
  Ni  Ni170  1  0.27693593  0.40115705  0.62908268  1
  Ni  Ni171  1  0.44908502  0.60259743  0.62717487  1
  Ni  Ni172  1  0.37308027  0.23717455  1.00087145  1
  Ni  Ni173  1  0.83258000  0.98376597  0.55399963  1
  Ni  Ni174  1  0.53982956  0.92923447  0.74219578  1
  Ni  Ni175  1  0.40718451  0.70808070  0.15303680  1
  Ni  Ni176  1  0.34635448  0.85979612  0.76629067  1
  Ni  Ni177  1  0.43446844  0.48564961  0.88046538  1
  Ni  Ni178  1  0.16355571  0.62935364  0.70906476  1
  Ni  Ni179  1  0.86905986  0.80452086  0.16456210  1
  Ni  Ni180  1  0.81646332  0.29310034  0.69932004  1
  Ni  Ni181  1  0.88490367  0.32431013  0.00460280  1
  Ni  Ni182  1  0.38064506  0.61669228  0.31385844  1
  Ni  Ni183  1  0.29139672  0.72123790  1.02143001  1
  Ni  Ni184  1  0.18835593  0.88264843  0.21506006  1
  Ni  Ni185  1  0.85770967  0.68468986  0.59596389  1
  Ni  Ni186  1  0.89269256  0.95632804  0.07654591  1
  Ni  Ni187  1  0.89822590  0.42498338  0.83184102  1
  Ni  Ni188  1  0.29218148  0.23922187  0.66016079  1
  Ni  Ni189  1  0.65625918  0.60171579  0.04835176  1
  Ni  Ni190  1  0.33338843  0.87275083  0.32451343  1
  Ni  Ni191  1  0.89510379  0.27089057  0.40123874  1
  Ni  Ni192  1  0.11167526  0.59560737  0.53144957  1
  Ni  Ni193  1  0.75878649  0.15906683  0.32202169  1
  Ni  Ni194  1  0.36024596  0.43739996  0.38708333  1
  Ni  Ni195  1  0.59343205  0.89392703  0.34816177  1
  Ni  Ni196  1  1.00986046  0.76168734  0.96509158  1
  Ni  Ni197  1  0.75733787  0.99316155  0.34744993  1
  Ni  Ni198  1  0.70339230  0.76234751  0.06730440  1
  Ni  Ni199  1  0.37807789  0.71862338  0.85275295  1
  Ni  Ni200  1  0.53847273  0.42430818  0.56967750  1
  Ni  Ni201  1  0.44209847  0.28574217  0.29048577  1
  Ni  Ni202  1  0.31133524  0.17552150  0.36848880  1
  Ni  Ni203  1  0.24929994  0.90766689  0.47828480  1
  Ni  Ni204  1  0.77271731  0.32405370  0.11904866  1
  Ni  Ni205  1  0.53492464  0.18883248  0.53175923  1
  Ni  Ni206  1  0.80629410  0.24142034  0.54195102  1
  Ni  Ni207  1  0.04899885  1.00241593  0.85202915  1
  Ni  Ni208  1  0.27255957  0.41028313  0.88167078  1
  Ni  Ni209  1  -0.01629883  0.83004630  0.30308357  1
  Ni  Ni210  1  -0.00005906  0.44801265  0.05150005  1
  Ni  Ni211  1  0.88502934  0.55690653  0.13863913  1
  Ni  Ni212  1  0.78945599  0.33643764  0.28585236  1
  Ni  Ni213  1  0.48146934  0.45631149  0.72054639  1
  Ni  Ni214  1  0.50385937  0.36394905  0.96594670  1
  Ni  Ni215  1  0.05025622  0.69761374  0.81093282  1
