# generated using pymatgen
data_Ti2CoNi
_symmetry_space_group_name_H-M   'P 1'
_cell_length_a   14.63887138
_cell_length_b   14.62493397
_cell_length_c   14.65555340
_cell_angle_alpha   90.09498892
_cell_angle_beta   90.11835693
_cell_angle_gamma   90.15687458
_symmetry_Int_Tables_number   1
_chemical_formula_structural   Ti2CoNi
_chemical_formula_sum   'Ti108 Co54 Ni54'
_cell_volume   3137.62166789
_cell_formula_units_Z   54
loop_
 _symmetry_equiv_pos_site_id
 _symmetry_equiv_pos_as_xyz
  1  'x, y, z'
loop_
 _atom_site_type_symbol
 _atom_site_label
 _atom_site_symmetry_multiplicity
 _atom_site_fract_x
 _atom_site_fract_y
 _atom_site_fract_z
 _atom_site_occupancy
  Ti  Ti0  1  -0.04328050  0.02208553  -0.02751578  1
  Ti  Ti1  1  -0.03520042  0.07083844  0.37267284  1
  Ti  Ti2  1  0.02726547  -0.07002156  0.65022167  1
  Ti  Ti3  1  0.02414916  0.42441172  0.01187393  1
  Ti  Ti4  1  0.05299830  0.33345866  0.35215983  1
  Ti  Ti5  1  0.05851882  0.29420138  0.65991466  1
  Ti  Ti6  1  -0.00464713  0.62325004  -0.03146749  1
  Ti  Ti7  1  -0.01267460  0.65043098  0.27631192  1
  Ti  Ti8  1  0.08266900  0.70362210  0.67968673  1
  Ti  Ti9  1  0.32352201  -0.03767720  -0.01870080  1
  Ti  Ti10  1  0.34303209  0.01676802  0.33311015  1
  Ti  Ti11  1  0.39640603  -0.00209525  0.64778510  1
  Ti  Ti12  1  0.37624180  0.30477813  -0.00388644  1
  Ti  Ti13  1  0.33967924  0.36339788  0.27449043  1
  Ti  Ti14  1  0.25868304  0.33033505  0.61887927  1
  Ti  Ti15  1  0.29827953  0.64963443  0.02151790  1
  Ti  Ti16  1  0.42641297  0.69555275  0.32688246  1
  Ti  Ti17  1  0.28584849  0.66691560  0.69820825  1
  Ti  Ti18  1  0.69510849  0.02799472  -0.02307827  1
  Ti  Ti19  1  0.65735180  0.03409933  0.35708492  1
  Ti  Ti20  1  0.62206271  -0.00751267  0.71010482  1
  Ti  Ti21  1  0.57244551  0.32067168  -0.01252640  1
  Ti  Ti22  1  0.64735585  0.38225201  0.34280065  1
  Ti  Ti23  1  0.67252065  0.28891057  0.64480080  1
  Ti  Ti24  1  0.71249791  0.69056113  -0.03043008  1
  Ti  Ti25  1  0.66685487  0.71194077  0.32169494  1
  Ti  Ti26  1  0.59978687  0.68693249  0.65858684  1
  Ti  Ti27  1  -0.05683305  0.29719998  0.18889529  1
  Ti  Ti28  1  -0.04434380  0.22394911  0.50561078  1
  Ti  Ti29  1  0.00254305  0.17805065  0.87852062  1
  Ti  Ti30  1  0.05993386  0.46364252  0.20957479  1
  Ti  Ti31  1  -0.07438514  0.47566801  0.55608830  1
  Ti  Ti32  1  -0.07142486  0.46474709  0.82341770  1
  Ti  Ti33  1  -0.00441220  0.79741223  0.16591901  1
  Ti  Ti34  1  -0.04098250  0.76402620  0.51795148  1
  Ti  Ti35  1  0.02451760  0.84485582  0.87183892  1
  Ti  Ti36  1  0.29697145  0.22551973  0.14840961  1
  Ti  Ti37  1  0.24746654  0.20177521  0.45801187  1
  Ti  Ti38  1  0.30038568  0.15645610  0.89028280  1
  Ti  Ti39  1  0.29874782  0.55251060  0.19548241  1
  Ti  Ti40  1  0.38611116  0.53797338  0.49965336  1
  Ti  Ti41  1  0.35303367  0.55763690  0.84466003  1
  Ti  Ti42  1  0.32512603  0.82711938  0.15119233  1
  Ti  Ti43  1  0.37480138  0.87389004  0.46426360  1
  Ti  Ti44  1  0.30583327  0.85505104  0.77556084  1
  Ti  Ti45  1  0.61397010  0.10298102  0.16589306  1
  Ti  Ti46  1  0.66725094  0.10049876  0.54881838  1
  Ti  Ti47  1  0.70464737  0.13764492  0.77676722  1
  Ti  Ti48  1  0.64956956  0.53832697  0.10508692  1
  Ti  Ti49  1  0.65470776  0.46050697  0.53888919  1
  Ti  Ti50  1  0.71718911  0.43167070  0.84780606  1
  Ti  Ti51  1  0.70570962  0.87764854  0.23703527  1
  Ti  Ti52  1  0.66457400  0.80492404  0.52122794  1
  Ti  Ti53  1  0.68346744  0.81532430  0.78141572  1
  Ti  Ti54  1  0.08052003  0.00245196  0.15452018  1
  Ti  Ti55  1  0.12748759  0.03174494  0.51318777  1
  Ti  Ti56  1  0.14646321  0.01428361  0.83921204  1
  Ti  Ti57  1  0.12607320  0.28782418  0.15075451  1
  Ti  Ti58  1  0.24100621  0.42299964  0.44615905  1
  Ti  Ti59  1  0.15880397  0.32949013  0.83595096  1
  Ti  Ti60  1  0.15922900  0.70496110  0.13810569  1
  Ti  Ti61  1  0.21898649  0.67039003  0.51169588  1
  Ti  Ti62  1  0.15998876  0.66749098  0.85971298  1
  Ti  Ti63  1  0.43611183  -0.00659783  0.15631236  1
  Ti  Ti64  1  0.49297751  0.03547957  0.47697949  1
  Ti  Ti65  1  0.48555355  0.05405663  0.83705790  1
  Ti  Ti66  1  0.48872393  0.24888827  0.18731938  1
  Ti  Ti67  1  0.41732883  0.31883090  0.45473566  1
  Ti  Ti68  1  0.48082114  0.39958516  0.84083608  1
  Ti  Ti69  1  0.45830571  0.67330696  0.13526443  1
  Ti  Ti70  1  0.54927179  0.63853035  0.47147336  1
  Ti  Ti71  1  0.56840343  0.59315147  0.83854585  1
  Ti  Ti72  1  0.90120724  -0.03838656  0.17505344  1
  Ti  Ti73  1  0.82700037  -0.04395202  0.50533899  1
  Ti  Ti74  1  0.83334382  -0.04309907  0.79812619  1
  Ti  Ti75  1  0.75833833  0.35288432  0.18353845  1
  Ti  Ti76  1  0.77309563  0.29144543  0.46773320  1
  Ti  Ti77  1  0.81745270  0.28616544  0.77649793  1
  Ti  Ti78  1  0.82338248  0.62971253  0.13143703  1
  Ti  Ti79  1  0.76951420  0.60665283  0.52429738  1
  Ti  Ti80  1  0.85953533  0.75862483  0.85830401  1
  Ti  Ti81  1  0.15947042  0.12058641  0.02446956  1
  Ti  Ti82  1  0.19217684  0.11225818  0.27600482  1
  Ti  Ti83  1  0.23952631  0.14125953  0.67983079  1
  Ti  Ti84  1  0.21486539  0.48051382  -0.03183884  1
  Ti  Ti85  1  0.07795841  0.52658756  0.40669863  1
  Ti  Ti86  1  0.12754772  0.49908701  0.60124459  1
  Ti  Ti87  1  0.21588041  0.82167159  -0.04308664  1
  Ti  Ti88  1  0.16653732  0.84759388  0.29148795  1
  Ti  Ti89  1  0.22004853  0.85774379  0.58517025  1
  Ti  Ti90  1  0.49055111  0.13490771  0.01804196  1
  Ti  Ti91  1  0.56760983  0.20040915  0.38429954  1
  Ti  Ti92  1  0.47349103  0.27289542  0.68030498  1
  Ti  Ti93  1  0.45456926  0.50466674  0.01739553  1
  Ti  Ti94  1  0.52135396  0.50355383  0.24758191  1
  Ti  Ti95  1  0.46785586  0.52763534  0.68403983  1
  Ti  Ti96  1  0.56365238  0.83896478  0.01804441  1
  Ti  Ti97  1  0.54677148  0.86775232  0.37340685  1
  Ti  Ti98  1  0.49923062  0.84162313  0.72347953  1
  Ti  Ti99  1  0.82529191  0.15116124  0.05778744  1
  Ti  Ti100  1  0.77250356  0.17363301  0.28817274  1
  Ti  Ti101  1  0.92152905  0.14159985  0.71256100  1
  Ti  Ti102  1  0.84106777  0.47760850  0.02461004  1
  Ti  Ti103  1  0.81647805  0.60370129  0.32918809  1
  Ti  Ti104  1  0.82723124  0.58047556  0.72711383  1
  Ti  Ti105  1  0.78979053  0.84731170  0.07163905  1
  Ti  Ti106  1  0.88983374  0.84334145  0.34809692  1
  Ti  Ti107  1  0.80892394  0.75007299  0.64914453  1
  Co  Co108  1  0.19848114  0.27483893  0.31172809  1
  Co  Co109  1  0.10695350  0.69806751  0.37668045  1
  Co  Co110  1  0.80617454  0.74795280  0.45264846  1
  Co  Co111  1  0.71527979  0.50093917  0.24411225  1
  Co  Co112  1  0.44339679  0.65449250  0.94021201  1
  Co  Co113  1  0.12109870  0.95620234  0.98645644  1
  Co  Co114  1  0.81333123  0.12363559  0.44561952  1
  Co  Co115  1  0.93882536  0.63460766  0.62705708  1
  Co  Co116  1  0.30592571  0.03415660  0.51949747  1
  Co  Co117  1  0.44221864  0.66100052  0.60669747  1
  Co  Co118  1  0.97387065  0.88472841  0.03487439  1
  Co  Co119  1  0.50306456  0.79044110  0.52949171  1
  Co  Co120  1  0.92460760  0.61100967  0.44954907  1
  Co  Co121  1  0.61417731  0.49690429  0.95588412  1
  Co  Co122  1  0.06207630  0.63482095  0.52629822  1
  Co  Co123  1  0.59534283  0.38345223  0.15521524  1
  Co  Co124  1  0.44648547  0.69049960  0.76821646  1
  Co  Co125  1  0.04960369  0.18092010  0.25556954  1
  Co  Co126  1  0.19783582  0.44505369  0.29152216  1
  Co  Co127  1  0.90935904  0.23780936  0.34848241  1
  Co  Co128  1  0.55718049  0.93487961  0.57301362  1
  Co  Co129  1  0.39648677  0.14003483  0.73933935  1
  Co  Co130  1  0.72481559  0.88303459  0.39451461  1
  Co  Co131  1  0.31899534  0.01197289  0.81180572  1
  Co  Co132  1  0.16343613  0.86716894  0.11204438  1
  Co  Co133  1  0.71667657  0.38065601  0.02323091  1
  Co  Co134  1  0.37044560  0.18253441  0.58446425  1
  Co  Co135  1  0.36834832  0.70865557  0.47299974  1
  Co  Co136  1  0.28250152  0.52222015  0.61537163  1
  Co  Co137  1  0.86283240  0.30445094  0.05909422  1
  Co  Co138  1  0.35546349  0.20531626  0.29881941  1
  Co  Co139  1  0.53105274  0.11117478  0.64552235  1
  Co  Co140  1  0.14536337  0.59828563  0.26092571  1
  Co  Co141  1  0.56935856  0.66233903  0.02532177  1
  Co  Co142  1  0.98972923  0.93119452  0.47614131  1
  Co  Co143  1  0.46096149  0.23256056  0.86575844  1
  Co  Co144  1  0.40275823  0.86992456  0.28713275  1
  Co  Co145  1  0.89573950  0.73822647  1.01966081  1
  Co  Co146  1  0.25494223  0.58955340  0.38051614  1
  Co  Co147  1  0.74629237  0.24842206  0.92965794  1
  Co  Co148  1  0.97548440  0.65062782  0.79788743  1
  Co  Co149  1  0.98099758  0.30788801  0.79483299  1
  Co  Co150  1  0.66724382  0.22851634  0.08140610  1
  Co  Co151  1  0.39982573  0.79499776  0.01330037  1
  Co  Co152  1  0.56193516  0.76002331  0.87202809  1
  Co  Co153  1  0.71203366  0.66097531  0.80326277  1
  Co  Co154  1  0.07236497  0.76185081  0.00524649  1
  Co  Co155  1  0.32142837  0.72635133  0.86971132  1
  Co  Co156  1  0.63823183  0.24752286  0.24704233  1
  Co  Co157  1  0.31226040  0.39321728  0.88494633  1
  Co  Co158  1  0.12229080  0.18694854  0.56600676  1
  Co  Co159  1  0.40462236  0.15391438  0.43367832  1
  Co  Co160  1  0.09112771  0.17874790  0.40904393  1
  Co  Co161  1  0.88217971  0.34286884  0.91515771  1
  Ni  Ni162  1  0.38354869  0.50599052  0.33855357  1
  Ni  Ni163  1  0.88251564  0.47366976  0.23278183  1
  Ni  Ni164  1  0.81526871  1.00461844  0.31643790  1
  Ni  Ni165  1  0.24581718  0.40728897  0.12232498  1
  Ni  Ni166  1  0.42292693  0.39413593  0.13427275  1
  Ni  Ni167  1  0.20582340  0.29720669  -0.00568837  1
  Ni  Ni168  1  0.61982707  0.28578870  0.81106341  1
  Ni  Ni169  1  0.14336525  0.83900532  0.75618010  1
  Ni  Ni170  1  0.20698119  0.52042205  0.76787083  1
  Ni  Ni171  1  0.83903462  0.10932295  0.88176473  1
  Ni  Ni172  1  0.36833676  0.80083528  0.62433578  1
  Ni  Ni173  1  0.59456074  0.41769298  0.71886308  1
  Ni  Ni174  1  0.48812251  0.08901603  0.29200601  1
  Ni  Ni175  1  0.10763390  0.34492057  0.50648648  1
  Ni  Ni176  1  0.67691558  0.72541623  0.14747024  1
  Ni  Ni177  1  0.59363789  0.30801725  0.50035907  1
  Ni  Ni178  1  0.80184665  0.18805605  0.60338933  1
  Ni  Ni179  1  0.51943221  0.45666870  0.41925934  1
  Ni  Ni180  1  0.90556934  0.11763510  0.21643077  1
  Ni  Ni181  1  0.22116676  0.93845018  0.41741036  1
  Ni  Ni182  1  0.25795353  -0.00019864  0.15790937  1
  Ni  Ni183  1  0.83580729  0.59503480  0.90342880  1
  Ni  Ni184  1  0.83159320  0.76041271  0.22288793  1
  Ni  Ni185  1  0.34375862  0.42501630  0.72788561  1
  Ni  Ni186  1  0.59819760  0.93447775  0.87021246  1
  Ni  Ni187  1  0.02435909  0.92966044  0.30240628  1
  Ni  Ni188  1  0.33628407  0.10661694  0.05337803  1
  Ni  Ni189  1  0.73798643  0.87422652  0.92333830  1
  Ni  Ni190  1  0.49207395  0.40855163  0.57780445  1
  Ni  Ni191  1  0.08215961  0.51825375  0.87299689  1
  Ni  Ni192  1  0.89233411  0.32227503  0.62603752  1
  Ni  Ni193  1  0.94727994  0.80313838  0.71828763  1
  Ni  Ni194  1  0.66176842  0.55044542  0.38941635  1
  Ni  Ni195  1  0.07287834  0.08826660  0.69363540  1
  Ni  Ni196  1  0.31428498  0.27371149  0.77220165  1
  Ni  Ni197  1  0.94759162  0.06706646  0.56211911  1
  Ni  Ni198  1  0.59720694  0.94443754  0.13774969  1
  Ni  Ni199  1  0.97168536  0.56051760  0.11757945  1
  Ni  Ni200  1  0.80033170  0.45508214  0.41631350  1
  Ni  Ni201  1  0.67079948  0.55047818  0.68139737  1
  Ni  Ni202  1  0.77853968  0.42706441  0.67144485  1
  Ni  Ni203  1  0.79602614  0.03906855  0.65818369  1
  Ni  Ni204  1  0.54014804  0.79782383  0.21506335  1
  Ni  Ni205  1  0.03875400  0.27032394  1.00079074  1
  Ni  Ni206  1  0.06689434  0.43693058  0.73700597  1
  Ni  Ni207  1  0.26950400  0.71620575  0.27746685  1
  Ni  Ni208  1  0.60999802  0.16136509  0.91688406  1
  Ni  Ni209  1  0.44142845  0.88722566  0.88291152  1
  Ni  Ni210  1  0.13976254  0.55077555  0.09181916  1
  Ni  Ni211  1  0.20428502  0.98246110  0.68328477  1
  Ni  Ni212  1  0.00164989  0.14400374  0.08993461  1
  Ni  Ni213  1  0.10908582  0.82425572  0.47432200  1
  Ni  Ni214  1  0.73185956  0.89632977  0.63818734  1
  Ni  Ni215  1  0.75114734  0.01767050  0.14694868  1
