# generated using pymatgen
data_Ti2CoNi
_symmetry_space_group_name_H-M   'P 1'
_cell_length_a   14.68118284
_cell_length_b   14.62963210
_cell_length_c   14.59440507
_cell_angle_alpha   90.12999319
_cell_angle_beta   89.87396158
_cell_angle_gamma   90.05371614
_symmetry_Int_Tables_number   1
_chemical_formula_structural   Ti2CoNi
_chemical_formula_sum   'Ti108 Co54 Ni54'
_cell_volume   3134.57373972
_cell_formula_units_Z   54
loop_
 _symmetry_equiv_pos_site_id
 _symmetry_equiv_pos_as_xyz
  1  'x, y, z'
loop_
 _atom_site_type_symbol
 _atom_site_label
 _atom_site_symmetry_multiplicity
 _atom_site_fract_x
 _atom_site_fract_y
 _atom_site_fract_z
 _atom_site_occupancy
  Ti  Ti0  1  -0.07476526  -0.04146989  -0.01021990  1
  Ti  Ti1  1  0.04272576  -0.02206411  0.30567036  1
  Ti  Ti2  1  0.00174222  0.02436724  0.75030877  1
  Ti  Ti3  1  0.03975140  0.32281540  0.01796294  1
  Ti  Ti4  1  -0.03777778  0.29370076  0.33069124  1
  Ti  Ti5  1  -0.08644253  0.31435315  0.70791420  1
  Ti  Ti6  1  0.01058107  0.60746618  -0.06735366  1
  Ti  Ti7  1  -0.01462734  0.69101593  0.31867390  1
  Ti  Ti8  1  -0.03512862  0.70690416  0.64632762  1
  Ti  Ti9  1  0.36975996  0.07330459  0.03672581  1
  Ti  Ti10  1  0.37616692  -0.01393330  0.31743499  1
  Ti  Ti11  1  0.31115221  -0.00094206  0.70260769  1
  Ti  Ti12  1  0.34487879  0.34204708  -0.03271727  1
  Ti  Ti13  1  0.40261455  0.36091303  0.37410889  1
  Ti  Ti14  1  0.38178925  0.32504443  0.72494843  1
  Ti  Ti15  1  0.28783154  0.62684234  -0.01093157  1
  Ti  Ti16  1  0.19607078  0.68029023  0.34928524  1
  Ti  Ti17  1  0.27490128  0.66602859  0.66884773  1
  Ti  Ti18  1  0.64384831  0.02805702  -0.00428458  1
  Ti  Ti19  1  0.65423810  -0.03508220  0.31570937  1
  Ti  Ti20  1  0.72055496  -0.03099407  0.68011456  1
  Ti  Ti21  1  0.72220174  0.35519310  -0.08175480  1
  Ti  Ti22  1  0.65186728  0.28812411  0.44722560  1
  Ti  Ti23  1  0.64422651  0.29097657  0.64746538  1
  Ti  Ti24  1  0.64195020  0.68022910  -0.02111389  1
  Ti  Ti25  1  0.73105589  0.68446299  0.29299234  1
  Ti  Ti26  1  0.61363787  0.73172775  0.65416837  1
  Ti  Ti27  1  0.00389471  0.13187623  0.07640934  1
  Ti  Ti28  1  -0.08060508  0.19750867  0.51790338  1
  Ti  Ti29  1  0.00723485  0.20419143  0.83990736  1
  Ti  Ti30  1  -0.02023457  0.55362286  0.14534805  1
  Ti  Ti31  1  0.03701567  0.42685849  0.48476460  1
  Ti  Ti32  1  0.04738510  0.42347536  0.82802028  1
  Ti  Ti33  1  -0.01419580  0.85124420  0.14594856  1
  Ti  Ti34  1  0.00227957  0.89034519  0.59548980  1
  Ti  Ti35  1  -0.00421966  0.84864082  0.80748829  1
  Ti  Ti36  1  0.33724669  0.15835729  0.23207764  1
  Ti  Ti37  1  0.30048198  0.19289104  0.43890174  1
  Ti  Ti38  1  0.30166365  0.17415246  0.86136995  1
  Ti  Ti39  1  0.37965869  0.43461625  0.19248295  1
  Ti  Ti40  1  0.31996673  0.52915084  0.44837993  1
  Ti  Ti41  1  0.28336479  0.48490648  0.81534534  1
  Ti  Ti42  1  0.35065517  0.87579912  0.15599285  1
  Ti  Ti43  1  0.38465252  0.81276063  0.43881254  1
  Ti  Ti44  1  0.36981218  0.78537942  0.85504201  1
  Ti  Ti45  1  0.64400313  0.13703143  0.17837882  1
  Ti  Ti46  1  0.73068512  0.11889037  0.53674265  1
  Ti  Ti47  1  0.72936073  0.16650516  0.88793573  1
  Ti  Ti48  1  0.67056226  0.51303182  0.22062789  1
  Ti  Ti49  1  0.65711907  0.46662650  0.53711801  1
  Ti  Ti50  1  0.66276694  0.49003698  0.74856371  1
  Ti  Ti51  1  0.65680175  0.80919828  0.14203949  1
  Ti  Ti52  1  0.63289863  0.90044276  0.51116957  1
  Ti  Ti53  1  0.71279157  0.80678278  0.80545201  1
  Ti  Ti54  1  0.20593924  0.01154521  0.19351142  1
  Ti  Ti55  1  0.11305456  0.01509386  0.49943326  1
  Ti  Ti56  1  0.18604614  -0.08792758  0.84119970  1
  Ti  Ti57  1  0.21629506  0.33879811  0.14508905  1
  Ti  Ti58  1  0.11492225  0.24467566  0.50764012  1
  Ti  Ti59  1  0.19476704  0.31337265  0.77818056  1
  Ti  Ti60  1  0.19777136  0.76379722  0.13460576  1
  Ti  Ti61  1  0.09759253  0.70705367  0.51778586  1
  Ti  Ti62  1  0.15451159  0.71518570  0.83654902  1
  Ti  Ti63  1  0.51455260  -0.03053124  0.12082625  1
  Ti  Ti64  1  0.44456850  0.02115496  0.55099014  1
  Ti  Ti65  1  0.48571781  -0.03133587  0.88971711  1
  Ti  Ti66  1  0.56290977  0.33858616  0.18360894  1
  Ti  Ti67  1  0.45286775  0.24225396  0.54283235  1
  Ti  Ti68  1  0.52438977  0.40279246  0.87737285  1
  Ti  Ti69  1  0.39429602  0.64241930  0.16204543  1
  Ti  Ti70  1  0.53794490  0.62497602  0.49507375  1
  Ti  Ti71  1  0.52182493  0.62995754  0.84283529  1
  Ti  Ti72  1  0.87288389  0.00508258  0.18473495  1
  Ti  Ti73  1  0.85196365  0.05823320  0.37119314  1
  Ti  Ti74  1  0.79616798  -0.02529152  0.86519418  1
  Ti  Ti75  1  0.77749322  0.36995293  0.17144402  1
  Ti  Ti76  1  0.84465016  0.39169840  0.50742185  1
  Ti  Ti77  1  0.85432545  0.47983763  0.83038872  1
  Ti  Ti78  1  0.85923487  0.72859026  0.16070622  1
  Ti  Ti79  1  0.81025983  0.65600706  0.48303561  1
  Ti  Ti80  1  0.88603188  0.68855277  0.81941235  1
  Ti  Ti81  1  0.18272874  0.07260935  -0.00264508  1
  Ti  Ti82  1  0.13974740  0.17961037  0.31710309  1
  Ti  Ti83  1  0.16086721  0.15324586  0.68178443  1
  Ti  Ti84  1  0.12713572  0.49492854  0.05050221  1
  Ti  Ti85  1  0.15880529  0.48501931  0.28812859  1
  Ti  Ti86  1  0.19283078  0.44043105  0.61517996  1
  Ti  Ti87  1  0.09946241  0.85724773  -0.01165496  1
  Ti  Ti88  1  0.21395241  0.87452288  0.34979137  1
  Ti  Ti89  1  0.21647692  0.84897365  0.56063259  1
  Ti  Ti90  1  0.55248891  0.23632207  -0.00069623  1
  Ti  Ti91  1  0.51244387  0.21600076  0.31729646  1
  Ti  Ti92  1  0.51774969  0.15742493  0.70911331  1
  Ti  Ti93  1  0.54269918  0.53965966  0.06548195  1
  Ti  Ti94  1  0.49636754  0.55006292  0.31055879  1
  Ti  Ti95  1  0.41158804  0.51998481  0.61488186  1
  Ti  Ti96  1  0.50873556  0.80999415  -0.00824749  1
  Ti  Ti97  1  0.55140861  0.75184345  0.34151601  1
  Ti  Ti98  1  0.51735133  0.90618892  0.69893146  1
  Ti  Ti99  1  0.85696802  0.23911747  0.02137078  1
  Ti  Ti100  1  0.81595470  0.18866454  0.22387086  1
  Ti  Ti101  1  0.84144654  0.12600121  0.72245320  1
  Ti  Ti102  1  0.77774720  0.51602525  0.03007786  1
  Ti  Ti103  1  0.86382564  0.52268383  0.35506993  1
  Ti  Ti104  1  0.85988738  0.54905120  0.63849664  1
  Ti  Ti105  1  0.80023705  0.77745258  -0.02696590  1
  Ti  Ti106  1  0.80336952  0.83600065  0.39273925  1
  Ti  Ti107  1  0.81637538  0.82809585  0.58926420  1
  Co  Co108  1  0.94009201  0.85265072  0.30652676  1
  Co  Co109  1  0.08326028  0.31321789  0.66139500  1
  Co  Co110  1  0.55210412  0.57601585  0.66836501  1
  Co  Co111  1  0.70304157  0.24465703  0.07308588  1
  Co  Co112  1  0.24792457  0.26985873  0.60047246  1
  Co  Co113  1  0.06216446  0.39623331  0.18369656  1
  Co  Co114  1  0.65680732  0.87169768  0.95892401  1
  Co  Co115  1  0.07538066  0.84379878  0.42418676  1
  Co  Co116  1  0.09504758  0.79793834  0.26006426  1
  Co  Co117  1  0.09220562  0.23733698  0.17891501  1
  Co  Co118  1  0.23374112  0.93096029  0.05184903  1
  Co  Co119  1  0.87008372  0.91144814  0.72561002  1
  Co  Co120  1  0.39287485  0.28149176  0.14650120  1
  Co  Co121  1  0.94356278  0.94312375  0.45122374  1
  Co  Co122  1  0.39998674  0.66030673  0.38757074  1
  Co  Co123  1  0.40386491  0.68543962  0.55910076  1
  Co  Co124  1  0.51532713  0.80535425  0.54047902  1
  Co  Co125  1  0.60424118  0.27896840  0.80866185  1
  Co  Co126  1  0.59639095  0.04663518  0.61366577  1
  Co  Co127  1  0.52317938  0.05631370  0.27811455  1
  Co  Co128  1  0.44922270  0.24037576  0.86065228  1
  Co  Co129  1  0.43217047  0.10679893  0.40823526  1
  Co  Co130  1  0.93872913  0.27815092  0.16033140  1
  Co  Co131  1  0.63574439  0.97686016  0.82159152  1
  Co  Co132  1  0.37891477  0.90199583  0.99776915  1
  Co  Co133  1  0.66478685  0.73589051  0.46800078  1
  Co  Co134  1  0.68239674  0.28723253  0.28056636  1
  Co  Co135  1  0.55221002  0.80498724  0.82319686  1
  Co  Co136  1  0.79016584  0.26215300  0.59395552  1
  Co  Co137  1  0.41669148  0.07808603  0.79949074  1
  Co  Co138  1  0.26008357  0.68112226  0.49987012  1
  Co  Co139  1  0.56551205  0.12516300  0.87198465  1
  Co  Co140  1  0.25320937  0.78918410  0.96995603  1
  Co  Co141  1  0.76413115  0.28671266  0.77193353  1
  Co  Co142  1  0.27882600  0.30470958  0.28919480  1
  Co  Co143  1  0.45015404  0.66175829  0.00049844  1
  Co  Co144  1  0.87666368  0.63714544  0.01755160  1
  Co  Co145  1  0.51015168  0.94283091  0.41552686  1
  Co  Co146  1  0.89241595  0.10511271  0.90420242  1
  Co  Co147  1  0.89446947  0.02798138  0.60035212  1
  Co  Co148  1  0.69621896  0.60569594  0.58830433  1
  Co  Co149  1  0.90027093  0.32608715  0.88617180  1
  Co  Co150  1  0.35199823  0.16370311  0.67094554  1
  Co  Co151  1  0.93826603  0.76563981  0.47649010  1
  Co  Co152  1  0.57911477  0.64799372  0.19517970  1
  Co  Co153  1  0.97831983  0.43728551  0.64398770  1
  Co  Co154  1  0.30879580  0.00052533  0.89210334  1
  Co  Co155  1  0.64333516  0.40324105  0.05564394  1
  Co  Co156  1  0.77998869  0.41306538  0.66333774  1
  Co  Co157  1  0.83027630  0.56560101  0.20090417  1
  Co  Co158  1  0.80118318  0.89803176  0.06944778  1
  Co  Co159  1  0.11438628  0.33810488  0.33516098  1
  Co  Co160  1  0.68169337  0.13228883  0.73243322  1
  Co  Co161  1  0.72266413  0.64963902  0.11340557  1
  Ni  Ni162  1  0.01223573  0.11291010  0.41324560  1
  Ni  Ni163  1  0.96209974  0.77199018  0.95544561  1
  Ni  Ni164  1  0.30644934  0.96377142  0.47762785  1
  Ni  Ni165  1  0.26832442  0.82343379  0.72731161  1
  Ni  Ni166  1  0.04526916  1.03345192  0.91523889  1
  Ni  Ni167  1  0.26719991  0.21230640  0.04732712  1
  Ni  Ni168  1  0.97643133  0.59214221  0.46705547  1
  Ni  Ni169  1  0.97654030  0.13306012  0.24997298  1
  Ni  Ni170  1  0.66250082  0.56798281  0.39063680  1
  Ni  Ni171  1  0.78311826  0.96947930  0.49317673  1
  Ni  Ni172  1  0.44470890  0.71573172  0.71360771  1
  Ni  Ni173  1  0.06302837  0.56441305  0.60304480  1
  Ni  Ni174  1  0.25023699  0.09246802  0.55928224  1
  Ni  Ni175  1  0.12489510  0.62836401  0.20010945  1
  Ni  Ni176  1  0.47508712  0.39106409  0.04892161  1
  Ni  Ni177  1  0.35578796  0.37991642  0.54734528  1
  Ni  Ni178  1  0.07044181  -0.01599296  0.10252870  1
  Ni  Ni179  1  0.25655960  0.53315607  0.13634650  1
  Ni  Ni180  1  0.14251310  0.21873715  0.92507958  1
  Ni  Ni181  1  0.32555815  0.75416083  0.27206200  1
  Ni  Ni182  1  0.37930204  0.85825381  0.61190695  1
  Ni  Ni183  1  0.64749042  0.51216518  0.91947116  1
  Ni  Ni184  1  -0.00067447  0.16541641  0.65495459  1
  Ni  Ni185  1  0.31215470  0.56913233  0.28531583  1
  Ni  Ni186  1  0.52456319  0.39822069  0.67507255  1
  Ni  Ni187  1  0.15537858  0.56605646  0.73584380  1
  Ni  Ni188  1  0.16330686  0.55422953  0.89774401  1
  Ni  Ni189  1  0.50101840  0.88684651  0.26411498  1
  Ni  Ni190  1  0.44142434  0.50395904  0.77536759  1
  Ni  Ni191  1  0.80568608  0.24339707  0.39715329  1
  Ni  Ni192  1  0.11268387  0.78745641  0.68759961  1
  Ni  Ni193  1  0.16946622  0.07604134  0.82115714  1
  Ni  Ni194  1  0.22791973  0.36439747  0.44821437  1
  Ni  Ni195  1  0.69281609  0.98106324  0.15124920  1
  Ni  Ni196  1  0.48890283  0.77405752  0.15148831  1
  Ni  Ni197  1  0.40478243  0.51038394  0.94243100  1
  Ni  Ni198  1  0.74093116  0.41373087  0.36895056  1
  Ni  Ni199  1  0.15390800  0.54538070  0.46342968  1
  Ni  Ni200  1  0.57361506  0.14093176  0.48180507  1
  Ni  Ni201  1  0.78518998  0.69690494  0.68689299  1
  Ni  Ni202  1  0.94313872  0.46041990  0.98407607  1
  Ni  Ni203  1  0.57440562  0.40648668  0.34515893  1
  Ni  Ni204  1  0.99015769  0.56777378  0.75737502  1
  Ni  Ni205  1  0.91533441  0.42642180  0.23512885  1
  Ni  Ni206  1  0.68526715  0.13196297  0.35066776  1
  Ni  Ni207  1  0.78644897  0.86942446  0.23481864  1
  Ni  Ni208  1  0.79635044  0.07751656  0.04698030  1
  Ni  Ni209  1  0.51087991  0.40007656  0.50142712  1
  Ni  Ni210  1  0.14473252  0.96085450  0.67693483  1
  Ni  Ni211  1  0.22079613  0.04723691  0.36511789  1
  Ni  Ni212  1  0.03686423  0.70246919  0.08579464  1
  Ni  Ni213  1  0.18597107  0.37822195  0.94089843  1
  Ni  Ni214  1  0.48611372  0.14531255  0.13658269  1
  Ni  Ni215  1  0.74076059  0.62525435  0.85134147  1
