# generated using pymatgen
data_Ti2CoNi
_symmetry_space_group_name_H-M   'P 1'
_cell_length_a   14.62950972
_cell_length_b   14.64954901
_cell_length_c   14.69026631
_cell_angle_alpha   89.73473621
_cell_angle_beta   89.92875715
_cell_angle_gamma   90.09705868
_symmetry_Int_Tables_number   1
_chemical_formula_structural   Ti2CoNi
_chemical_formula_sum   'Ti108 Co54 Ni54'
_cell_volume   3148.31427080
_cell_formula_units_Z   54
loop_
 _symmetry_equiv_pos_site_id
 _symmetry_equiv_pos_as_xyz
  1  'x, y, z'
loop_
 _atom_site_type_symbol
 _atom_site_label
 _atom_site_symmetry_multiplicity
 _atom_site_fract_x
 _atom_site_fract_y
 _atom_site_fract_z
 _atom_site_occupancy
  Ti  Ti0  1  -0.08301274  0.06247048  0.00471920  1
  Ti  Ti1  1  0.00791619  -0.01771496  0.38579021  1
  Ti  Ti2  1  -0.07250614  -0.04209806  0.67751498  1
  Ti  Ti3  1  0.01827242  0.36478502  -0.03974745  1
  Ti  Ti4  1  -0.00450843  0.30496082  0.27407713  1
  Ti  Ti5  1  0.07510041  0.33335268  0.58347636  1
  Ti  Ti6  1  -0.00289863  0.60388918  -0.01270364  1
  Ti  Ti7  1  0.06454542  0.72552160  0.39030111  1
  Ti  Ti8  1  0.03936939  0.59494211  0.66452716  1
  Ti  Ti9  1  0.32447444  0.05279281  -0.03349796  1
  Ti  Ti10  1  0.37525210  -0.01745761  0.30797858  1
  Ti  Ti11  1  0.38134732  -0.05860898  0.66821301  1
  Ti  Ti12  1  0.31070997  0.33713650  -0.05915002  1
  Ti  Ti13  1  0.35493916  0.29875775  0.32091198  1
  Ti  Ti14  1  0.40071088  0.29631179  0.65654146  1
  Ti  Ti15  1  0.31500715  0.66738814  0.02187031  1
  Ti  Ti16  1  0.26844741  0.71527638  0.33274451  1
  Ti  Ti17  1  0.39117682  0.61797741  0.72941543  1
  Ti  Ti18  1  0.63234962  -0.04664955  -0.06597253  1
  Ti  Ti19  1  0.62346602  0.01098150  0.33126606  1
  Ti  Ti20  1  0.59426619  -0.02092482  0.68831309  1
  Ti  Ti21  1  0.60748872  0.30051474  0.00207872  1
  Ti  Ti22  1  0.72681160  0.34406589  0.31049234  1
  Ti  Ti23  1  0.60288124  0.30690611  0.66426794  1
  Ti  Ti24  1  0.71508945  0.71937714  0.06473194  1
  Ti  Ti25  1  0.62781993  0.63335138  0.30172006  1
  Ti  Ti26  1  0.63146870  0.62744672  0.67607953  1
  Ti  Ti27  1  -0.04405470  0.23392693  0.09933170  1
  Ti  Ti28  1  -0.00870986  0.19376378  0.45063607  1
  Ti  Ti29  1  -0.02599838  0.08324230  0.80360621  1
  Ti  Ti30  1  0.05951861  0.52331360  0.16921891  1
  Ti  Ti31  1  -0.02851820  0.53761523  0.49399700  1
  Ti  Ti32  1  -0.00569079  0.50572322  0.81974821  1
  Ti  Ti33  1  0.00987836  0.81183377  0.18845405  1
  Ti  Ti34  1  0.02790869  0.78314777  0.58873905  1
  Ti  Ti35  1  0.00091069  0.81613029  0.84820859  1
  Ti  Ti36  1  0.30867969  0.20381442  0.10390062  1
  Ti  Ti37  1  0.28619831  0.19348274  0.49155337  1
  Ti  Ti38  1  0.38965804  0.19528789  0.83691931  1
  Ti  Ti39  1  0.27091119  0.56115138  0.18252157  1
  Ti  Ti40  1  0.33114895  0.52008761  0.56067191  1
  Ti  Ti41  1  0.31340743  0.52255560  0.87027724  1
  Ti  Ti42  1  0.43210769  0.87176003  0.13742365  1
  Ti  Ti43  1  0.35708174  0.83176141  0.48349388  1
  Ti  Ti44  1  0.32264543  0.88406682  0.87054427  1
  Ti  Ti45  1  0.65464739  0.17606177  0.18300881  1
  Ti  Ti46  1  0.70640597  0.22302387  0.51058008  1
  Ti  Ti47  1  0.70115103  0.24788866  0.82500160  1
  Ti  Ti48  1  0.74291839  0.53162915  0.15198288  1
  Ti  Ti49  1  0.66808976  0.54561931  0.48067152  1
  Ti  Ti50  1  0.64883509  0.50043626  0.86868145  1
  Ti  Ti51  1  0.67676302  0.82707470  0.24354455  1
  Ti  Ti52  1  0.66423847  0.88879930  0.47748449  1
  Ti  Ti53  1  0.67836195  0.83691782  0.77471081  1
  Ti  Ti54  1  0.21117700  0.01300605  0.15688333  1
  Ti  Ti55  1  0.13040027  -0.03755753  0.55594294  1
  Ti  Ti56  1  0.15900416  0.01177996  0.84055398  1
  Ti  Ti57  1  0.18220498  0.33297659  0.23797031  1
  Ti  Ti58  1  0.23262073  0.38341020  0.45038569  1
  Ti  Ti59  1  0.10525344  0.23465613  0.82631670  1
  Ti  Ti60  1  0.17647298  0.73958791  0.15852062  1
  Ti  Ti61  1  0.18511124  0.65708496  0.53391628  1
  Ti  Ti62  1  0.20683589  0.70725713  0.86164427  1
  Ti  Ti63  1  0.58721977  0.00772613  0.11108187  1
  Ti  Ti64  1  0.53754682  0.05006138  0.50293923  1
  Ti  Ti65  1  0.47992428  0.01931502  0.82865878  1
  Ti  Ti66  1  0.48516437  0.32862090  0.16811974  1
  Ti  Ti67  1  0.44648134  0.34628583  0.48384081  1
  Ti  Ti68  1  0.48457874  0.35397974  0.82669078  1
  Ti  Ti69  1  0.51408048  0.56078123  0.15971849  1
  Ti  Ti70  1  0.56362024  0.72924615  0.48391192  1
  Ti  Ti71  1  0.54401513  0.67330440  0.83882289  1
  Ti  Ti72  1  0.90034939  -0.00224287  0.19445767  1
  Ti  Ti73  1  0.86076023  0.01120029  0.49849087  1
  Ti  Ti74  1  0.81400604  -0.02549804  0.85732123  1
  Ti  Ti75  1  0.76703539  0.32872483  0.10897370  1
  Ti  Ti76  1  0.85884063  0.35142186  0.55540274  1
  Ti  Ti77  1  0.88867722  0.31655099  0.79610523  1
  Ti  Ti78  1  0.82388037  0.68252246  0.24388537  1
  Ti  Ti79  1  0.86056308  0.67594552  0.43450498  1
  Ti  Ti80  1  0.75273772  0.67669102  0.85498593  1
  Ti  Ti81  1  0.11517771  0.11041695  0.00659591  1
  Ti  Ti82  1  0.11545096  0.13258033  0.28743549  1
  Ti  Ti83  1  0.23507450  0.16448604  0.69893882  1
  Ti  Ti84  1  0.18518324  0.47047827  0.02499269  1
  Ti  Ti85  1  0.09672269  0.48751920  0.35943270  1
  Ti  Ti86  1  0.18195683  0.46243784  0.71947909  1
  Ti  Ti87  1  0.15272344  0.86326356  -0.00507255  1
  Ti  Ti88  1  0.17902440  0.90124566  0.33459142  1
  Ti  Ti89  1  0.21437173  0.81002293  0.65725940  1
  Ti  Ti90  1  0.52079842  0.13434371  -0.02972104  1
  Ti  Ti91  1  0.52972889  0.19558607  0.32035882  1
  Ti  Ti92  1  0.43912177  0.12003096  0.65229075  1
  Ti  Ti93  1  0.39797892  0.47688479  0.05055338  1
  Ti  Ti94  1  0.53793949  0.44371843  0.33673952  1
  Ti  Ti95  1  0.51316203  0.47664812  0.63213228  1
  Ti  Ti96  1  0.49176801  0.73061075  0.02385305  1
  Ti  Ti97  1  0.46327089  0.75134037  0.31931899  1
  Ti  Ti98  1  0.49553186  0.77092003  0.66523316  1
  Ti  Ti99  1  0.73166001  0.13106442  0.00713679  1
  Ti  Ti100  1  0.78050481  0.13082041  0.34462815  1
  Ti  Ti101  1  0.87118973  0.15398664  0.62636056  1
  Ti  Ti102  1  0.86137069  0.45295685  -0.00255054  1
  Ti  Ti103  1  0.89373613  0.48057241  0.29915768  1
  Ti  Ti104  1  0.82496981  0.54318956  0.66686934  1
  Ti  Ti105  1  0.90270653  0.86569468  0.02327454  1
  Ti  Ti106  1  0.81132771  0.91265584  0.34976955  1
  Ti  Ti107  1  0.82145515  0.82398192  0.59362284  1
  Co  Co108  1  0.13979648  0.56116131  0.87789210  1
  Co  Co109  1  0.97402836  0.62468068  0.29757371  1
  Co  Co110  1  0.22191661  0.96266160  0.70552139  1
  Co  Co111  1  0.51333233  0.58494637  0.41438731  1
  Co  Co112  1  0.40556505  0.58371290  0.28992321  1
  Co  Co113  1  0.07047453  0.90035095  0.72069393  1
  Co  Co114  1  0.53696901  0.89439861  0.24521246  1
  Co  Co115  1  0.38190443  0.72315324  0.88556786  1
  Co  Co116  1  0.74501917  0.37804616  0.91461589  1
  Co  Co117  1  1.00678822  0.07260481  0.55364077  1
  Co  Co118  1  0.14438838  0.08428168  0.44468139  1
  Co  Co119  1  0.50289669  0.17677431  0.12298392  1
  Co  Co120  1  0.14007592  0.25909469  0.40135391  1
  Co  Co121  1  0.26731173  0.45815938  0.29483537  1
  Co  Co122  1  0.38131281  0.47407583  0.40716644  1
  Co  Co123  1  0.14435932  0.62135620  0.28254863  1
  Co  Co124  1  0.13780203  0.18306740  0.56612744  1
  Co  Co125  1  0.60152764  0.60217533  0.01026280  1
  Co  Co126  1  0.27365621  0.05919997  0.58803539  1
  Co  Co127  1  1.04028110  0.94505839  0.07658454  1
  Co  Co128  1  0.61069108  0.85220303  0.07976526  1
  Co  Co129  1  0.44861307  0.58677603  0.93861827  1
  Co  Co130  1  0.04252973  0.36275017  0.75672742  1
  Co  Co131  1  0.13855716  0.20679906  0.14361276  1
  Co  Co132  1  0.84992568  0.27338057  -0.02675776  1
  Co  Co133  1  0.72617366  0.51056687  0.31807479  1
  Co  Co134  1  0.02839261  0.09309393  0.14652733  1
  Co  Co135  1  0.91039884  0.40582106  0.14926060  1
  Co  Co136  1  0.77436248  0.70706721  0.69638634  1
  Co  Co137  1  0.64977060  0.81370519  0.62056473  1
  Co  Co138  1  0.09383802  0.06703533  0.68877235  1
  Co  Co139  1  0.90261122  0.67340474  0.59413019  1
  Co  Co140  1  0.32321132  0.05152240  0.79343487  1
  Co  Co141  1  0.38275182  0.16187079  0.24050240  1
  Co  Co142  1  0.01757571  0.96386193  0.91539223  1
  Co  Co143  1  0.18396103  0.81528020  0.47961594  1
  Co  Co144  1  0.26699511  0.12058477  0.33814375  1
  Co  Co145  1  0.84850963  0.82231133  0.79148402  1
  Co  Co146  1  0.33290472  0.70102157  0.59731169  1
  Co  Co147  1  0.44326273  0.28903314  1.00907677  1
  Co  Co148  1  0.23711543  0.56230350  0.41509134  1
  Co  Co149  1  0.50441934  0.89399537  0.40025336  1
  Co  Co150  1  0.03528867  0.76134539  0.02818080  1
  Co  Co151  1  0.06754053  0.36606819  0.11983473  1
  Co  Co152  1  0.76537249  0.57960598  0.98696261  1
  Co  Co153  1  0.06686104  0.96486965  0.23491159  1
  Co  Co154  1  0.50151073  0.05575101  0.23738567  1
  Co  Co155  1  0.48302450  0.62129516  0.57474600  1
  Co  Co156  1  0.50023610  0.51210031  0.79427503  1
  Co  Co157  1  0.65845495  0.45287294  0.03604281  1
  Co  Co158  1  0.51467686  0.43974174  0.95578236  1
  Co  Co159  1  0.91772907  0.65983627  0.77282777  1
  Co  Co160  1  0.76230061  0.26062018  0.67073515  1
  Co  Co161  1  -0.01371132  0.19844145  0.92946240  1
  Ni  Ni162  1  0.25040429  0.34908524  0.61053520  1
  Ni  Ni163  1  0.46885878  0.91925273  0.97633105  1
  Ni  Ni164  1  1.01648450  0.21089475  0.67898293  1
  Ni  Ni165  1  0.65765804  0.08453713  0.84252645  1
  Ni  Ni166  1  0.37499450  0.70498850  0.17655935  1
  Ni  Ni167  1  0.62672080  0.42097953  0.19639863  1
  Ni  Ni168  1  0.82664499  0.51810101  0.83803374  1
  Ni  Ni169  1  0.50745695  0.89451671  0.55993903  1
  Ni  Ni170  1  0.86261402  0.28631877  0.37741936  1
  Ni  Ni171  1  0.81888610  0.46943537  0.44748568  1
  Ni  Ni172  1  0.30176330  0.90908462  0.04503769  1
  Ni  Ni173  1  0.96155796  0.44475566  0.64704270  1
  Ni  Ni174  1  0.37419289  0.65803764  0.44729712  1
  Ni  Ni175  1  0.23831623  0.17623762  0.89612128  1
  Ni  Ni176  1  0.34802095  0.78299582  0.74196623  1
  Ni  Ni177  1  0.83350479  0.15100637  0.87042881  1
  Ni  Ni178  1  0.27496473  0.98401515  0.44533728  1
  Ni  Ni179  1  0.70393330  0.05741335  0.47976469  1
  Ni  Ni180  1  0.82312092  0.20530439  0.20473761  1
  Ni  Ni181  1  0.16050778  0.39824159  0.87380274  1
  Ni  Ni182  1  0.54409180  0.18944566  0.78182133  1
  Ni  Ni183  1  0.15338631  0.64040045  0.02836422  1
  Ni  Ni184  1  0.90586352  0.58042922  0.13449101  1
  Ni  Ni185  1  0.74003208  0.40712170  0.74348667  1
  Ni  Ni186  1  0.93783742  0.85294904  0.47159817  1
  Ni  Ni187  1  0.48986868  0.85111087  0.81709594  1
  Ni  Ni188  1  0.71710718  0.74935165  0.38843018  1
  Ni  Ni189  1  0.62140797  0.39698001  0.52621850  1
  Ni  Ni190  1  0.16446221  0.28692807  0.00533982  1
  Ni  Ni191  1  0.52848067  0.21347675  0.53333317  1
  Ni  Ni192  1  0.77594139  0.08422179  0.73236428  1
  Ni  Ni193  1  0.72926088  0.68709145  0.54331543  1
  Ni  Ni194  1  0.88696706  0.71810681  0.93804162  1
  Ni  Ni195  1  0.63558649  0.13624339  0.64736338  1
  Ni  Ni196  1  0.39196171  0.04200727  0.11576814  1
  Ni  Ni197  1  0.76335284  0.83349473  0.93820354  1
  Ni  Ni198  1  0.55400159  0.72817319  0.17693416  1
  Ni  Ni199  1  0.31532070  0.36958789  0.14150509  1
  Ni  Ni200  1  0.74511888  0.97000990  0.62141059  1
  Ni  Ni201  1  0.76294632  -0.03373145  0.04794349  1
  Ni  Ni202  1  0.09009421  0.72796453  0.74150277  1
  Ni  Ni203  1  0.60131621  0.30002908  0.40775255  1
  Ni  Ni204  1  0.14053378  0.49133848  0.54676880  1
  Ni  Ni205  1  0.41515201  0.12848315  0.41410505  1
  Ni  Ni206  1  -0.00755688  0.37334795  0.43265200  1
  Ni  Ni207  1  0.28579702  0.85377206  0.21342827  1
  Ni  Ni208  1  0.61192930  0.78741263  0.92885039  1
  Ni  Ni209  1  0.73377516  1.00650890  0.20771246  1
  Ni  Ni210  1  0.27261791  0.31386469  0.77799619  1
  Ni  Ni211  1  0.94322306  0.13351747  0.29390284  1
  Ni  Ni212  1  0.82718514  0.84331746  0.17425483  1
  Ni  Ni213  1  0.22191705  0.62589131  0.70937517  1
  Ni  Ni214  1  0.92187345  0.79560952  0.32162565  1
  Ni  Ni215  1  0.35633291  0.44528330  0.72095423  1
