# generated using pymatgen
data_Ti2CoNi
_symmetry_space_group_name_H-M   'P 1'
_cell_length_a   14.65055466
_cell_length_b   14.58549069
_cell_length_c   14.62160921
_cell_angle_alpha   90.00348719
_cell_angle_beta   89.79061491
_cell_angle_gamma   90.01673588
_symmetry_Int_Tables_number   1
_chemical_formula_structural   Ti2CoNi
_chemical_formula_sum   'Ti108 Co54 Ni54'
_cell_volume   3124.40529183
_cell_formula_units_Z   54
loop_
 _symmetry_equiv_pos_site_id
 _symmetry_equiv_pos_as_xyz
  1  'x, y, z'
loop_
 _atom_site_type_symbol
 _atom_site_label
 _atom_site_symmetry_multiplicity
 _atom_site_fract_x
 _atom_site_fract_y
 _atom_site_fract_z
 _atom_site_occupancy
  Ti  Ti0  1  0.05467139  -0.01021933  0.02836280  1
  Ti  Ti1  1  0.06146492  -0.03222681  0.23834934  1
  Ti  Ti2  1  0.02635817  -0.02811419  0.60375511  1
  Ti  Ti3  1  -0.03964183  0.34363342  0.03264738  1
  Ti  Ti4  1  -0.09414184  0.26098161  0.40077479  1
  Ti  Ti5  1  -0.06478010  0.33034132  0.71031529  1
  Ti  Ti6  1  0.02627884  0.79803835  -0.02930839  1
  Ti  Ti7  1  0.02272757  0.60530789  0.34871279  1
  Ti  Ti8  1  -0.00652916  0.66467729  0.72392019  1
  Ti  Ti9  1  0.28338626  0.04758704  0.02467677  1
  Ti  Ti10  1  0.42709066  -0.05855792  0.35299785  1
  Ti  Ti11  1  0.29966972  -0.03213200  0.64411617  1
  Ti  Ti12  1  0.39679037  0.33842318  -0.01246744  1
  Ti  Ti13  1  0.36189206  0.41078379  0.30125600  1
  Ti  Ti14  1  0.28596708  0.40800662  0.68685407  1
  Ti  Ti15  1  0.32603330  0.63230208  -0.00327217  1
  Ti  Ti16  1  0.32318657  0.77096500  0.31905229  1
  Ti  Ti17  1  0.27614214  0.59031468  0.62606679  1
  Ti  Ti18  1  0.62309423  0.04503582  0.02748812  1
  Ti  Ti19  1  0.61151280  0.04253354  0.38176886  1
  Ti  Ti20  1  0.65817605  -0.06213285  0.62866009  1
  Ti  Ti21  1  0.58306910  0.25108510  -0.01847153  1
  Ti  Ti22  1  0.58262392  0.29205771  0.32679347  1
  Ti  Ti23  1  0.72335959  0.36353526  0.64703857  1
  Ti  Ti24  1  0.67871886  0.62370972  -0.04422576  1
  Ti  Ti25  1  0.70273212  0.67881075  0.38125755  1
  Ti  Ti26  1  0.70787639  0.71406824  0.61037650  1
  Ti  Ti27  1  -0.02013151  0.15753675  0.14525617  1
  Ti  Ti28  1  0.02772968  0.14829188  0.49878914  1
  Ti  Ti29  1  0.03356840  0.22098142  0.82746193  1
  Ti  Ti30  1  0.01735771  0.50658656  0.17075792  1
  Ti  Ti31  1  -0.02246232  0.43459811  0.48745419  1
  Ti  Ti32  1  0.08167566  0.44508820  0.83874912  1
  Ti  Ti33  1  -0.04783841  0.82239481  0.14896981  1
  Ti  Ti34  1  -0.04228111  0.82110282  0.43157380  1
  Ti  Ti35  1  -0.04515722  0.86413159  0.79835513  1
  Ti  Ti36  1  0.28943559  0.19137694  0.16098885  1
  Ti  Ti37  1  0.40536714  0.25557936  0.57451509  1
  Ti  Ti38  1  0.32135211  0.18935612  0.75323811  1
  Ti  Ti39  1  0.30955638  0.57864617  0.21238800  1
  Ti  Ti40  1  0.29720460  0.42384952  0.48035565  1
  Ti  Ti41  1  0.29046964  0.54421804  0.83265840  1
  Ti  Ti42  1  0.27642153  0.80473290  0.13091880  1
  Ti  Ti43  1  0.41974134  0.83342778  0.53939431  1
  Ti  Ti44  1  0.36072528  0.78927614  0.84182419  1
  Ti  Ti45  1  0.69915774  0.22501016  0.16523444  1
  Ti  Ti46  1  0.69385390  0.20428739  0.48102482  1
  Ti  Ti47  1  0.68930266  0.13052454  0.85782271  1
  Ti  Ti48  1  0.66750136  0.50087887  0.11063179  1
  Ti  Ti49  1  0.63370917  0.53507894  0.54644872  1
  Ti  Ti50  1  0.65056833  0.51729405  0.77155632  1
  Ti  Ti51  1  0.74187773  0.90189238  0.11528204  1
  Ti  Ti52  1  0.71755917  0.87590808  0.44202733  1
  Ti  Ti53  1  0.69075142  0.78278912  0.80604821  1
  Ti  Ti54  1  0.25894376  -0.01432084  0.28971058  1
  Ti  Ti55  1  0.19902170  0.03724669  0.47909322  1
  Ti  Ti56  1  0.19428763  0.05875464  0.83919752  1
  Ti  Ti57  1  0.12124509  0.30201109  0.15177379  1
  Ti  Ti58  1  0.23333777  0.23567737  0.45347123  1
  Ti  Ti59  1  0.23076103  0.31497324  0.86084067  1
  Ti  Ti60  1  0.10121696  0.69276830  0.17080346  1
  Ti  Ti61  1  0.16218005  0.57159069  0.46871907  1
  Ti  Ti62  1  0.15457495  0.74041073  0.82882793  1
  Ti  Ti63  1  0.55177779  -0.02667580  0.20668054  1
  Ti  Ti64  1  0.41562698  0.06548411  0.49585341  1
  Ti  Ti65  1  0.42644041  -0.01402878  0.79622245  1
  Ti  Ti66  1  0.53909279  0.34299353  0.14049476  1
  Ti  Ti67  1  0.49257866  0.39420126  0.46037173  1
  Ti  Ti68  1  0.54626674  0.38189842  0.84980605  1
  Ti  Ti69  1  0.57001817  0.68069009  0.17328800  1
  Ti  Ti70  1  0.46612249  0.63562382  0.56952766  1
  Ti  Ti71  1  0.50249131  0.64198806  0.84653543  1
  Ti  Ti72  1  0.87619413  0.00948834  0.18268318  1
  Ti  Ti73  1  0.88549026  0.00278261  0.46080120  1
  Ti  Ti74  1  0.80513613  -0.01719552  0.89670690  1
  Ti  Ti75  1  0.85769995  0.35697562  0.20994494  1
  Ti  Ti76  1  0.78007397  0.40137037  0.44146454  1
  Ti  Ti77  1  0.77281928  0.31407199  0.87502892  1
  Ti  Ti78  1  0.78597149  0.66531599  0.14799839  1
  Ti  Ti79  1  0.95007832  0.64058891  0.53072619  1
  Ti  Ti80  1  0.81900091  0.60144252  0.82070581  1
  Ti  Ti81  1  0.13005371  0.17025717  -0.00862963  1
  Ti  Ti82  1  0.12737802  0.15422241  0.30891059  1
  Ti  Ti83  1  0.13083893  0.17196474  0.66306956  1
  Ti  Ti84  1  0.08745471  0.59449428  -0.04143526  1
  Ti  Ti85  1  0.14591049  0.41090385  0.33873122  1
  Ti  Ti86  1  0.08356287  0.48839851  0.63978568  1
  Ti  Ti87  1  0.22331624  0.88137744  -0.04365193  1
  Ti  Ti88  1  0.14878072  0.85735500  0.39767574  1
  Ti  Ti89  1  0.26592493  0.77521489  0.66529255  1
  Ti  Ti90  1  0.44712387  0.13973372  0.05552072  1
  Ti  Ti91  1  0.45553355  0.13253822  0.30084985  1
  Ti  Ti92  1  0.57377491  0.10534781  0.71586002  1
  Ti  Ti93  1  0.45422669  0.51088442  0.09998362  1
  Ti  Ti94  1  0.53125887  0.49791077  0.28204197  1
  Ti  Ti95  1  0.52796319  0.39572024  0.66117161  1
  Ti  Ti96  1  0.43961115  0.80747380  0.01613285  1
  Ti  Ti97  1  0.53797089  0.79220564  0.34729515  1
  Ti  Ti98  1  0.52259437  0.80602610  0.70859621  1
  Ti  Ti99  1  0.89798605  0.15864803  -0.04502563  1
  Ti  Ti100  1  0.79079225  0.10459616  0.33096949  1
  Ti  Ti101  1  0.77167913  0.17436817  0.66349893  1
  Ti  Ti102  1  0.85197054  0.50075994  0.04486632  1
  Ti  Ti103  1  0.82894535  0.53196365  0.29640617  1
  Ti  Ti104  1  0.84576566  0.50899572  0.62667698  1
  Ti  Ti105  1  0.82662031  0.77515490  -0.03926616  1
  Ti  Ti106  1  0.82397258  0.80127759  0.28397381  1
  Ti  Ti107  1  0.84805723  0.87017084  0.62293063  1
  Co  Co108  1  0.73916560  0.94568176  0.29824303  1
  Co  Co109  1  0.85112726  0.15532708  0.51448484  1
  Co  Co110  1  0.52740829  0.20371031  0.45223700  1
  Co  Co111  1  0.95847694  0.15944271  0.65616373  1
  Co  Co112  1  0.35318606  0.38597348  0.13786217  1
  Co  Co113  1  0.38933073  0.27163952  0.39403372  1
  Co  Co114  1  1.00394838  0.06017423  0.89105062  1
  Co  Co115  1  0.42493955  0.10074949  0.66080909  1
  Co  Co116  1  0.06956756  0.29067384  0.41412675  1
  Co  Co117  1  0.38177840  0.03117573  0.18705415  1
  Co  Co118  1  0.15772821  0.55456233  0.26717874  1
  Co  Co119  1  0.44531248  0.63895605  0.28797913  1
  Co  Co120  1  0.18048292  0.69722211  0.33122031  1
  Co  Co121  1  0.91358076  0.93377125  0.31659274  1
  Co  Co122  1  0.11254859  0.84473646  0.09395148  1
  Co  Co123  1  0.21113189  0.43031677  0.17870396  1
  Co  Co124  1  0.57155665  0.07828643  0.55221668  1
  Co  Co125  1  0.72773866  0.19450831  0.99689509  1
  Co  Co126  1  0.92555836  0.37767549  0.88004739  1
  Co  Co127  1  0.14815997  0.39878060  0.52226399  1
  Co  Co128  1  0.09687335  0.92313785  0.86168372  1
  Co  Co129  1  0.67368878  0.57586477  0.25700860  1
  Co  Co130  1  0.30200466  0.12654711  0.34684166  1
  Co  Co131  1  0.03650106  0.29702740  0.57895855  1
  Co  Co132  1  0.57986504  0.75174955  0.51806375  1
  Co  Co133  1  0.41735129  0.70668670  0.43168666  1
  Co  Co134  1  0.65237106  0.48564989  0.39223939  1
  Co  Co135  1  0.86507416  0.31346261  0.56390605  1
  Co  Co136  1  0.85142686  1.03308450  0.61750022  1
  Co  Co137  1  0.10587740  0.44834365  0.05166692  1
  Co  Co138  1  0.29345795  0.58578505  0.37620619  1
  Co  Co139  1  0.25590771  0.28703302  0.28591672  1
  Co  Co140  1  0.42454264  0.26887602  0.22483760  1
  Co  Co141  1  0.87740309  0.66906747  0.37061806  1
  Co  Co142  1  0.25750435  0.46644261  0.97968689  1
  Co  Co143  1  -0.05698016  0.53312199  0.91805867  1
  Co  Co144  1  0.74311489  0.47393964  0.92578849  1
  Co  Co145  1  0.63502644  0.36098626  0.50654934  1
  Co  Co146  1  0.55237182  0.16115608  0.16835862  1
  Co  Co147  1  0.95426390  0.50911815  0.75405132  1
  Co  Co148  1  0.90906566  1.00752675  0.75841020  1
  Co  Co149  1  0.23854378  0.28533835  0.60861249  1
  Co  Co150  1  0.43049255  0.53685861  0.42759442  1
  Co  Co151  1  0.25338023  0.90230370  0.79002920  1
  Co  Co152  1  0.15888157  0.83204505  0.24180537  1
  Co  Co153  1  0.06203972  0.04513510  0.74328403  1
  Co  Co154  1  0.24270735  0.30713562  0.03801465  1
  Co  Co155  1  0.56037168  0.62530757  0.40562996  1
  Co  Co156  1  0.12831070  0.33608742  0.71784946  1
  Co  Co157  1  0.72776939  0.03694842  0.50524782  1
  Co  Co158  1  0.86399165  0.15951612  0.79668178  1
  Co  Co159  1  0.95228581  0.69215054  0.87599128  1
  Co  Co160  1  0.80660521  0.44060817  0.77338765  1
  Co  Co161  1  0.49074557  0.95313997  0.64101014  1
  Ni  Ni162  1  0.16122896  0.86466661  0.56176571  1
  Ni  Ni163  1  0.42262675  0.50091129  0.92665969  1
  Ni  Ni164  1  0.43094525  0.85327005  0.19564577  1
  Ni  Ni165  1  0.27938560  0.12862217  0.59238151  1
  Ni  Ni166  1  0.84553470  0.23640765  0.09399289  1
  Ni  Ni167  1  0.39411092  0.67588077  0.72094944  1
  Ni  Ni168  1  0.63948517  0.26793700  0.76487146  1
  Ni  Ni169  1  0.21110014  0.96162631  0.13841703  1
  Ni  Ni170  1  0.96089506  0.10754655  0.31491326  1
  Ni  Ni171  1  0.57891971  0.48327083  0.97326626  1
  Ni  Ni172  1  0.57887021  0.64302134  0.69237538  1
  Ni  Ni173  1  0.38744854  0.94905121  0.94734941  1
  Ni  Ni174  1  0.44651720  0.51549756  0.74948986  1
  Ni  Ni175  1  0.00179414  0.27441432  0.26282341  1
  Ni  Ni176  1  0.18767268  0.72191561  1.00304606  1
  Ni  Ni177  1  0.93508382  0.66068867  0.21417666  1
  Ni  Ni178  1  0.74615614  0.02010921  0.74306842  1
  Ni  Ni179  1  0.60528623  0.95420533  0.80688186  1
  Ni  Ni180  1  0.75457233  0.27046232  0.32265935  1
  Ni  Ni181  1  0.13792062  0.10542254  0.14447546  1
  Ni  Ni182  1  0.29791166  0.90393438  0.45853119  1
  Ni  Ni183  1  0.12818760  0.67908224  0.62089864  1
  Ni  Ni184  1  0.55608315  0.91939648  0.48643506  1
  Ni  Ni185  1  0.58457642  0.24018170  0.60816479  1
  Ni  Ni186  1  0.93998040  0.65977524  0.04456500  1
  Ni  Ni187  1  0.19242233  0.57704873  0.09471989  1
  Ni  Ni188  1  0.79448038  0.06179985  0.05221836  1
  Ni  Ni189  1  0.66207945  0.80564238  0.23050835  1
  Ni  Ni190  1  0.47605817  0.25003187  0.73950092  1
  Ni  Ni191  1  0.96745580  0.42492730  0.32325551  1
  Ni  Ni192  1  0.08834353  0.72295464  0.47219565  1
  Ni  Ni193  1  0.68318303  0.75471229  0.05927385  1
  Ni  Ni194  1  0.15146547  0.58738595  0.75822644  1
  Ni  Ni195  1  0.31270921  0.18423701  0.93261875  1
  Ni  Ni196  1  0.09976797  0.32631910  0.95552364  1
  Ni  Ni197  1  0.25711546  0.72710697  0.49431307  1
  Ni  Ni198  1  0.38281314  0.37018471  0.81525872  1
  Ni  Ni199  1  0.89733611  0.93000769  0.02270461  1
  Ni  Ni200  1  0.52154940  0.09009574  0.89898143  1
  Ni  Ni201  1  0.79340991  0.57473711  0.48088909  1
  Ni  Ni202  1  0.57241118  0.86647527  0.08653672  1
  Ni  Ni203  1  0.40693891  0.69342875  0.13965002  1
  Ni  Ni204  1  0.50682989  0.63832814  0.01117219  1
  Ni  Ni205  1  0.84062314  0.74805827  0.73880963  1
  Ni  Ni206  1  1.00085368  0.79509374  0.60094758  1
  Ni  Ni207  1  0.69425207  0.06039830  0.19368902  1
  Ni  Ni208  1  0.10535641  0.85240596  0.71459780  1
  Ni  Ni209  1  0.57766455  0.76725102  0.93010207  1
  Ni  Ni210  1  0.69271814  0.40054584  0.24283465  1
  Ni  Ni211  1  0.81842041  0.75195659  0.49441020  1
  Ni  Ni212  1  0.72507245  0.35541019  0.04803741  1
  Ni  Ni213  1  0.05120188  -0.00196309  0.40844643  1
  Ni  Ni214  1  0.67846397  0.89096286  0.95204231  1
  Ni  Ni215  1  0.40888483  0.47886828  0.58771246  1
