# generated using pymatgen
data_Ti2CoNi
_symmetry_space_group_name_H-M   'P 1'
_cell_length_a   14.58856545
_cell_length_b   14.66551081
_cell_length_c   14.71429715
_cell_angle_alpha   89.83695993
_cell_angle_beta   89.84132099
_cell_angle_gamma   89.80791825
_symmetry_Int_Tables_number   1
_chemical_formula_structural   Ti2CoNi
_chemical_formula_sum   'Ti108 Co54 Ni54'
_cell_volume   3148.06326749
_cell_formula_units_Z   54
loop_
 _symmetry_equiv_pos_site_id
 _symmetry_equiv_pos_as_xyz
  1  'x, y, z'
loop_
 _atom_site_type_symbol
 _atom_site_label
 _atom_site_symmetry_multiplicity
 _atom_site_fract_x
 _atom_site_fract_y
 _atom_site_fract_z
 _atom_site_occupancy
  Ti  Ti0  1  0.04036650  -0.03242133  0.00877746  1
  Ti  Ti1  1  0.00911569  -0.06255956  0.28890882  1
  Ti  Ti2  1  0.01684756  0.04020694  0.64630552  1
  Ti  Ti3  1  -0.04467212  0.28599737  -0.01274098  1
  Ti  Ti4  1  0.00874319  0.39658058  0.34304642  1
  Ti  Ti5  1  -0.08774258  0.30526345  0.67003616  1
  Ti  Ti6  1  -0.00299914  0.62869282  -0.00858266  1
  Ti  Ti7  1  -0.03575853  0.62221709  0.32304772  1
  Ti  Ti8  1  -0.12932364  0.70142088  0.67311550  1
  Ti  Ti9  1  0.37422525  0.00954782  -0.05316755  1
  Ti  Ti10  1  0.32767444  0.01563323  0.38783459  1
  Ti  Ti11  1  0.29432964  0.04600131  0.63116120  1
  Ti  Ti12  1  0.26448405  0.30959107  0.02360194  1
  Ti  Ti13  1  0.31777260  0.29296122  0.31955069  1
  Ti  Ti14  1  0.30128445  0.40221165  0.66070312  1
  Ti  Ti15  1  0.42465064  0.69234673  0.01969885  1
  Ti  Ti16  1  0.35730671  0.73538979  0.35176256  1
  Ti  Ti17  1  0.30027151  0.64998649  0.59094015  1
  Ti  Ti18  1  0.67234061  -0.01639390  0.01129945  1
  Ti  Ti19  1  0.69281020  0.06781867  0.34128732  1
  Ti  Ti20  1  0.59283798  -0.06889962  0.67176626  1
  Ti  Ti21  1  0.60797518  0.30241807  -0.09517927  1
  Ti  Ti22  1  0.67014877  0.28122830  0.27245783  1
  Ti  Ti23  1  0.70527621  0.31020352  0.72976983  1
  Ti  Ti24  1  0.62908046  0.60490250  -0.06911739  1
  Ti  Ti25  1  0.56487936  0.64487128  0.38797176  1
  Ti  Ti26  1  0.66282006  0.72698327  0.73135643  1
  Ti  Ti27  1  -0.03673401  0.22901995  0.22995381  1
  Ti  Ti28  1  0.02351295  0.23668897  0.46072888  1
  Ti  Ti29  1  0.01012887  0.16204754  0.82455487  1
  Ti  Ti30  1  -0.05841187  0.50549150  0.17311940  1
  Ti  Ti31  1  0.04144503  0.52819742  0.49320050  1
  Ti  Ti32  1  -0.01325101  0.46825290  0.87550117  1
  Ti  Ti33  1  0.03581219  0.77424432  0.15249419  1
  Ti  Ti34  1  0.00651005  0.71991684  0.51181944  1
  Ti  Ti35  1  0.01131222  0.83903613  0.85762753  1
  Ti  Ti36  1  0.42420323  0.21547190  0.14658434  1
  Ti  Ti37  1  0.35677647  0.18894089  0.49221778  1
  Ti  Ti38  1  0.38619533  0.17244872  0.78582917  1
  Ti  Ti39  1  0.32427257  0.54578504  0.14485098  1
  Ti  Ti40  1  0.31876732  0.50022892  0.44648244  1
  Ti  Ti41  1  0.29390763  0.48671019  0.84006213  1
  Ti  Ti42  1  0.25287066  0.82370739  0.15587023  1
  Ti  Ti43  1  0.29345996  0.84079667  0.61330735  1
  Ti  Ti44  1  0.31855802  0.84830651  0.79307616  1
  Ti  Ti45  1  0.60347783  0.12377299  0.16595911  1
  Ti  Ti46  1  0.61818298  0.19211845  0.52034158  1
  Ti  Ti47  1  0.71994795  0.11750889  0.84033256  1
  Ti  Ti48  1  0.62908693  0.56928450  0.14942159  1
  Ti  Ti49  1  0.69834462  0.51220545  0.49417501  1
  Ti  Ti50  1  0.71425462  0.51473882  0.77834334  1
  Ti  Ti51  1  0.72065562  0.85866247  0.25903352  1
  Ti  Ti52  1  0.72820866  0.91390732  0.47481471  1
  Ti  Ti53  1  0.65370444  0.87305454  0.86761026  1
  Ti  Ti54  1  0.22582362  0.03221173  0.19463153  1
  Ti  Ti55  1  0.15874767  -0.05007878  0.51582837  1
  Ti  Ti56  1  0.20863700  0.05790803  0.86145229  1
  Ti  Ti57  1  0.19539823  0.38974293  0.18790104  1
  Ti  Ti58  1  0.15739900  0.37406969  0.51931154  1
  Ti  Ti59  1  0.20371457  0.26574301  0.78594957  1
  Ti  Ti60  1  0.18864311  0.66501683  0.05305114  1
  Ti  Ti61  1  0.17303964  0.64241458  0.42162360  1
  Ti  Ti62  1  0.16420317  0.70846720  0.85963231  1
  Ti  Ti63  1  0.42011939  -0.01396965  0.13527207  1
  Ti  Ti64  1  0.46620679  -0.07703278  0.50443376  1
  Ti  Ti65  1  0.53985939  0.04579485  0.83634962  1
  Ti  Ti66  1  0.55379881  0.38820786  0.12045257  1
  Ti  Ti67  1  0.44981745  0.35454689  0.53175884  1
  Ti  Ti68  1  0.46723905  0.34565832  0.76997616  1
  Ti  Ti69  1  0.46621235  0.65398617  0.20880688  1
  Ti  Ti70  1  0.53612961  0.62719462  0.58195865  1
  Ti  Ti71  1  0.48753075  0.73782819  0.84883315  1
  Ti  Ti72  1  0.79774480  0.01967702  0.15734331  1
  Ti  Ti73  1  0.90671701  -0.02544533  0.46073721  1
  Ti  Ti74  1  0.87158436  -0.02243121  0.79575655  1
  Ti  Ti75  1  0.74278168  0.30742602  0.09401726  1
  Ti  Ti76  1  0.83466081  0.33544494  0.48742798  1
  Ti  Ti77  1  0.78933523  0.38928763  0.92456300  1
  Ti  Ti78  1  0.79066414  0.65977069  0.23927543  1
  Ti  Ti79  1  0.75023892  0.69802353  0.51767257  1
  Ti  Ti80  1  0.88126967  0.69962130  0.86937145  1
  Ti  Ti81  1  0.11282942  0.20005188  0.09781658  1
  Ti  Ti82  1  0.10650499  0.11733148  0.32056260  1
  Ti  Ti83  1  0.18695918  0.19555095  0.58627693  1
  Ti  Ti84  1  0.11198545  0.47378356  0.03668347  1
  Ti  Ti85  1  0.13244708  0.54343406  0.26789532  1
  Ti  Ti86  1  0.10672358  0.45472075  0.71808899  1
  Ti  Ti87  1  0.30309264  0.82974764  -0.02457116  1
  Ti  Ti88  1  0.18393510  0.84723178  0.33222196  1
  Ti  Ti89  1  0.10716889  0.81080109  0.68212825  1
  Ti  Ti90  1  0.45119942  0.19173842  -0.03193556  1
  Ti  Ti91  1  0.50135351  0.18527423  0.33825757  1
  Ti  Ti92  1  0.48505595  0.08863081  0.63422723  1
  Ti  Ti93  1  0.44180060  0.42792086  -0.02965072  1
  Ti  Ti94  1  0.57173611  0.45836999  0.30676492  1
  Ti  Ti95  1  0.57525228  0.45595546  0.65436811  1
  Ti  Ti96  1  0.58086212  0.82481360  0.10484671  1
  Ti  Ti97  1  0.51113591  0.84009103  0.29008783  1
  Ti  Ti98  1  0.47488496  0.77798235  0.65615343  1
  Ti  Ti99  1  0.87140618  0.08686221  -0.03671928  1
  Ti  Ti100  1  0.87016929  0.14257864  0.37922407  1
  Ti  Ti101  1  0.84697725  0.13743099  0.70547984  1
  Ti  Ti102  1  0.79490649  0.54410380  0.05799626  1
  Ti  Ti103  1  0.83333161  0.47613850  0.33609863  1
  Ti  Ti104  1  0.85645370  0.50195045  0.61390666  1
  Ti  Ti105  1  0.81261621  0.82932373  0.08270807  1
  Ti  Ti106  1  0.87069671  0.78874522  0.38547215  1
  Ti  Ti107  1  0.76242953  0.87745222  0.65792071  1
  Co  Co108  1  0.11708656  0.91555545  0.15707130  1
  Co  Co109  1  0.94024950  0.85209300  0.70929974  1
  Co  Co110  1  0.28389003  0.17612895  0.93345170  1
  Co  Co111  1  0.42663852  0.50472808  0.73351294  1
  Co  Co112  1  0.72925614  0.13723143  0.06597889  1
  Co  Co113  1  0.72506321  0.44565600  0.20731011  1
  Co  Co114  1  0.78404376  0.17689266  0.22635014  1
  Co  Co115  1  0.95410669  0.80036997  1.00158889  1
  Co  Co116  1  0.02854028  0.32383382  0.81451417  1
  Co  Co117  1  0.31156190  0.11252912  0.07839609  1
  Co  Co118  1  0.13584459  0.55352575  0.88646336  1
  Co  Co119  1  0.05598958  0.61398512  0.14643194  1
  Co  Co120  1  0.43807158  0.55717952  0.34281471  1
  Co  Co121  1  0.83585297  0.95402123  0.31265312  1
  Co  Co122  1  0.53967253  0.48575036  0.47314733  1
  Co  Co123  1  0.28949830  0.60475942  0.30389831  1
  Co  Co124  1  0.41974344  0.93356072  0.65906865  1
  Co  Co125  1  0.03676957  0.06015134  0.45926618  1
  Co  Co126  1  0.70308891  0.59465835  0.64057255  1
  Co  Co127  1  0.41385507  0.51687106  0.58064344  1
  Co  Co128  1  0.55852905  0.60901739  0.75475621  1
  Co  Co129  1  0.58323643  0.24682571  0.06218714  1
  Co  Co130  1  0.32088300  0.68654519  0.87419453  1
  Co  Co131  1  0.94185785  0.93226331  0.13675636  1
  Co  Co132  1  0.32087837  0.45320814  0.28009393  1
  Co  Co133  1  0.88438323  0.18420394  0.09271920  1
  Co  Co134  1  0.38726405  0.66023006  0.72954328  1
  Co  Co135  1  0.01536256  0.89809044  0.57659231  1
  Co  Co136  1  0.22849003  0.58585047  0.73482683  1
  Co  Co137  1  1.04461479  0.86269692  0.42844654  1
  Co  Co138  1  0.37071879  0.01467018  0.78294683  1
  Co  Co139  1  0.89230755  0.67812895  0.11089870  1
  Co  Co140  1  0.56784005  0.31689924  0.41412053  1
  Co  Co141  1  0.89554866  0.79745627  0.23457595  1
  Co  Co142  1  0.12801214  0.81227914  0.00979504  1
  Co  Co143  1  0.70928217  0.38648473  0.38879023  1
  Co  Co144  1  0.84715806  0.30020051  0.33179490  1
  Co  Co145  1  0.49306384  0.31980812  0.25263727  1
  Co  Co146  1  0.05349203  0.74060445  0.32855636  1
  Co  Co147  1  0.44612083  0.57544314  0.88252209  1
  Co  Co148  1  0.86177197  0.99065326  0.61487173  1
  Co  Co149  1  0.56386984  0.45881346  0.83787640  1
  Co  Co150  1  0.76325271  0.23137701  0.94745162  1
  Co  Co151  1  0.18336335  0.70096983  0.23554902  1
  Co  Co152  1  0.60227073  0.75595490  0.96705691  1
  Co  Co153  1  0.92451008  0.07204444  0.24108021  1
  Co  Co154  1  0.92671500  0.44180128  1.02675651  1
  Co  Co155  1  0.18150779  0.42564545  0.36824685  1
  Co  Co156  1  0.33815773  0.24125778  0.64652238  1
  Co  Co157  1  0.49729340  0.55498107  0.05202724  1
  Co  Co158  1  0.69632437  0.56724916  0.33025119  1
  Co  Co159  1  0.60681377  0.12468683  0.96138864  1
  Co  Co160  1  0.05507111  0.06532845  0.15498977  1
  Co  Co161  1  0.43208305  0.39319858  0.37783395  1
  Ni  Ni162  1  0.34682149  0.31742743  0.87927724  1
  Ni  Ni163  1  0.85263946  0.41560909  0.77288997  1
  Ni  Ni164  1  0.59563517  0.17932711  0.74567368  1
  Ni  Ni165  1  0.71134228  0.69885483  0.08406539  1
  Ni  Ni166  1  0.82610843  0.54881370  0.89663978  1
  Ni  Ni167  1  0.03414972  0.35893379  0.14365524  1
  Ni  Ni168  1  0.87381280  0.82327468  0.54951840  1
  Ni  Ni169  1  0.36842442  0.37684384  0.14272756  1
  Ni  Ni170  1  0.16088328  0.38864106  0.89451806  1
  Ni  Ni171  1  0.64323800  0.45233617  -0.00555004  1
  Ni  Ni172  1  0.87939292  0.59861343  0.47051116  1
  Ni  Ni173  1  0.91433811  0.14918678  0.54968095  1
  Ni  Ni174  1  0.47803970  0.07676327  0.45254115  1
  Ni  Ni175  1  0.65790550  0.35333116  0.55310965  1
  Ni  Ni176  1  0.87033511  0.35640128  0.17703626  1
  Ni  Ni177  1  0.19637238  0.25127524  0.41947712  1
  Ni  Ni178  1  0.83774882  0.91716618  0.94391742  1
  Ni  Ni179  1  0.76570205  0.08463222  0.50413159  1
  Ni  Ni180  1  0.35072672  0.89923110  0.27395359  1
  Ni  Ni181  1  0.11745880  0.28222939  0.28180676  1
  Ni  Ni182  1  0.62782206  0.71371422  0.24052117  1
  Ni  Ni183  1  0.11868150  0.22862196  0.93174358  1
  Ni  Ni184  1  0.76665838  0.22820404  0.59194283  1
  Ni  Ni185  1  0.98919392  0.38326143  0.54539571  1
  Ni  Ni186  1  0.35329936  0.12213419  0.26330907  1
  Ni  Ni187  1  0.86902192  0.25967972  0.83207833  1
  Ni  Ni188  1  0.02416995  0.68413296  0.76485195  1
  Ni  Ni189  1  0.18189012  0.95447239  0.71608728  1
  Ni  Ni190  1  0.07506971  0.28042314  0.66498838  1
  Ni  Ni191  1  0.25124559  0.22545308  0.18342747  1
  Ni  Ni192  1  0.30176632  0.56193143  -0.01744136  1
  Ni  Ni193  1  0.17318228  0.89603692  0.87662757  1
  Ni  Ni194  1  0.91721602  0.56274869  0.75403530  1
  Ni  Ni195  1  0.21882615  0.96730542  0.03259295  1
  Ni  Ni196  1  0.20371606  0.09533815  0.45947974  1
  Ni  Ni197  1  0.61224666  0.02408413  0.52515773  1
  Ni  Ni198  1  0.11970434  0.65170711  0.61756048  1
  Ni  Ni199  1  0.79990074  0.81959919  0.80520043  1
  Ni  Ni200  1  0.41612240  0.81143241  0.14326188  1
  Ni  Ni201  1  0.61261325  0.96353583  0.19595896  1
  Ni  Ni202  1  0.31171853  0.85882764  0.45046445  1
  Ni  Ni203  1  0.70032007  0.06185840  0.66343765  1
  Ni  Ni204  1  0.19914354  0.51689294  0.58372071  1
  Ni  Ni205  1  0.62203534  0.79656266  0.56135811  1
  Ni  Ni206  1  0.48357701  0.02082837  0.28386948  1
  Ni  Ni207  1  0.48953454  0.89339402  0.80038069  1
  Ni  Ni208  1  0.17262085  0.77786777  0.51357082  1
  Ni  Ni209  1  0.59190088  0.94433373  0.38125987  1
  Ni  Ni210  1  0.47926926  0.87614516  0.97231668  1
  Ni  Ni211  1  0.49067703  0.77095165  0.46260533  1
  Ni  Ni212  1  0.13993507  0.11598214  0.72259909  1
  Ni  Ni213  1  1.04685046  -0.00140776  0.81474072  1
  Ni  Ni214  1  0.50296249  0.25117585  0.64041801  1
  Ni  Ni215  1  0.66378693  0.77968528  0.39318653  1
