# generated using pymatgen
data_Ti2CoNi
_symmetry_space_group_name_H-M   'P 1'
_cell_length_a   14.60411516
_cell_length_b   14.54338732
_cell_length_c   14.59965218
_cell_angle_alpha   90.24388005
_cell_angle_beta   89.78196149
_cell_angle_gamma   89.85734368
_symmetry_Int_Tables_number   1
_chemical_formula_structural   Ti2CoNi
_chemical_formula_sum   'Ti108 Co54 Ni54'
_cell_volume   3100.80807224
_cell_formula_units_Z   54
loop_
 _symmetry_equiv_pos_site_id
 _symmetry_equiv_pos_as_xyz
  1  'x, y, z'
loop_
 _atom_site_type_symbol
 _atom_site_label
 _atom_site_symmetry_multiplicity
 _atom_site_fract_x
 _atom_site_fract_y
 _atom_site_fract_z
 _atom_site_occupancy
  Ti  Ti0  1  0.05926197  0.00543149  0.10082802  1
  Ti  Ti1  1  -0.03988536  0.07157468  0.32254260  1
  Ti  Ti2  1  0.02368230  -0.01194252  0.67222503  1
  Ti  Ti3  1  0.02218620  0.34713744  -0.05894268  1
  Ti  Ti4  1  0.07258920  0.33976159  0.30639686  1
  Ti  Ti5  1  -0.03923937  0.27972703  0.65609846  1
  Ti  Ti6  1  0.04847721  0.71012827  -0.04019067  1
  Ti  Ti7  1  -0.02255035  0.61413913  0.41805741  1
  Ti  Ti8  1  0.05889606  0.63649416  0.71656520  1
  Ti  Ti9  1  0.25568337  0.00567106  -0.02456959  1
  Ti  Ti10  1  0.38178630  -0.01547734  0.29026444  1
  Ti  Ti11  1  0.39328126  -0.02579372  0.63125347  1
  Ti  Ti12  1  0.38731671  0.34565704  0.00698718  1
  Ti  Ti13  1  0.28558234  0.37950064  0.30572637  1
  Ti  Ti14  1  0.33392019  0.36036704  0.64163791  1
  Ti  Ti15  1  0.35857003  0.61553446  -0.00389088  1
  Ti  Ti16  1  0.37520722  0.61414086  0.31286686  1
  Ti  Ti17  1  0.24789962  0.66845425  0.62835221  1
  Ti  Ti18  1  0.65946778  -0.02075337  -0.02847745  1
  Ti  Ti19  1  0.67811073  -0.04904802  0.33091663  1
  Ti  Ti20  1  0.59210782  0.00649252  0.65794447  1
  Ti  Ti21  1  0.62839581  0.34153175  0.00822507  1
  Ti  Ti22  1  0.74943116  0.36702046  0.30899067  1
  Ti  Ti23  1  0.67948664  0.32432542  0.69530774  1
  Ti  Ti24  1  0.72274337  0.63877223  0.00692482  1
  Ti  Ti25  1  0.62572745  0.68373541  0.41487951  1
  Ti  Ti26  1  0.63264462  0.66149523  0.60933651  1
  Ti  Ti27  1  0.02003287  0.18657747  0.19196081  1
  Ti  Ti28  1  -0.03385884  0.11002861  0.52083472  1
  Ti  Ti29  1  -0.08580712  0.17772345  0.85092889  1
  Ti  Ti30  1  -0.00093725  0.49231893  0.21700243  1
  Ti  Ti31  1  0.02430334  0.46698826  0.59408067  1
  Ti  Ti32  1  0.09708356  0.52325510  0.88486776  1
  Ti  Ti33  1  -0.01933300  0.80411476  0.16191879  1
  Ti  Ti34  1  -0.09039384  0.80284046  0.51418663  1
  Ti  Ti35  1  -0.03372951  0.85953982  0.84488559  1
  Ti  Ti36  1  0.34737606  0.16688245  0.23580984  1
  Ti  Ti37  1  0.38881601  0.15124717  0.45799419  1
  Ti  Ti38  1  0.36966413  0.26052226  0.83445281  1
  Ti  Ti39  1  0.35272130  0.49187200  0.15737456  1
  Ti  Ti40  1  0.33805335  0.49818822  0.47592158  1
  Ti  Ti41  1  0.30940887  0.48241053  0.86918370  1
  Ti  Ti42  1  0.30413050  0.82453062  0.20036926  1
  Ti  Ti43  1  0.34473767  0.82817913  0.46052399  1
  Ti  Ti44  1  0.31937303  0.85961434  0.79127968  1
  Ti  Ti45  1  0.68130013  0.15487444  0.07422700  1
  Ti  Ti46  1  0.68717246  0.22390523  0.49482371  1
  Ti  Ti47  1  0.66955997  0.18513253  0.86531576  1
  Ti  Ti48  1  0.67015153  0.51876381  0.17222451  1
  Ti  Ti49  1  0.61986258  0.50990343  0.48936224  1
  Ti  Ti50  1  0.65167780  0.51564044  0.84626919  1
  Ti  Ti51  1  0.68308007  0.79027606  0.23219667  1
  Ti  Ti52  1  0.71281283  0.83782127  0.52276100  1
  Ti  Ti53  1  0.63840448  0.84870076  0.83634049  1
  Ti  Ti54  1  0.17814334  0.03847533  0.23898283  1
  Ti  Ti55  1  0.19125593  0.01349782  0.53255588  1
  Ti  Ti56  1  0.14110764  -0.04422492  0.83428453  1
  Ti  Ti57  1  0.12746503  0.30605776  0.10288541  1
  Ti  Ti58  1  0.18127856  0.38446631  0.48883313  1
  Ti  Ti59  1  0.19606013  0.33279427  0.81539010  1
  Ti  Ti60  1  0.12729442  0.62724698  0.15633776  1
  Ti  Ti61  1  0.10849460  0.71630432  0.48746376  1
  Ti  Ti62  1  0.23060519  0.66821679  0.83008033  1
  Ti  Ti63  1  0.51059375  0.05924032  0.14150429  1
  Ti  Ti64  1  0.51678335  -0.01635858  0.45331201  1
  Ti  Ti65  1  0.47908901  0.01027910  0.85154228  1
  Ti  Ti66  1  0.45022666  0.31794567  0.18901051  1
  Ti  Ti67  1  0.51683962  0.30210917  0.50871303  1
  Ti  Ti68  1  0.53591771  0.35372458  0.80188023  1
  Ti  Ti69  1  0.45809143  0.67982527  0.15198249  1
  Ti  Ti70  1  0.44911023  0.64949669  0.56008789  1
  Ti  Ti71  1  0.49397612  0.72686812  0.75881187  1
  Ti  Ti72  1  0.75652811  -0.01113662  0.13921380  1
  Ti  Ti73  1  0.77968123  0.01424088  0.49578429  1
  Ti  Ti74  1  0.85066142  -0.00663047  0.79338031  1
  Ti  Ti75  1  0.81830089  0.33530835  0.10782331  1
  Ti  Ti76  1  0.87713550  0.34693220  0.46524622  1
  Ti  Ti77  1  0.80263847  0.36948650  0.90429162  1
  Ti  Ti78  1  0.82269795  0.67413053  0.14854456  1
  Ti  Ti79  1  0.79204756  0.63419916  0.51275509  1
  Ti  Ti80  1  0.80577638  0.71213243  0.86057947  1
  Ti  Ti81  1  0.11128798  0.15623919  -0.04123061  1
  Ti  Ti82  1  0.11947677  0.17603020  0.41186615  1
  Ti  Ti83  1  0.13860089  0.15343224  0.66925679  1
  Ti  Ti84  1  0.21706282  0.45236396  0.02761149  1
  Ti  Ti85  1  0.18115418  0.54743107  0.35118098  1
  Ti  Ti86  1  0.20852550  0.49455417  0.69682158  1
  Ti  Ti87  1  0.23087596  0.80549373  -0.03453327  1
  Ti  Ti88  1  0.13028685  0.83467243  0.28475871  1
  Ti  Ti89  1  0.16114927  0.83708043  0.65589434  1
  Ti  Ti90  1  0.38684019  0.14371347  -0.00004114  1
  Ti  Ti91  1  0.59059913  0.22741555  0.30537726  1
  Ti  Ti92  1  0.44694022  0.19760336  0.65344830  1
  Ti  Ti93  1  0.54539575  0.56322743  0.01942073  1
  Ti  Ti94  1  0.47733677  0.42500187  0.34506474  1
  Ti  Ti95  1  0.51916468  0.44666927  0.62380393  1
  Ti  Ti96  1  0.52419803  0.80951188  0.01336077  1
  Ti  Ti97  1  0.49514813  0.83119612  0.26882921  1
  Ti  Ti98  1  0.51565213  0.82367387  0.56385764  1
  Ti  Ti99  1  0.90955348  0.14410477  0.04852209  1
  Ti  Ti100  1  0.79558469  0.16316538  0.35401754  1
  Ti  Ti101  1  0.81404623  0.11245311  0.65913889  1
  Ti  Ti102  1  0.91224967  0.50548026  0.01405066  1
  Ti  Ti103  1  0.83628748  0.53846038  0.32078790  1
  Ti  Ti104  1  0.84588342  0.58164594  0.70037547  1
  Ti  Ti105  1  0.89180919  0.92622251  0.01600267  1
  Ti  Ti106  1  0.85633971  0.88695875  0.30987125  1
  Ti  Ti107  1  0.81535334  0.80286029  0.69519184  1
  Co  Co108  1  0.14065820  0.32373120  0.64337814  1
  Co  Co109  1  0.01561188  0.93101938  0.28081854  1
  Co  Co110  1  0.71482855  0.63425337  0.27906107  1
  Co  Co111  1  0.79252832  0.44120705  0.76670914  1
  Co  Co112  1  0.51582356  0.41960432  0.08092394  1
  Co  Co113  1  0.80052159  0.05655708  -0.05614355  1
  Co  Co114  1  0.36174967  0.63086984  0.75721449  1
  Co  Co115  1  0.48760173  0.56889541  0.41937157  1
  Co  Co116  1  0.26410996  0.25025059  0.38322414  1
  Co  Co117  1  0.93015597  0.35425031  0.80414545  1
  Co  Co118  1  0.43927316  0.89759704  0.12966041  1
  Co  Co119  1  0.04108167  0.89391667  0.53943908  1
  Co  Co120  1  0.36670576  0.09455821  0.76400973  1
  Co  Co121  1  0.34609458  0.99282769  0.46984664  1
  Co  Co122  1  0.93407890  0.96238028  0.44542665  1
  Co  Co123  1  0.91757665  0.98587414  0.17183296  1
  Co  Co124  1  -0.02159376  0.78861963  0.36632464  1
  Co  Co125  1  0.94935439  0.51721516  0.81968363  1
  Co  Co126  1  0.82325313  0.84092357  0.14207931  1
  Co  Co127  1  0.06637484  0.48610258  0.06320280  1
  Co  Co128  1  0.81042903  0.25416231  0.58830229  1
  Co  Co129  1  0.97697950  0.63408065  0.08927671  1
  Co  Co130  1  0.30984465  0.10640793  0.60597685  1
  Co  Co131  1  0.46800012  0.59647012  0.87694353  1
  Co  Co132  1  0.81446032  0.55029734  0.89074245  1
  Co  Co133  1  0.97706059  0.34909982  0.11610625  1
  Co  Co134  1  0.68399887  0.51049764  0.66596216  1
  Co  Co135  1  0.52099066  0.21927141  0.09000801  1
  Co  Co136  1  0.51044029  0.25429816  0.93302162  1
  Co  Co137  1  0.84136160  0.41213823  0.62275696  1
  Co  Co138  1  0.09574312  0.00307763  0.40477725  1
  Co  Co139  1  0.80837045  0.25419241  0.75658344  1
  Co  Co140  1  0.68990871  0.37569601  0.55090870  1
  Co  Co141  1  0.36151935  0.77816616  0.05330170  1
  Co  Co142  1  0.74165390  0.94951508  0.65814660  1
  Co  Co143  1  0.13175438  0.77755426  0.10085187  1
  Co  Co144  1  0.41008451  0.44936713  0.76271438  1
  Co  Co145  1  0.45475017  0.72666346  0.40260648  1
  Co  Co146  1  0.62393790  0.68338179  0.13245440  1
  Co  Co147  1  0.38840702  0.74515185  0.89160935  1
  Co  Co148  1  0.89079577  -0.05635884  0.60656032  1
  Co  Co149  1  0.99163547  0.81374702  0.68538095  1
  Co  Co150  1  0.36130825  0.33865076  0.47921270  1
  Co  Co151  1  0.25359649  0.08984616  0.37331277  1
  Co  Co152  1  0.61994502  0.36730963  0.39899585  1
  Co  Co153  1  0.89771261  0.51111000  0.50853894  1
  Co  Co154  1  0.43572501  0.26056421  0.34603879  1
  Co  Co155  1  0.76218911  0.46670375  0.44147231  1
  Co  Co156  1  0.55110721  0.64902748  0.27942263  1
  Co  Co157  1  0.54929666  0.10109818  0.97150636  1
  Co  Co158  1  0.47917389  0.44231798  0.92142790  1
  Co  Co159  1  0.27600035  0.22650475  0.70550307  1
  Co  Co160  1  0.50557544  0.51156398  0.20960579  1
  Co  Co161  1  0.38594229  0.90784716  0.94775588  1
  Ni  Ni162  1  0.53717735  0.56808817  0.73304492  1
  Ni  Ni163  1  0.23283708  0.23057274  0.54028584  1
  Ni  Ni164  1  0.95739709  0.22787100  0.37694890  1
  Ni  Ni165  1  0.36233995  0.53165821  0.63296784  1
  Ni  Ni166  1  0.61225486  0.36608289  0.20508970  1
  Ni  Ni167  1  0.03516048  0.45555925  0.41392876  1
  Ni  Ni168  1  0.52120283  0.16525145  0.79304815  1
  Ni  Ni169  1  0.24466795  0.72374373  0.33036060  1
  Ni  Ni170  1  0.70034032  0.81372291  0.03084673  1
  Ni  Ni171  1  0.33219417  0.02945812  0.12753816  1
  Ni  Ni172  1  0.55073456  0.12496521  0.54229424  1
  Ni  Ni173  1  0.68472073  0.03824121  0.79198379  1
  Ni  Ni174  1  0.72686605  0.23770791  0.20854435  1
  Ni  Ni175  1  0.28516505  0.31916942  0.14395783  1
  Ni  Ni176  1  0.95745826  0.65641801  0.58826561  1
  Ni  Ni177  1  0.06046215  0.25107056  0.79385012  1
  Ni  Ni178  1  0.98511715  0.03357944  0.93554195  1
  Ni  Ni179  1  0.60293803  0.92204843  0.15742659  1
  Ni  Ni180  1  0.08955407  0.67575975  0.31083171  1
  Ni  Ni181  1  0.08335826  0.89094916  0.97944624  1
  Ni  Ni182  1  0.03932096  0.29938905  0.50373788  1
  Ni  Ni183  1  0.06391375  0.42245583  0.75270885  1
  Ni  Ni184  1  0.20393730  0.91973077  0.10995585  1
  Ni  Ni185  1  0.60569423  0.69550808  0.90496069  1
  Ni  Ni186  1  0.11053442  0.78334282  0.81108537  1
  Ni  Ni187  1  0.88866121  0.75585306  0.99982295  1
  Ni  Ni188  1  0.90443122  0.33077743  0.26122926  1
  Ni  Ni189  1  0.50313470  0.08791272  0.31530579  1
  Ni  Ni190  1  0.24461618  0.92653880  0.35359319  1
  Ni  Ni191  1  0.94272163  0.65724892  0.25549670  1
  Ni  Ni192  1  0.68298241  0.66819106  0.76068866  1
  Ni  Ni193  1  0.64079688  0.09314785  0.40575370  1
  Ni  Ni194  1  0.15627633  0.55464866  0.52461322  1
  Ni  Ni195  1  0.23776404  0.27749781  0.96570653  1
  Ni  Ni196  1  0.18506121  0.85163036  0.48022651  1
  Ni  Ni197  1  0.29183776  0.66212767  0.47034553  1
  Ni  Ni198  1  0.19432410  0.61891379  0.99506400  1
  Ni  Ni199  1  0.22009197  0.12578707  0.83487286  1
  Ni  Ni200  1  0.78993640  0.75055751  0.38600281  1
  Ni  Ni201  1  0.84332710  0.12855744  0.19952205  1
  Ni  Ni202  1  0.22732469  0.15558375  0.08791012  1
  Ni  Ni203  1  0.49209456  0.88796043  0.73645500  1
  Ni  Ni204  1  0.28524821  0.65455250  0.16354210  1
  Ni  Ni205  1  0.63852568  0.81797448  0.67747616  1
  Ni  Ni206  1  0.17214672  0.45164437  0.19841078  1
  Ni  Ni207  1  0.73724416  0.47182575  0.02184515  1
  Ni  Ni208  1  0.65985415  0.08445340  0.23633683  1
  Ni  Ni209  1  0.23459994  0.99269843  0.70287158  1
  Ni  Ni210  1  0.36344025  0.79257877  0.64237108  1
  Ni  Ni211  1  0.04973785  0.08952246  0.80287562  1
  Ni  Ni212  1  0.79141610  0.87654846  0.89714440  1
  Ni  Ni213  1  0.79043430  0.22366657  0.97036691  1
  Ni  Ni214  1  0.58650238  0.83801900  0.40534519  1
  Ni  Ni215  1  0.18358734  0.21394388  0.24482499  1
