# generated using pymatgen
data_Ti2CoNi
_symmetry_space_group_name_H-M   'P 1'
_cell_length_a   14.48629763
_cell_length_b   14.47262719
_cell_length_c   14.50500176
_cell_angle_alpha   89.54074927
_cell_angle_beta   89.82065918
_cell_angle_gamma   90.46417672
_symmetry_Int_Tables_number   1
_chemical_formula_structural   Ti2CoNi
_chemical_formula_sum   'Ti108 Co54 Ni54'
_cell_volume   3040.83001850
_cell_formula_units_Z   54
loop_
 _symmetry_equiv_pos_site_id
 _symmetry_equiv_pos_as_xyz
  1  'x, y, z'
loop_
 _atom_site_type_symbol
 _atom_site_label
 _atom_site_symmetry_multiplicity
 _atom_site_fract_x
 _atom_site_fract_y
 _atom_site_fract_z
 _atom_site_occupancy
  Ti  Ti0  1  -0.02337819  -0.04134602  -0.01431998  1
  Ti  Ti1  1  -0.09295270  -0.00302709  0.31485202  1
  Ti  Ti2  1  -0.05116169  0.09569411  0.69633044  1
  Ti  Ti3  1  -0.01558287  0.27462794  -0.04999057  1
  Ti  Ti4  1  -0.05292267  0.38788687  0.30875228  1
  Ti  Ti5  1  -0.11619654  0.31385855  0.66063302  1
  Ti  Ti6  1  -0.04194001  0.62452297  -0.01653572  1
  Ti  Ti7  1  -0.06092187  0.69993554  0.30740124  1
  Ti  Ti8  1  0.05257998  0.63675310  0.64435007  1
  Ti  Ti9  1  0.24381354  -0.07206516  -0.02836510  1
  Ti  Ti10  1  0.36030054  -0.03247449  0.39328541  1
  Ti  Ti11  1  0.28880050  0.03175612  0.64333212  1
  Ti  Ti12  1  0.34391148  0.37625844  -0.10761178  1
  Ti  Ti13  1  0.43967600  0.29630823  0.31869276  1
  Ti  Ti14  1  0.39638229  0.33420888  0.65075815  1
  Ti  Ti15  1  0.36335628  0.64765733  0.05174176  1
  Ti  Ti16  1  0.29925281  0.73148012  0.32569075  1
  Ti  Ti17  1  0.32991972  0.61629063  0.62964655  1
  Ti  Ti18  1  0.78638328  -0.00840103  0.01185174  1
  Ti  Ti19  1  0.67068745  0.02381807  0.36102470  1
  Ti  Ti20  1  0.69536525  -0.06778242  0.66389952  1
  Ti  Ti21  1  0.69186968  0.38077258  0.08301301  1
  Ti  Ti22  1  0.65648417  0.32586734  0.39523230  1
  Ti  Ti23  1  0.62053900  0.30994772  0.69461159  1
  Ti  Ti24  1  0.60925961  0.66581988  -0.01877616  1
  Ti  Ti25  1  0.70573937  0.68784452  0.30738289  1
  Ti  Ti26  1  0.75297104  0.65634877  0.65742060  1
  Ti  Ti27  1  0.07370319  0.08723561  0.20211372  1
  Ti  Ti28  1  0.06758774  0.16859236  0.52093725  1
  Ti  Ti29  1  0.03977255  0.11666973  0.85418306  1
  Ti  Ti30  1  0.00615541  0.46655869  0.08730737  1
  Ti  Ti31  1  0.06636170  0.50461354  0.46026910  1
  Ti  Ti32  1  0.00685505  0.43453616  0.86457741  1
  Ti  Ti33  1  0.00472619  0.86866317  0.20454281  1
  Ti  Ti34  1  0.09534223  0.82344014  0.55734046  1
  Ti  Ti35  1  -0.04169493  0.92416696  0.80733297  1
  Ti  Ti36  1  0.30577704  0.24682476  0.18690585  1
  Ti  Ti37  1  0.40998381  0.14917089  0.51876114  1
  Ti  Ti38  1  0.33547352  0.21703520  0.85210659  1
  Ti  Ti39  1  0.38263176  0.46113087  0.21299142  1
  Ti  Ti40  1  0.30893210  0.49413050  0.44029320  1
  Ti  Ti41  1  0.36786979  0.48851116  0.73354561  1
  Ti  Ti42  1  0.34472101  0.83800994  0.15154396  1
  Ti  Ti43  1  0.28727063  0.85510788  0.60453757  1
  Ti  Ti44  1  0.29233393  0.76009946  0.88275193  1
  Ti  Ti45  1  0.66031699  0.23436854  0.22806628  1
  Ti  Ti46  1  0.61532936  0.15533848  0.53710297  1
  Ti  Ti47  1  0.66167724  0.19565180  0.84400987  1
  Ti  Ti48  1  0.62259736  0.50341608  0.23789845  1
  Ti  Ti49  1  0.64884657  0.53974984  0.46448992  1
  Ti  Ti50  1  0.67440231  0.49773381  0.80539794  1
  Ti  Ti51  1  0.56596363  0.88183840  0.20186146  1
  Ti  Ti52  1  0.61425376  0.82127196  0.50804408  1
  Ti  Ti53  1  0.65450209  0.83229819  0.81860868  1
  Ti  Ti54  1  0.22244498  -0.03222723  0.15116317  1
  Ti  Ti55  1  0.16598127  -0.03081984  0.45662614  1
  Ti  Ti56  1  0.23247527  0.07334852  0.81233261  1
  Ti  Ti57  1  0.15492855  0.34781372  0.16330415  1
  Ti  Ti58  1  0.18207016  0.32695902  0.45752739  1
  Ti  Ti59  1  0.09910329  0.31330937  0.77028498  1
  Ti  Ti60  1  0.08480730  0.66617540  0.12093270  1
  Ti  Ti61  1  0.23396056  0.70958805  0.50904477  1
  Ti  Ti62  1  0.13236212  0.65595459  0.83328506  1
  Ti  Ti63  1  0.47048640  -0.01305153  0.06478512  1
  Ti  Ti64  1  0.46044218  -0.03764396  0.55119792  1
  Ti  Ti65  1  0.48445062  -0.06790495  0.84389108  1
  Ti  Ti66  1  0.46527888  0.32892659  0.07534565  1
  Ti  Ti67  1  0.50824598  0.29326578  0.50219147  1
  Ti  Ti68  1  0.54288996  0.33288527  0.90040133  1
  Ti  Ti69  1  0.49465445  0.62589727  0.18625636  1
  Ti  Ti70  1  0.45683495  0.63331726  0.48953797  1
  Ti  Ti71  1  0.45970605  0.64786754  0.78710947  1
  Ti  Ti72  1  0.88448446  0.09083167  0.13022721  1
  Ti  Ti73  1  0.90202537  -0.04583154  0.52686418  1
  Ti  Ti74  1  0.82365444  0.07350263  0.84035397  1
  Ti  Ti75  1  0.85601245  0.30762627  0.14412260  1
  Ti  Ti76  1  0.96488294  0.34428373  0.49220366  1
  Ti  Ti77  1  0.82438416  0.36793048  0.81670480  1
  Ti  Ti78  1  0.80733363  0.76231061  0.15503240  1
  Ti  Ti79  1  0.77503949  0.69941267  0.47025724  1
  Ti  Ti80  1  0.78022251  0.67291162  0.85573506  1
  Ti  Ti81  1  0.21569649  0.14813611  0.02442136  1
  Ti  Ti82  1  0.17554391  0.20633461  0.32432053  1
  Ti  Ti83  1  0.23841305  0.23145928  0.61492519  1
  Ti  Ti84  1  0.21353720  0.50772697  0.06659638  1
  Ti  Ti85  1  0.21903515  0.51921562  0.26847551  1
  Ti  Ti86  1  0.16144975  0.50835493  0.73124217  1
  Ti  Ti87  1  0.06717725  0.80552716  -0.07439699  1
  Ti  Ti88  1  0.10432652  0.77506137  0.35662020  1
  Ti  Ti89  1  0.11189100  0.96157677  0.70128449  1
  Ti  Ti90  1  0.50849928  0.11420999  -0.06808226  1
  Ti  Ti91  1  0.44512640  0.10471852  0.25334535  1
  Ti  Ti92  1  0.53664402  0.07606268  0.68435264  1
  Ti  Ti93  1  0.48938831  0.50900042  -0.07178844  1
  Ti  Ti94  1  0.50136688  0.46153187  0.36903548  1
  Ti  Ti95  1  0.55883539  0.54131243  0.65492695  1
  Ti  Ti96  1  0.59995028  0.85730886  0.00233172  1
  Ti  Ti97  1  0.48255677  0.78025222  0.32388654  1
  Ti  Ti98  1  0.47434119  0.75141178  0.62698135  1
  Ti  Ti99  1  0.80117178  0.23742219  -0.00952491  1
  Ti  Ti100  1  0.88180839  0.15824672  0.42237394  1
  Ti  Ti101  1  0.76335813  0.14715815  0.67758004  1
  Ti  Ti102  1  0.78693233  0.55583212  0.08361901  1
  Ti  Ti103  1  0.79191243  0.47919762  0.37901948  1
  Ti  Ti104  1  0.87386849  0.53155746  0.71612235  1
  Ti  Ti105  1  0.86812147  0.81464054  -0.06430132  1
  Ti  Ti106  1  0.74276140  0.93789091  0.20842507  1
  Ti  Ti107  1  0.94146868  0.80720585  0.66435659  1
  Co  Co108  1  0.89516428  0.17644437  0.58074888  1
  Co  Co109  1  0.35253359  0.76556521  0.73363227  1
  Co  Co110  1  0.33154505  0.56227665  0.92265543  1
  Co  Co111  1  0.90421773  0.11746826  0.96693591  1
  Co  Co112  1  0.54882138  0.86548452  0.69227711  1
  Co  Co113  1  0.39529777  0.93469518  0.70794844  1
  Co  Co114  1  0.89316495  0.59058130  0.40186615  1
  Co  Co115  1  0.84905692  0.95935712  0.69396370  1
  Co  Co116  1  0.35521133  0.04755968  0.94873537  1
  Co  Co117  1  -0.03194672  0.77155010  0.06928962  1
  Co  Co118  1  0.91626924  0.63521566  0.17904532  1
  Co  Co119  1  0.95838521  0.72932130  0.82528263  1
  Co  Co120  1  0.17258027  0.25335876  0.89191128  1
  Co  Co121  1  0.64570303  0.97932827  0.09758069  1
  Co  Co122  1  0.42298881  0.95079614  0.24221203  1
  Co  Co123  1  0.01560963  0.44147032  0.68882626  1
  Co  Co124  1  0.77427045  0.91405076  0.86390728  1
  Co  Co125  1  0.61742329  0.24045362  0.01631089  1
  Co  Co126  1  0.41960244  0.07761000  0.79490779  1
  Co  Co127  1  0.11429061  0.94980068  0.29477440  1
  Co  Co128  1  0.28354166  0.37186149  0.32517396  1
  Co  Co129  1  0.70976568  0.13185270  0.09588721  1
  Co  Co130  1  0.24673109  0.90537015  0.79433545  1
  Co  Co131  1  0.12460434  0.38042524  -0.00623235  1
  Co  Co132  1  0.74555199  0.23791614  0.54530345  1
  Co  Co133  1  0.93177142  0.49664704  0.54885687  1
  Co  Co134  1  0.88705183  0.48325309  0.19852269  1
  Co  Co135  1  0.04749208  1.01175336  0.56432379  1
  Co  Co136  1  1.00998458  0.57549141  0.80896337  1
  Co  Co137  1  0.38850457  0.21893963  1.01269288  1
  Co  Co138  1  0.27480122  0.61488933  0.78911812  1
  Co  Co139  1  0.25878059  0.35794490  0.75466017  1
  Co  Co140  1  0.78232767  0.58362856  0.24886925  1
  Co  Co141  1  0.19477085  0.70424699  0.67801068  1
  Co  Co142  1  0.23593792  0.40214089  0.58980529  1
  Co  Co143  1  0.09483237  0.55143778  0.96042415  1
  Co  Co144  1  0.19106725  0.45164488  0.87094566  1
  Co  Co145  1  0.51167804  0.15623336  0.11648411  1
  Co  Co146  1  0.59875556  0.06261526  0.22814465  1
  Co  Co147  1  0.90485774  0.17758739  0.25629136  1
  Co  Co148  1  0.76946406  1.10819787  0.24988326  1
  Co  Co149  1  1.01290539  0.23820030  0.37817144  1
  Co  Co150  1  0.75509872  0.38937158  0.23426206  1
  Co  Co151  1  0.27345948  0.32158420  0.03576318  1
  Co  Co152  1  0.74691759  0.43325554  0.66259681  1
  Co  Co153  1  0.81979226  0.80440803  0.76092593  1
  Co  Co154  1  0.78220904  0.54280576  0.55006430  1
  Co  Co155  1  0.08876143  0.30829427  0.60536389  1
  Co  Co156  1  0.19488546  0.56301465  0.55962671  1
  Co  Co157  1  0.80213949  0.37151675  0.50501393  1
  Co  Co158  1  0.24726460  0.84524718  0.42923675  1
  Co  Co159  1  0.63531159  0.39356527  0.55118916  1
  Co  Co160  1  0.99237842  0.20644441  0.08189582  1
  Co  Co161  1  0.63791451  0.02503712  0.77085876  1
  Ni  Ni162  1  0.87843619  0.41992797  1.00178042  1
  Ni  Ni163  1  0.89857188  0.90711035  0.10704135  1
  Ni  Ni164  1  0.56798487  0.18630569  0.35951642  1
  Ni  Ni165  1  0.63250709  -0.01811499  0.52775281  1
  Ni  Ni166  1  0.50269298  0.41755693  0.76625461  1
  Ni  Ni167  1  0.82593822  0.83805730  0.33639578  1
  Ni  Ni168  1  0.89296418  0.21591995  0.80864621  1
  Ni  Ni169  1  0.09316885  0.80576024  0.74807804  1
  Ni  Ni170  1  0.63158434  0.66663752  0.55514876  1
  Ni  Ni171  1  0.39971020  0.58688913  0.31943170  1
  Ni  Ni172  1  0.67013618  0.83736438  0.33808013  1
  Ni  Ni173  1  0.13241852  0.95267790  0.87748530  1
  Ni  Ni174  1  0.11996260  0.13831219  0.69220361  1
  Ni  Ni175  1  0.53569328  0.91211739  0.39084635  1
  Ni  Ni176  1  0.03037312  0.53421108  0.29085667  1
  Ni  Ni177  1  0.90272427  0.67735105  0.56707052  1
  Ni  Ni178  1  0.81580786  0.30331435  0.36129265  1
  Ni  Ni179  1  0.61758109  0.65847641  0.78605558  1
  Ni  Ni180  1  0.34436040  0.08403606  0.12695039  1
  Ni  Ni181  1  0.04208221  0.07306578  0.39095210  1
  Ni  Ni182  1  0.56519284  0.34642316  0.21728580  1
  Ni  Ni183  1  0.41202992  0.79874230  0.47521991  1
  Ni  Ni184  1  0.43325475  0.47440581  0.57089829  1
  Ni  Ni185  1  0.25962228  0.07476599  0.27755286  1
  Ni  Ni186  1  0.97740547  0.86579667  0.39732732  1
  Ni  Ni187  1  0.40693695  0.85503475  1.00231157  1
  Ni  Ni188  1  0.02188547  0.28156573  0.22626961  1
  Ni  Ni189  1  0.34941893  0.32924899  0.48133143  1
  Ni  Ni190  1  0.67321354  0.50325096  0.96269985  1
  Ni  Ni191  1  0.04583041  0.66269201  0.46852536  1
  Ni  Ni192  1  0.18713889  0.61785376  0.38994829  1
  Ni  Ni193  1  0.38499525  0.17828272  0.66688875  1
  Ni  Ni194  1  0.48834168  0.77364599  0.11530814  1
  Ni  Ni195  1  0.51184543  0.05263246  0.41593402  1
  Ni  Ni196  1  0.28207028  0.64521833  0.18292058  1
  Ni  Ni197  1  0.69432995  0.35077873  0.91338343  1
  Ni  Ni198  1  0.56150845  0.63435068  0.35048616  1
  Ni  Ni199  1  0.48351397  0.23502037  0.79592105  1
  Ni  Ni200  1  0.84720770  0.53612618  0.89453286  1
  Ni  Ni201  1  0.10649200  0.84495627  0.08221101  1
  Ni  Ni202  1  0.63648813  0.72207674  0.13928514  1
  Ni  Ni203  1  0.77732587  0.06239330  0.53203808  1
  Ni  Ni204  1  0.07019805  0.07517403  0.03346774  1
  Ni  Ni205  1  0.45880088  0.72120998  0.92344814  1
  Ni  Ni206  1  0.24196752  0.12449623  0.48798761  1
  Ni  Ni207  1  0.11810361  0.39237832  0.33310556  1
  Ni  Ni208  1  0.19822460  0.79063294  0.21089467  1
  Ni  Ni209  1  0.72889276  0.77833094  0.00914775  1
  Ni  Ni210  1  0.52986099  0.49557689  0.09669360  1
  Ni  Ni211  1  0.19360463  0.71203721  1.01298587  1
  Ni  Ni212  1  0.63825840  -0.00854183  0.93031572  1
  Ni  Ni213  1  0.78359012  0.80342093  0.60107379  1
  Ni  Ni214  1  0.34357290  0.18256092  0.37954264  1
  Ni  Ni215  1  0.37440740  0.46755668  0.05828213  1
