# generated using pymatgen
data_Ti2CoNi
_symmetry_space_group_name_H-M   'P 1'
_cell_length_a   14.59463371
_cell_length_b   14.66782355
_cell_length_c   14.69951392
_cell_angle_alpha   89.77012974
_cell_angle_beta   89.91220090
_cell_angle_gamma   90.14137264
_symmetry_Int_Tables_number   1
_chemical_formula_structural   Ti2CoNi
_chemical_formula_sum   'Ti108 Co54 Ni54'
_cell_volume   3146.70852494
_cell_formula_units_Z   54
loop_
 _symmetry_equiv_pos_site_id
 _symmetry_equiv_pos_as_xyz
  1  'x, y, z'
loop_
 _atom_site_type_symbol
 _atom_site_label
 _atom_site_symmetry_multiplicity
 _atom_site_fract_x
 _atom_site_fract_y
 _atom_site_fract_z
 _atom_site_occupancy
  Ti  Ti0  1  -0.01841162  0.05916538  -0.04421000  1
  Ti  Ti1  1  -0.01622367  0.01189903  0.33113761  1
  Ti  Ti2  1  -0.01255812  0.00293222  0.73929947  1
  Ti  Ti3  1  0.02756367  0.35150632  -0.02313140  1
  Ti  Ti4  1  0.02491386  0.32538311  0.35998203  1
  Ti  Ti5  1  -0.04321449  0.36928424  0.59604149  1
  Ti  Ti6  1  -0.04854772  0.66906563  0.02079520  1
  Ti  Ti7  1  -0.01070556  0.61481194  0.33892769  1
  Ti  Ti8  1  0.06459116  0.66489390  0.72379308  1
  Ti  Ti9  1  0.34214317  0.00641268  -0.04106955  1
  Ti  Ti10  1  0.39961190  -0.06104997  0.35900569  1
  Ti  Ti11  1  0.40048474  -0.03383398  0.66282099  1
  Ti  Ti12  1  0.24954737  0.28693834  -0.00012663  1
  Ti  Ti13  1  0.35567673  0.27443124  0.30588332  1
  Ti  Ti14  1  0.26734301  0.29567738  0.65305438  1
  Ti  Ti15  1  0.33057866  0.74076010  -0.05166614  1
  Ti  Ti16  1  0.39576413  0.61707142  0.38523169  1
  Ti  Ti17  1  0.33479030  0.64217188  0.57860898  1
  Ti  Ti18  1  0.67719066  -0.06383153  -0.04720241  1
  Ti  Ti19  1  0.66774481  0.03753125  0.30265975  1
  Ti  Ti20  1  0.69905181  0.07285820  0.68829890  1
  Ti  Ti21  1  0.72107991  0.36695002  0.03697493  1
  Ti  Ti22  1  0.65404338  0.40411250  0.34495018  1
  Ti  Ti23  1  0.65364374  0.25187405  0.61422156  1
  Ti  Ti24  1  0.65472213  0.70497474  -0.02163798  1
  Ti  Ti25  1  0.59207106  0.61526510  0.30932309  1
  Ti  Ti26  1  0.63490258  0.66004295  0.68124600  1
  Ti  Ti27  1  -0.09751656  0.13329205  0.21882535  1
  Ti  Ti28  1  -0.00357776  0.15171705  0.47873724  1
  Ti  Ti29  1  -0.05288483  0.21593768  0.83919694  1
  Ti  Ti30  1  0.05187204  0.58194781  0.15046795  1
  Ti  Ti31  1  0.00469345  0.56019738  0.53708750  1
  Ti  Ti32  1  0.05013589  0.47555697  0.81217910  1
  Ti  Ti33  1  0.02758250  0.86893228  0.19567950  1
  Ti  Ti34  1  0.01545754  0.88692347  0.46947191  1
  Ti  Ti35  1  0.07745589  0.77817912  0.89664276  1
  Ti  Ti36  1  0.34689952  0.09523227  0.23101286  1
  Ti  Ti37  1  0.36773465  0.24744063  0.50496400  1
  Ti  Ti38  1  0.39534873  0.23499708  0.80646364  1
  Ti  Ti39  1  0.35258947  0.50051053  0.16020759  1
  Ti  Ti40  1  0.23471615  0.53313123  0.46389185  1
  Ti  Ti41  1  0.31282177  0.43230219  0.79945599  1
  Ti  Ti42  1  0.28067273  0.85154072  0.21247108  1
  Ti  Ti43  1  0.30027003  0.83375134  0.55750577  1
  Ti  Ti44  1  0.39288011  0.87457088  0.81838101  1
  Ti  Ti45  1  0.63462523  0.17274400  0.14422185  1
  Ti  Ti46  1  0.68016496  0.09062974  0.48809017  1
  Ti  Ti47  1  0.72683353  0.15316637  0.85454725  1
  Ti  Ti48  1  0.58219766  0.46422165  0.17019866  1
  Ti  Ti49  1  0.67556058  0.49272437  0.55886518  1
  Ti  Ti50  1  0.68573789  0.49834532  0.75027010  1
  Ti  Ti51  1  0.71218925  0.87792228  0.21525517  1
  Ti  Ti52  1  0.71679511  0.89871110  0.43387707  1
  Ti  Ti53  1  0.55381710  0.76526010  0.80679552  1
  Ti  Ti54  1  0.15717136  0.01917634  0.22823062  1
  Ti  Ti55  1  0.26518086  0.02708829  0.51959018  1
  Ti  Ti56  1  0.21709439  0.00337362  0.78076973  1
  Ti  Ti57  1  0.09312869  0.33805610  0.16642728  1
  Ti  Ti58  1  0.18650581  0.34915050  0.46993448  1
  Ti  Ti59  1  0.16185340  0.28850479  0.82899522  1
  Ti  Ti60  1  0.23650575  0.68550450  0.10944206  1
  Ti  Ti61  1  0.12816695  0.71950230  0.51197564  1
  Ti  Ti62  1  0.18662971  0.60587199  0.91907702  1
  Ti  Ti63  1  0.48564098  -0.11325331  0.17877333  1
  Ti  Ti64  1  0.46055072  0.08567791  0.50716424  1
  Ti  Ti65  1  0.53454232  0.02644820  0.85944338  1
  Ti  Ti66  1  0.39749516  0.32512801  0.12304730  1
  Ti  Ti67  1  0.51686635  0.36497338  0.51323812  1
  Ti  Ti68  1  0.52912689  0.38754299  0.82101146  1
  Ti  Ti69  1  0.46459902  0.69549779  0.09743192  1
  Ti  Ti70  1  0.57160062  0.66312540  0.50354386  1
  Ti  Ti71  1  0.36642658  0.67272527  0.76749413  1
  Ti  Ti72  1  0.86197494  -0.03509740  0.10130842  1
  Ti  Ti73  1  0.86400035  0.04064326  0.57695908  1
  Ti  Ti74  1  0.79855226  -0.06754695  0.76922618  1
  Ti  Ti75  1  0.89020372  0.32047437  0.18787281  1
  Ti  Ti76  1  0.80472487  0.35815628  0.47280403  1
  Ti  Ti77  1  0.77930015  0.36331502  0.84702067  1
  Ti  Ti78  1  0.79048147  0.71754954  0.14082278  1
  Ti  Ti79  1  0.81716647  0.65039594  0.47902713  1
  Ti  Ti80  1  0.84591348  0.71174934  0.78281622  1
  Ti  Ti81  1  0.16207870  0.12637615  0.07295065  1
  Ti  Ti82  1  0.17836128  0.17877390  0.33885970  1
  Ti  Ti83  1  0.14167134  0.13349552  0.64707873  1
  Ti  Ti84  1  0.19286300  0.47072686  0.06309985  1
  Ti  Ti85  1  0.19092703  0.52560383  0.25937909  1
  Ti  Ti86  1  0.13647619  0.43107831  0.65538304  1
  Ti  Ti87  1  0.18221965  0.89184629  0.04091908  1
  Ti  Ti88  1  0.25623122  0.77498038  0.37621874  1
  Ti  Ti89  1  0.11388187  0.86049971  0.66275971  1
  Ti  Ti90  1  0.49481379  0.16196655  0.00333205  1
  Ti  Ti91  1  0.52369308  0.17783202  0.34803872  1
  Ti  Ti92  1  0.51403276  0.11155692  0.69776266  1
  Ti  Ti93  1  0.48723285  0.49053289  -0.01462649  1
  Ti  Ti94  1  0.45744369  0.43794846  0.32002711  1
  Ti  Ti95  1  0.48485000  0.52934666  0.66522974  1
  Ti  Ti96  1  0.49649318  0.84235239  -0.03379528  1
  Ti  Ti97  1  0.55755136  0.82192651  0.38093242  1
  Ti  Ti98  1  0.58006616  0.83965266  0.60844156  1
  Ti  Ti99  1  0.81153983  0.16895057  0.03552205  1
  Ti  Ti100  1  0.73737986  0.21688382  0.31827113  1
  Ti  Ti101  1  0.83822803  0.23168052  0.67196139  1
  Ti  Ti102  1  0.79616104  0.54459998  0.02855908  1
  Ti  Ti103  1  0.82818557  0.50056980  0.31812945  1
  Ti  Ti104  1  0.88212032  0.52061559  0.71536357  1
  Ti  Ti105  1  0.89586752  0.86360413  -0.08246415  1
  Ti  Ti106  1  0.87095443  0.79739905  0.33740506  1
  Ti  Ti107  1  0.86356272  0.81927426  0.60432992  1
  Co  Co108  1  0.21380685  0.56784572  0.75885126  1
  Co  Co109  1  0.33184061  0.42873954  -0.01505040  1
  Co  Co110  1  0.72189361  0.79563863  0.69360477  1
  Co  Co111  1  0.55462173  0.99025130  0.40698278  1
  Co  Co112  1  0.27411284  0.85374982  0.71683831  1
  Co  Co113  1  0.41419590  0.38472158  0.67498555  1
  Co  Co114  1  0.97794265  0.15156310  0.65470432  1
  Co  Co115  1  0.53971532  0.30992339  0.25690748  1
  Co  Co116  1  0.25214512  0.13919524  0.91868205  1
  Co  Co117  1  0.81742788  0.70456828  0.94816433  1
  Co  Co118  1  0.34021075  0.59068184  0.02652165  1
  Co  Co119  1  0.36986938  0.55588056  0.87410539  1
  Co  Co120  1  0.47249998  0.19065323  0.17424613  1
  Co  Co121  1  0.73700813  0.93249213  0.59641717  1
  Co  Co122  1  0.35845652  0.85086393  0.06454343  1
  Co  Co123  1  0.05564745  0.28116995  0.72027466  1
  Co  Co124  1  0.92825012  0.36742945  0.77000344  1
  Co  Co125  1  0.63100794  -0.00488219  0.13287753  1
  Co  Co126  1  0.70615090  0.76605284  0.53227855  1
  Co  Co127  1  0.85438301  0.09008183  0.76603311  1
  Co  Co128  1  0.24822462  0.16935431  0.76748757  1
  Co  Co129  1  0.34335055  0.12472545  0.39295254  1
  Co  Co130  1  0.82411431  0.08039972  0.38513642  1
  Co  Co131  1  0.83727934  0.50080258  0.55192057  1
  Co  Co132  1  0.15321441  0.64260166  0.36746163  1
  Co  Co133  1  0.21193187  0.73106856  0.81528059  1
  Co  Co134  1  0.11496256  0.04439360  0.42358671  1
  Co  Co135  1  0.76506118  0.07217971  0.18044116  1
  Co  Co136  1  0.65098242  0.08981106  0.99595082  1
  Co  Co137  1  0.70821733  0.55801670  0.40851564  1
  Co  Co138  1  0.17338730  0.89528498  0.48028977  1
  Co  Co139  1  0.08848837  0.11736993  0.81198823  1
  Co  Co140  1  0.83816118  0.95196900  0.28431522  1
  Co  Co141  1  0.48168545  0.66631286  0.93742616  1
  Co  Co142  1  0.29109631  0.66060114  0.25964066  1
  Co  Co143  1  0.78023749  0.38381736  0.66304885  1
  Co  Co144  1  0.15746053  0.58075408  0.60329177  1
  Co  Co145  1  0.25349845  -0.01332742  0.35481625  1
  Co  Co146  1  0.93989524  0.45678494  0.42893061  1
  Co  Co147  1  0.78966948  0.64188822  0.64007023  1
  Co  Co148  1  0.09119026  0.20032445  0.95058031  1
  Co  Co149  1  0.82029508  0.03265078  0.92750936  1
  Co  Co150  1  0.79201910  0.44648357  0.16745700  1
  Co  Co151  1  0.58948938  0.38178183  0.67013999  1
  Co  Co152  1  0.29373069  0.48385030  0.63183855  1
  Co  Co153  1  0.47476686  0.24901124  0.63993964  1
  Co  Co154  1  0.88543158  0.58027121  0.17980404  1
  Co  Co155  1  0.78001364  0.83968356  0.03414437  1
  Co  Co156  1  0.03481888  0.77059100  0.35198814  1
  Co  Co157  1  0.17805615  0.43613250  0.90262403  1
  Co  Co158  1  0.13554785  0.88661949  0.31907623  1
  Co  Co159  1  0.13665889  0.72695247  0.23153424  1
  Co  Co160  1  0.21555408  0.71666305  0.66088984  1
  Co  Co161  1  0.86593477  0.93917281  0.45217055  1
  Ni  Ni162  1  0.62771432  0.56229709  0.05211698  1
  Ni  Ni163  1  0.59649446  0.75322937  0.22321309  1
  Ni  Ni164  1  0.97334677  0.82863011  0.75886414  1
  Ni  Ni165  1  0.53555651  0.56861444  0.82053944  1
  Ni  Ni166  1  0.97664207  0.20616226  0.06900746  1
  Ni  Ni167  1  0.44603608  0.31356768  0.95299152  1
  Ni  Ni168  1  -0.05392508  0.45146232  0.09045115  1
  Ni  Ni169  1  1.01638607  0.90470072  0.02531603  1
  Ni  Ni170  1  0.98823837  0.45663955  0.25525960  1
  Ni  Ni171  1  0.23923885  0.24710074  0.17859080  1
  Ni  Ni172  1  0.22873226  0.87530664  0.88653209  1
  Ni  Ni173  1  0.70513256  0.73426782  0.36426144  1
  Ni  Ni174  1  0.64249765  0.26411519  0.44816806  1
  Ni  Ni175  1  0.96251501  0.72634942  0.49675834  1
  Ni  Ni176  1  0.08214459  0.75441470  0.07562028  1
  Ni  Ni177  1  0.71183110  0.58243412  0.19993230  1
  Ni  Ni178  1  0.29207660  0.99646498  0.11493491  1
  Ni  Ni179  1  0.56107630  0.31653205  0.08432713  1
  Ni  Ni180  1  0.04905884  0.52698334  0.98087268  1
  Ni  Ni181  1  0.80728985  0.19595496  0.50572138  1
  Ni  Ni182  1  0.42647211  0.75493325  0.47113214  1
  Ni  Ni183  1  0.62414109  0.92385057  0.75920051  1
  Ni  Ni184  1  0.20923033  0.18158491  0.50144390  1
  Ni  Ni185  1  0.69585783  0.32409857  0.19809801  1
  Ni  Ni186  1  0.96573050  0.61748138  0.86112075  1
  Ni  Ni187  1  0.63762722  0.25517319  0.94795581  1
  Ni  Ni188  1  0.65702024  0.47858049  0.91628636  1
  Ni  Ni189  1  0.08141558  0.26856247  0.56282524  1
  Ni  Ni190  1  0.89657150  0.22829035  0.36110709  1
  Ni  Ni191  1  0.90659637  0.45868443  0.91695128  1
  Ni  Ni192  1  0.45263697  0.60202688  0.22840939  1
  Ni  Ni193  1  0.71743238  0.80293810  0.85507538  1
  Ni  Ni194  1  0.20494787  0.36317689  0.30091498  1
  Ni  Ni195  1  0.43274460  0.77757595  0.65361440  1
  Ni  Ni196  1  0.06612235  0.17908854  0.21603003  1
  Ni  Ni197  1  0.34065920  0.13301027  0.63937898  1
  Ni  Ni198  1  0.37651809  0.06706612  0.80277396  1
  Ni  Ni199  1  0.45292964  0.90957792  0.51561157  1
  Ni  Ni200  1  0.95804067  0.72235980  0.20065163  1
  Ni  Ni201  1  0.05594386  1.00582435  0.58175528  1
  Ni  Ni202  1  0.07304907  0.94219956  0.86622944  1
  Ni  Ni203  1  0.50801680  0.03995145  0.24078763  1
  Ni  Ni204  1  0.09596653  0.47804404  0.38993723  1
  Ni  Ni205  1  0.33708686  0.15897251  0.06839430  1
  Ni  Ni206  1  0.57920084  -0.00175780  0.58585211  1
  Ni  Ni207  1  0.33793659  0.39572460  0.42378328  1
  Ni  Ni208  1  0.59267647  0.23429648  0.78269926  1
  Ni  Ni209  1  0.42768005  0.76330359  0.28690262  1
  Ni  Ni210  1  0.55223345  0.51262998  0.43893392  1
  Ni  Ni211  1  0.01876604  0.03982462  0.12863946  1
  Ni  Ni212  1  0.79305492  0.56523048  0.85996825  1
  Ni  Ni213  1  0.50546930  0.99130646  1.03226604  1
  Ni  Ni214  1  0.61634272  0.83426112  0.08188587  1
  Ni  Ni215  1  0.41102651  0.50429321  0.51519512  1
