# generated using pymatgen
data_Ti2CoNi
_symmetry_space_group_name_H-M   'P 1'
_cell_length_a   14.63226267
_cell_length_b   14.68269511
_cell_length_c   14.59298810
_cell_angle_alpha   90.03176603
_cell_angle_beta   89.80126426
_cell_angle_gamma   89.88292248
_symmetry_Int_Tables_number   1
_chemical_formula_structural   Ti2CoNi
_chemical_formula_sum   'Ti108 Co54 Ni54'
_cell_volume   3135.14700894
_cell_formula_units_Z   54
loop_
 _symmetry_equiv_pos_site_id
 _symmetry_equiv_pos_as_xyz
  1  'x, y, z'
loop_
 _atom_site_type_symbol
 _atom_site_label
 _atom_site_symmetry_multiplicity
 _atom_site_fract_x
 _atom_site_fract_y
 _atom_site_fract_z
 _atom_site_occupancy
  Ti  Ti0  1  0.02324312  0.06419812  0.07488107  1
  Ti  Ti1  1  -0.00949007  0.04419346  0.32220544  1
  Ti  Ti2  1  -0.07566549  -0.06685139  0.61737561  1
  Ti  Ti3  1  -0.03135208  0.37459488  -0.06381867  1
  Ti  Ti4  1  0.07345208  0.30266401  0.35620857  1
  Ti  Ti5  1  0.01352618  0.31001555  0.74996232  1
  Ti  Ti6  1  0.06343959  0.69958630  -0.04853664  1
  Ti  Ti7  1  -0.03710173  0.71095107  0.28996251  1
  Ti  Ti8  1  0.05049225  0.67097272  0.60675750  1
  Ti  Ti9  1  0.36099808  -0.02844178  0.07458567  1
  Ti  Ti10  1  0.28263469  -0.01229907  0.35805012  1
  Ti  Ti11  1  0.34871185  0.04586357  0.71189937  1
  Ti  Ti12  1  0.35632166  0.24958678  0.08064202  1
  Ti  Ti13  1  0.37188679  0.29396243  0.37900916  1
  Ti  Ti14  1  0.30315109  0.34171953  0.63623423  1
  Ti  Ti15  1  0.34298630  0.73029836  -0.10094526  1
  Ti  Ti16  1  0.27624693  0.65000621  0.31125918  1
  Ti  Ti17  1  0.31615509  0.60370770  0.71783588  1
  Ti  Ti18  1  0.71377811  -0.00516663  0.00078627  1
  Ti  Ti19  1  0.68987663  0.00680870  0.26600999  1
  Ti  Ti20  1  0.71995718  -0.00835022  0.65116235  1
  Ti  Ti21  1  0.67709615  0.29707752  0.02909923  1
  Ti  Ti22  1  0.68798690  0.34519848  0.25997358  1
  Ti  Ti23  1  0.64638908  0.35519615  0.70843958  1
  Ti  Ti24  1  0.67084214  0.61748134  -0.07894015  1
  Ti  Ti25  1  0.59937514  0.65846419  0.32450945  1
  Ti  Ti26  1  0.67753664  0.60165309  0.68819284  1
  Ti  Ti27  1  -0.04344566  0.20169554  0.22251395  1
  Ti  Ti28  1  0.00330545  0.24327528  0.53598761  1
  Ti  Ti29  1  0.03038221  0.10761576  0.83912441  1
  Ti  Ti30  1  -0.00317771  0.47558018  0.09754026  1
  Ti  Ti31  1  -0.04400834  0.53110432  0.50597630  1
  Ti  Ti32  1  0.03244391  0.52151083  0.80383009  1
  Ti  Ti33  1  -0.01239438  0.89741831  0.20899115  1
  Ti  Ti34  1  0.05143077  0.82687320  0.47403116  1
  Ti  Ti35  1  0.01221204  0.86448015  0.79444615  1
  Ti  Ti36  1  0.41150397  0.16782613  0.24632743  1
  Ti  Ti37  1  0.30351364  0.11524922  0.52566942  1
  Ti  Ti38  1  0.25611618  0.14912202  0.85767382  1
  Ti  Ti39  1  0.30125739  0.54800980  0.12666289  1
  Ti  Ti40  1  0.40923500  0.43981314  0.48447713  1
  Ti  Ti41  1  0.36440911  0.48181266  0.91574607  1
  Ti  Ti42  1  0.34177984  0.82741448  0.21593221  1
  Ti  Ti43  1  0.33937236  0.81307788  0.43553557  1
  Ti  Ti44  1  0.34205880  0.93271745  0.88492404  1
  Ti  Ti45  1  0.61667376  0.16526768  0.16382229  1
  Ti  Ti46  1  0.69429681  0.18713000  0.57642592  1
  Ti  Ti47  1  0.59124531  0.22618490  0.86925539  1
  Ti  Ti48  1  0.63552238  0.56852294  0.14635147  1
  Ti  Ti49  1  0.70856265  0.57909069  0.48113021  1
  Ti  Ti50  1  0.55809139  0.49260983  0.81748898  1
  Ti  Ti51  1  0.68718193  0.81516131  0.03447578  1
  Ti  Ti52  1  0.66464964  0.78858895  0.47131744  1
  Ti  Ti53  1  0.66476770  0.88319178  0.84629180  1
  Ti  Ti54  1  0.18793399  -0.04647755  0.17467052  1
  Ti  Ti55  1  0.08156808  0.02954995  0.51943067  1
  Ti  Ti56  1  0.17173188  -0.02024481  0.81188275  1
  Ti  Ti57  1  0.16767078  0.40703108  0.18920324  1
  Ti  Ti58  1  0.21388509  0.38937522  0.47175460  1
  Ti  Ti59  1  0.25585255  0.32263941  0.92138694  1
  Ti  Ti60  1  0.10883351  0.62612549  0.15125334  1
  Ti  Ti61  1  0.22500828  0.67645117  0.51072542  1
  Ti  Ti62  1  0.19396384  0.60523087  0.85216656  1
  Ti  Ti63  1  0.56331840  -0.04853236  0.13430492  1
  Ti  Ti64  1  0.46462240  -0.02685314  0.45862219  1
  Ti  Ti65  1  0.55228256  0.03569474  0.81970847  1
  Ti  Ti66  1  0.48793055  0.35266455  0.19566401  1
  Ti  Ti67  1  0.52195450  0.28399450  0.54149142  1
  Ti  Ti68  1  0.44204447  0.32837365  0.77382702  1
  Ti  Ti69  1  0.52312116  0.75245283  0.17599325  1
  Ti  Ti70  1  0.45565834  0.63209015  0.47118899  1
  Ti  Ti71  1  0.56186521  0.74933509  0.74929041  1
  Ti  Ti72  1  0.84390072  0.05164100  0.15668150  1
  Ti  Ti73  1  0.87663436  0.09387072  0.50347141  1
  Ti  Ti74  1  0.84099948  0.03548041  0.81921839  1
  Ti  Ti75  1  0.85527450  0.36101265  0.13729378  1
  Ti  Ti76  1  0.82846042  0.32755675  0.47861681  1
  Ti  Ti77  1  0.78131133  0.34224266  0.85054009  1
  Ti  Ti78  1  0.82925772  0.57936130  0.19806984  1
  Ti  Ti79  1  0.87592202  0.75285928  0.47553399  1
  Ti  Ti80  1  0.86090926  0.61917403  0.83681789  1
  Ti  Ti81  1  0.17541838  0.17996253  0.06397694  1
  Ti  Ti82  1  0.22110902  0.16850541  0.32077620  1
  Ti  Ti83  1  0.15435427  0.15609458  0.66655645  1
  Ti  Ti84  1  0.15733518  0.50212168  -0.00542276  1
  Ti  Ti85  1  0.11980272  0.51257499  0.35084582  1
  Ti  Ti86  1  0.14954093  0.47800146  0.66787750  1
  Ti  Ti87  1  0.10749661  0.88999084  0.00512444  1
  Ti  Ti88  1  0.15141107  0.79284027  0.30516569  1
  Ti  Ti89  1  0.18282793  0.75424645  0.72761434  1
  Ti  Ti90  1  0.42750534  0.11034000  -0.04671341  1
  Ti  Ti91  1  0.59084309  0.11102461  0.43652833  1
  Ti  Ti92  1  0.52048083  0.07236624  0.62051023  1
  Ti  Ti93  1  0.46760563  0.60165753  0.02453213  1
  Ti  Ti94  1  0.43032429  0.51891547  0.30246500  1
  Ti  Ti95  1  0.53485750  0.49176666  0.60714780  1
  Ti  Ti96  1  0.47295894  0.82341533  0.00764818  1
  Ti  Ti97  1  0.50750520  0.87691665  0.31310325  1
  Ti  Ti98  1  0.45499952  0.83242505  0.60434120  1
  Ti  Ti99  1  0.88805313  0.21107865  0.00510565  1
  Ti  Ti100  1  0.75744010  0.18550731  0.34500451  1
  Ti  Ti101  1  0.83933638  0.18418144  0.70791202  1
  Ti  Ti102  1  0.82206169  0.50522787  -0.00975678  1
  Ti  Ti103  1  0.88288653  0.43322560  0.33573969  1
  Ti  Ti104  1  0.80317967  0.47771549  0.64643061  1
  Ti  Ti105  1  0.88720135  0.77505821  -0.00147032  1
  Ti  Ti106  1  0.81478765  0.87092685  0.32894288  1
  Ti  Ti107  1  0.77613022  0.77056424  0.65467567  1
  Co  Co108  1  1.00439399  0.28193050  0.08475722  1
  Co  Co109  1  0.87906703  0.59799376  0.37798747  1
  Co  Co110  1  0.28329048  0.89505805  0.73157992  1
  Co  Co111  1  0.22991919  0.65374370  0.00924646  1
  Co  Co112  1  0.72832341  0.04161623  0.47263954  1
  Co  Co113  1  0.56814381  0.51898206  0.42966771  1
  Co  Co114  1  0.55637752  0.73409915  0.90737272  1
  Co  Co115  1  0.28735128  0.28884745  0.22546914  1
  Co  Co116  1  0.36095504  0.72224267  0.07481626  1
  Co  Co117  1  0.88680166  0.77189178  0.82561182  1
  Co  Co118  1  0.94505113  0.77685710  0.66011832  1
  Co  Co119  1  0.37698156  0.75941713  0.73591869  1
  Co  Co120  1  0.43923242  0.41251986  0.04517964  1
  Co  Co121  1  0.20298947  0.00487806  0.62932179  1
  Co  Co122  1  0.40922680  0.26892218  0.92216316  1
  Co  Co123  1  0.13167927  0.34947047  0.03502720  1
  Co  Co124  1  0.60237455  0.68701175  0.05338390  1
  Co  Co125  1  0.88989700  0.45214595  0.79110888  1
  Co  Co126  1  0.29797739  0.50921090  0.58680975  1
  Co  Co127  1  0.28370986  0.10086151  0.16033961  1
  Co  Co128  1  0.82402652  0.89972278  0.91580272  1
  Co  Co129  1  0.05424264  0.00488013  0.70213843  1
  Co  Co130  1  0.37087580  0.68658339  0.58626263  1
  Co  Co131  1  0.47913778  0.86775505  0.83765491  1
  Co  Co132  1  0.78051009  0.89674842  0.51717056  1
  Co  Co133  1  0.82442578  0.89160346  0.74832715  1
  Co  Co134  1  0.11249737  0.08626321  0.22388912  1
  Co  Co135  1  0.59259308  0.11588436  0.99632940  1
  Co  Co136  1  0.26846283  0.84759791  0.03107993  1
  Co  Co137  1  0.91412835  0.21990810  0.84639639  1
  Co  Co138  1  0.51832676  0.25453829  0.04978490  1
  Co  Co139  1  0.22179704  0.73420182  0.16167667  1
  Co  Co140  1  0.63590081  0.92779314  0.39401428  1
  Co  Co141  1  0.40796712  0.64215575  0.20128904  1
  Co  Co142  1  0.28385914  0.39538315  1.07242225  1
  Co  Co143  1  0.04295477  0.40076965  0.47830265  1
  Co  Co144  1  0.66631661  0.41122039  0.55274494  1
  Co  Co145  1  0.66012027  0.27726500  0.44077840  1
  Co  Co146  1  -0.01421705  0.55615472  0.95235808  1
  Co  Co147  1  0.41066541  0.47374092  0.72077239  1
  Co  Co148  1  0.71730404  0.42166390  0.39888745  1
  Co  Co149  1  0.60512527  -0.05612835  0.54716038  1
  Co  Co150  1  0.72500819  0.54918829  0.31069533  1
  Co  Co151  1  0.11907007  0.25070777  0.19642981  1
  Co  Co152  1  0.54076828  0.96425622  -0.03003451  1
  Co  Co153  1  0.73243986  0.49903509  0.80807061  1
  Co  Co154  1  0.91735966  0.92172180  0.06675275  1
  Co  Co155  1  0.87214532  0.05644266  0.97861886  1
  Co  Co156  1  0.67470854  0.43865930  0.94588011  1
  Co  Co157  1  0.07346211  0.14552778  0.40267789  1
  Co  Co158  1  0.53262963  0.37351504  0.92129054  1
  Co  Co159  1  0.27032395  0.80792700  0.59913201  1
  Co  Co160  1  0.29122374  0.54246758  0.42981529  1
  Co  Co161  1  0.91869992  0.20888775  0.38624360  1
  Ni  Ni162  1  0.12273446  0.32665342  0.61389658  1
  Ni  Ni163  1  0.95248192  0.39638434  0.62004053  1
  Ni  Ni164  1  0.39492011  0.99106058  0.23710702  1
  Ni  Ni165  1  0.79541553  0.31746480  0.63588679  1
  Ni  Ni166  1  0.13315558  0.54039676  0.51654448  1
  Ni  Ni167  1  0.56280234  0.22434330  0.31265843  1
  Ni  Ni168  1  0.58795749  0.47456944  0.26992465  1
  Ni  Ni169  1  0.83322568  0.04195128  0.34163317  1
  Ni  Ni170  1  0.45099440  0.61559964  0.84972836  1
  Ni  Ni171  1  0.85809196  0.76681270  0.17402981  1
  Ni  Ni172  1  0.03018421  0.68810939  0.78154166  1
  Ni  Ni173  1  0.76786743  0.90260039  0.15232513  1
  Ni  Ni174  1  0.92713269  0.93366197  0.44098997  1
  Ni  Ni175  1  0.11901347  0.95027725  0.34387777  1
  Ni  Ni176  1  0.53324048  0.05491689  0.28898842  1
  Ni  Ni177  1  0.71558464  0.43772379  0.10963670  1
  Ni  Ni178  1  0.94321237  0.64014129  0.09085692  1
  Ni  Ni179  1  0.75686008  0.17123211  0.88791627  1
  Ni  Ni180  1  0.77145864  0.66221964  0.05796647  1
  Ni  Ni181  1  0.26129360  0.44038475  0.78995753  1
  Ni  Ni182  1  0.68332178  0.12638495  0.74541132  1
  Ni  Ni183  1  0.52976181  0.36729426  0.37966388  1
  Ni  Ni184  1  0.93175015  0.58586235  0.68571120  1
  Ni  Ni185  1  0.19235016  0.28722261  0.76394396  1
  Ni  Ni186  1  -0.00919734  0.96804863  0.92163780  1
  Ni  Ni187  1  0.55508457  0.21570538  0.69668791  1
  Ni  Ni188  1  0.74518201  0.14201629  0.04993877  1
  Ni  Ni189  1  0.56671915  0.91911301  0.70323731  1
  Ni  Ni190  1  0.19628548  0.81501946  0.87999502  1
  Ni  Ni191  1  0.05539016  0.66126121  0.42684778  1
  Ni  Ni192  1  0.08473398  0.23716036  0.92089872  1
  Ni  Ni193  1  0.18303713  0.22437611  0.49799679  1
  Ni  Ni194  1  0.41597447  0.12437942  0.40345922  1
  Ni  Ni195  1  0.11813800  0.39505889  0.86152977  1
  Ni  Ni196  1  0.22266399  0.02752510  0.99228672  1
  Ni  Ni197  1  0.97550324  0.12401332  0.64679758  1
  Ni  Ni198  1  0.10683397  0.86512365  0.62894134  1
  Ni  Ni199  1  0.03588794  0.77635049  0.11380642  1
  Ni  Ni200  1  0.72578633  0.73521433  0.81621260  1
  Ni  Ni201  1  0.76644963  0.70992140  0.33722714  1
  Ni  Ni202  1  0.28267477  0.43178701  0.31123556  1
  Ni  Ni203  1  0.19963271  0.90169872  0.48227002  1
  Ni  Ni204  1  0.47163431  0.09423515  0.11447436  1
  Ni  Ni205  1  0.34141879  0.95125155  0.56367387  1
  Ni  Ni206  1  0.43749102  0.72462494  0.33430164  1
  Ni  Ni207  1  0.78362803  0.22132574  0.18084933  1
  Ni  Ni208  1  0.66112803  0.82553456  0.25958509  1
  Ni  Ni209  1  1.00172416  0.37377827  0.22806360  1
  Ni  Ni210  1  0.39595874  0.20301722  0.63519440  1
  Ni  Ni211  1  0.83159655  0.63334173  0.57191809  1
  Ni  Ni212  1  0.43346864  0.15763724  0.79440726  1
  Ni  Ni213  1  0.48341166  0.62324217  0.69042815  1
  Ni  Ni214  1  0.58064762  0.68524476  0.57291201  1
  Ni  Ni215  1  -0.01113024  0.54579772  0.25539468  1
