# generated using pymatgen
data_Ti2CoNi
_symmetry_space_group_name_H-M   'P 1'
_cell_length_a   14.44857093
_cell_length_b   14.52515672
_cell_length_c   14.44610283
_cell_angle_alpha   89.74505412
_cell_angle_beta   89.83795672
_cell_angle_gamma   90.23552837
_symmetry_Int_Tables_number   1
_chemical_formula_structural   Ti2CoNi
_chemical_formula_sum   'Ti108 Co54 Ni54'
_cell_volume   3031.70328841
_cell_formula_units_Z   54
loop_
 _symmetry_equiv_pos_site_id
 _symmetry_equiv_pos_as_xyz
  1  'x, y, z'
loop_
 _atom_site_type_symbol
 _atom_site_label
 _atom_site_symmetry_multiplicity
 _atom_site_fract_x
 _atom_site_fract_y
 _atom_site_fract_z
 _atom_site_occupancy
  Ti  Ti0  1  -0.00671667  0.00514051  0.06966518  1
  Ti  Ti1  1  0.01693061  0.07270724  0.35778221  1
  Ti  Ti2  1  -0.06298983  -0.03930085  0.67790843  1
  Ti  Ti3  1  0.01047597  0.25062508  -0.06412411  1
  Ti  Ti4  1  -0.07494413  0.29677526  0.20483160  1
  Ti  Ti5  1  0.02126429  0.27327157  0.72520731  1
  Ti  Ti6  1  -0.04367354  0.61199962  -0.07017205  1
  Ti  Ti7  1  -0.07662678  0.70038082  0.34671593  1
  Ti  Ti8  1  -0.01222847  0.69062731  0.53602697  1
  Ti  Ti9  1  0.33172109  0.06091094  0.01215639  1
  Ti  Ti10  1  0.35154785  0.00148275  0.23237577  1
  Ti  Ti11  1  0.33230666  0.01074914  0.66367037  1
  Ti  Ti12  1  0.38949480  0.25077577  0.04697000  1
  Ti  Ti13  1  0.28067788  0.35672451  0.36975397  1
  Ti  Ti14  1  0.36638162  0.33552703  0.67716531  1
  Ti  Ti15  1  0.38637726  0.72351399  0.00846552  1
  Ti  Ti16  1  0.32286915  0.57640715  0.33682372  1
  Ti  Ti17  1  0.33240543  0.72016419  0.60377808  1
  Ti  Ti18  1  0.66276049  -0.02689079  0.03557735  1
  Ti  Ti19  1  0.66856721  -0.11190217  0.31591287  1
  Ti  Ti20  1  0.62398654  0.05717785  0.69933668  1
  Ti  Ti21  1  0.63066275  0.37168560  -0.03935693  1
  Ti  Ti22  1  0.63182578  0.26989022  0.30703147  1
  Ti  Ti23  1  0.58582609  0.29067416  0.64382767  1
  Ti  Ti24  1  0.64501740  0.57731561  0.01295496  1
  Ti  Ti25  1  0.71408438  0.71504449  0.31591434  1
  Ti  Ti26  1  0.61319287  0.68000575  0.67817481  1
  Ti  Ti27  1  0.08403261  0.15484871  0.18763061  1
  Ti  Ti28  1  -0.02525632  0.24045777  0.49537807  1
  Ti  Ti29  1  0.03159756  0.09041743  0.81621060  1
  Ti  Ti30  1  0.02532263  0.46224658  0.20284603  1
  Ti  Ti31  1  0.03265335  0.51595679  0.43495376  1
  Ti  Ti32  1  0.01972876  0.56553366  0.76468976  1
  Ti  Ti33  1  0.01242336  0.77089749  0.17815298  1
  Ti  Ti34  1  0.04711236  0.86306908  0.56433990  1
  Ti  Ti35  1  0.01352935  0.78045255  0.83774989  1
  Ti  Ti36  1  0.34667163  0.19699045  0.28494030  1
  Ti  Ti37  1  0.33746294  0.09369761  0.45433238  1
  Ti  Ti38  1  0.24841717  0.16993102  0.72766739  1
  Ti  Ti39  1  0.32911068  0.39505091  0.14618998  1
  Ti  Ti40  1  0.31261833  0.54681800  0.52726994  1
  Ti  Ti41  1  0.34720017  0.49291111  0.87072171  1
  Ti  Ti42  1  0.28286400  0.84916862  0.12085197  1
  Ti  Ti43  1  0.32949013  0.92042711  0.49679886  1
  Ti  Ti44  1  0.39233101  0.81777858  0.82639189  1
  Ti  Ti45  1  0.74936131  0.22733281  0.16250151  1
  Ti  Ti46  1  0.66799618  0.11784372  0.50704791  1
  Ti  Ti47  1  0.72182188  0.21880195  0.74660408  1
  Ti  Ti48  1  0.68470973  0.52311041  0.24250375  1
  Ti  Ti49  1  0.72372804  0.51929032  0.46310329  1
  Ti  Ti50  1  0.66470408  0.52907201  0.81754623  1
  Ti  Ti51  1  0.59247775  0.78399319  0.16232385  1
  Ti  Ti52  1  0.68213440  0.89034342  0.54878075  1
  Ti  Ti53  1  0.70195734  0.89840301  0.86032198  1
  Ti  Ti54  1  0.18316670  0.00839965  0.13741473  1
  Ti  Ti55  1  0.14349623  -0.04425210  0.42827097  1
  Ti  Ti56  1  0.21664242  -0.07452370  0.81775913  1
  Ti  Ti57  1  0.14076417  0.31249436  0.18361663  1
  Ti  Ti58  1  0.13955526  0.36726633  0.54022247  1
  Ti  Ti59  1  0.14531146  0.41000598  0.86209306  1
  Ti  Ti60  1  0.20240244  0.67507586  0.12296503  1
  Ti  Ti61  1  0.17346694  0.67228916  0.47433105  1
  Ti  Ti62  1  0.26155141  0.65394439  0.82260522  1
  Ti  Ti63  1  0.54818414  0.00421084  0.22462087  1
  Ti  Ti64  1  0.49444782  0.01340104  0.56420953  1
  Ti  Ti65  1  0.52090841  -0.00862657  0.87727147  1
  Ti  Ti66  1  0.56646843  0.39696973  0.17420168  1
  Ti  Ti67  1  0.41918784  0.28330665  0.47955055  1
  Ti  Ti68  1  0.47721852  0.32745903  0.85733526  1
  Ti  Ti69  1  0.41409014  0.71927848  0.21002411  1
  Ti  Ti70  1  0.47917939  0.63733169  0.45184356  1
  Ti  Ti71  1  0.55512955  0.68385144  0.89982895  1
  Ti  Ti72  1  0.76964036  0.02837140  0.17127324  1
  Ti  Ti73  1  0.84924245  0.04709789  0.51920061  1
  Ti  Ti74  1  0.82996004  0.06445584  0.80237272  1
  Ti  Ti75  1  0.84976591  0.32534513  0.02073572  1
  Ti  Ti76  1  0.86447446  0.40524542  0.50725261  1
  Ti  Ti77  1  0.82728663  0.37505447  0.84112779  1
  Ti  Ti78  1  0.87990471  0.61075174  0.12027469  1
  Ti  Ti79  1  0.80091408  0.71272757  0.53452142  1
  Ti  Ti80  1  0.82823797  0.62130810  0.77736234  1
  Ti  Ti81  1  0.21103165  0.24206256  -0.02162156  1
  Ti  Ti82  1  0.17433247  0.19108533  0.40947617  1
  Ti  Ti83  1  0.13008846  0.05508434  0.68081172  1
  Ti  Ti84  1  0.15411435  0.48795526  0.05426225  1
  Ti  Ti85  1  0.14418381  0.60660725  0.29142589  1
  Ti  Ti86  1  0.22681919  0.49066580  0.69097030  1
  Ti  Ti87  1  0.08827741  0.82691080  -0.00033692  1
  Ti  Ti88  1  0.15068064  0.82977609  0.28022610  1
  Ti  Ti89  1  0.16167480  0.74315156  0.67770119  1
  Ti  Ti90  1  0.55430701  0.15652550  -0.03373417  1
  Ti  Ti91  1  0.50581294  0.14095161  0.37725883  1
  Ti  Ti92  1  0.45417924  0.14901821  0.73205082  1
  Ti  Ti93  1  0.45617880  0.55525106  0.05674829  1
  Ti  Ti94  1  0.46405360  0.50937152  0.26112350  1
  Ti  Ti95  1  0.60420871  0.49589848  0.61862103  1
  Ti  Ti96  1  0.53050594  0.84224648  -0.00165558  1
  Ti  Ti97  1  0.51433194  0.83877019  0.43632055  1
  Ti  Ti98  1  0.49497297  0.82389268  0.61304088  1
  Ti  Ti99  1  0.79306145  0.14225026  -0.01099343  1
  Ti  Ti100  1  0.81948938  0.13639182  0.34104381  1
  Ti  Ti101  1  0.83889483  0.28662332  0.64696446  1
  Ti  Ti102  1  0.80845568  0.50122415  -0.02541020  1
  Ti  Ti103  1  0.87873473  0.47647428  0.31685139  1
  Ti  Ti104  1  0.81936610  0.46180813  0.68787512  1
  Ti  Ti105  1  0.85689855  0.82880797  0.02146775  1
  Ti  Ti106  1  0.87534810  0.89777028  0.30953284  1
  Ti  Ti107  1  0.83241127  0.79846793  0.70697211  1
  Co  Co108  1  0.48182540  0.96391887  0.72975722  1
  Co  Co109  1  0.81387204  0.99048741  0.98543484  1
  Co  Co110  1  0.85849902  0.75670492  0.18610351  1
  Co  Co111  1  0.60017640  0.30260187  0.47097347  1
  Co  Co112  1  0.40689495  0.64396894  0.87909048  1
  Co  Co113  1  0.02710398  0.63001796  0.20218681  1
  Co  Co114  1  0.78360191  0.83156062  0.42534043  1
  Co  Co115  1  0.84506968  0.43699946  0.14976566  1
  Co  Co116  1  0.65723461  0.09906591  0.30134540  1
  Co  Co117  1  0.35272563  0.58059550  0.71863090  1
  Co  Co118  1  0.37505777  0.16603541  0.60754750  1
  Co  Co119  1  0.10787656  0.11567096  0.00509199  1
  Co  Co120  1  0.04274871  0.94503615  0.88992069  1
  Co  Co121  1  0.20346517  0.49339158  0.42486627  1
  Co  Co122  1  0.13589473  0.21715040  0.83262782  1
  Co  Co123  1  0.52229608  0.17308237  0.57168742  1
  Co  Co124  1  0.07984212  0.43483036  0.70164923  1
  Co  Co125  1  0.36551092  0.90820006  0.97596702  1
  Co  Co126  1  0.98875310  0.42290164  0.90940672  1
  Co  Co127  1  0.36584542  0.03804368  0.84378441  1
  Co  Co128  1  0.78541828  0.13975061  0.62370886  1
  Co  Co129  1  0.96581032  0.47850241  0.04882739  1
  Co  Co130  1  0.43256510  0.86999421  0.12774382  1
  Co  Co131  1  0.76405058  0.23651811  0.48287778  1
  Co  Co132  1  0.91244488  0.06729334  0.21420981  1
  Co  Co133  1  0.96746441  0.36931163  0.60009815  1
  Co  Co134  1  0.73915565  0.37496869  0.39909615  1
  Co  Co135  1  0.19485614  0.91774289  0.63094097  1
  Co  Co136  1  0.26271684  0.25112543  0.54063627  1
  Co  Co137  1  0.45481633  0.71619723  0.73110250  1
  Co  Co138  1  0.12346064  0.56727658  0.58422968  1
  Co  Co139  1  0.20289547  0.05834675  0.53730436  1
  Co  Co140  1  0.73364646  0.86612952  0.15152290  1
  Co  Co141  1  0.52383702  0.41355233  0.74209289  1
  Co  Co142  1  0.50714621  0.57126066  0.76619465  1
  Co  Co143  1  0.91846900  0.90686779  0.15377932  1
  Co  Co144  1  0.74779986  0.36650020  0.25134083  1
  Co  Co145  1  0.31027985  0.39522575  0.54805293  1
  Co  Co146  1  0.21417465  0.07624338  0.87177849  1
  Co  Co147  1  0.45692157  0.85957394  0.28192796  1
  Co  Co148  1  0.81208322  0.60871929  0.29642341  1
  Co  Co149  1  0.76943683  0.94565625  0.69125226  1
  Co  Co150  1  0.94702284  0.54812356  0.60985782  1
  Co  Co151  1  0.35801630  0.19216585  0.88633205  1
  Co  Co152  1  0.79503381  0.65558146  0.95647868  1
  Co  Co153  1  0.52074002  0.51111616  0.91136602  1
  Co  Co154  1  0.71023953  0.37660812  0.57909914  1
  Co  Co155  1  0.06918687  -0.11895006  0.73321868  1
  Co  Co156  1  0.90156989  0.93606871  0.84508245  1
  Co  Co157  1  0.69761104  0.71346536  0.81615588  1
  Co  Co158  1  0.57150426  0.42067138  0.36789578  1
  Co  Co159  1  0.47578670  1.01716163  0.04716309  1
  Co  Co160  1  0.32103467  0.85030010  0.68145119  1
  Co  Co161  1  0.18660284  0.94465892  -0.01421010  1
  Ni  Ni162  1  0.52921837  0.71795536  0.31573481  1
  Ni  Ni163  1  0.71831886  0.67475291  0.13521970  1
  Ni  Ni164  1  0.48412441  0.61084022  0.60174765  1
  Ni  Ni165  1  0.44291272  -0.01947380  0.38116388  1
  Ni  Ni166  1  0.93972841  0.09029776  0.94301877  1
  Ni  Ni167  1  0.25323615  0.18935056  0.14433527  1
  Ni  Ni168  1  0.94999405  0.13607342  0.66889173  1
  Ni  Ni169  1  0.94602212  0.92529080  0.45020574  1
  Ni  Ni170  1  0.57682210  0.59562472  0.16685835  1
  Ni  Ni171  1  0.66633666  0.37702229  0.76882368  1
  Ni  Ni172  1  0.23517483  0.78477582  0.95094496  1
  Ni  Ni173  1  0.71292466  0.25225790  0.90281397  1
  Ni  Ni174  1  0.30783970  0.87537194  0.33821528  1
  Ni  Ni175  1  0.65732270  0.08027621  0.86365954  1
  Ni  Ni176  1  0.46558694  0.31611078  0.29707257  1
  Ni  Ni177  1  0.57212086  0.26079291  0.09893588  1
  Ni  Ni178  1  0.05597129  0.65943104  0.04288052  1
  Ni  Ni179  1  0.21864846  0.46263603  0.23323149  1
  Ni  Ni180  1  0.70408305  0.40517048  0.09976493  1
  Ni  Ni181  1  0.87567613  0.30563430  0.37323410  1
  Ni  Ni182  1  0.26363340  0.71139459  0.28495140  1
  Ni  Ni183  1  0.60425849  0.56258113  0.36818161  1
  Ni  Ni184  1  0.29612198  0.32481894  0.83854261  1
  Ni  Ni185  1  0.32456845  0.56624802  0.14125548  1
  Ni  Ni186  1  0.56927222  0.21179213  0.81121154  1
  Ni  Ni187  1  0.09683488  0.37783363  0.33827093  1
  Ni  Ni188  1  0.01254593  0.33554403  0.07840638  1
  Ni  Ni189  1  -0.00505525  0.71158097  0.69884502  1
  Ni  Ni190  1  0.82623898  0.78904296  0.86846416  1
  Ni  Ni191  1  0.59094587  0.99254616  0.41792653  1
  Ni  Ni192  1  0.76510001  0.59073554  0.62053558  1
  Ni  Ni193  1  0.93161207  0.16659417  0.09013417  1
  Ni  Ni194  1  0.12603986  0.58852174  0.90203570  1
  Ni  Ni195  1  0.56804567  0.84096776  0.78904222  1
  Ni  Ni196  1  0.27484835  0.39706288  0.97841543  1
  Ni  Ni197  1  0.88322341  0.21980391  0.81850703  1
  Ni  Ni198  1  0.20759476  0.08195682  0.29188287  1
  Ni  Ni199  1  0.44029321  0.14512945  0.15671858  1
  Ni  Ni200  1  0.35607766  0.75003139  0.43877379  1
  Ni  Ni201  1  0.20272480  0.81794243  0.48020062  1
  Ni  Ni202  1  0.27033014  0.59817745  -0.01459213  1
  Ni  Ni203  1  0.84436423  0.87631277  0.56212522  1
  Ni  Ni204  1  0.12515417  0.19322031  0.58451052  1
  Ni  Ni205  1  0.62557740  0.11535489  0.12780113  1
  Ni  Ni206  1  0.05265340  0.95910776  0.23979969  1
  Ni  Ni207  1  0.42488087  0.46340375  0.43364012  1
  Ni  Ni208  1  0.88482030  0.58184207  0.47273969  1
  Ni  Ni209  1  0.04672965  0.80387101  0.39499193  1
  Ni  Ni210  1  0.02216500  0.06439585  0.53669999  1
  Ni  Ni211  1  0.63206741  0.71782352  0.50053297  1
  Ni  Ni212  1  0.68839396  0.76794455  0.99875145  1
  Ni  Ni213  1  0.47519999  0.38632300  0.03042124  1
  Ni  Ni214  1  0.74405109  -0.00526858  0.40786115  1
  Ni  Ni215  1  0.02812384  0.24156947  0.33795109  1
