# generated using pymatgen
data_Ti2CoNi
_symmetry_space_group_name_H-M   'P 1'
_cell_length_a   14.54693544
_cell_length_b   14.45178771
_cell_length_c   14.48625521
_cell_angle_alpha   90.15269652
_cell_angle_beta   90.16248520
_cell_angle_gamma   90.17486985
_symmetry_Int_Tables_number   1
_chemical_formula_structural   Ti2CoNi
_chemical_formula_sum   'Ti108 Co54 Ni54'
_cell_volume   3045.39685980
_cell_formula_units_Z   54
loop_
 _symmetry_equiv_pos_site_id
 _symmetry_equiv_pos_as_xyz
  1  'x, y, z'
loop_
 _atom_site_type_symbol
 _atom_site_label
 _atom_site_symmetry_multiplicity
 _atom_site_fract_x
 _atom_site_fract_y
 _atom_site_fract_z
 _atom_site_occupancy
  Ti  Ti0  1  0.02910307  0.02519126  0.03958534  1
  Ti  Ti1  1  -0.07835763  -0.02835250  0.32811152  1
  Ti  Ti2  1  0.14329357  -0.04281228  0.63114554  1
  Ti  Ti3  1  0.06120809  0.24313818  0.01644511  1
  Ti  Ti4  1  -0.08246994  0.28138482  0.33658139  1
  Ti  Ti5  1  -0.03846993  0.38868222  0.64030958  1
  Ti  Ti6  1  -0.02900255  0.68339066  -0.11791015  1
  Ti  Ti7  1  -0.05303395  0.72484079  0.39802776  1
  Ti  Ti8  1  0.00258460  0.68285078  0.66370980  1
  Ti  Ti9  1  0.25375592  -0.02117818  -0.00465515  1
  Ti  Ti10  1  0.38689516  -0.05504878  0.35669749  1
  Ti  Ti11  1  0.36736518  0.02624075  0.63733912  1
  Ti  Ti12  1  0.27190228  0.37345443  -0.03268300  1
  Ti  Ti13  1  0.31755605  0.36540192  0.33855856  1
  Ti  Ti14  1  0.28447850  0.33599840  0.70016166  1
  Ti  Ti15  1  0.30977585  0.76414782  0.00532949  1
  Ti  Ti16  1  0.32735837  0.62779744  0.35563582  1
  Ti  Ti17  1  0.33731223  0.63721791  0.71475136  1
  Ti  Ti18  1  0.67734827  0.05385062  0.07612269  1
  Ti  Ti19  1  0.62509577  -0.01021979  0.30410444  1
  Ti  Ti20  1  0.61457730  0.04653952  0.64563732  1
  Ti  Ti21  1  0.61407815  0.38725257  -0.00179198  1
  Ti  Ti22  1  0.67426290  0.35868662  0.33617952  1
  Ti  Ti23  1  0.61575100  0.37231023  0.71509805  1
  Ti  Ti24  1  0.68603727  0.60367311  0.07689901  1
  Ti  Ti25  1  0.68041501  0.58735326  0.27436976  1
  Ti  Ti26  1  0.65095653  0.57371663  0.70626582  1
  Ti  Ti27  1  0.02587216  0.13684768  0.19539656  1
  Ti  Ti28  1  -0.02050250  0.24865521  0.51344112  1
  Ti  Ti29  1  -0.03442281  0.12538816  0.86540410  1
  Ti  Ti30  1  0.06444777  0.53813651  0.13287556  1
  Ti  Ti31  1  0.01999583  0.42842969  0.43902557  1
  Ti  Ti32  1  -0.03304564  0.49392416  0.86063576  1
  Ti  Ti33  1  0.02558687  0.85118571  0.16849747  1
  Ti  Ti34  1  -0.00825957  0.90153518  0.52560077  1
  Ti  Ti35  1  -0.00399666  0.93553234  0.83786537  1
  Ti  Ti36  1  0.38336589  0.17809633  0.17298040  1
  Ti  Ti37  1  0.34602626  0.21610375  0.55507575  1
  Ti  Ti38  1  0.34315356  0.19052630  0.88744062  1
  Ti  Ti39  1  0.24174094  0.47418642  0.18581533  1
  Ti  Ti40  1  0.31320174  0.51133745  0.57308366  1
  Ti  Ti41  1  0.36824060  0.52312616  0.88441566  1
  Ti  Ti42  1  0.35488237  0.92271534  0.15431780  1
  Ti  Ti43  1  0.31507030  0.85256276  0.50676635  1
  Ti  Ti44  1  0.36961142  0.86623231  0.83671038  1
  Ti  Ti45  1  0.58143965  0.15476078  0.20453983  1
  Ti  Ti46  1  0.69845915  0.12771812  0.50644582  1
  Ti  Ti47  1  0.68209166  0.13758497  0.87921177  1
  Ti  Ti48  1  0.70514007  0.43250285  0.15779175  1
  Ti  Ti49  1  0.66459874  0.60461975  0.52509137  1
  Ti  Ti50  1  0.60531112  0.55235287  0.90134692  1
  Ti  Ti51  1  0.60184076  0.78000031  0.14229192  1
  Ti  Ti52  1  0.72928916  0.82689530  0.55181198  1
  Ti  Ti53  1  0.70258437  0.83504002  0.85329385  1
  Ti  Ti54  1  0.16590936  -0.01724048  0.21175309  1
  Ti  Ti55  1  0.10798021  0.03430668  0.41417089  1
  Ti  Ti56  1  0.19017811  -0.08309390  0.80007888  1
  Ti  Ti57  1  0.22060992  0.29291265  0.16905287  1
  Ti  Ti58  1  0.15705262  0.33195885  0.55193718  1
  Ti  Ti59  1  0.09248292  0.37857241  0.76192072  1
  Ti  Ti60  1  0.18162705  0.71338568  0.15855544  1
  Ti  Ti61  1  0.21241174  0.66479304  0.50078371  1
  Ti  Ti62  1  0.18004266  0.63289042  0.83658598  1
  Ti  Ti63  1  0.53003071  -0.03146048  0.11229770  1
  Ti  Ti64  1  0.50355041  0.00661368  0.50167096  1
  Ti  Ti65  1  0.46132126  0.02552314  0.81544460  1
  Ti  Ti66  1  0.42430097  0.35746760  0.14620632  1
  Ti  Ti67  1  0.51735142  0.34064351  0.46106879  1
  Ti  Ti68  1  0.49519794  0.27911913  0.83307976  1
  Ti  Ti69  1  0.49583485  0.64871229  0.24269554  1
  Ti  Ti70  1  0.48503076  0.64499359  0.46621571  1
  Ti  Ti71  1  0.53666807  0.70897832  0.80858384  1
  Ti  Ti72  1  0.84324243  0.04628059  0.13674637  1
  Ti  Ti73  1  0.82250024  -0.00509732  0.55585132  1
  Ti  Ti74  1  0.82545167  -0.00480077  0.79732213  1
  Ti  Ti75  1  0.92578693  0.40025625  0.12610387  1
  Ti  Ti76  1  0.72816892  0.30512465  0.51462171  1
  Ti  Ti77  1  0.89987959  0.32901674  0.89023729  1
  Ti  Ti78  1  0.87070738  0.60759312  0.15917541  1
  Ti  Ti79  1  0.89503001  0.57722959  0.50656623  1
  Ti  Ti80  1  0.78876196  0.64418673  0.82179852  1
  Ti  Ti81  1  0.16259730  0.09553804  -0.11224812  1
  Ti  Ti82  1  0.18447849  0.17815266  0.29265021  1
  Ti  Ti83  1  0.18983056  0.13270328  0.58901734  1
  Ti  Ti84  1  0.24586475  0.58648093  0.02538657  1
  Ti  Ti85  1  0.13520306  0.56097537  0.32417247  1
  Ti  Ti86  1  0.12358092  0.51641729  0.61638113  1
  Ti  Ti87  1  0.12159027  0.75753891  -0.03256964  1
  Ti  Ti88  1  0.15547260  0.75311305  0.33942949  1
  Ti  Ti89  1  0.18414034  0.74956998  0.65644930  1
  Ti  Ti90  1  0.53490682  0.17782614  0.01241520  1
  Ti  Ti91  1  0.42179119  0.20161284  0.37379354  1
  Ti  Ti92  1  0.50580388  0.20213942  0.65497059  1
  Ti  Ti93  1  0.46415232  0.63640045  0.03263905  1
  Ti  Ti94  1  0.52865447  0.46000214  0.27382968  1
  Ti  Ti95  1  0.49652455  0.49613591  0.59400096  1
  Ti  Ti96  1  0.51381744  0.80761676  -0.04105034  1
  Ti  Ti97  1  0.56166686  0.83964526  0.43635892  1
  Ti  Ti98  1  0.56792287  0.86535952  0.69495078  1
  Ti  Ti99  1  0.83595067  0.18121044  -0.00778997  1
  Ti  Ti100  1  0.76120590  0.17419993  0.33040303  1
  Ti  Ti101  1  0.88336623  0.15285289  0.64927893  1
  Ti  Ti102  1  0.79179797  0.48372690  -0.03680145  1
  Ti  Ti103  1  0.85605340  0.45242508  0.30924363  1
  Ti  Ti104  1  0.79586500  0.47076992  0.62908692  1
  Ti  Ti105  1  0.82845313  0.86757815  0.01445827  1
  Ti  Ti106  1  0.75260045  0.81629743  0.29682620  1
  Ti  Ti107  1  0.85005328  0.80769079  0.70871128  1
  Co  Co108  1  0.03851994  0.67288093  0.22851702  1
  Co  Co109  1  1.01536719  0.41619452  0.99340639  1
  Co  Co110  1  0.75974734  0.75081547  0.13674676  1
  Co  Co111  1  0.49717761  0.29355402  0.27688881  1
  Co  Co112  1  0.30820265  0.03378719  0.84050013  1
  Co  Co113  1  0.41914644  0.77634162  0.71451228  1
  Co  Co114  1  0.23650893  0.23864389  0.43699467  1
  Co  Co115  1  0.70197046  0.91820238  0.16663573  1
  Co  Co116  1  0.05968523  0.57862413  0.48455406  1
  Co  Co117  1  0.90759992  0.23520512  0.12980190  1
  Co  Co118  1  0.67227412  0.22782830  0.64923382  1
  Co  Co119  1  0.32777006  0.36633599  0.49659776  1
  Co  Co120  1  0.77426937  0.00950999  0.38338092  1
  Co  Co121  1  0.06405761  0.73056580  0.52215021  1
  Co  Co122  1  0.56416574  0.13497956  0.78317937  1
  Co  Co123  1  0.58907996  0.31057767  0.14868170  1
  Co  Co124  1  -0.00071057  0.70529546  0.07394297  1
  Co  Co125  1  0.50483132  0.54622614  0.76765327  1
  Co  Co126  1  0.68633045  0.73665260  0.70959433  1
  Co  Co127  1  0.16358375  0.39398268  0.32014776  1
  Co  Co128  1  0.38196833  0.51247129  0.25613101  1
  Co  Co129  1  0.44793592  0.34239112  0.60657370  1
  Co  Co130  1  0.35996999  0.69711029  0.55835133  1
  Co  Co131  1  0.80668816  0.66116552  0.62410757  1
  Co  Co132  1  0.97262310  0.56637116  0.33573656  1
  Co  Co133  1  0.07735563  0.27381955  0.37074478  1
  Co  Co134  1  0.80092460  0.33694190  0.03992800  1
  Co  Co135  1  0.55228067  0.01710209  0.95357321  1
  Co  Co136  1  0.92113539  0.56194340  0.00780976  1
  Co  Co137  1  0.25252265  0.76681812  0.81606343  1
  Co  Co138  1  0.74621305  0.10882310  0.71722834  1
  Co  Co139  1  0.41030717  0.92153126  0.99573495  1
  Co  Co140  1  0.57925511  0.50544724  0.41703351  1
  Co  Co141  1  0.05895537  0.30200848  0.18460366  1
  Co  Co142  1  0.90191899  0.74994000  0.23807885  1
  Co  Co143  1  0.67912970  0.23242303  0.02726695  1
  Co  Co144  1  0.38460998  0.68465856  0.87556340  1
  Co  Co145  1  0.65728766  0.96692352  0.48403040  1
  Co  Co146  1  0.29998031  0.87470987  0.67364380  1
  Co  Co147  1  0.49170390  0.42797093  0.89129616  1
  Co  Co148  1  0.89066072  0.77545513  0.55164974  1
  Co  Co149  1  0.74625402  0.18583160  0.15838550  1
  Co  Co150  1  1.01812308  0.42300544  0.27394400  1
  Co  Co151  1  0.14652845  0.86016183  0.49408595  1
  Co  Co152  1  0.14895176  0.40474194  0.06840203  1
  Co  Co153  1  0.50075361  0.65037184  0.63963006  1
  Co  Co154  1  0.08275394  0.59725162  0.98105178  1
  Co  Co155  1  0.73263017  0.92137846  0.68042549  1
  Co  Co156  1  0.78997814  0.31982786  0.22001097  1
  Co  Co157  1  0.65200643  0.86724554  0.01520245  1
  Co  Co158  1  0.00440922  0.12716536  0.36228590  1
  Co  Co159  1  0.88153410  0.12573972  0.26183085  1
  Co  Co160  1  0.46079830  0.83674575  0.56808893  1
  Co  Co161  1  0.06673300  0.56024933  0.75693933  1
  Ni  Ni162  1  0.18353166  0.86557398  0.09389162  1
  Ni  Ni163  1  0.30549948  0.80059100  0.25984336  1
  Ni  Ni164  1  0.77819742  0.69912460  0.45021574  1
  Ni  Ni165  1  0.86559017  0.38459093  0.48022086  1
  Ni  Ni166  1  0.42016174  0.77104384  0.38001308  1
  Ni  Ni167  1  0.50466138  0.86439503  0.26619392  1
  Ni  Ni168  1  0.72577775  0.30276024  0.88104514  1
  Ni  Ni169  1  0.82569983  0.62396346  0.31959082  1
  Ni  Ni170  1  0.07189998  0.24115827  0.84273166  1
  Ni  Ni171  1  0.24265205  -0.00089278  0.50030966  1
  Ni  Ni172  1  0.95267591  0.98281763  0.67427645  1
  Ni  Ni173  1  0.07225303  0.23408467  0.66156440  1
  Ni  Ni174  1  0.74900564  0.49670300  0.43243756  1
  Ni  Ni175  1  0.86728433  0.89202636  0.17499281  1
  Ni  Ni176  1  0.07034228  0.79172624  0.78605506  1
  Ni  Ni177  1  0.10873051  0.91325944  0.95079339  1
  Ni  Ni178  1  0.23044962  0.49849108  0.75104553  1
  Ni  Ni179  1  0.64554263  0.98659847  0.79802543  1
  Ni  Ni180  1  0.87729450  0.81692265  0.86913476  1
  Ni  Ni181  1  0.22214205  0.91444139  0.35062073  1
  Ni  Ni182  1  0.64512201  0.43610914  0.55675216  1
  Ni  Ni183  1  0.84034216  0.86536049  0.42760455  1
  Ni  Ni184  1  0.15258040  0.46933471  0.89616511  1
  Ni  Ni185  1  0.59583358  0.74539742  0.57053533  1
  Ni  Ni186  1  0.43063332  0.29643346  0.99891559  1
  Ni  Ni187  1  0.60427308  0.72872034  0.33125517  1
  Ni  Ni188  1  0.34028431  0.65152932  0.16639363  1
  Ni  Ni189  1  0.39526075  0.08669854  0.01737855  1
  Ni  Ni190  1  0.41219400  0.49290243  0.42977003  1
  Ni  Ni191  1  0.04863140  0.87222461  0.35237892  1
  Ni  Ni192  1  0.35598849  0.17053109  0.72690858  1
  Ni  Ni193  1  0.17786547  0.11986087  0.11128340  1
  Ni  Ni194  1  0.54724578  0.50513789  0.10752794  1
  Ni  Ni195  1  0.05712226  0.08997032  0.72600161  1
  Ni  Ni196  1  0.87984627  0.02065521  0.96260527  1
  Ni  Ni197  1  0.53850189  0.17297174  0.50376601  1
  Ni  Ni198  1  1.01987111  0.08665108  0.55625870  1
  Ni  Ni199  1  0.38404884  0.50378176  0.08838133  1
  Ni  Ni200  1  0.20152685  0.47836213  0.45387336  1
  Ni  Ni201  1  0.30965475  0.08758125  0.31116948  1
  Ni  Ni202  1  0.66254824  0.70509168  0.94695495  1
  Ni  Ni203  1  0.42389054  0.41625240  0.73988398  1
  Ni  Ni204  1  0.43504214  0.78071069  0.13705471  1
  Ni  Ni205  1  0.87991491  0.12182603  0.46299112  1
  Ni  Ni206  1  0.74192389  0.46284446  0.79450784  1
  Ni  Ni207  1  0.82122690  0.69187356  0.98552554  1
  Ni  Ni208  1  0.90831659  0.55831811  0.71723136  1
  Ni  Ni209  1  0.28438757  0.21704161  0.03734340  1
  Ni  Ni210  1  0.45943144  0.03766148  0.24681620  1
  Ni  Ni211  1  0.93115838  0.26704518  0.74674494  1
  Ni  Ni212  1  0.20211152  0.19326493  0.75114689  1
  Ni  Ni213  1  0.72172590  0.98472160  0.93866308  1
  Ni  Ni214  1  0.60898743  0.19730428  0.36252138  1
  Ni  Ni215  1  0.36670252  0.08015543  0.46441748  1
