# generated using pymatgen
data_Ti2CoNi
_symmetry_space_group_name_H-M   'P 1'
_cell_length_a   14.64244852
_cell_length_b   14.59990462
_cell_length_c   14.64797964
_cell_angle_alpha   89.77269317
_cell_angle_beta   89.93799174
_cell_angle_gamma   89.87851905
_symmetry_Int_Tables_number   1
_chemical_formula_structural   Ti2CoNi
_chemical_formula_sum   'Ti108 Co54 Ni54'
_cell_volume   3131.38745737
_cell_formula_units_Z   54
loop_
 _symmetry_equiv_pos_site_id
 _symmetry_equiv_pos_as_xyz
  1  'x, y, z'
loop_
 _atom_site_type_symbol
 _atom_site_label
 _atom_site_symmetry_multiplicity
 _atom_site_fract_x
 _atom_site_fract_y
 _atom_site_fract_z
 _atom_site_occupancy
  Ti  Ti0  1  -0.07411834  0.01647221  0.03824479  1
  Ti  Ti1  1  0.03543067  0.04580390  0.31956386  1
  Ti  Ti2  1  -0.05169096  0.00665125  0.68041902  1
  Ti  Ti3  1  0.04843166  0.39378887  0.02063550  1
  Ti  Ti4  1  -0.02981436  0.29243203  0.34813968  1
  Ti  Ti5  1  -0.00063973  0.32339868  0.58215678  1
  Ti  Ti6  1  -0.03091034  0.67516552  -0.05965583  1
  Ti  Ti7  1  -0.01524223  0.65460417  0.35609669  1
  Ti  Ti8  1  0.05749300  0.69234688  0.66356376  1
  Ti  Ti9  1  0.28019188  0.01175105  -0.02518851  1
  Ti  Ti10  1  0.29473213  -0.03413050  0.34537051  1
  Ti  Ti11  1  0.38968750  0.01543476  0.63837002  1
  Ti  Ti12  1  0.33657268  0.34825967  -0.08941003  1
  Ti  Ti13  1  0.31521112  0.37840600  0.26570117  1
  Ti  Ti14  1  0.29309354  0.33153807  0.69782424  1
  Ti  Ti15  1  0.35141537  0.73206728  0.03337750  1
  Ti  Ti16  1  0.30816707  0.65315493  0.27391944  1
  Ti  Ti17  1  0.32149623  0.67551771  0.62779978  1
  Ti  Ti18  1  0.63054909  -0.06059268  -0.01214938  1
  Ti  Ti19  1  0.60715891  -0.02307253  0.31029509  1
  Ti  Ti20  1  0.72833585  0.05124707  0.69874268  1
  Ti  Ti21  1  0.63068702  0.36557073  0.03582271  1
  Ti  Ti22  1  0.70948961  0.32844130  0.35992017  1
  Ti  Ti23  1  0.62643811  0.31097192  0.67756566  1
  Ti  Ti24  1  0.62347292  0.70103338  0.07236731  1
  Ti  Ti25  1  0.58420453  0.69784780  0.37217137  1
  Ti  Ti26  1  0.74978571  0.71265427  0.59419966  1
  Ti  Ti27  1  0.00918692  0.21861920  0.16991601  1
  Ti  Ti28  1  -0.12869851  0.17575908  0.55335396  1
  Ti  Ti29  1  0.05075793  0.10840614  0.86980168  1
  Ti  Ti30  1  -0.02407884  0.42785530  0.18980773  1
  Ti  Ti31  1  0.04055375  0.51486850  0.51383654  1
  Ti  Ti32  1  0.02501465  0.47734135  0.72251786  1
  Ti  Ti33  1  0.05802924  0.88760699  0.12184345  1
  Ti  Ti34  1  -0.10646539  0.77583432  0.49831999  1
  Ti  Ti35  1  -0.02699649  0.91983401  0.87306646  1
  Ti  Ti36  1  0.31728409  0.17620665  0.23275429  1
  Ti  Ti37  1  0.35239542  0.18235241  0.46013352  1
  Ti  Ti38  1  0.37496731  0.19377986  0.78136287  1
  Ti  Ti39  1  0.37568052  0.50314710  0.09491394  1
  Ti  Ti40  1  0.32380207  0.49654622  0.53917936  1
  Ti  Ti41  1  0.40706321  0.50352016  0.76440488  1
  Ti  Ti42  1  0.31722623  0.83640649  0.19297034  1
  Ti  Ti43  1  0.34902059  0.75678130  0.45036127  1
  Ti  Ti44  1  0.31086400  0.79704976  0.84035839  1
  Ti  Ti45  1  0.67524575  0.22964079  0.18585078  1
  Ti  Ti46  1  0.67609609  0.18490883  0.48828109  1
  Ti  Ti47  1  0.66813487  0.18085387  0.94328149  1
  Ti  Ti48  1  0.56254788  0.51725997  0.14239232  1
  Ti  Ti49  1  0.68228340  0.51842017  0.38513932  1
  Ti  Ti50  1  0.72166343  0.41185313  0.86345699  1
  Ti  Ti51  1  0.73493104  0.80315056  0.19036350  1
  Ti  Ti52  1  0.65965771  0.84452208  0.48714769  1
  Ti  Ti53  1  0.65867038  0.87745000  0.79374023  1
  Ti  Ti54  1  0.16866014  0.04759185  0.14781887  1
  Ti  Ti55  1  0.11243719  0.02793821  0.52336409  1
  Ti  Ti56  1  0.16955384  -0.06992423  0.84417265  1
  Ti  Ti57  1  0.22855194  0.38430575  0.07792157  1
  Ti  Ti58  1  0.18265718  0.24525730  0.53817846  1
  Ti  Ti59  1  0.14437123  0.38558202  0.85720371  1
  Ti  Ti60  1  0.13118139  0.70559689  0.23795600  1
  Ti  Ti61  1  0.19156641  0.64223398  0.43313945  1
  Ti  Ti62  1  0.13052841  0.62868833  0.81868501  1
  Ti  Ti63  1  0.47572479  0.01508190  0.10302523  1
  Ti  Ti64  1  0.55006767  0.02144299  0.50973458  1
  Ti  Ti65  1  0.44643834  -0.04845560  0.83059972  1
  Ti  Ti66  1  0.48566717  0.29523782  0.18102720  1
  Ti  Ti67  1  0.52222196  0.31546015  0.48115152  1
  Ti  Ti68  1  0.52022470  0.28862389  0.86257022  1
  Ti  Ti69  1  0.47599828  0.68712260  0.20915040  1
  Ti  Ti70  1  0.51233774  0.68838831  0.55467492  1
  Ti  Ti71  1  0.59839688  0.63059522  0.83434464  1
  Ti  Ti72  1  0.75193900  0.01809597  0.18396817  1
  Ti  Ti73  1  0.82260837  -0.04380171  0.53152903  1
  Ti  Ti74  1  0.81035501  0.06047705  0.87954471  1
  Ti  Ti75  1  0.80324604  0.36945742  0.13424393  1
  Ti  Ti76  1  0.78214206  0.35632927  0.55647387  1
  Ti  Ti77  1  0.85734537  0.35716176  0.73527536  1
  Ti  Ti78  1  0.87643035  0.65307681  0.13258797  1
  Ti  Ti79  1  0.85111180  0.57893683  0.46783236  1
  Ti  Ti80  1  0.77996505  0.62877145  0.88989513  1
  Ti  Ti81  1  0.18779571  0.20441355  0.01931120  1
  Ti  Ti82  1  0.16604446  0.25055906  0.33396532  1
  Ti  Ti83  1  0.21923005  0.12409770  0.68084734  1
  Ti  Ti84  1  0.15650474  0.55453512  -0.00509712  1
  Ti  Ti85  1  0.13359035  0.48316798  0.31427949  1
  Ti  Ti86  1  0.21885859  0.49682298  0.72010888  1
  Ti  Ti87  1  0.13986212  0.77674630  -0.03109940  1
  Ti  Ti88  1  0.08737106  0.83806767  0.41685081  1
  Ti  Ti89  1  0.13139350  0.87569332  0.65991617  1
  Ti  Ti90  1  0.47606186  0.10419066  -0.06636572  1
  Ti  Ti91  1  0.45802364  0.09231995  0.33388372  1
  Ti  Ti92  1  0.46903081  0.20039042  0.62319284  1
  Ti  Ti93  1  0.48849863  0.49910851  -0.05839881  1
  Ti  Ti94  1  0.53462098  0.41287610  0.31749735  1
  Ti  Ti95  1  0.55357491  0.49792386  0.62735797  1
  Ti  Ti96  1  0.50559655  0.78421879  -0.07462035  1
  Ti  Ti97  1  0.47426765  0.86648190  0.38628412  1
  Ti  Ti98  1  0.44884017  0.82006613  0.70221957  1
  Ti  Ti99  1  0.82361914  0.17007927  0.07493260  1
  Ti  Ti100  1  0.84075802  0.08732567  0.35750181  1
  Ti  Ti101  1  0.89889407  0.17070282  0.74439535  1
  Ti  Ti102  1  0.85741198  0.47775399  -0.01207190  1
  Ti  Ti103  1  0.82185990  0.54599867  0.26858357  1
  Ti  Ti104  1  0.82056456  0.56109521  0.72071123  1
  Ti  Ti105  1  0.89861673  0.82992674  0.04383379  1
  Ti  Ti106  1  0.87736278  0.81067357  0.31831291  1
  Ti  Ti107  1  0.90143542  0.80265763  0.70077550  1
  Co  Co108  1  0.56423533  0.95678367  0.67737986  1
  Co  Co109  1  0.61304962  0.93093818  0.14985129  1
  Co  Co110  1  0.75290192  0.52036128  0.57481183  1
  Co  Co111  1  0.40333199  0.42391475  0.41441583  1
  Co  Co112  1  0.16985295  0.42244301  0.57643313  1
  Co  Co113  1  0.90996606  0.46892484  0.60544464  1
  Co  Co114  1  0.83387549  0.24687129  0.41489400  1
  Co  Co115  1  0.34813433  0.85429882  0.57551177  1
  Co  Co116  1  0.65284751  0.62273325  0.50441823  1
  Co  Co117  1  0.25807222  0.52162441  0.20309507  1
  Co  Co118  1  0.41979843  0.51484443  0.25883669  1
  Co  Co119  1  0.73599192  0.87651889  0.64316686  1
  Co  Co120  1  0.46779594  0.36247320  0.02415570  1
  Co  Co121  1  0.94494242  0.64634454  0.78431838  1
  Co  Co122  1  0.11704555  0.50895216  0.14612141  1
  Co  Co123  1  0.33004137  0.18228871  0.93695857  1
  Co  Co124  1  0.01605421  0.51605321  0.88722028  1
  Co  Co125  1  0.28804188  0.91602806  0.72140272  1
  Co  Co126  1  0.60824402  0.12548858  0.62095391  1
  Co  Co127  1  0.92286585  0.37138881  0.88216850  1
  Co  Co128  1  0.84339305  0.38629312  0.29615147  1
  Co  Co129  1  0.26353368  0.06975924  0.52121378  1
  Co  Co130  1  0.76964133  0.24044813  0.82180815  1
  Co  Co131  1  0.25263674  0.66446579  0.92489656  1
  Co  Co132  1  0.82874960  0.92866378  0.77288244  1
  Co  Co133  1  0.49032826  0.81814319  0.10256160  1
  Co  Co134  1  0.06052466  0.26050379  0.93130480  1
  Co  Co135  1  0.97336571  0.48653230  0.34879693  1
  Co  Co136  1  0.64987916  0.07995713  0.06824491  1
  Co  Co137  1  0.49620954  0.09335681  0.75449028  1
  Co  Co138  1  0.65120981  0.61584699  0.68257036  1
  Co  Co139  1  0.74987591  0.73777559  0.76131438  1
  Co  Co140  1  0.78042871  0.30507720  0.97430250  1
  Co  Co141  1  0.83033594  0.22022743  0.24291591  1
  Co  Co142  1  0.75385963  0.21250304  0.65994596  1
  Co  Co143  1  0.62709100  0.18190633  0.77740229  1
  Co  Co144  1  0.48211756  0.63686559  0.03793095  1
  Co  Co145  1  0.88043779  0.41315344  0.45014186  1
  Co  Co146  1  -0.00039269  0.59054380  0.21822260  1
  Co  Co147  1  0.39352501  -0.01133230  0.47233196  1
  Co  Co148  1  0.42105136  0.64707450  0.88564774  1
  Co  Co149  1  0.69519464  0.45318354  0.70659849  1
  Co  Co150  1  0.22782267  0.90850063  0.48485213  1
  Co  Co151  1  0.41677395  0.27276705  0.34011980  1
  Co  Co152  1  0.30655890  0.63796242  0.77543470  1
  Co  Co153  1  0.50619393  0.86059046  0.54944874  1
  Co  Co154  1  0.58409588  0.80480275  0.24759774  1
  Co  Co155  1  0.03105802  0.13786233  0.04084483  1
  Co  Co156  1  0.28400235  0.51859444  0.37183254  1
  Co  Co157  1  0.92698123  0.30097648  0.04702244  1
  Co  Co158  1  0.91564857  0.63718447  0.60752903  1
  Co  Co159  1  0.86692708  0.78088195  0.86677792  1
  Co  Co160  1  0.64290684  0.41533270  0.51151140  1
  Co  Co161  1  0.60602502  0.77603563  0.66930978  1
  Ni  Ni162  1  0.30554538  0.05009962  0.81641335  1
  Ni  Ni163  1  -0.00830704  0.89481474  0.56107627  1
  Ni  Ni164  1  0.39142692  0.89269750  0.99126141  1
  Ni  Ni165  1  0.08835428  0.36329897  0.44170331  1
  Ni  Ni166  1  0.19345426  0.08873616  0.32281633  1
  Ni  Ni167  1  0.73799724  0.55083879  0.10949961  1
  Ni  Ni168  1  0.67445064  0.77054989  0.91505453  1
  Ni  Ni169  1  0.29204899  0.50516082  0.89612062  1
  Ni  Ni170  1  0.65577684  0.52741727  0.97278517  1
  Ni  Ni171  1  0.25812036  0.35434271  0.43376677  1
  Ni  Ni172  1  0.70481068  0.02396540  0.44170274  1
  Ni  Ni173  1  0.15436409  0.91080962  0.25232739  1
  Ni  Ni174  1  0.53640714  0.20444861  0.05274701  1
  Ni  Ni175  1  0.88979330  0.91917694  0.18717175  1
  Ni  Ni176  1  0.42294352  0.61920986  0.39475577  1
  Ni  Ni177  1  0.94632352  0.93142188  0.40305426  1
  Ni  Ni178  1  0.74070376  0.89150886  0.34290046  1
  Ni  Ni179  1  0.19429419  0.76058347  0.55770688  1
  Ni  Ni180  1  0.98613248  0.54883833  0.05587148  1
  Ni  Ni181  1  0.23243693  0.79805218  0.34302343  1
  Ni  Ni182  1  0.57396366  0.22626544  0.33353206  1
  Ni  Ni183  1  0.05036270  0.78622896  0.80966436  1
  Ni  Ni184  1  0.22242799  0.88009543  0.06550264  1
  Ni  Ni185  1  0.04589607  0.16196005  0.62940431  1
  Ni  Ni186  1  0.46003318  0.35352424  0.70425621  1
  Ni  Ni187  1  0.57038426  0.10796773  0.20822803  1
  Ni  Ni188  1  0.47997343  0.65302375  0.71888070  1
  Ni  Ni189  1  0.79179219  0.90828975  0.93947512  1
  Ni  Ni190  1  0.22504229  0.66382904  0.10780990  1
  Ni  Ni191  1  0.17130922  0.59365910  0.59457072  1
  Ni  Ni192  1  0.12538269  0.34067596  0.20002751  1
  Ni  Ni193  1  0.90737883  0.19517492  0.92167607  1
  Ni  Ni194  1  0.45280682  0.92487359  0.23510605  1
  Ni  Ni195  1  0.10338163  0.98924248  0.99239998  1
  Ni  Ni196  1  0.20083874  0.21973199  0.83380053  1
  Ni  Ni197  1  0.37050861  0.32911265  0.55421807  1
  Ni  Ni198  1  0.97543769  0.76840576  0.20044806  1
  Ni  Ni199  1  0.78114971  0.72130460  0.02254823  1
  Ni  Ni200  1  0.05990239  0.69200729  0.08535141  1
  Ni  Ni201  1  0.75717491  0.69915890  0.38484706  1
  Ni  Ni202  1  0.04916576  0.18507065  0.45506126  1
  Ni  Ni203  1  1.01136502  0.27967958  0.77723892  1
  Ni  Ni204  1  0.04647787  0.69600658  0.50398131  1
  Ni  Ni205  1  0.66594690  0.64385912  0.23350125  1
  Ni  Ni206  1  0.56501590  0.44000320  0.80507465  1
  Ni  Ni207  1  0.67748002  0.42855247  0.21915601  1
  Ni  Ni208  1  0.13619769  0.30655346  0.69062996  1
  Ni  Ni209  1  0.91820399  0.08216972  0.20005485  1
  Ni  Ni210  1  0.09941835  0.02828384  0.72869715  1
  Ni  Ni211  1  0.34102985  0.11193090  0.08629266  1
  Ni  Ni212  1  0.61657618  0.03246378  0.84528962  1
  Ni  Ni213  1  0.52505562  0.51920465  0.46364560  1
  Ni  Ni214  1  0.34887789  0.27415837  0.08536671  1
  Ni  Ni215  1  0.95600197  0.05594288  0.49939220  1
