# generated using pymatgen
data_Ti2CoNi
_symmetry_space_group_name_H-M   'P 1'
_cell_length_a   14.62457920
_cell_length_b   14.59338136
_cell_length_c   14.60627072
_cell_angle_alpha   90.07231633
_cell_angle_beta   89.94249009
_cell_angle_gamma   90.15718308
_symmetry_Int_Tables_number   1
_chemical_formula_structural   Ti2CoNi
_chemical_formula_sum   'Ti108 Co54 Ni54'
_cell_volume   3117.28463487
_cell_formula_units_Z   54
loop_
 _symmetry_equiv_pos_site_id
 _symmetry_equiv_pos_as_xyz
  1  'x, y, z'
loop_
 _atom_site_type_symbol
 _atom_site_label
 _atom_site_symmetry_multiplicity
 _atom_site_fract_x
 _atom_site_fract_y
 _atom_site_fract_z
 _atom_site_occupancy
  Ti  Ti0  1  0.07791513  0.08250426  -0.04754281  1
  Ti  Ti1  1  -0.08389303  -0.03033687  0.37825126  1
  Ti  Ti2  1  -0.02959534  -0.04040823  0.66538962  1
  Ti  Ti3  1  -0.03760203  0.31517131  -0.11707642  1
  Ti  Ti4  1  0.02298203  0.40376373  0.32552933  1
  Ti  Ti5  1  0.06809735  0.37393271  0.69268098  1
  Ti  Ti6  1  -0.05184701  0.69373487  -0.00668224  1
  Ti  Ti7  1  0.00799197  0.64988092  0.36908939  1
  Ti  Ti8  1  0.01859189  0.73995111  0.66351380  1
  Ti  Ti9  1  0.41591036  0.05697684  0.00634421  1
  Ti  Ti10  1  0.34846342  0.00445060  0.36577223  1
  Ti  Ti11  1  0.35566361  -0.06378463  0.59476651  1
  Ti  Ti12  1  0.37822434  0.34530016  -0.05241837  1
  Ti  Ti13  1  0.34617701  0.32361976  0.24856707  1
  Ti  Ti14  1  0.25993512  0.29347640  0.65653851  1
  Ti  Ti15  1  0.23976115  0.63671012  -0.01876692  1
  Ti  Ti16  1  0.32582858  0.64044559  0.34255526  1
  Ti  Ti17  1  0.35212957  0.69311101  0.60051481  1
  Ti  Ti18  1  0.70897424  -0.00782715  -0.00386305  1
  Ti  Ti19  1  0.63855488  -0.07127854  0.28901251  1
  Ti  Ti20  1  0.68448731  -0.04619316  0.68661313  1
  Ti  Ti21  1  0.64379172  0.39231300  0.05258996  1
  Ti  Ti22  1  0.70152517  0.32486338  0.33869984  1
  Ti  Ti23  1  0.65848670  0.32861751  0.73533011  1
  Ti  Ti24  1  0.74471279  0.64145548  0.02832704  1
  Ti  Ti25  1  0.61843008  0.59949261  0.37165054  1
  Ti  Ti26  1  0.69070569  0.65088249  0.71519852  1
  Ti  Ti27  1  -0.02907174  0.14805861  0.12113745  1
  Ti  Ti28  1  -0.03657233  0.19186016  0.56017926  1
  Ti  Ti29  1  -0.00714279  0.12592292  0.78977071  1
  Ti  Ti30  1  0.01985203  0.55127480  0.10672028  1
  Ti  Ti31  1  0.03083749  0.49118156  0.51683966  1
  Ti  Ti32  1  -0.03405049  0.51555639  0.83480451  1
  Ti  Ti33  1  0.03124435  0.83869236  0.15474353  1
  Ti  Ti34  1  0.08412680  0.79180807  0.48241777  1
  Ti  Ti35  1  -0.01145686  0.85501196  0.83742385  1
  Ti  Ti36  1  0.28062690  0.16236897  0.17720264  1
  Ti  Ti37  1  0.38197373  0.15369563  0.50243098  1
  Ti  Ti38  1  0.31520619  0.08068667  0.78508840  1
  Ti  Ti39  1  0.32737945  0.51306581  0.18405718  1
  Ti  Ti40  1  0.33988844  0.45567273  0.51394075  1
  Ti  Ti41  1  0.36876062  0.52096328  0.85178558  1
  Ti  Ti42  1  0.32532299  0.94105947  0.17549911  1
  Ti  Ti43  1  0.28330946  0.81024644  0.46024589  1
  Ti  Ti44  1  0.29369838  0.78836311  0.87329380  1
  Ti  Ti45  1  0.70911062  0.16010059  0.17449951  1
  Ti  Ti46  1  0.69727009  0.22926500  0.54180539  1
  Ti  Ti47  1  0.79280097  0.20801778  0.82779501  1
  Ti  Ti48  1  0.62624339  0.48076967  0.22534387  1
  Ti  Ti49  1  0.69796514  0.42470431  0.57299122  1
  Ti  Ti50  1  0.68090682  0.48352810  0.88110296  1
  Ti  Ti51  1  0.64021952  0.78569836  0.15021584  1
  Ti  Ti52  1  0.63575889  0.86967976  0.46392786  1
  Ti  Ti53  1  0.63875648  0.76209536  0.89003490  1
  Ti  Ti54  1  0.15232065  0.00555112  0.10778253  1
  Ti  Ti55  1  0.15775535  0.12299067  0.48408720  1
  Ti  Ti56  1  0.17888291  -0.07062409  0.89474429  1
  Ti  Ti57  1  0.11652444  0.36100800  0.12519315  1
  Ti  Ti58  1  0.22181937  0.31082330  0.43990903  1
  Ti  Ti59  1  0.14102835  0.26671185  0.83867605  1
  Ti  Ti60  1  0.20084318  0.69822425  0.19253168  1
  Ti  Ti61  1  0.19670932  0.61103225  0.49282797  1
  Ti  Ti62  1  0.16553667  0.65838047  0.78528407  1
  Ti  Ti63  1  0.55658804  0.00795655  0.12150043  1
  Ti  Ti64  1  0.53221367  -0.00964050  0.56518263  1
  Ti  Ti65  1  0.52272421  0.05924735  0.80131808  1
  Ti  Ti66  1  0.46831468  0.39291599  0.11655724  1
  Ti  Ti67  1  0.54448218  0.31653517  0.48035597  1
  Ti  Ti68  1  0.44047193  0.33394415  0.77079173  1
  Ti  Ti69  1  0.47139432  0.65546483  0.15089176  1
  Ti  Ti70  1  0.55452419  0.68654651  0.53085104  1
  Ti  Ti71  1  0.45561440  0.70483644  0.85031753  1
  Ti  Ti72  1  0.82980107  -0.04388521  0.19546477  1
  Ti  Ti73  1  0.73785659  0.04396745  0.53276150  1
  Ti  Ti74  1  0.88082812  0.01722039  0.88682327  1
  Ti  Ti75  1  0.86411218  0.27802527  0.24592462  1
  Ti  Ti76  1  0.85165889  0.34844151  0.46918694  1
  Ti  Ti77  1  0.83054723  0.41114678  0.73757707  1
  Ti  Ti78  1  0.85953616  0.74343749  0.19536671  1
  Ti  Ti79  1  0.81093410  0.61230103  0.43089233  1
  Ti  Ti80  1  0.82998557  0.74379729  0.85161889  1
  Ti  Ti81  1  0.24354425  0.22013389  -0.00459739  1
  Ti  Ti82  1  0.11071687  0.18354303  0.30518370  1
  Ti  Ti83  1  0.13470336  0.14358203  0.68275843  1
  Ti  Ti84  1  0.19758764  0.42742754  -0.03418953  1
  Ti  Ti85  1  0.15274411  0.53458292  0.27894987  1
  Ti  Ti86  1  0.23320455  0.50876512  0.69931768  1
  Ti  Ti87  1  0.19949147  0.82142752  0.05370396  1
  Ti  Ti88  1  0.14260743  0.90866753  0.33337729  1
  Ti  Ti89  1  0.15282608  0.92061477  0.61528328  1
  Ti  Ti90  1  0.55224782  0.22152891  -0.00438831  1
  Ti  Ti91  1  0.47721029  0.18977980  0.31152725  1
  Ti  Ti92  1  0.52453195  0.20940400  0.65743818  1
  Ti  Ti93  1  0.50687252  0.54156208  -0.01877220  1
  Ti  Ti94  1  0.48860257  0.43064131  0.34374650  1
  Ti  Ti95  1  0.50035866  0.55907901  0.67224327  1
  Ti  Ti96  1  0.43696167  0.83061281  0.02041961  1
  Ti  Ti97  1  0.44843838  0.81258421  0.27035192  1
  Ti  Ti98  1  0.53345106  0.83613891  0.72241803  1
  Ti  Ti99  1  0.78950458  0.24028243  0.02504513  1
  Ti  Ti100  1  0.82352550  0.15938405  0.41252337  1
  Ti  Ti101  1  0.83251102  0.10084464  0.68375126  1
  Ti  Ti102  1  0.83166215  0.45588121  0.05248468  1
  Ti  Ti103  1  0.81106969  0.49355808  0.25737593  1
  Ti  Ti104  1  0.85800959  0.54420329  0.60284523  1
  Ti  Ti105  1  0.87840774  0.86914942  0.02025997  1
  Ti  Ti106  1  0.86547910  0.79423901  0.41961717  1
  Ti  Ti107  1  0.82277053  0.76109013  0.62641174  1
  Co  Co108  1  0.00834429  0.10179432  0.41705360  1
  Co  Co109  1  0.65594823  0.03906731  0.41239352  1
  Co  Co110  1  0.56099081  0.70959828  1.01709351  1
  Co  Co111  1  0.59592150  0.08560582  0.26471395  1
  Co  Co112  1  0.17704137  0.43525936  0.57169427  1
  Co  Co113  1  0.29354843  0.23697637  0.81246093  1
  Co  Co114  1  -0.03592173  0.55606267  0.25929710  1
  Co  Co115  1  0.09026246  0.69668075  0.06705434  1
  Co  Co116  1  0.50113377  0.05129653  0.40165276  1
  Co  Co117  1  0.93109610  0.30292225  0.06210147  1
  Co  Co118  1  0.47751601  0.96918156  0.26523402  1
  Co  Co119  1  0.53513405  0.39399056  0.63308276  1
  Co  Co120  1  0.54018875  0.18376388  0.14520473  1
  Co  Co121  1  0.86338013  0.59440433  0.13635145  1
  Co  Co122  1  0.13076822  0.16873431  0.12230738  1
  Co  Co123  1  0.94469601  0.41677060  0.17059836  1
  Co  Co124  1  0.63479506  0.19386446  0.37603141  1
  Co  Co125  1  0.71152504  0.81320063  0.75593816  1
  Co  Co126  1  0.46917074  0.89743811  0.42248065  1
  Co  Co127  1  0.74025426  0.80057157  0.02231830  1
  Co  Co128  1  0.04446344  0.88723978  0.98590965  1
  Co  Co129  1  0.95287287  0.85693466  0.54273543  1
  Co  Co130  1  0.93137033  0.38330995  0.60336728  1
  Co  Co131  1  0.84063025  0.91986193  0.74169925  1
  Co  Co132  1  0.02384660  0.27470999  0.21597160  1
  Co  Co133  1  0.42831656  0.07969131  0.65571302  1
  Co  Co134  1  0.65408590  0.49314063  0.71463999  1
  Co  Co135  1  0.30622979  0.92574799  0.01184600  1
  Co  Co136  1  0.06176345  0.96729924  0.48349861  1
  Co  Co137  1  0.74641681  0.34819487  0.16684984  1
  Co  Co138  1  0.33926808  0.76631542  0.13591973  1
  Co  Co139  1  0.31554541  0.46161907  0.34588501  1
  Co  Co140  1  0.41883230  0.08873674  0.18226328  1
  Co  Co141  1  0.46542861  0.57713802  0.29032408  1
  Co  Co142  1  0.26899079  0.39241674  0.81123301  1
  Co  Co143  1  0.07653361  0.25809412  0.99347430  1
  Co  Co144  1  0.73364760  0.04164858  0.81120184  1
  Co  Co145  1  0.47248416  0.82384934  0.57044818  1
  Co  Co146  1  0.79532853  0.89585101  0.54748492  1
  Co  Co147  1  0.76101928  0.06409052  0.29763642  1
  Co  Co148  1  0.39861181  0.22815595  0.07558229  1
  Co  Co149  1  0.11898921  0.75497834  0.91242711  1
  Co  Co150  1  0.76986624  0.89445964  0.88266006  1
  Co  Co151  1  0.16509753  0.45787390  0.41592303  1
  Co  Co152  1  0.18783147  0.74304389  0.61014171  1
  Co  Co153  1  0.70929372  0.72997191  0.46476458  1
  Co  Co154  1  0.29075134  0.35497462  0.09908636  1
  Co  Co155  1  0.18951759  0.35516915  0.27482052  1
  Co  Co156  1  0.65182969  0.79401659  0.60731182  1
  Co  Co157  1  0.38000909  0.45020123  0.67876637  1
  Co  Co158  1  0.39324803  0.66864904  0.99828792  1
  Co  Co159  1  0.34243410  0.50435200  0.02508959  1
  Co  Co160  1  0.33559038  0.64481870  0.75478152  1
  Co  Co161  1  0.68727608  0.58958549  0.55688983  1
  Ni  Ni162  1  0.09942042  0.59430856  0.63154647  1
  Ni  Ni163  1  0.74368955  0.79542372  0.30542050  1
  Ni  Ni164  1  0.16368138  0.71503859  0.35487240  1
  Ni  Ni165  1  0.22945490  0.97542546  0.47785598  1
  Ni  Ni166  1  0.90150715  0.48494661  0.40416917  1
  Ni  Ni167  1  0.29145052  0.17937105  0.34928849  1
  Ni  Ni168  1  0.81235140  0.27171788  0.63740845  1
  Ni  Ni169  1  0.56747845  0.22118223  0.82296612  1
  Ni  Ni170  1  0.26932933  0.08226360  0.61189828  1
  Ni  Ni171  1  0.96841572  0.25388265  0.38586904  1
  Ni  Ni172  1  0.71087814  0.46866117  0.41271519  1
  Ni  Ni173  1  0.40162487  0.30856508  0.57893428  1
  Ni  Ni174  1  0.28279733  0.81588878  0.29008034  1
  Ni  Ni175  1  0.82312878  0.39112106  0.90651166  1
  Ni  Ni176  1  0.57408094  0.59738912  0.82692203  1
  Ni  Ni177  1  0.83453860  0.07089949  0.05919394  1
  Ni  Ni178  1  0.37083581  0.81045949  0.72374899  1
  Ni  Ni179  1  0.94683189  0.26403407  0.72374916  1
  Ni  Ni180  1  0.25914843  0.06654358  0.94864079  1
  Ni  Ni181  1  0.01678146  0.42928549  -0.01233154  1
  Ni  Ni182  1  0.41709851  0.17994091  0.89629662  1
  Ni  Ni183  1  0.43296986  0.74113566  0.42626235  1
  Ni  Ni184  1  0.61740303  0.57274441  0.09689896  1
  Ni  Ni185  1  0.13398869  0.82471497  0.75616671  1
  Ni  Ni186  1  0.82318159  0.56774011  0.89946038  1
  Ni  Ni187  1  0.99593060  0.68271094  0.82384689  1
  Ni  Ni188  1  0.42212535  0.58672323  0.47310438  1
  Ni  Ni189  1  0.56147238  0.14214216  0.51444086  1
  Ni  Ni190  1  0.57778600  0.31724802  0.22642905  1
  Ni  Ni191  1  0.59074945  0.87793272  0.00962104  1
  Ni  Ni192  1  0.86318503  0.62008162  0.74369816  1
  Ni  Ni193  1  0.10251657  0.28206424  0.55606661  1
  Ni  Ni194  1  0.68309476  0.30502537  0.90871224  1
  Ni  Ni195  1  0.99438928  0.81744277  0.31115482  1
  Ni  Ni196  1  0.55655702  0.49212988  0.49487987  1
  Ni  Ni197  1  0.10386792  -0.00319576  0.76788152  1
  Ni  Ni198  1  0.38234695  0.93617389  0.86445600  1
  Ni  Ni199  1  0.38784722  0.30819487  0.41230251  1
  Ni  Ni200  1  0.58893370  0.74719092  0.31789907  1
  Ni  Ni201  1  0.18367830  0.54180758  0.10285853  1
  Ni  Ni202  1  0.66986501  0.13327141  0.92421919  1
  Ni  Ni203  1  0.20521679  0.04998311  0.27616839  1
  Ni  Ni204  1  0.04038911  1.01153624  0.24587249  1
  Ni  Ni205  1  0.91879571  0.11707421  0.27733549  1
  Ni  Ni206  1  0.92960197  0.16687772  0.95272167  1
  Ni  Ni207  1  0.08409493  0.58189699  0.93859706  1
  Ni  Ni208  1  0.11679885  0.45314379  0.83009856  1
  Ni  Ni209  1  0.53652377  0.38114010  0.90989175  1
  Ni  Ni210  1  0.97567315  0.98762673  0.08869512  1
  Ni  Ni211  1  0.90871138  0.03085668  0.53383047  1
  Ni  Ni212  1  0.26134162  0.93034576  0.74318778  1
  Ni  Ni213  1  0.60772197  0.92818943  0.84847859  1
  Ni  Ni214  1  0.95201154  0.66569305  0.52803585  1
  Ni  Ni215  1  0.71407737  0.64744750  0.22588722  1
