# generated using pymatgen
data_Ti2CoNi
_symmetry_space_group_name_H-M   'P 1'
_cell_length_a   14.55465158
_cell_length_b   14.61209903
_cell_length_c   14.53777981
_cell_angle_alpha   90.13376127
_cell_angle_beta   89.92050638
_cell_angle_gamma   89.73886070
_symmetry_Int_Tables_number   1
_chemical_formula_structural   Ti2CoNi
_chemical_formula_sum   'Ti108 Co54 Ni54'
_cell_volume   3091.76437253
_cell_formula_units_Z   54
loop_
 _symmetry_equiv_pos_site_id
 _symmetry_equiv_pos_as_xyz
  1  'x, y, z'
loop_
 _atom_site_type_symbol
 _atom_site_label
 _atom_site_symmetry_multiplicity
 _atom_site_fract_x
 _atom_site_fract_y
 _atom_site_fract_z
 _atom_site_occupancy
  Ti  Ti0  1  -0.07516138  -0.07683600  0.01921832  1
  Ti  Ti1  1  0.08410377  0.02669698  0.29260148  1
  Ti  Ti2  1  -0.00474313  0.00893799  0.73334983  1
  Ti  Ti3  1  0.06065902  0.29602272  0.05179059  1
  Ti  Ti4  1  -0.01907876  0.28149645  0.37395184  1
  Ti  Ti5  1  -0.01005953  0.27542555  0.70904263  1
  Ti  Ti6  1  0.00298187  0.72242628  -0.03561015  1
  Ti  Ti7  1  0.00377286  0.64604501  0.40106782  1
  Ti  Ti8  1  0.00486001  0.69895688  0.66087937  1
  Ti  Ti9  1  0.42021329  0.03930255  0.01137837  1
  Ti  Ti10  1  0.28383327  -0.00949163  0.32260486  1
  Ti  Ti11  1  0.34343586  -0.03949401  0.70882056  1
  Ti  Ti12  1  0.39915061  0.34007192  0.04343332  1
  Ti  Ti13  1  0.32369458  0.28913927  0.28327071  1
  Ti  Ti14  1  0.35231284  0.29905740  0.68654484  1
  Ti  Ti15  1  0.26716705  0.63327820  0.01740436  1
  Ti  Ti16  1  0.35842866  0.71490194  0.34378344  1
  Ti  Ti17  1  0.30745483  0.63956211  0.68899175  1
  Ti  Ti18  1  0.63408000  0.04777388  -0.00609210  1
  Ti  Ti19  1  0.64040273  -0.02231635  0.32633142  1
  Ti  Ti20  1  0.63702431  0.00778022  0.62095045  1
  Ti  Ti21  1  0.60634828  0.42035414  -0.00247758  1
  Ti  Ti22  1  0.63241906  0.32994409  0.36723733  1
  Ti  Ti23  1  0.66822977  0.33136677  0.69469952  1
  Ti  Ti24  1  0.72571896  0.60246439  0.04619009  1
  Ti  Ti25  1  0.72063100  0.64097050  0.25177451  1
  Ti  Ti26  1  0.62757884  0.73102556  0.65580705  1
  Ti  Ti27  1  -0.09640437  0.17872285  0.13077520  1
  Ti  Ti28  1  0.00037150  0.08399684  0.48493073  1
  Ti  Ti29  1  -0.02901200  0.20862190  0.88096590  1
  Ti  Ti30  1  0.01306331  0.49483198  0.12800589  1
  Ti  Ti31  1  -0.06294004  0.48915285  0.48319144  1
  Ti  Ti32  1  -0.01385197  0.55264130  0.84366383  1
  Ti  Ti33  1  -0.00223645  0.82051236  0.24273076  1
  Ti  Ti34  1  -0.03103675  0.84979481  0.44343347  1
  Ti  Ti35  1  0.05592842  0.84462287  0.81172262  1
  Ti  Ti36  1  0.24271613  0.20729893  0.12552948  1
  Ti  Ti37  1  0.35585223  0.23062829  0.46821133  1
  Ti  Ti38  1  0.28535033  0.20660450  0.83589724  1
  Ti  Ti39  1  0.30946227  0.46996544  0.19045768  1
  Ti  Ti40  1  0.33544279  0.57218713  0.45101043  1
  Ti  Ti41  1  0.40359517  0.48875622  0.74289100  1
  Ti  Ti42  1  0.36368394  0.84508172  0.09441653  1
  Ti  Ti43  1  0.38785015  0.78532959  0.58097321  1
  Ti  Ti44  1  0.23024736  0.88159779  0.85456057  1
  Ti  Ti45  1  0.70379806  0.13166140  0.16996482  1
  Ti  Ti46  1  0.67140695  0.13199345  0.43766784  1
  Ti  Ti47  1  0.67784676  0.13581906  0.79059847  1
  Ti  Ti48  1  0.58509952  0.53072365  0.19122400  1
  Ti  Ti49  1  0.72137293  0.45422529  0.48078255  1
  Ti  Ti50  1  0.72458210  0.50079869  0.85365562  1
  Ti  Ti51  1  0.67291318  0.81102435  0.21208282  1
  Ti  Ti52  1  0.64737979  0.85575466  0.49431913  1
  Ti  Ti53  1  0.67893353  0.86879366  0.88395170  1
  Ti  Ti54  1  0.21456106  0.00415814  0.13376643  1
  Ti  Ti55  1  0.23722721  -0.05611125  0.53369939  1
  Ti  Ti56  1  0.16809135  0.05182720  0.84813003  1
  Ti  Ti57  1  0.12272353  0.32301649  0.26499417  1
  Ti  Ti58  1  0.10112216  0.37902381  0.55406594  1
  Ti  Ti59  1  0.14064377  0.37534954  0.87752468  1
  Ti  Ti60  1  0.20541791  0.70691601  0.21102252  1
  Ti  Ti61  1  0.15200140  0.57150288  0.51751518  1
  Ti  Ti62  1  0.17580495  0.68083465  0.85145196  1
  Ti  Ti63  1  0.56074064  -0.06368193  0.13613031  1
  Ti  Ti64  1  0.50408837  0.08672222  0.52125142  1
  Ti  Ti65  1  0.53539120  -0.00912256  0.83564783  1
  Ti  Ti66  1  0.50674880  0.36297422  0.20863183  1
  Ti  Ti67  1  0.42375493  0.39675549  0.52376667  1
  Ti  Ti68  1  0.47795153  0.32322693  0.85900942  1
  Ti  Ti69  1  0.40682157  0.65891491  0.14660414  1
  Ti  Ti70  1  0.55054096  0.66922529  0.48267761  1
  Ti  Ti71  1  0.51649315  0.63873832  0.81719920  1
  Ti  Ti72  1  0.90440539  0.00580835  0.19882528  1
  Ti  Ti73  1  0.80462837  -0.00543517  0.46738507  1
  Ti  Ti74  1  0.79932253  -0.01086143  0.74802698  1
  Ti  Ti75  1  0.87388280  0.35430106  0.17790263  1
  Ti  Ti76  1  0.88706953  0.28904105  0.53824357  1
  Ti  Ti77  1  0.79844785  0.31541274  0.85776738  1
  Ti  Ti78  1  0.87925546  0.69655987  0.16324915  1
  Ti  Ti79  1  0.82175141  0.70985083  0.50868127  1
  Ti  Ti80  1  0.80770437  0.63126684  0.72971212  1
  Ti  Ti81  1  0.06325176  0.09885595  0.03745954  1
  Ti  Ti82  1  0.16422312  0.21880412  0.42574247  1
  Ti  Ti83  1  0.20419107  0.12375316  0.61787856  1
  Ti  Ti84  1  0.24869202  0.45068846  0.00432619  1
  Ti  Ti85  1  0.17448555  0.51280183  0.31034524  1
  Ti  Ti86  1  0.20585712  0.45850704  0.71700897  1
  Ti  Ti87  1  0.15107886  0.82528450  0.04308032  1
  Ti  Ti88  1  0.16769022  0.83162270  0.38193246  1
  Ti  Ti89  1  0.18385047  0.81440185  0.66514899  1
  Ti  Ti90  1  0.57640811  0.23477064  0.04680291  1
  Ti  Ti91  1  0.52748334  0.18602368  0.28953998  1
  Ti  Ti92  1  0.45878621  0.11496849  0.72244206  1
  Ti  Ti93  1  0.42743261  0.51697170  -0.06359197  1
  Ti  Ti94  1  0.53268220  0.49605973  0.38854855  1
  Ti  Ti95  1  0.56936236  0.50960443  0.60606918  1
  Ti  Ti96  1  0.52568496  0.83748556  -0.01687889  1
  Ti  Ti97  1  0.47129563  0.85828345  0.28670403  1
  Ti  Ti98  1  0.49373452  0.82454849  0.76696284  1
  Ti  Ti99  1  0.79204685  0.15820204  -0.04445840  1
  Ti  Ti100  1  0.79554679  0.23203494  0.31305257  1
  Ti  Ti101  1  0.79160469  0.13860962  0.61696720  1
  Ti  Ti102  1  0.84474157  0.44758369  0.00517081  1
  Ti  Ti103  1  0.74055823  0.45240353  0.28064734  1
  Ti  Ti104  1  0.78810508  0.46053565  0.64386407  1
  Ti  Ti105  1  0.81762074  0.76716770  -0.04581455  1
  Ti  Ti106  1  0.81132735  0.87371507  0.31524664  1
  Ti  Ti107  1  0.82152583  0.80903809  0.72934505  1
  Co  Co108  1  0.84357118  0.15787249  0.44762842  1
  Co  Co109  1  0.15461514  0.65232519  0.68793414  1
  Co  Co110  1  0.48352434  0.80113376  0.44375432  1
  Co  Co111  1  0.53824840  0.23508120  0.45976170  1
  Co  Co112  1  0.47503255  0.24341790  0.60482692  1
  Co  Co113  1  0.78699837  0.06638022  0.31227824  1
  Co  Co114  1  0.24978428  0.53087597  0.85863798  1
  Co  Co115  1  0.46050542  0.33547925  0.36650974  1
  Co  Co116  1  0.27053172  0.95506005  -0.00726482  1
  Co  Co117  1  0.83620566  0.52773723  0.16968873  1
  Co  Co118  1  0.85751240  0.14220134  0.78304886  1
  Co  Co119  1  0.71017842  0.43167043  0.11881203  1
  Co  Co120  1  0.70018711  0.76092397  0.06424968  1
  Co  Co121  1  0.22859412  0.37562111  0.42688043  1
  Co  Co122  1  0.35653481  0.11319735  0.59443041  1
  Co  Co123  1  0.72569683  0.27375724  0.50720915  1
  Co  Co124  1  0.52407108  0.87495572  0.60658531  1
  Co  Co125  1  0.24322386  0.30064418  0.57235393  1
  Co  Co126  1  0.83243774  0.61285945  0.90115212  1
  Co  Co127  1  0.52251022  0.95235811  0.43911772  1
  Co  Co128  1  0.35224640  0.05492196  0.85720206  1
  Co  Co129  1  0.34689840  0.44465951  0.34712069  1
  Co  Co130  1  0.16090472  0.05438955  0.44294192  1
  Co  Co131  1  0.94820529  0.41013913  0.62594340  1
  Co  Co132  1  0.59299776  0.35995531  0.54369153  1
  Co  Co133  1  0.83307174  0.84844572  0.13537737  1
  Co  Co134  1  0.82651617  0.28231358  0.69841149  1
  Co  Co135  1  0.73241741  0.96913553  0.18777397  1
  Co  Co136  1  0.29929512  0.77821231  0.96030222  1
  Co  Co137  1  0.50646108  0.37875918  0.68634732  1
  Co  Co138  1  0.07436993  0.43000529  0.40063261  1
  Co  Co139  1  0.94292298  0.13594441  0.31221996  1
  Co  Co140  1  0.71444566  0.91363790  0.03745897  1
  Co  Co141  1  0.78187263  0.99804708  0.90760214  1
  Co  Co142  1  0.33417850  0.86168557  0.42096916  1
  Co  Co143  1  0.39939603  0.95510998  0.54706322  1
  Co  Co144  1  0.62661053  0.17703375  0.60937339  1
  Co  Co145  1  0.24309982  0.11284541  0.98818564  1
  Co  Co146  1  0.43972925  0.69316495  -0.01190359  1
  Co  Co147  1  0.64686254  0.28056309  0.89282311  1
  Co  Co148  1  0.35411729  0.64923262  0.85486693  1
  Co  Co149  1  0.93877827  0.97972887  0.35617937  1
  Co  Co150  1  0.73920244  0.28422327  0.04633296  1
  Co  Co151  1  0.55405322  0.23602670  0.75159501  1
  Co  Co152  1  0.07046921  0.52605147  0.64312232  1
  Co  Co153  1  0.92287603  0.56014755  0.66129892  1
  Co  Co154  1  0.04811723  -0.04632093  0.12308920  1
  Co  Co155  1  0.30863908  0.84288067  0.24683404  1
  Co  Co156  1  0.89865696  0.28818006  0.01092234  1
  Co  Co157  1  0.24269352  0.28561899  -0.01342431  1
  Co  Co158  1  0.32153187  0.37672717  0.85907413  1
  Co  Co159  1  0.04551721  0.41802523  0.75457698  1
  Co  Co160  1  0.81292505  0.04316693  0.06354523  1
  Co  Co161  1  0.16310760  0.97462543  0.70263326  1
  Ni  Ni162  1  0.91816759  0.59887423  0.03524054  1
  Ni  Ni163  1  0.18430336  0.66764177  0.38043128  1
  Ni  Ni164  1  0.95420595  0.45748000  0.29223854  1
  Ni  Ni165  1  0.38284252  0.99575025  0.17512505  1
  Ni  Ni166  1  0.55356495  0.58155495  0.03555913  1
  Ni  Ni167  1  0.10702760  0.55331423  0.96519172  1
  Ni  Ni168  1  0.33340319  0.78664458  0.76782421  1
  Ni  Ni169  1  0.38885892  0.19673075  0.97066703  1
  Ni  Ni170  1  0.15232275  0.87230150  0.21701484  1
  Ni  Ni171  1  0.90616186  -0.01101989  0.59645871  1
  Ni  Ni172  1  0.92573550  0.82893143  0.59858046  1
  Ni  Ni173  1  0.24664090  0.72408193  0.52535027  1
  Ni  Ni174  1  0.15974190  0.39907795  0.13086229  1
  Ni  Ni175  1  0.06987058  0.21388802  0.56880957  1
  Ni  Ni176  1  0.21131166  0.14387566  0.28252827  1
  Ni  Ni177  1  0.60659371  0.70115186  0.94788695  1
  Ni  Ni178  1  0.08954258  0.95233298  0.95509421  1
  Ni  Ni179  1  0.06572634  0.91670121  0.57332698  1
  Ni  Ni180  1  0.93780117  0.71860912  0.81493120  1
  Ni  Ni181  1  0.83567890  0.37083110  0.39304683  1
  Ni  Ni182  1  0.84488858  0.56680051  0.35832605  1
  Ni  Ni183  1  0.90236800  0.88559449  0.85423986  1
  Ni  Ni184  1  0.54751998  0.73744337  0.12361854  1
  Ni  Ni185  1  0.64916640  0.57245751  0.72870730  1
  Ni  Ni186  1  0.69052271  0.71324430  0.81574433  1
  Ni  Ni187  1  0.43296540  0.59893491  0.58744569  1
  Ni  Ni188  1  0.88192580  0.43603381  0.77955891  1
  Ni  Ni189  1  0.08644718  0.14276951  0.73333832  1
  Ni  Ni190  1  0.37656808  0.07335807  0.41873012  1
  Ni  Ni191  1  0.67956411  0.59256322  0.40548592  1
  Ni  Ni192  1  0.48570462  0.02977553  0.29548501  1
  Ni  Ni193  1  0.65467862  0.88170109  0.72234526  1
  Ni  Ni194  1  0.43034224  0.56097121  0.27656306  1
  Ni  Ni195  1  0.69678232  0.75635063  0.37787739  1
  Ni  Ni196  1  0.66993074  0.29515508  0.20131628  1
  Ni  Ni197  1  0.44455127  0.48675115  0.10381708  1
  Ni  Ni198  1  0.39839480  0.89926588  0.89586305  1
  Ni  Ni199  1  0.29687630  0.47609150  0.58420806  1
  Ni  Ni200  1  0.56110111  0.46617511  0.82266549  1
  Ni  Ni201  1  0.16433540  0.56508577  0.13388765  1
  Ni  Ni202  1  0.12928551  0.20646565  0.90088249  1
  Ni  Ni203  1  0.97666423  0.38831978  0.90895636  1
  Ni  Ni204  1  0.08403591  0.74893490  0.52063066  1
  Ni  Ni205  1  0.04247038  0.61415970  0.24958253  1
  Ni  Ni206  1  0.05076022  0.70077211  0.11654854  1
  Ni  Ni207  1  0.16920058  0.28619369  0.72184496  1
  Ni  Ni208  1  0.06138908  0.17837994  0.19896953  1
  Ni  Ni209  1  0.94990977  0.04347214  0.89890777  1
  Ni  Ni210  1  0.71025975  0.60789789  0.57453932  1
  Ni  Ni211  1  0.53192202  0.15267896  0.89583073  1
  Ni  Ni212  1  0.87028524  0.72756374  0.33835782  1
  Ni  Ni213  1  0.53569593  0.09396069  0.14379387  1
  Ni  Ni214  1  0.41702131  0.21119416  0.15009414  1
  Ni  Ni215  1  0.77108087  0.88895002  0.59690871  1
