# generated using pymatgen
data_Ti2CoNi
_symmetry_space_group_name_H-M   'P 1'
_cell_length_a   14.66064776
_cell_length_b   14.62133449
_cell_length_c   14.58216461
_cell_angle_alpha   89.84105020
_cell_angle_beta   90.10108349
_cell_angle_gamma   90.05069769
_symmetry_Int_Tables_number   1
_chemical_formula_structural   Ti2CoNi
_chemical_formula_sum   'Ti108 Co54 Ni54'
_cell_volume   3125.78896296
_cell_formula_units_Z   54
loop_
 _symmetry_equiv_pos_site_id
 _symmetry_equiv_pos_as_xyz
  1  'x, y, z'
loop_
 _atom_site_type_symbol
 _atom_site_label
 _atom_site_symmetry_multiplicity
 _atom_site_fract_x
 _atom_site_fract_y
 _atom_site_fract_z
 _atom_site_occupancy
  Ti  Ti0  1  -0.06232820  0.00879248  -0.02471982  1
  Ti  Ti1  1  -0.02937560  0.02021821  0.35124345  1
  Ti  Ti2  1  0.05024252  0.00209281  0.68239403  1
  Ti  Ti3  1  -0.05880489  0.34428677  -0.00560551  1
  Ti  Ti4  1  -0.06361225  0.24449725  0.33046995  1
  Ti  Ti5  1  0.03529332  0.29626129  0.62623075  1
  Ti  Ti6  1  0.02393184  0.66766640  0.07688970  1
  Ti  Ti7  1  -0.07383554  0.67616077  0.40212058  1
  Ti  Ti8  1  -0.01113269  0.61041254  0.63039439  1
  Ti  Ti9  1  0.31464804  0.05540547  -0.02885361  1
  Ti  Ti10  1  0.29333484  -0.04576620  0.40575769  1
  Ti  Ti11  1  0.30629958  -0.06474002  0.61545323  1
  Ti  Ti12  1  0.37518523  0.40806975  -0.01426176  1
  Ti  Ti13  1  0.34032608  0.36665229  0.27233561  1
  Ti  Ti14  1  0.34268277  0.28608202  0.60821459  1
  Ti  Ti15  1  0.33271904  0.72330026  -0.08622926  1
  Ti  Ti16  1  0.29296775  0.67068268  0.34501550  1
  Ti  Ti17  1  0.36481006  0.72497689  0.70939091  1
  Ti  Ti18  1  0.75851023  -0.00937163  0.00323099  1
  Ti  Ti19  1  0.77412449  0.03122517  0.31985332  1
  Ti  Ti20  1  0.60767530  0.01576737  0.63453574  1
  Ti  Ti21  1  0.57324675  0.36016533  -0.00474824  1
  Ti  Ti22  1  0.67883304  0.32567291  0.28408060  1
  Ti  Ti23  1  0.72913919  0.35124013  0.66935111  1
  Ti  Ti24  1  0.66135744  0.61014497  -0.06805636  1
  Ti  Ti25  1  0.69952976  0.66967716  0.27119257  1
  Ti  Ti26  1  0.67408789  0.76430459  0.70973676  1
  Ti  Ti27  1  0.05817462  0.12654246  0.20083595  1
  Ti  Ti28  1  0.03323704  0.15979852  0.48089871  1
  Ti  Ti29  1  -0.04588882  0.18513447  0.85994274  1
  Ti  Ti30  1  0.00745794  0.47504952  0.15431203  1
  Ti  Ti31  1  0.01756636  0.49098461  0.47154864  1
  Ti  Ti32  1  0.04679292  0.48033705  0.87059178  1
  Ti  Ti33  1  -0.00384098  0.77057860  0.23903392  1
  Ti  Ti34  1  0.03978109  0.85546014  0.45006757  1
  Ti  Ti35  1  0.00461901  0.87926865  0.83251175  1
  Ti  Ti36  1  0.35985288  0.23484017  0.11583949  1
  Ti  Ti37  1  0.28823268  0.15640405  0.45315023  1
  Ti  Ti38  1  0.34906841  0.14536315  0.78671462  1
  Ti  Ti39  1  0.32901504  0.59229338  0.13872719  1
  Ti  Ti40  1  0.34223509  0.46532389  0.43657777  1
  Ti  Ti41  1  0.35485123  0.49655294  0.80093854  1
  Ti  Ti42  1  0.40446957  0.80876008  0.21550443  1
  Ti  Ti43  1  0.36307774  0.75820866  0.50860653  1
  Ti  Ti44  1  0.36338443  0.89330726  0.79336702  1
  Ti  Ti45  1  0.65609428  0.18069138  0.11703837  1
  Ti  Ti46  1  0.64458234  0.25117807  0.52373417  1
  Ti  Ti47  1  0.62316829  0.17881897  0.81354397  1
  Ti  Ti48  1  0.75771164  0.49592776  0.19533488  1
  Ti  Ti49  1  0.70164651  0.50175921  0.52544981  1
  Ti  Ti50  1  0.64103267  0.44226709  0.81602577  1
  Ti  Ti51  1  0.59264340  0.78438320  0.12487713  1
  Ti  Ti52  1  0.62091863  0.87373067  0.49723384  1
  Ti  Ti53  1  0.65418861  0.85350796  0.90619361  1
  Ti  Ti54  1  0.20176607  -0.02231596  0.15479429  1
  Ti  Ti55  1  0.14507425  0.02100673  0.49603710  1
  Ti  Ti56  1  0.20591078  0.00975641  0.79081021  1
  Ti  Ti57  1  0.16028529  0.30672280  0.19694866  1
  Ti  Ti58  1  0.18722420  0.38211356  0.52079682  1
  Ti  Ti59  1  0.18319685  0.32675461  0.90547871  1
  Ti  Ti60  1  0.14755895  0.63260425  0.21630019  1
  Ti  Ti61  1  0.13951139  0.67594395  0.51840712  1
  Ti  Ti62  1  0.15948892  0.65612415  0.77119733  1
  Ti  Ti63  1  0.51264716  -0.01793975  0.19885467  1
  Ti  Ti64  1  0.44802468  0.05383886  0.49389993  1
  Ti  Ti65  1  0.47965741  0.02548957  0.86193671  1
  Ti  Ti66  1  0.51569795  0.31046682  0.18669599  1
  Ti  Ti67  1  0.50227776  0.38636091  0.53740785  1
  Ti  Ti68  1  0.46586331  0.30233052  0.83641819  1
  Ti  Ti69  1  0.51244372  0.63601227  0.22764739  1
  Ti  Ti70  1  0.50945724  0.59316867  0.45548621  1
  Ti  Ti71  1  0.49747301  0.64038496  0.82982675  1
  Ti  Ti72  1  0.88702235  -0.05833866  0.18059237  1
  Ti  Ti73  1  0.84640656  -0.08599517  0.50960141  1
  Ti  Ti74  1  0.75357781  0.01295041  0.77481258  1
  Ti  Ti75  1  0.84146775  0.31864269  0.17706388  1
  Ti  Ti76  1  0.88182744  0.41837808  0.57893586  1
  Ti  Ti77  1  0.79353021  0.30270197  0.85369105  1
  Ti  Ti78  1  0.82007188  0.65381641  0.10716640  1
  Ti  Ti79  1  0.75256687  0.71811367  0.51931925  1
  Ti  Ti80  1  0.90284981  0.63876459  0.91655820  1
  Ti  Ti81  1  0.18530731  0.17187974  0.04571669  1
  Ti  Ti82  1  0.25909286  0.13747521  0.26337946  1
  Ti  Ti83  1  0.19762172  0.23431327  0.71245222  1
  Ti  Ti84  1  0.17938206  0.50751649  0.03938854  1
  Ti  Ti85  1  0.12335277  0.42416378  0.32548789  1
  Ti  Ti86  1  0.18086449  0.43485324  0.72383208  1
  Ti  Ti87  1  0.13753539  0.90905987  -0.01873751  1
  Ti  Ti88  1  0.18714154  0.83821745  0.28829641  1
  Ti  Ti89  1  0.04724290  0.80063570  0.65408696  1
  Ti  Ti90  1  0.49741555  0.17982169  -0.00938050  1
  Ti  Ti91  1  0.54682715  0.18193618  0.35107621  1
  Ti  Ti92  1  0.49766601  0.17603883  0.65104940  1
  Ti  Ti93  1  0.50602756  0.55986599  0.04006099  1
  Ti  Ti94  1  0.53492082  0.46664498  0.31131781  1
  Ti  Ti95  1  0.46364594  0.57451407  0.64094872  1
  Ti  Ti96  1  0.45462793  0.87441483  -0.00587140  1
  Ti  Ti97  1  0.47005501  0.89042632  0.37768883  1
  Ti  Ti98  1  0.51225304  0.83293995  0.67764627  1
  Ti  Ti99  1  0.85278800  0.17058431  0.05005311  1
  Ti  Ti100  1  0.82969367  0.13661474  0.46505488  1
  Ti  Ti101  1  0.89559688  0.12762278  0.66123286  1
  Ti  Ti102  1  0.75399700  0.44850215  -0.00542372  1
  Ti  Ti103  1  0.82142135  0.46459968  0.37719028  1
  Ti  Ti104  1  0.78201706  0.58299081  0.67726293  1
  Ti  Ti105  1  0.86484212  0.81994733  0.00102738  1
  Ti  Ti106  1  0.72019399  0.85479827  0.33163455  1
  Ti  Ti107  1  0.86946048  0.76695167  0.71969477  1
  Co  Co108  1  0.47006313  0.03477242  0.04652572  1
  Co  Co109  1  0.48769799  0.14901288  0.18244399  1
  Co  Co110  1  0.21750261  0.51201761  0.88049262  1
  Co  Co111  1  0.17536853  0.76819157  0.89595074  1
  Co  Co112  1  0.45200980  0.22128339  0.49762401  1
  Co  Co113  1  0.12430052  0.79976005  0.12744324  1
  Co  Co114  1  0.21536217  0.08309850  0.63540316  1
  Co  Co115  1  0.35249043  0.57247894  0.96900111  1
  Co  Co116  1  0.59783637  0.10635102  0.50131796  1
  Co  Co117  1  0.39318069  0.55136145  0.30403250  1
  Co  Co118  1  0.62797051  0.71683530  0.41420743  1
  Co  Co119  1  0.01326366  0.71095529  0.80313381  1
  Co  Co120  1  0.83993555  0.43681487  0.74647882  1
  Co  Co121  1  0.26802241  0.74906706  0.17150302  1
  Co  Co122  1  0.31380649  0.32759381  0.79083316  1
  Co  Co123  1  0.65526995  0.61696287  0.10681606  1
  Co  Co124  1  0.77523415  0.19586008  0.28826476  1
  Co  Co125  1  0.11940900  0.19137568  0.34637619  1
  Co  Co126  1  0.86488395  0.57572457  0.51548104  1
  Co  Co127  1  0.76521963  0.05931000  0.14898862  1
  Co  Co128  1  1.02873841  0.77397677  0.95729830  1
  Co  Co129  1  0.33693772  0.95123912  0.25119855  1
  Co  Co130  1  0.89851898  0.13140006  0.20901845  1
  Co  Co131  1  0.20018461  0.16076565  0.87510762  1
  Co  Co132  1  0.42111710  0.06271464  0.32894377  1
  Co  Co133  1  0.34331524  0.07177599  0.13657330  1
  Co  Co134  1  0.92442968  0.57661313  0.76942232  1
  Co  Co135  1  0.59214625  0.99455813  0.36897051  1
  Co  Co136  1  0.92450415  0.27861764  0.50608055  1
  Co  Co137  1  0.71891643  0.00554192  0.47909628  1
  Co  Co138  1  0.51773864  0.74280927  0.53836233  1
  Co  Co139  1  0.33486053  0.24106576  0.94240798  1
  Co  Co140  1  0.99734172  0.88003598  0.07655145  1
  Co  Co141  1  0.20588555  0.67692883  0.03849315  1
  Co  Co142  1  0.15320816  0.90605896  0.60443881  1
  Co  Co143  1  0.62408238  0.63343509  0.58717167  1
  Co  Co144  1  0.57372198  0.81183280  0.28150530  1
  Co  Co145  1  0.06875493  0.03714124  0.06686804  1
  Co  Co146  1  0.63308326  0.60793084  0.75113583  1
  Co  Co147  1  0.23384462  0.29694561  0.38188468  1
  Co  Co148  1  0.90429533  0.28829804  0.71853647  1
  Co  Co149  1  0.38722077  0.22122403  0.31824222  1
  Co  Co150  1  0.33201345  0.90445116  0.09156882  1
  Co  Co151  1  0.09064112  0.36206198  0.04564294  1
  Co  Co152  1  0.17411800  0.22003492  0.53896436  1
  Co  Co153  1  0.48411976  0.33437649  0.37980201  1
  Co  Co154  1  0.06028977  0.32423936  0.43622355  1
  Co  Co155  1  0.66162783  0.55157767  0.37442032  1
  Co  Co156  1  0.80414494  0.23918805  0.59275339  1
  Co  Co157  1  0.28922218  0.89630535  0.92770661  1
  Co  Co158  1  0.09611769  0.62592539  0.92793617  1
  Co  Co159  1  0.88946268  0.46080192  0.89403907  1
  Co  Co160  1  0.77339239  0.55501719  0.83779169  1
  Co  Co161  1  0.68237933  0.15907014  0.66471269  1
  Ni  Ni162  1  0.69160060  0.34339044  0.10957213  1
  Ni  Ni163  1  0.14650510  0.52852414  0.58953712  1
  Ni  Ni164  1  0.22910484  0.75834316  0.62454958  1
  Ni  Ni165  1  0.89430651  0.51815207  0.04794445  1
  Ni  Ni166  1  0.06788457  0.14945876  0.74991162  1
  Ni  Ni167  1  0.18523380  0.55560214  0.40762907  1
  Ni  Ni168  1  0.63285492  0.05150524  0.92112975  1
  Ni  Ni169  1  0.59307440  0.93917407  0.78144072  1
  Ni  Ni170  1  0.68637677  0.23077769  0.96344310  1
  Ni  Ni171  1  0.24991824  0.34525866  0.06391950  1
  Ni  Ni172  1  0.95254140  0.41044303  0.29434347  1
  Ni  Ni173  1  0.59699055  0.47339283  0.65649630  1
  Ni  Ni174  1  0.83110458  0.77295693  0.22718715  1
  Ni  Ni175  1  0.87655719  0.60485697  0.25696783  1
  Ni  Ni176  1  0.59831932  0.46762364  0.15521912  1
  Ni  Ni177  1  0.41155973  0.71795826  0.07309212  1
  Ni  Ni178  1  1.01221738  0.45148953  0.69405238  1
  Ni  Ni179  1  0.44461547  0.01303294  0.68967442  1
  Ni  Ni180  1  0.76669125  0.72671307  0.85227846  1
  Ni  Ni181  1  0.04944129  0.32017405  0.79857295  1
  Ni  Ni182  1  0.30746921  0.60387434  0.52816799  1
  Ni  Ni183  1  0.14389498  0.02501096  0.32739696  1
  Ni  Ni184  1  0.63778372  0.09393309  0.24786182  1
  Ni  Ni185  1  0.44809630  0.39881401  0.69890924  1
  Ni  Ni186  1  0.10462361  0.70919558  0.36265025  1
  Ni  Ni187  1  0.07090746  1.05214046  0.88845745  1
  Ni  Ni188  1  0.32444090  0.45465717  0.60740975  1
  Ni  Ni189  1  0.89233893  0.93665986  0.68980387  1
  Ni  Ni190  1  0.71559045  0.74406663  0.01341654  1
  Ni  Ni191  1  0.02797851  0.19203229  1.01219237  1
  Ni  Ni192  1  0.49975781  0.48183426  0.89081943  1
  Ni  Ni193  1  0.20377043  0.82418773  0.46517722  1
  Ni  Ni194  1  0.73341499  0.89978370  0.63373506  1
  Ni  Ni195  1  0.99680946  0.28115577  0.15697621  1
  Ni  Ni196  1  0.49837751  0.80634477  0.84322508  1
  Ni  Ni197  1  0.92330641  0.75729751  0.54679353  1
  Ni  Ni198  1  0.96927515  0.01542250  0.53835518  1
  Ni  Ni199  1  0.27668065  0.58710273  0.68689915  1
  Ni  Ni200  1  0.89318581  0.85497177  0.35623887  1
  Ni  Ni201  1  0.02431017  0.56888178  0.31313659  1
  Ni  Ni202  1  0.45897648  0.72259009  0.36608565  1
  Ni  Ni203  1  0.60486337  0.94524780  0.05248670  1
  Ni  Ni204  1  0.19655610  0.84382128  0.75855620  1
  Ni  Ni205  1  0.24328336  0.49983923  0.24366797  1
  Ni  Ni206  1  0.73696704  0.87056947  0.13081221  1
  Ni  Ni207  1  0.54345373  0.72203572  0.97787479  1
  Ni  Ni208  1  0.63617553  0.39060522  0.42688538  1
  Ni  Ni209  1  0.43184540  0.45890158  0.15893422  1
  Ni  Ni210  1  0.78132541  0.30419181  0.43124015  1
  Ni  Ni211  1  0.79493246  0.12813774  0.88822618  1
  Ni  Ni212  1  0.57950914  0.30542513  0.70199755  1
  Ni  Ni213  1  0.05167119  0.93413600  0.22475692  1
  Ni  Ni214  1  0.83247570  0.88972874  0.84979863  1
  Ni  Ni215  1  0.45205266  0.90025300  0.54603791  1
