# generated using pymatgen
data_Ti2CoNi
_symmetry_space_group_name_H-M   'P 1'
_cell_length_a   14.68988656
_cell_length_b   14.64366529
_cell_length_c   14.60076443
_cell_angle_alpha   89.91145622
_cell_angle_beta   90.23033101
_cell_angle_gamma   90.11595555
_symmetry_Int_Tables_number   1
_chemical_formula_structural   Ti2CoNi
_chemical_formula_sum   'Ti108 Co54 Ni54'
_cell_volume   3140.79013373
_cell_formula_units_Z   54
loop_
 _symmetry_equiv_pos_site_id
 _symmetry_equiv_pos_as_xyz
  1  'x, y, z'
loop_
 _atom_site_type_symbol
 _atom_site_label
 _atom_site_symmetry_multiplicity
 _atom_site_fract_x
 _atom_site_fract_y
 _atom_site_fract_z
 _atom_site_occupancy
  Ti  Ti0  1  -0.02285251  0.02601995  0.03043618  1
  Ti  Ti1  1  -0.04401111  -0.00624471  0.28808717  1
  Ti  Ti2  1  -0.02493269  0.02888902  0.72144175  1
  Ti  Ti3  1  0.01984773  0.29563833  -0.01392604  1
  Ti  Ti4  1  0.01529244  0.25281725  0.33132660  1
  Ti  Ti5  1  0.02766856  0.34145686  0.66558643  1
  Ti  Ti6  1  0.01134213  0.72116486  -0.03412124  1
  Ti  Ti7  1  0.08769147  0.58388422  0.37183568  1
  Ti  Ti8  1  0.03199231  0.65461302  0.75023037  1
  Ti  Ti9  1  0.34070397  0.06212248  -0.02811278  1
  Ti  Ti10  1  0.33179769  0.01737549  0.19859322  1
  Ti  Ti11  1  0.36300898  -0.03958868  0.68277979  1
  Ti  Ti12  1  0.30761793  0.30792696  -0.01506252  1
  Ti  Ti13  1  0.32798665  0.26762408  0.36128975  1
  Ti  Ti14  1  0.24173131  0.31772569  0.67130479  1
  Ti  Ti15  1  0.30963342  0.70664810  0.04915951  1
  Ti  Ti16  1  0.36228896  0.66459978  0.38863199  1
  Ti  Ti17  1  0.30345010  0.67626569  0.63924913  1
  Ti  Ti18  1  0.65111854  -0.03105547  0.04089638  1
  Ti  Ti19  1  0.61894915  -0.05729949  0.33890840  1
  Ti  Ti20  1  0.66361017  0.01751339  0.71838227  1
  Ti  Ti21  1  0.62062606  0.29756319  0.01534549  1
  Ti  Ti22  1  0.65054864  0.38564412  0.29304400  1
  Ti  Ti23  1  0.68856773  0.32153096  0.71306928  1
  Ti  Ti24  1  0.64339431  0.63808708  -0.06140378  1
  Ti  Ti25  1  0.68069900  0.59862278  0.28914290  1
  Ti  Ti26  1  0.67665908  0.73610363  0.67257777  1
  Ti  Ti27  1  -0.07534163  0.15349478  0.15139671  1
  Ti  Ti28  1  0.03808910  0.14179241  0.51641131  1
  Ti  Ti29  1  -0.07278812  0.16432811  0.88529680  1
  Ti  Ti30  1  0.02472546  0.56794389  0.16073085  1
  Ti  Ti31  1  -0.00012299  0.53134819  0.54621336  1
  Ti  Ti32  1  -0.01530954  0.46024137  0.83791289  1
  Ti  Ti33  1  -0.00335775  0.77071122  0.19689425  1
  Ti  Ti34  1  0.04736494  0.86221970  0.44345671  1
  Ti  Ti35  1  0.01351748  0.89954595  0.89034484  1
  Ti  Ti36  1  0.34178194  0.24824833  0.16672567  1
  Ti  Ti37  1  0.27826345  0.18392729  0.53080549  1
  Ti  Ti38  1  0.37725398  0.21119215  0.84552209  1
  Ti  Ti39  1  0.29304110  0.45898473  0.11969916  1
  Ti  Ti40  1  0.32103639  0.46122851  0.58546605  1
  Ti  Ti41  1  0.45435936  0.50866825  0.84482469  1
  Ti  Ti42  1  0.21796592  0.83695104  0.17575797  1
  Ti  Ti43  1  0.27134963  0.86892054  0.54525798  1
  Ti  Ti44  1  0.34415523  0.88556292  0.87894252  1
  Ti  Ti45  1  0.70209614  0.16166827  0.17730358  1
  Ti  Ti46  1  0.66665887  0.10830750  0.46358236  1
  Ti  Ti47  1  0.70877487  0.16736762  0.85633027  1
  Ti  Ti48  1  0.64854488  0.47749968  0.07859608  1
  Ti  Ti49  1  0.65880235  0.54293036  0.46975319  1
  Ti  Ti50  1  0.68028459  0.52125739  0.77768461  1
  Ti  Ti51  1  0.70374859  0.80771246  0.15275207  1
  Ti  Ti52  1  0.70959010  0.86314503  0.48989680  1
  Ti  Ti53  1  0.66682933  0.84426482  0.89558969  1
  Ti  Ti54  1  0.13487049  -0.00374543  0.13134527  1
  Ti  Ti55  1  0.18188704  0.01559905  0.46731016  1
  Ti  Ti56  1  0.16092263  -0.05557553  0.78290191  1
  Ti  Ti57  1  0.17408183  0.34393958  0.24027190  1
  Ti  Ti58  1  0.16547785  0.38703990  0.43647534  1
  Ti  Ti59  1  0.29311960  0.41716722  0.83044314  1
  Ti  Ti60  1  0.20542405  0.64867103  0.21932454  1
  Ti  Ti61  1  0.18067127  0.71030101  0.48035510  1
  Ti  Ti62  1  0.17575342  0.61893620  0.90444587  1
  Ti  Ti63  1  0.53631996  0.04066363  0.19259921  1
  Ti  Ti64  1  0.47199124  -0.05105568  0.49105287  1
  Ti  Ti65  1  0.45764241  0.05631543  0.79807274  1
  Ti  Ti66  1  0.49968498  0.37423021  0.15515597  1
  Ti  Ti67  1  0.53055341  0.39128119  0.48996026  1
  Ti  Ti68  1  0.53188849  0.31059855  0.85184059  1
  Ti  Ti69  1  0.50589489  0.70522302  0.22386269  1
  Ti  Ti70  1  0.49583634  0.67975826  0.54059161  1
  Ti  Ti71  1  0.50893961  0.65917228  0.75465585  1
  Ti  Ti72  1  0.80751985  -0.01836457  0.17430873  1
  Ti  Ti73  1  0.83220951  0.00545505  0.43065575  1
  Ti  Ti74  1  0.81794082  -0.09976740  0.76989979  1
  Ti  Ti75  1  0.83881791  0.30388299  0.26012595  1
  Ti  Ti76  1  0.72655890  0.33399624  0.48755390  1
  Ti  Ti77  1  0.86388644  0.29109796  0.77098438  1
  Ti  Ti78  1  0.77066371  0.62249948  0.13058395  1
  Ti  Ti79  1  0.82670162  0.68586553  0.50759800  1
  Ti  Ti80  1  0.85765718  0.60998346  0.90233855  1
  Ti  Ti81  1  0.16284743  0.17500162  -0.06934105  1
  Ti  Ti82  1  0.16939773  0.15277486  0.23625046  1
  Ti  Ti83  1  0.13608164  0.13956478  0.69401494  1
  Ti  Ti84  1  0.15757970  0.43125109  -0.03373684  1
  Ti  Ti85  1  0.27412351  0.50821204  0.32684025  1
  Ti  Ti86  1  0.16377051  0.51300518  0.73223272  1
  Ti  Ti87  1  0.17495184  0.83955627  -0.02566824  1
  Ti  Ti88  1  0.25083078  0.84186404  0.35781503  1
  Ti  Ti89  1  0.10479850  0.80246680  0.63573733  1
  Ti  Ti90  1  0.53814805  0.11460416  -0.00919371  1
  Ti  Ti91  1  0.47045509  0.15973196  0.45231239  1
  Ti  Ti92  1  0.45131698  0.20229746  0.65676310  1
  Ti  Ti93  1  0.46875008  0.57444895  0.04587178  1
  Ti  Ti94  1  0.48274093  0.49976884  0.33765534  1
  Ti  Ti95  1  0.52775159  0.42034198  0.67482455  1
  Ti  Ti96  1  0.50545171  0.79373472  0.04443711  1
  Ti  Ti97  1  0.43257427  0.87176281  0.30491351  1
  Ti  Ti98  1  0.52576065  0.85865539  0.76301154  1
  Ti  Ti99  1  0.79860551  0.23771086  0.01281740  1
  Ti  Ti100  1  0.86810926  0.20074434  0.45249356  1
  Ti  Ti101  1  0.76428907  0.16694701  0.62192491  1
  Ti  Ti102  1  0.88088647  0.47024686  0.05822755  1
  Ti  Ti103  1  0.86240842  0.49384889  0.31928311  1
  Ti  Ti104  1  0.84682289  0.45383957  0.64678884  1
  Ti  Ti105  1  0.84356451  0.88185452  -0.00578204  1
  Ti  Ti106  1  0.80380848  0.74213251  0.32734919  1
  Ti  Ti107  1  0.88244264  0.74489180  0.67291042  1
  Co  Co108  1  0.39212818  0.66334908  0.92054965  1
  Co  Co109  1  0.87521710  0.35126463  0.92979266  1
  Co  Co110  1  0.59631171  0.26462877  0.58021492  1
  Co  Co111  1  0.64414021  0.77668819  0.30715535  1
  Co  Co112  1  0.41613910  0.12382207  0.10575395  1
  Co  Co113  1  0.59200096  0.26704300  0.41134892  1
  Co  Co114  1  0.33945237  0.73108667  0.24215295  1
  Co  Co115  1  0.71112670  0.33871944  0.87370508  1
  Co  Co116  1  0.54314711  0.21255053  0.16181521  1
  Co  Co117  1  0.13780744  0.48908417  0.24027950  1
  Co  Co118  1  0.26179263  0.05742603  0.82516473  1
  Co  Co119  1  0.24468682  0.12992125  0.08322752  1
  Co  Co120  1  0.38690298  0.79391109  0.47149414  1
  Co  Co121  1  0.08105219  0.14287643  0.06918101  1
  Co  Co122  1  0.41767255  0.80712492  0.63298843  1
  Co  Co123  1  0.06365481  0.06643432  0.86098197  1
  Co  Co124  1  0.82111380  0.09272714  0.75272561  1
  Co  Co125  1  0.72950648  0.22059223  0.34752421  1
  Co  Co126  1  0.04241534  0.26650521  0.16701945  1
  Co  Co127  1  0.58250296  0.13632993  0.31921090  1
  Co  Co128  1  0.21084072  0.99816319  0.63577940  1
  Co  Co129  1  0.04560807  0.22888915  0.79798368  1
  Co  Co130  1  0.68093316  0.44376339  0.60333370  1
  Co  Co131  1  0.76204482  0.46674735  0.19801128  1
  Co  Co132  1  0.55941754  0.87643455  0.18213092  1
  Co  Co133  1  0.34333082  0.03860655  0.53419633  1
  Co  Co134  1  0.77775750  0.89872844  0.31352121  1
  Co  Co135  1  0.72394822  0.32309275  0.13889037  1
  Co  Co136  1  0.82166760  0.44746377  0.80872399  1
  Co  Co137  1  0.66219846  0.70734575  0.47914623  1
  Co  Co138  1  0.45861889  0.96628186  0.06853742  1
  Co  Co139  1  0.06190744  0.41947772  0.09425659  1
  Co  Co140  1  0.90296643  0.32402017  0.10424582  1
  Co  Co141  1  0.86603453  0.13450846  0.30028562  1
  Co  Co142  1  0.39241070  0.84425776  0.14794715  1
  Co  Co143  1  0.17036945  1.00905051  0.96844237  1
  Co  Co144  1  0.61885330  0.66544096  0.10222599  1
  Co  Co145  1  0.53874315  0.81160381  0.41805716  1
  Co  Co146  1  0.18178652  0.28992876  0.08319175  1
  Co  Co147  1  0.25369359  0.74663585  0.86115167  1
  Co  Co148  1  0.97900911  0.40386198  0.22840212  1
  Co  Co149  1  0.22893894  0.23584609  0.80095590  1
  Co  Co150  1  0.38660847  0.75673313  0.78037730  1
  Co  Co151  1  0.72471332  0.05722674  0.30138811  1
  Co  Co152  1  0.12985328  0.61587060  0.60794510  1
  Co  Co153  1  0.10261384  0.77818967  0.82049923  1
  Co  Co154  1  1.00352662  0.70165991  0.54216166  1
  Co  Co155  1  0.57196595  0.81680336  0.57982173  1
  Co  Co156  1  0.13944204  0.44358230  0.58595514  1
  Co  Co157  1  0.98930280  0.86329303  0.72440145  1
  Co  Co158  1  0.02229671  0.43812527  0.37253165  1
  Co  Co159  1  0.91908503  0.77027078  0.84151382  1
  Co  Co160  1  0.42512468  0.14649876  0.27518039  1
  Co  Co161  1  0.29113698  0.92413085  0.04975714  1
  Ni  Ni162  1  1.02989694  0.87022594  0.06887152  1
  Ni  Ni163  1  0.90262313  0.64053484  0.24682152  1
  Ni  Ni164  1  0.91362557  0.65329728  0.07134161  1
  Ni  Ni165  1  0.81705545  0.50502685  0.48761011  1
  Ni  Ni166  1  0.88391011  0.84287137  0.43582810  1
  Ni  Ni167  1  0.93021189  0.61223710  0.40939706  1
  Ni  Ni168  1  0.08144483  0.89336496  0.27485572  1
  Ni  Ni169  1  0.75489456  0.59321210  0.62048216  1
  Ni  Ni170  1  0.59355101  0.57997202  0.63101558  1
  Ni  Ni171  1  0.54537242  0.64946199  0.37920198  1
  Ni  Ni172  1  0.16861451  0.21166533  0.40024697  1
  Ni  Ni173  1  0.74916936  0.49246846  0.94633893  1
  Ni  Ni174  1  0.76260726  0.73049761  0.81728174  1
  Ni  Ni175  1  0.12637769  0.36673775  0.81621064  1
  Ni  Ni176  1  0.89809028  0.00903766  0.87975382  1
  Ni  Ni177  1  0.36589712  0.41529505  0.42888142  1
  Ni  Ni178  1  0.45838362  0.25368742  1.01748785  1
  Ni  Ni179  1  0.87889996  0.58978726  0.73808751  1
  Ni  Ni180  1  0.94711697  0.18614502  0.66649694  1
  Ni  Ni181  1  0.43016877  0.55509250  0.65656097  1
  Ni  Ni182  1  0.90292877  0.06279222  0.57044743  1
  Ni  Ni183  1  0.25812292  0.82833847  0.71170542  1
  Ni  Ni184  1  0.56905942  0.10251990  0.59195679  1
  Ni  Ni185  1  0.20267995  0.99113749  0.29764008  1
  Ni  Ni186  1  1.00112665  0.32909478  0.49093879  1
  Ni  Ni187  1  0.52915071  0.95962753  0.64127632  1
  Ni  Ni188  1  0.22828773  0.55149884  0.48277337  1
  Ni  Ni189  1  0.74565402  0.99643456  0.89426150  1
  Ni  Ni190  1  0.07131355  0.08137287  0.35894034  1
  Ni  Ni191  1  0.30404962  0.09817747  0.37616085  1
  Ni  Ni192  1  0.02041115  0.54887084  0.97944256  1
  Ni  Ni193  1  0.86642347  0.30420766  0.58642086  1
  Ni  Ni194  1  0.38556479  0.57111136  0.20898179  1
  Ni  Ni195  1  0.31612409  0.59198400  0.78731975  1
  Ni  Ni196  1  0.30903411  0.12499383  0.68768368  1
  Ni  Ni197  1  0.77892049  0.73405898  -0.01034440  1
  Ni  Ni198  1  0.80177348  0.07009825  0.03290723  1
  Ni  Ni199  1  0.39691996  0.31256885  0.55224981  1
  Ni  Ni200  1  0.12528062  0.72049253  0.08608381  1
  Ni  Ni201  1  0.49895564  0.91625561  0.92383699  1
  Ni  Ni202  1  0.31454686  0.52292104  0.96411598  1
  Ni  Ni203  1  0.17362967  0.56482197  0.06835955  1
  Ni  Ni204  1  0.76347424  0.98893215  0.59461926  1
  Ni  Ni205  1  0.55192934  0.54048337  0.19582591  1
  Ni  Ni206  1  0.05891842  0.96613919  0.58585815  1
  Ni  Ni207  1  0.59302791  0.45858882  0.91670807  1
  Ni  Ni208  1  0.37066003  0.39290032  0.25796317  1
  Ni  Ni209  1  0.44910630  0.41505887  -0.00806399  1
  Ni  Ni210  1  0.11590230  0.74391030  0.32292613  1
  Ni  Ni211  1  0.52201465  0.75132754  0.89036485  1
  Ni  Ni212  1  0.59689602  0.02327041  0.86770821  1
  Ni  Ni213  1  0.59187125  0.17389376  0.74187366  1
  Ni  Ni214  1  0.13738982  0.27030801  0.55626766  1
  Ni  Ni215  1  0.39849301  0.34703226  0.73147509  1
