# generated using pymatgen
data_Ti2CoNi
_symmetry_space_group_name_H-M   'P 1'
_cell_length_a   14.51924189
_cell_length_b   14.41172467
_cell_length_c   14.58957412
_cell_angle_alpha   89.62393098
_cell_angle_beta   90.09405531
_cell_angle_gamma   90.24201966
_symmetry_Int_Tables_number   1
_chemical_formula_structural   Ti2CoNi
_chemical_formula_sum   'Ti108 Co54 Ni54'
_cell_volume   3052.73226432
_cell_formula_units_Z   54
loop_
 _symmetry_equiv_pos_site_id
 _symmetry_equiv_pos_as_xyz
  1  'x, y, z'
loop_
 _atom_site_type_symbol
 _atom_site_label
 _atom_site_symmetry_multiplicity
 _atom_site_fract_x
 _atom_site_fract_y
 _atom_site_fract_z
 _atom_site_occupancy
  Ti  Ti0  1  -0.00590913  0.02882609  -0.04408555  1
  Ti  Ti1  1  -0.03332282  0.07893866  0.36882582  1
  Ti  Ti2  1  -0.07393805  -0.04551601  0.66302141  1
  Ti  Ti3  1  -0.01618869  0.31769287  -0.02701843  1
  Ti  Ti4  1  -0.01599031  0.28004720  0.33235274  1
  Ti  Ti5  1  0.00201826  0.38921980  0.74973389  1
  Ti  Ti6  1  0.04379564  0.70099756  -0.08412717  1
  Ti  Ti7  1  0.02717008  0.65951619  0.38191719  1
  Ti  Ti8  1  0.00242723  0.66976199  0.57308811  1
  Ti  Ti9  1  0.31269892  0.00765015  0.03960686  1
  Ti  Ti10  1  0.37525834  0.02109851  0.34705908  1
  Ti  Ti11  1  0.36350032  0.05983203  0.71233487  1
  Ti  Ti12  1  0.28996243  0.37122616  0.05243647  1
  Ti  Ti13  1  0.39722715  0.31606974  0.26407599  1
  Ti  Ti14  1  0.40315297  0.29228362  0.65129028  1
  Ti  Ti15  1  0.34664602  0.61214495  0.04932982  1
  Ti  Ti16  1  0.29749381  0.72137669  0.36549035  1
  Ti  Ti17  1  0.37390790  0.59876254  0.64857584  1
  Ti  Ti18  1  0.59096668  0.01040764  0.00253275  1
  Ti  Ti19  1  0.66622803  -0.04547429  0.25594981  1
  Ti  Ti20  1  0.72237325  -0.00263890  0.68595926  1
  Ti  Ti21  1  0.63627548  0.31200229  -0.02593065  1
  Ti  Ti22  1  0.69289148  0.36831926  0.41739432  1
  Ti  Ti23  1  0.67888592  0.41558307  0.69374218  1
  Ti  Ti24  1  0.63811085  0.63331340  0.01634554  1
  Ti  Ti25  1  0.73199871  0.71200197  0.34908828  1
  Ti  Ti26  1  0.55207343  0.61695812  0.72241705  1
  Ti  Ti27  1  0.05930034  0.16954950  0.20151882  1
  Ti  Ti28  1  0.08648833  0.13045157  0.53235137  1
  Ti  Ti29  1  -0.03766031  0.21740636  0.78081102  1
  Ti  Ti30  1  -0.06136779  0.54340173  0.16285705  1
  Ti  Ti31  1  0.09620930  0.49175961  0.53293058  1
  Ti  Ti32  1  -0.05101535  0.51799013  0.88391866  1
  Ti  Ti33  1  0.00356197  0.83615732  0.22406444  1
  Ti  Ti34  1  0.00362578  0.86270930  0.41962397  1
  Ti  Ti35  1  -0.00723543  0.80180267  0.74346623  1
  Ti  Ti36  1  0.33548123  0.17704415  0.17015349  1
  Ti  Ti37  1  0.30440614  0.19880045  0.42845265  1
  Ti  Ti38  1  0.26654460  0.12960994  0.87960672  1
  Ti  Ti39  1  0.37523995  0.49611795  0.18867270  1
  Ti  Ti40  1  0.28229613  0.50735271  0.47771039  1
  Ti  Ti41  1  0.38753508  0.54748358  0.86764796  1
  Ti  Ti42  1  0.27192212  0.71769709  0.17607005  1
  Ti  Ti43  1  0.33425538  0.83127574  0.56985025  1
  Ti  Ti44  1  0.31659181  0.89449084  0.87912127  1
  Ti  Ti45  1  0.74390878  0.14802396  0.19744210  1
  Ti  Ti46  1  0.70249172  0.14721361  0.52661088  1
  Ti  Ti47  1  0.58474714  0.16343481  0.85886733  1
  Ti  Ti48  1  0.65237234  0.45416689  0.13441348  1
  Ti  Ti49  1  0.75093005  0.53425492  0.45992555  1
  Ti  Ti50  1  0.71607874  0.57237441  0.82881867  1
  Ti  Ti51  1  0.67996516  0.77029957  0.16776066  1
  Ti  Ti52  1  0.64683233  0.81358906  0.51961179  1
  Ti  Ti53  1  0.60751235  0.83920384  0.74651947  1
  Ti  Ti54  1  0.15037674  -0.07412994  0.12074811  1
  Ti  Ti55  1  0.24056453  0.01325287  0.55460499  1
  Ti  Ti56  1  0.09332762  -0.01479670  0.76965403  1
  Ti  Ti57  1  0.09867007  0.38488338  0.13715988  1
  Ti  Ti58  1  0.18697574  0.30641735  0.56917649  1
  Ti  Ti59  1  0.16934968  0.28617533  0.88798748  1
  Ti  Ti60  1  0.09384334  0.66761975  0.11747371  1
  Ti  Ti61  1  0.20564515  0.66228450  0.53346089  1
  Ti  Ti62  1  0.17335077  0.74266860  0.78291863  1
  Ti  Ti63  1  0.46942966  -0.04922762  0.17869062  1
  Ti  Ti64  1  0.53037761  0.05731341  0.44375057  1
  Ti  Ti65  1  0.49223367  -0.04377242  0.83491488  1
  Ti  Ti66  1  0.54835207  0.23928352  0.15492267  1
  Ti  Ti67  1  0.49359963  0.35285279  0.44992468  1
  Ti  Ti68  1  0.49391263  0.36946680  0.84967112  1
  Ti  Ti69  1  0.47729980  0.75957970  0.15003906  1
  Ti  Ti70  1  0.54891944  0.63676995  0.54385339  1
  Ti  Ti71  1  0.41778009  0.74218633  0.80950633  1
  Ti  Ti72  1  0.88820351  0.02641933  0.19163027  1
  Ti  Ti73  1  0.87751876  0.07295442  0.52926462  1
  Ti  Ti74  1  0.82888432  0.07508833  0.81344348  1
  Ti  Ti75  1  0.89941087  0.34528254  0.15303471  1
  Ti  Ti76  1  0.81066328  0.29440235  0.55065348  1
  Ti  Ti77  1  0.81250335  0.33794606  0.86275421  1
  Ti  Ti78  1  0.76426535  0.61053764  0.18366428  1
  Ti  Ti79  1  0.80209474  0.68722627  0.55458942  1
  Ti  Ti80  1  0.86371890  0.65111538  0.72418976  1
  Ti  Ti81  1  0.16553652  0.11789681  0.05040059  1
  Ti  Ti82  1  0.19110553  0.10162785  0.30088870  1
  Ti  Ti83  1  0.16538616  0.15610092  0.71840416  1
  Ti  Ti84  1  0.17534804  0.57658706  -0.04424017  1
  Ti  Ti85  1  0.15945550  0.44440403  0.34958945  1
  Ti  Ti86  1  0.19538581  0.41824124  0.73452904  1
  Ti  Ti87  1  0.20184806  0.80465771  -0.00543952  1
  Ti  Ti88  1  0.20699851  0.88959274  0.28975370  1
  Ti  Ti89  1  0.13077741  0.82572649  0.60009122  1
  Ti  Ti90  1  0.43619319  0.21637885  -0.02195832  1
  Ti  Ti91  1  0.61812542  0.13834221  0.31356755  1
  Ti  Ti92  1  0.54294069  0.15162850  0.61767220  1
  Ti  Ti93  1  0.51143462  0.48494948  0.01633921  1
  Ti  Ti94  1  0.52090945  0.49640812  0.31348553  1
  Ti  Ti95  1  0.49592081  0.45058082  0.65690748  1
  Ti  Ti96  1  0.56218286  0.81168882  -0.04541339  1
  Ti  Ti97  1  0.50329981  0.74878798  0.37747581  1
  Ti  Ti98  1  0.50118403  0.93943518  0.60785891  1
  Ti  Ti99  1  0.81891115  0.19922654  0.03852639  1
  Ti  Ti100  1  0.81041626  0.21529464  0.36538688  1
  Ti  Ti101  1  0.70433037  0.21757139  0.71797382  1
  Ti  Ti102  1  0.81283303  0.55871041  0.00872398  1
  Ti  Ti103  1  0.87530335  0.55913084  0.33500246  1
  Ti  Ti104  1  0.84914624  0.48114620  0.61006020  1
  Ti  Ti105  1  0.88159570  0.82464070  -0.06017935  1
  Ti  Ti106  1  0.82620717  0.87277780  0.28190618  1
  Ti  Ti107  1  0.80708872  0.82359270  0.70337214  1
  Co  Co108  1  0.37248635  0.77971222  0.01249128  1
  Co  Co109  1  0.84735251  0.32407225  0.69914785  1
  Co  Co110  1  0.97452906  0.38060084  0.58140846  1
  Co  Co111  1  0.46499141  0.10243795  0.23246892  1
  Co  Co112  1  0.09103954  0.54796130  0.24173158  1
  Co  Co113  1  0.39461191  0.88061047  0.72606475  1
  Co  Co114  1  0.39499299  1.05018251  0.53259545  1
  Co  Co115  1  0.74679402  0.01721956  0.09759186  1
  Co  Co116  1  0.94880784  0.22850097  0.48591000  1
  Co  Co117  1  0.60049649  0.87856926  0.09902615  1
  Co  Co118  1  0.15987514  0.59631219  0.66340652  1
  Co  Co119  1  0.14797460  0.29254586  0.28647681  1
  Co  Co120  1  0.91363873  0.17217985  0.91828276  1
  Co  Co121  1  0.87166784  0.38806971  0.42982338  1
  Co  Co122  1  0.59884072  0.22810232  0.43538929  1
  Co  Co123  1  0.68027923  0.72378051  0.66510191  1
  Co  Co124  1  0.88153410  0.67193242  0.87404616  1
  Co  Co125  1  0.29579965  0.73667890  0.69203063  1
  Co  Co126  1  0.29083794  0.02213030  0.20182181  1
  Co  Co127  1  0.78388366  0.90732717  0.56533712  1
  Co  Co128  1  0.62893824  0.31885379  0.57113422  1
  Co  Co129  1  0.29388410  0.17937463  0.59760651  1
  Co  Co130  1  0.84107161  0.15251855  0.66063261  1
  Co  Co131  1  0.74491453  0.19028503  0.89154357  1
  Co  Co132  1  0.73403247  0.74843027  0.83729815  1
  Co  Co133  1  0.46283763  0.20360231  0.34664837  1
  Co  Co134  1  0.79269345  0.86924548  0.11621605  1
  Co  Co135  1  0.27104676  0.58833866  0.77355215  1
  Co  Co136  1  0.64219051  -0.01112818  0.54600374  1
  Co  Co137  1  0.29599830  0.24563950  0.75841528  1
  Co  Co138  1  0.03631755  0.02846947  0.11650554  1
  Co  Co139  1  0.55488063  0.52707032  0.86302229  1
  Co  Co140  1  0.94312346  0.82085154  0.56305233  1
  Co  Co141  1  0.55832675  0.29221012  0.72510575  1
  Co  Co142  1  0.94313909  0.66195630  0.03282363  1
  Co  Co143  1  0.31536142  0.86641396  0.13982133  1
  Co  Co144  1  0.12000439  0.53111254  0.81311691  1
  Co  Co145  1  0.25010064  0.40220877  0.22827302  1
  Co  Co146  1  0.59960766  0.06238329  0.15656813  1
  Co  Co147  1  0.44316529  0.21109198  0.50904070  1
  Co  Co148  1  0.51172942  0.59323196  0.13786814  1
  Co  Co149  1  0.04765969  0.25656527  0.63936131  1
  Co  Co150  1  0.46289228  0.09447286  0.07272490  1
  Co  Co151  1  0.33618657  0.30473362  0.89781683  1
  Co  Co152  1  0.81390998  0.79977794  0.44989320  1
  Co  Co153  1  0.26032969  0.44811655  0.91005451  1
  Co  Co154  1  0.13188175  0.74217508  0.27168159  1
  Co  Co155  1  0.65057621  0.15919984  0.03654704  1
  Co  Co156  1  0.45166811  0.91695463  1.01323818  1
  Co  Co157  1  0.17840194  0.61584632  0.36648513  1
  Co  Co158  1  0.87094739  0.94549280  0.43541520  1
  Co  Co159  1  0.44701594  0.17640150  0.78686552  1
  Co  Co160  1  0.06465819  0.34504807  0.45738823  1
  Co  Co161  1  0.35467092  0.42404959  0.77333677  1
  Ni  Ni162  1  0.58741035  0.69464742  0.85060521  1
  Ni  Ni163  1  0.77724349  0.91128842  0.84032757  1
  Ni  Ni164  1  0.82279141  0.39136239  1.01666695  1
  Ni  Ni165  1  0.94108159  0.52729983  0.48186752  1
  Ni  Ni166  1  0.05772619  0.99487037  0.26925207  1
  Ni  Ni167  1  0.98066603  0.43140654  0.28113248  1
  Ni  Ni168  1  0.38624477  0.84710936  0.29239982  1
  Ni  Ni169  1  0.19809845  0.52493757  0.11919080  1
  Ni  Ni170  1  0.45099882  0.35242324  0.08324762  1
  Ni  Ni171  1  0.83375446  0.47853359  0.76925362  1
  Ni  Ni172  1  0.09578106  0.42112006  0.92217279  1
  Ni  Ni173  1  0.61285384  0.60378148  0.40562581  1
  Ni  Ni174  1  0.49583078  0.76633005  0.63699875  1
  Ni  Ni175  1  0.68258815  0.51450037  0.29069732  1
  Ni  Ni176  1  0.02135020  0.50844210  0.03292916  1
  Ni  Ni177  1  0.41361837  0.64783973  0.26376746  1
  Ni  Ni178  1  0.62527763  0.34032835  0.27343767  1
  Ni  Ni179  1  0.38268399  0.67439659  0.49868047  1
  Ni  Ni180  1  0.17332173  -0.01344407  0.92379943  1
  Ni  Ni181  1  0.28887871  0.69957764  0.89651841  1
  Ni  Ni182  1  0.77726711  0.04776903  0.35163718  1
  Ni  Ni183  1  0.29293910  0.90266152  0.43192040  1
  Ni  Ni184  1  -0.00214792  0.09956474  0.66684063  1
  Ni  Ni185  1  0.68083206  0.46671132  0.95316426  1
  Ni  Ni186  1  0.93587917  0.94110744  0.82720625  1
  Ni  Ni187  1  0.60234866  0.47418035  0.52366627  1
  Ni  Ni188  1  0.89958648  0.19257779  0.20819459  1
  Ni  Ni189  1  0.71285115  0.30063886  0.12804280  1
  Ni  Ni190  1  0.12774776  0.20344686  0.40953768  1
  Ni  Ni191  1  0.02920055  0.64680652  0.76386068  1
  Ni  Ni192  1  0.14204548  -0.01659963  0.41784083  1
  Ni  Ni193  1  0.15682815  0.79959564  0.43609397  1
  Ni  Ni194  1  0.58728213  0.66153987  0.26008251  1
  Ni  Ni195  1  0.03824405  0.81206648  0.05936167  1
  Ni  Ni196  1  0.88594163  0.71133925  0.25664876  1
  Ni  Ni197  1  0.48120646  0.65612244  0.96745781  1
  Ni  Ni198  1  1.00398322  0.17658486  0.04916523  1
  Ni  Ni199  1  0.44403133  0.50923300  0.49393345  1
  Ni  Ni200  1  0.09010564  0.13490276  0.87429783  1
  Ni  Ni201  1  0.40892063  0.06008419  0.91581196  1
  Ni  Ni202  1  0.69446530  0.56920868  0.63585399  1
  Ni  Ni203  1  0.23027512  0.90353103  0.70635838  1
  Ni  Ni204  1  0.36147173  0.44251349  0.35730209  1
  Ni  Ni205  1  0.55014204  0.90795215  0.37713506  1
  Ni  Ni206  1  0.78449144  0.72345898  0.02975377  1
  Ni  Ni207  1  0.92713359  0.92590655  0.06517047  1
  Ni  Ni208  1  1.00754522  0.52550415  0.66802302  1
  Ni  Ni209  1  0.30677546  0.43790676  0.61769584  1
  Ni  Ni210  1  0.06118614  0.86731919  0.90490927  1
  Ni  Ni211  1  0.80087580  0.40737545  0.26960844  1
  Ni  Ni212  1  0.57248894  1.04161720  0.72522714  1
  Ni  Ni213  1  0.19936412  0.25435788  0.13895947  1
  Ni  Ni214  1  0.05489826  0.96947352  0.56588214  1
  Ni  Ni215  1  0.65913019  0.00788066  0.85700549  1
