# generated using pymatgen
data_Ti2CoNi
_symmetry_space_group_name_H-M   'P 1'
_cell_length_a   14.55231980
_cell_length_b   14.50930897
_cell_length_c   14.56557979
_cell_angle_alpha   89.71305183
_cell_angle_beta   89.89245166
_cell_angle_gamma   89.88238729
_symmetry_Int_Tables_number   1
_chemical_formula_structural   Ti2CoNi
_chemical_formula_sum   'Ti108 Co54 Ni54'
_cell_volume   3075.38589056
_cell_formula_units_Z   54
loop_
 _symmetry_equiv_pos_site_id
 _symmetry_equiv_pos_as_xyz
  1  'x, y, z'
loop_
 _atom_site_type_symbol
 _atom_site_label
 _atom_site_symmetry_multiplicity
 _atom_site_fract_x
 _atom_site_fract_y
 _atom_site_fract_z
 _atom_site_occupancy
  Ti  Ti0  1  -0.01467543  -0.06465604  -0.03081647  1
  Ti  Ti1  1  -0.03452228  -0.10741962  0.29496833  1
  Ti  Ti2  1  0.02167467  0.06000325  0.67710035  1
  Ti  Ti3  1  -0.00201539  0.39452363  0.01376320  1
  Ti  Ti4  1  -0.00057790  0.41169847  0.32009736  1
  Ti  Ti5  1  0.01554013  0.42528754  0.64792234  1
  Ti  Ti6  1  0.00467341  0.70758312  0.00399838  1
  Ti  Ti7  1  -0.01781557  0.69317809  0.29431129  1
  Ti  Ti8  1  -0.06837208  0.66785963  0.62523601  1
  Ti  Ti9  1  0.38407295  0.03623358  -0.04132084  1
  Ti  Ti10  1  0.33042579  -0.03225048  0.26903357  1
  Ti  Ti11  1  0.25625944  0.01130241  0.67497939  1
  Ti  Ti12  1  0.29760805  0.28085768  0.00515342  1
  Ti  Ti13  1  0.33076917  0.28234536  0.35107540  1
  Ti  Ti14  1  0.27025814  0.32798966  0.60230612  1
  Ti  Ti15  1  0.33879378  0.69032215  -0.00866046  1
  Ti  Ti16  1  0.27480909  0.61785760  0.34574281  1
  Ti  Ti17  1  0.41903081  0.68250190  0.67761435  1
  Ti  Ti18  1  0.59657136  0.03528028  -0.00668456  1
  Ti  Ti19  1  0.61229311  -0.05123552  0.33303223  1
  Ti  Ti20  1  0.63486581  0.04575893  0.64289576  1
  Ti  Ti21  1  0.68514272  0.36413207  0.03208237  1
  Ti  Ti22  1  0.65754647  0.31214852  0.24311260  1
  Ti  Ti23  1  0.70494986  0.32326609  0.75064137  1
  Ti  Ti24  1  0.77867550  0.68090952  -0.02092883  1
  Ti  Ti25  1  0.61375594  0.74098154  0.32497425  1
  Ti  Ti26  1  0.62834734  0.65044101  0.73433208  1
  Ti  Ti27  1  0.02036072  0.11715880  0.23043428  1
  Ti  Ti28  1  -0.01158257  0.12491876  0.49171819  1
  Ti  Ti29  1  -0.00214105  0.22496283  0.79090306  1
  Ti  Ti30  1  0.05876287  0.51110076  0.16386582  1
  Ti  Ti31  1  -0.08231049  0.48624571  0.48449908  1
  Ti  Ti32  1  0.08043989  0.48099951  0.82015696  1
  Ti  Ti33  1  0.07769517  0.82482027  0.13567687  1
  Ti  Ti34  1  0.03952160  0.80256784  0.57450615  1
  Ti  Ti35  1  0.00032071  0.72859840  0.79134490  1
  Ti  Ti36  1  0.33302004  0.15629646  0.19725802  1
  Ti  Ti37  1  0.37323991  0.16921001  0.52243538  1
  Ti  Ti38  1  0.28272941  0.23684469  0.76038840  1
  Ti  Ti39  1  0.34584047  0.43088678  0.10087146  1
  Ti  Ti40  1  0.37323860  0.45558172  0.48648061  1
  Ti  Ti41  1  0.30742745  0.54974456  0.80467700  1
  Ti  Ti42  1  0.28875538  0.84009843  0.14041883  1
  Ti  Ti43  1  0.35388355  0.90216938  0.45495256  1
  Ti  Ti44  1  0.41319879  0.84449697  0.91816824  1
  Ti  Ti45  1  0.66601984  0.17687032  0.12309945  1
  Ti  Ti46  1  0.67336312  0.11030869  0.44666077  1
  Ti  Ti47  1  0.69074016  0.11171200  0.82904635  1
  Ti  Ti48  1  0.63521357  0.55566089  0.22910593  1
  Ti  Ti49  1  0.64506256  0.56038535  0.56390106  1
  Ti  Ti50  1  0.64893913  0.54055737  0.89657634  1
  Ti  Ti51  1  0.62041754  0.88709272  0.13715879  1
  Ti  Ti52  1  0.68066767  0.85692518  0.50354965  1
  Ti  Ti53  1  0.73296972  0.87674240  0.87765890  1
  Ti  Ti54  1  0.15418981  0.01518169  0.10820869  1
  Ti  Ti55  1  0.12337685  -0.02876079  0.53287336  1
  Ti  Ti56  1  0.20844249  -0.02852796  0.83906304  1
  Ti  Ti57  1  0.13582629  0.23705692  0.11991446  1
  Ti  Ti58  1  0.08318485  0.29732697  0.45276174  1
  Ti  Ti59  1  0.14097705  0.30983071  0.88898554  1
  Ti  Ti60  1  0.14785411  0.66745031  0.20225217  1
  Ti  Ti61  1  0.20888014  0.73042767  0.51869412  1
  Ti  Ti62  1  0.15803282  0.64961807  0.87319240  1
  Ti  Ti63  1  0.51293095  0.06047489  0.18186976  1
  Ti  Ti64  1  0.51279378  0.01222527  0.49972488  1
  Ti  Ti65  1  0.48027570  -0.03835759  0.76545562  1
  Ti  Ti66  1  0.49449413  0.41458544  0.22188611  1
  Ti  Ti67  1  0.56326544  0.36815392  0.51561082  1
  Ti  Ti68  1  0.44787214  0.32916368  0.80099778  1
  Ti  Ti69  1  0.45515535  0.60777469  0.14130587  1
  Ti  Ti70  1  0.49432967  0.66784117  0.48842409  1
  Ti  Ti71  1  0.47841524  0.63984700  0.87064714  1
  Ti  Ti72  1  0.83531709  0.05995509  0.20549778  1
  Ti  Ti73  1  0.83453684  -0.05097266  0.42326611  1
  Ti  Ti74  1  0.87885828  0.03021258  0.80226701  1
  Ti  Ti75  1  0.85871899  0.28437887  0.17186418  1
  Ti  Ti76  1  0.76391154  0.30165631  0.47726361  1
  Ti  Ti77  1  0.87504489  0.40255975  0.82774762  1
  Ti  Ti78  1  0.82853637  0.60728369  0.17290325  1
  Ti  Ti79  1  0.84877090  0.65608336  0.46304958  1
  Ti  Ti80  1  0.80325528  0.70780709  0.77864029  1
  Ti  Ti81  1  0.09589292  0.13127470  -0.04479466  1
  Ti  Ti82  1  0.17698532  0.12356999  0.39514146  1
  Ti  Ti83  1  0.15869873  0.16693174  0.60385827  1
  Ti  Ti84  1  0.22092760  0.56233193  0.05639183  1
  Ti  Ti85  1  0.19418793  0.42952191  0.29680009  1
  Ti  Ti86  1  0.19665422  0.51058307  0.61809460  1
  Ti  Ti87  1  0.21994082  0.89330204  -0.00860901  1
  Ti  Ti88  1  0.21620625  0.80142682  0.31577581  1
  Ti  Ti89  1  0.18469618  0.80586872  0.71418550  1
  Ti  Ti90  1  0.56608362  0.23062064  -0.05369567  1
  Ti  Ti91  1  0.50125356  0.14814605  0.35926960  1
  Ti  Ti92  1  0.45805873  0.14122992  0.68766299  1
  Ti  Ti93  1  0.53611650  0.47663742  0.02866741  1
  Ti  Ti94  1  0.46819475  0.55406224  0.34546509  1
  Ti  Ti95  1  0.49620894  0.50348520  0.67210886  1
  Ti  Ti96  1  0.57147360  0.73546186  0.01857891  1
  Ti  Ti97  1  0.41372603  0.75211083  0.28354467  1
  Ti  Ti98  1  0.50612463  0.84825997  0.60764284  1
  Ti  Ti99  1  0.81824015  0.16223984  0.01611598  1
  Ti  Ti100  1  0.91007602  0.25193064  0.35652839  1
  Ti  Ti101  1  0.82571728  0.14693525  0.64598663  1
  Ti  Ti102  1  0.82264053  0.48945476  -0.00026147  1
  Ti  Ti103  1  0.79851119  0.42968433  0.31568412  1
  Ti  Ti104  1  0.81291846  0.51339941  0.65641766  1
  Ti  Ti105  1  0.81441208  0.86886669  0.06634954  1
  Ti  Ti106  1  0.80265764  0.77162215  0.32363857  1
  Ti  Ti107  1  0.87667108  0.86631582  0.70369309  1
  Co  Co108  1  0.42792346  0.77141496  0.09851862  1
  Co  Co109  1  0.73902972  -0.02367986  0.74332256  1
  Co  Co110  1  0.94455365  0.57556765  0.06343055  1
  Co  Co111  1  0.24553253  0.16382880  0.90231918  1
  Co  Co112  1  0.23528707  0.24146735  0.47497773  1
  Co  Co113  1  0.61791264  0.42557768  0.35629253  1
  Co  Co114  1  0.47902406  0.89122014  0.23399427  1
  Co  Co115  1  0.47891900  0.91683353  0.06078987  1
  Co  Co116  1  0.19078267  0.10048151  0.24407812  1
  Co  Co117  1  0.71732132  0.83397268  0.65762014  1
  Co  Co118  1  0.27513409  0.04279339  0.51573984  1
  Co  Co119  1  0.49284583  0.77851018  0.78330559  1
  Co  Co120  1  0.94605106  0.79588112  0.43661534  1
  Co  Co121  1  0.64697050  0.48257889  0.73507190  1
  Co  Co122  1  0.91294886  0.55304960  0.31302845  1
  Co  Co123  1  0.19430239  0.55646030  0.45743716  1
  Co  Co124  1  0.10222250  0.61916022  0.71325405  1
  Co  Co125  1  0.22534121  0.40021420  0.45355465  1
  Co  Co126  1  0.08406943  0.53018010  0.97662237  1
  Co  Co127  1  0.76057589  0.68171900  0.61246550  1
  Co  Co128  1  0.57225630  0.22098370  0.76838255  1
  Co  Co129  1  0.65301421  0.08989431  0.26813399  1
  Co  Co130  1  0.59856125  0.37922656  0.87044734  1
  Co  Co131  1  0.10821556  0.70323685  0.39571173  1
  Co  Co132  1  0.26770578  0.11969487  0.05029665  1
  Co  Co133  1  0.55667310  0.73436026  0.18385653  1
  Co  Co134  1  0.47887992  0.48226266  0.84275790  1
  Co  Co135  1  0.93516447  0.11142125  0.92462652  1
  Co  Co136  1  0.84531589  0.81610873  0.55283429  1
  Co  Co137  1  0.08770662  0.55625718  0.33171484  1
  Co  Co138  1  0.35759961  1.00406525  0.11325995  1
  Co  Co139  1  0.30630980  0.67321943  0.17052353  1
  Co  Co140  1  0.15929449  0.12969105  0.77130527  1
  Co  Co141  1  0.75747843  0.61276070  0.32661271  1
  Co  Co142  1  0.61266395  0.87360875  0.76027135  1
  Co  Co143  1  0.69202259  0.69953737  0.46370179  1
  Co  Co144  1  0.52229270  0.08529101  0.85393832  1
  Co  Co145  1  0.57077652  0.89365848  0.92029770  1
  Co  Co146  1  0.35138369  0.08416496  0.37715627  1
  Co  Co147  1  0.59729076  0.72249779  0.60034663  1
  Co  Co148  1  0.33201883  0.80042574  0.59800271  1
  Co  Co149  1  0.40701225  0.20327649  0.89998533  1
  Co  Co150  1  0.07316530  0.45627721  0.48703419  1
  Co  Co151  1  0.44461661  0.35463807  -0.02800654  1
  Co  Co152  1  0.46862811  0.36181029  0.37768722  1
  Co  Co153  1  0.93000462  0.32606407  0.50805567  1
  Co  Co154  1  0.21626108  0.96383552  0.38581590  1
  Co  Co155  1  0.12223819  0.29378451  0.70539299  1
  Co  Co156  1  0.61503634  0.57711373  0.40040586  1
  Co  Co157  1  0.21561410  0.40419859  0.76601729  1
  Co  Co158  1  0.61064234  0.26320325  0.39076822  1
  Co  Co159  1  -0.00905685  0.07679554  0.07432633  1
  Co  Co160  1  0.13758054  0.93348798  0.24449328  1
  Co  Co161  1  0.97577254  0.23107386  0.07535762  1
  Ni  Ni162  1  0.86260032  0.33607857  0.67169975  1
  Ni  Ni163  1  0.34514646  0.86483420  0.74589187  1
  Ni  Ni164  1  0.67950370  0.22462406  0.61205307  1
  Ni  Ni165  1  -0.00877776  0.23253141  0.62192497  1
  Ni  Ni166  1  0.17571719  0.73101635  0.02866195  1
  Ni  Ni167  1  0.34213060  0.50873665  0.24399987  1
  Ni  Ni168  1  0.05002828  0.01680205  0.36616383  1
  Ni  Ni169  1  0.63793678  0.73621585  0.87287056  1
  Ni  Ni170  1  0.78936561  0.54962320  0.82105944  1
  Ni  Ni171  1  0.06891870  0.61676303  0.54577518  1
  Ni  Ni172  1  0.73545808  0.27191585  0.91288948  1
  Ni  Ni173  1  0.94685797  0.55991967  0.74694906  1
  Ni  Ni174  1  0.88729533  0.79844563  0.90849181  1
  Ni  Ni175  1  0.90274518  0.77002492  0.16183014  1
  Ni  Ni176  1  0.90734948  0.44481645  0.16572025  1
  Ni  Ni177  1  0.78902830  0.97995455  0.58798788  1
  Ni  Ni178  1  0.47020055  0.25241079  0.23784551  1
  Ni  Ni179  1  0.35684656  0.73644295  0.43874270  1
  Ni  Ni180  1  0.45106618  0.16516371  0.06091295  1
  Ni  Ni181  1  0.26048625  0.78257783  0.86630800  1
  Ni  Ni182  1  0.76010090  0.90803337  0.24256708  1
  Ni  Ni183  1  0.25445830  0.66053376  0.68094266  1
  Ni  Ni184  1  0.34284380  0.07874461  0.80066837  1
  Ni  Ni185  1  0.54292637  0.30274896  0.10112734  1
  Ni  Ni186  1  0.90235644  0.08354355  0.34896915  1
  Ni  Ni187  1  0.38065007  0.52870746  0.96698255  1
  Ni  Ni188  1  0.35570646  0.43120290  0.69356324  1
  Ni  Ni189  1  0.16273686  0.39632457  0.06575775  1
  Ni  Ni190  1  0.79228714  1.00738879  0.95110395  1
  Ni  Ni191  1  0.04473875  0.89297927  0.73716684  1
  Ni  Ni192  1  0.74617006  0.44176579  0.15639398  1
  Ni  Ni193  1  0.76104638  0.19922521  0.31268193  1
  Ni  Ni194  1  0.23668170  0.44994072  0.92592683  1
  Ni  Ni195  1  0.51104147  0.83842371  0.42608569  1
  Ni  Ni196  1  1.04864846  1.02152413  0.83776587  1
  Ni  Ni197  1  0.08181096  0.26795445  0.27772480  1
  Ni  Ni198  1  0.09214816  0.86248661  0.41087554  1
  Ni  Ni199  1  0.93300360  0.57915043  0.90375077  1
  Ni  Ni200  1  0.09716572  0.82207569  0.89267263  1
  Ni  Ni201  1  0.71914310  0.01620228  0.10515236  1
  Ni  Ni202  1  0.67946914  0.57584039  0.06694408  1
  Ni  Ni203  1  0.27616104  0.31647120  0.19058212  1
  Ni  Ni204  1  0.54237963  0.18564306  0.53600838  1
  Ni  Ni205  1  0.82585020  0.12033268  0.48785300  1
  Ni  Ni206  1  0.95115572  -0.05071986  0.56686652  1
  Ni  Ni207  1  0.33655621  0.60567752  0.54336040  1
  Ni  Ni208  1  0.72219849  0.74227217  0.15674544  1
  Ni  Ni209  1  0.95957231  0.94128188  0.14260944  1
  Ni  Ni210  1  0.83600478  0.20987833  0.80454169  1
  Ni  Ni211  1  0.71080955  0.39782093  0.60221930  1
  Ni  Ni212  1  0.44665472  0.30462021  0.62455685  1
  Ni  Ni213  1  0.74688325  0.48633668  0.46128624  1
  Ni  Ni214  1  -0.08496095  0.27605336  0.93212756  1
  Ni  Ni215  1  0.39440950  0.97007278  0.60860797  1
