# generated using pymatgen
data_Ti2CoNi
_symmetry_space_group_name_H-M   'P 1'
_cell_length_a   14.61386032
_cell_length_b   14.55127621
_cell_length_c   14.63490516
_cell_angle_alpha   90.19879907
_cell_angle_beta   90.16112320
_cell_angle_gamma   90.23984768
_symmetry_Int_Tables_number   1
_chemical_formula_structural   Ti2CoNi
_chemical_formula_sum   'Ti108 Co54 Ni54'
_cell_volume   3112.05880247
_cell_formula_units_Z   54
loop_
 _symmetry_equiv_pos_site_id
 _symmetry_equiv_pos_as_xyz
  1  'x, y, z'
loop_
 _atom_site_type_symbol
 _atom_site_label
 _atom_site_symmetry_multiplicity
 _atom_site_fract_x
 _atom_site_fract_y
 _atom_site_fract_z
 _atom_site_occupancy
  Ti  Ti0  1  0.11756228  0.01192508  -0.01045905  1
  Ti  Ti1  1  -0.01973958  -0.02601921  0.34451547  1
  Ti  Ti2  1  0.03611497  0.01649291  0.67936263  1
  Ti  Ti3  1  0.08112460  0.31283628  -0.03395445  1
  Ti  Ti4  1  -0.05315138  0.43503589  0.30434063  1
  Ti  Ti5  1  -0.02321957  0.22869667  0.70303361  1
  Ti  Ti6  1  -0.00477508  0.63526261  -0.03547513  1
  Ti  Ti7  1  -0.04907290  0.63547913  0.34082343  1
  Ti  Ti8  1  -0.00196309  0.66688380  0.72805507  1
  Ti  Ti9  1  0.35038024  0.00612788  0.03366092  1
  Ti  Ti10  1  0.32627661  -0.02546431  0.23600058  1
  Ti  Ti11  1  0.32525192  0.06400203  0.66730668  1
  Ti  Ti12  1  0.31474378  0.34936299  -0.06867697  1
  Ti  Ti13  1  0.36325154  0.28505768  0.36453713  1
  Ti  Ti14  1  0.26868472  0.32984294  0.68311393  1
  Ti  Ti15  1  0.34784222  0.59719617  -0.01981367  1
  Ti  Ti16  1  0.39299001  0.65586002  0.32855875  1
  Ti  Ti17  1  0.33639937  0.75517654  0.62649244  1
  Ti  Ti18  1  0.65837535  0.00623696  -0.03107914  1
  Ti  Ti19  1  0.67223314  -0.06115202  0.29542688  1
  Ti  Ti20  1  0.74194743  -0.02356640  0.70875311  1
  Ti  Ti21  1  0.64541549  0.33177603  -0.01444633  1
  Ti  Ti22  1  0.65000310  0.27518518  0.27882601  1
  Ti  Ti23  1  0.67786763  0.35358389  0.70523444  1
  Ti  Ti24  1  0.63395814  0.66862116  -0.02251640  1
  Ti  Ti25  1  0.71398232  0.66572826  0.26299355  1
  Ti  Ti26  1  0.60641960  0.65904835  0.66531641  1
  Ti  Ti27  1  0.05059886  0.16428340  0.11953852  1
  Ti  Ti28  1  -0.02392170  0.14721973  0.52961437  1
  Ti  Ti29  1  -0.00892018  0.13340680  0.89966751  1
  Ti  Ti30  1  0.01382510  0.54082795  0.15299790  1
  Ti  Ti31  1  0.02789915  0.46735344  0.49378756  1
  Ti  Ti32  1  -0.00673140  0.43344810  0.74362350  1
  Ti  Ti33  1  0.02777624  0.91093576  0.14281311  1
  Ti  Ti34  1  -0.05097197  0.81305137  0.48334781  1
  Ti  Ti35  1  -0.00676863  0.86703902  0.94280123  1
  Ti  Ti36  1  0.28458589  0.21970502  0.17813354  1
  Ti  Ti37  1  0.29108404  0.15360967  0.47421789  1
  Ti  Ti38  1  0.41297425  0.21103767  0.81590192  1
  Ti  Ti39  1  0.32597484  0.52813812  0.15596287  1
  Ti  Ti40  1  0.32046874  0.51900796  0.56950013  1
  Ti  Ti41  1  0.33957218  0.49423268  0.78910480  1
  Ti  Ti42  1  0.27483995  0.76283292  0.14875476  1
  Ti  Ti43  1  0.37910974  0.84875220  0.44877919  1
  Ti  Ti44  1  0.34438998  0.73945073  0.83119000  1
  Ti  Ti45  1  0.67795720  0.11989835  0.14789216  1
  Ti  Ti46  1  0.61159390  0.18580174  0.58587341  1
  Ti  Ti47  1  0.61070567  0.16565898  0.85260415  1
  Ti  Ti48  1  0.73079927  0.49422375  0.10504681  1
  Ti  Ti49  1  0.65964260  0.49556769  0.54294056  1
  Ti  Ti50  1  0.75762982  0.44976043  0.86414254  1
  Ti  Ti51  1  0.61396066  0.79635027  0.13638229  1
  Ti  Ti52  1  0.75895315  0.87812617  0.52791254  1
  Ti  Ti53  1  0.70021046  0.83530133  0.86626676  1
  Ti  Ti54  1  0.13398511  0.02314562  0.25537424  1
  Ti  Ti55  1  0.10822757  -0.06374580  0.49856815  1
  Ti  Ti56  1  0.28313313  0.04140732  0.85250303  1
  Ti  Ti57  1  0.14800733  0.41609990  0.21538656  1
  Ti  Ti58  1  0.21524704  0.35875179  0.49154998  1
  Ti  Ti59  1  0.16468788  0.41289540  0.82690378  1
  Ti  Ti60  1  0.12225295  0.68023541  0.24138627  1
  Ti  Ti61  1  0.14205516  0.67164899  0.57156221  1
  Ti  Ti62  1  0.13803128  0.72558600  0.85593840  1
  Ti  Ti63  1  0.51962716  0.00182191  0.16907948  1
  Ti  Ti64  1  0.46536505  0.03014649  0.53828733  1
  Ti  Ti65  1  0.45605873  -0.06943499  0.75125426  1
  Ti  Ti66  1  0.46749247  0.38537087  0.24962556  1
  Ti  Ti67  1  0.53410286  0.34392520  0.44624958  1
  Ti  Ti68  1  0.53356673  0.39028759  0.83441641  1
  Ti  Ti69  1  0.45810860  0.68912117  0.11885855  1
  Ti  Ti70  1  0.47183818  0.64174433  0.52796915  1
  Ti  Ti71  1  0.50692471  0.61052323  0.83780077  1
  Ti  Ti72  1  0.84265984  0.00941397  0.20059331  1
  Ti  Ti73  1  0.66459906  0.03800642  0.47822688  1
  Ti  Ti74  1  0.81182768  0.07544701  0.85748687  1
  Ti  Ti75  1  0.89018919  0.29031232  0.18623363  1
  Ti  Ti76  1  0.82428570  0.35652933  0.44316654  1
  Ti  Ti77  1  0.91108648  0.31062603  0.87420851  1
  Ti  Ti78  1  0.92867259  0.72985658  0.15795959  1
  Ti  Ti79  1  0.80091684  0.69408854  0.45474845  1
  Ti  Ti80  1  0.76464818  0.64759668  0.79413365  1
  Ti  Ti81  1  0.20797448  0.17726749  -0.01435736  1
  Ti  Ti82  1  0.10374295  0.17561800  0.37726922  1
  Ti  Ti83  1  0.17103110  0.17310899  0.67938884  1
  Ti  Ti84  1  0.16059454  0.49906989  -0.00015898  1
  Ti  Ti85  1  0.27229340  0.48675176  0.35077452  1
  Ti  Ti86  1  0.15923632  0.51283943  0.66793784  1
  Ti  Ti87  1  0.22577144  0.86019626  -0.04102572  1
  Ti  Ti88  1  0.13182445  0.75952941  0.40436431  1
  Ti  Ti89  1  0.15972386  0.83940712  0.67859682  1
  Ti  Ti90  1  0.52607805  0.15170150  0.02817657  1
  Ti  Ti91  1  0.51987218  0.15149277  0.39393196  1
  Ti  Ti92  1  0.42886275  0.21805809  0.60493345  1
  Ti  Ti93  1  0.51951924  0.47082052  0.07121875  1
  Ti  Ti94  1  0.55901056  0.53997993  0.36038594  1
  Ti  Ti95  1  0.50019096  0.48938641  0.65994916  1
  Ti  Ti96  1  0.51573393  0.88276070  -0.01337839  1
  Ti  Ti97  1  0.48259179  0.84569399  0.28553852  1
  Ti  Ti98  1  0.53585008  0.85759648  0.58943698  1
  Ti  Ti99  1  0.79254083  0.19242640  0.01039240  1
  Ti  Ti100  1  0.83790170  0.13624185  0.39024832  1
  Ti  Ti101  1  0.80510979  0.22958971  0.59976341  1
  Ti  Ti102  1  0.88662141  0.42905816  0.02289790  1
  Ti  Ti103  1  0.76892767  0.52599928  0.36807865  1
  Ti  Ti104  1  0.83392877  0.50423571  0.65206956  1
  Ti  Ti105  1  0.81683096  0.76223522  -0.00142351  1
  Ti  Ti106  1  0.84226330  0.82525232  0.31506226  1
  Ti  Ti107  1  0.85667249  0.81451806  0.72251382  1
  Co  Co108  1  0.85138044  0.56304205  0.22620397  1
  Co  Co109  1  0.66752574  0.10051279  0.31603171  1
  Co  Co110  1  0.54023031  0.34960636  0.60269579  1
  Co  Co111  1  0.88125612  0.94896903  0.63184295  1
  Co  Co112  1  0.07728190  0.56617748  0.82570236  1
  Co  Co113  1  0.24803585  0.11969725  0.31948076  1
  Co  Co114  1  0.36588725  0.16541504  0.96591530  1
  Co  Co115  1  0.55045793  0.25144922  0.72982914  1
  Co  Co116  1  0.53661963  0.16439117  0.22119562  1
  Co  Co117  1  0.40330866  0.12087267  0.13013969  1
  Co  Co118  1  -0.05165161  -0.00634823  0.50085318  1
  Co  Co119  1  0.48961330  0.09536908  0.72887691  1
  Co  Co120  1  0.47848385  0.29921739  0.96283640  1
  Co  Co121  1  0.95135038  0.03124880  1.01612047  1
  Co  Co122  1  0.41771233  0.35879795  0.71170250  1
  Co  Co123  1  0.89708833  0.72419129  0.86292399  1
  Co  Co124  1  0.67012624  0.39808398  0.38139058  1
  Co  Co125  1  0.40035784  0.13097730  0.28955832  1
  Co  Co126  1  0.22979967  0.58030957  0.86569936  1
  Co  Co127  1  0.18131142  0.53615263  0.47908524  1
  Co  Co128  1  0.88456794  0.89047341  0.07574457  1
  Co  Co129  1  0.87334834  0.53823218  0.49295774  1
  Co  Co130  1  0.67320788  0.94868321  0.12325029  1
  Co  Co131  1  0.64622480  0.63094097  0.45418854  1
  Co  Co132  1  0.74851575  0.66690553  0.10581939  1
  Co  Co133  1  0.35198240  0.91747417  0.60012093  1
  Co  Co134  1  0.94150665  0.24656046  0.03114423  1
  Co  Co135  1  0.55176056  0.69873509  0.26898120  1
  Co  Co136  1  0.69409999  0.21243668  0.43775965  1
  Co  Co137  1  0.38231919  0.38083448  0.07654177  1
  Co  Co138  1  1.01270042  0.45868366  0.92794966  1
  Co  Co139  1  0.47288247  0.55306511  0.22214149  1
  Co  Co140  1  0.88057645  0.09773080  0.69902431  1
  Co  Co141  1  0.68975273  0.33704316  0.53740249  1
  Co  Co142  1  0.83498755  0.91903622  0.91310352  1
  Co  Co143  1  -0.01140985  0.55068663  0.62033207  1
  Co  Co144  1  0.78560368  0.40135637  0.25231143  1
  Co  Co145  1  0.92739933  0.97057895  0.79348915  1
  Co  Co146  1  0.62007137  0.51256537  0.93860955  1
  Co  Co147  1  0.23341078  0.82248487  0.51543437  1
  Co  Co148  1  0.79608322  0.17809189  0.24071029  1
  Co  Co149  1  0.00430478  0.84712848  0.62559097  1
  Co  Co150  1  0.88270599  0.59363219  0.07305789  1
  Co  Co151  1  0.78857332  0.58959373  0.94829736  1
  Co  Co152  1  0.21414985  0.28732682  0.32191063  1
  Co  Co153  1  0.79577300  0.02486318  0.04373974  1
  Co  Co154  1  0.89895054  0.69690696  0.60342854  1
  Co  Co155  1  0.43634412  0.46882376  0.93583757  1
  Co  Co156  1  0.80120574  0.07222943  0.55232316  1
  Co  Co157  1  0.89717594  0.53917514  0.83290463  1
  Co  Co158  1  0.21995326  0.69563493  0.98847643  1
  Co  Co159  1  0.30662355  0.37732827  0.21898699  1
  Co  Co160  1  0.00417183  0.65346740  0.49001322  1
  Co  Co161  1  0.64797987  0.76303636  0.53684106  1
  Ni  Ni162  1  0.37951702  0.90060857  0.89652163  1
  Ni  Ni163  1  0.04898175  0.27934255  0.24965656  1
  Ni  Ni164  1  0.72266423  0.30189452  0.12948912  1
  Ni  Ni165  1  0.28225544  0.77681596  0.32743437  1
  Ni  Ni166  1  0.67187255  0.78740695  0.37042282  1
  Ni  Ni167  1  0.16601096  0.07712289  0.54523193  1
  Ni  Ni168  1  0.37102637  0.01680673  0.39922780  1
  Ni  Ni169  1  0.22863955  0.93443628  0.37919068  1
  Ni  Ni170  1  0.10452191  0.35257508  0.64674858  1
  Ni  Ni171  1  0.48223997  0.75334846  0.70965038  1
  Ni  Ni172  1  0.75019014  0.63428293  0.59879059  1
  Ni  Ni173  1  0.37843092  0.35821553  0.53424461  1
  Ni  Ni174  1  0.41867178  0.48016722  0.42458873  1
  Ni  Ni175  1  0.64167666  0.52025563  0.76140164  1
  Ni  Ni176  1  0.21350002  0.34044256  0.07132667  1
  Ni  Ni177  1  0.96901721  0.12847300  0.26237612  1
  Ni  Ni178  1  1.00632391  0.80488524  0.29786772  1
  Ni  Ni179  1  0.12885855  0.09845480  0.82267312  1
  Ni  Ni180  1  0.60380801  0.97375713  0.81157611  1
  Ni  Ni181  1  0.18298261  0.60542971  0.11625362  1
  Ni  Ni182  1  0.09158645  0.53956535  0.33252943  1
  Ni  Ni183  1  0.25138272  0.21927138  0.82801817  1
  Ni  Ni184  1  0.15662024  0.85121594  0.25127166  1
  Ni  Ni185  1  0.28752377  0.89759372  0.76093105  1
  Ni  Ni186  1  0.67132043  0.81025089  0.70333674  1
  Ni  Ni187  1  0.01692545  0.82615715  0.78547480  1
  Ni  Ni188  1  0.54015511  0.29845093  0.12228373  1
  Ni  Ni189  1  0.09486562  0.37680974  0.37473577  1
  Ni  Ni190  1  0.47573608  0.04362998  0.89865240  1
  Ni  Ni191  1  0.62357121  0.45459770  0.22662347  1
  Ni  Ni192  1  0.39604643  0.61584790  0.69913989  1
  Ni  Ni193  1  0.41886228  0.86293269  0.12935261  1
  Ni  Ni194  1  0.37212899  0.77059544  -0.00245501  1
  Ni  Ni195  1  0.84614221  0.34832855  0.72439494  1
  Ni  Ni196  1  0.22408559  0.66246093  0.72214603  1
  Ni  Ni197  1  0.20382585  0.91825132  0.11270627  1
  Ni  Ni198  1  0.29992369  0.66880384  0.46999000  1
  Ni  Ni199  1  0.74669547  0.26925808  0.85120168  1
  Ni  Ni200  1  0.53853446  0.78507978  0.85547582  1
  Ni  Ni201  1  0.77310114  0.82454043  0.17111170  1
  Ni  Ni202  1  0.09529735  0.76804751  0.07628718  1
  Ni  Ni203  1  0.21386931  0.08005633  0.12257124  1
  Ni  Ni204  1  0.60324859  0.60553926  0.13905356  1
  Ni  Ni205  1  0.59871256  0.01628902  0.64330871  1
  Ni  Ni206  1  0.11665645  0.23553344  0.53648945  1
  Ni  Ni207  1  0.81572814  0.97021900  0.39796212  1
  Ni  Ni208  1  0.56571749  0.90604424  0.43199565  1
  Ni  Ni209  1  0.09335002  0.26529671  0.80628350  1
  Ni  Ni210  1  0.52069101  0.74620635  0.42235277  1
  Ni  Ni211  1  0.70872789  0.14470061  0.71868227  1
  Ni  Ni212  1  0.13138979  0.93213756  0.83085278  1
  Ni  Ni213  1  0.94355674  0.34206098  0.57477578  1
  Ni  Ni214  1  0.02712707  0.37422881  0.10906284  1
  Ni  Ni215  1  0.95758868  0.26891748  0.39143447  1
