# generated using pymatgen
data_Ti2CoNi
_symmetry_space_group_name_H-M   'P 1'
_cell_length_a   14.59558370
_cell_length_b   14.58450133
_cell_length_c   14.55483399
_cell_angle_alpha   90.07430416
_cell_angle_beta   90.18351563
_cell_angle_gamma   90.20757651
_symmetry_Int_Tables_number   1
_chemical_formula_structural   Ti2CoNi
_chemical_formula_sum   'Ti108 Co54 Ni54'
_cell_volume   3098.23858913
_cell_formula_units_Z   54
loop_
 _symmetry_equiv_pos_site_id
 _symmetry_equiv_pos_as_xyz
  1  'x, y, z'
loop_
 _atom_site_type_symbol
 _atom_site_label
 _atom_site_symmetry_multiplicity
 _atom_site_fract_x
 _atom_site_fract_y
 _atom_site_fract_z
 _atom_site_occupancy
  Ti  Ti0  1  -0.03193356  0.00378771  -0.01355623  1
  Ti  Ti1  1  -0.02544090  0.07578855  0.38245671  1
  Ti  Ti2  1  -0.08816099  -0.03702872  0.66989751  1
  Ti  Ti3  1  0.06719955  0.36815446  -0.00269267  1
  Ti  Ti4  1  -0.03917387  0.30331273  0.30629667  1
  Ti  Ti5  1  0.08403282  0.34702401  0.63155143  1
  Ti  Ti6  1  -0.09223862  0.66624073  0.02454717  1
  Ti  Ti7  1  0.02544134  0.61216496  0.34324565  1
  Ti  Ti8  1  0.02876092  0.74461484  0.59626134  1
  Ti  Ti9  1  0.32398928  -0.03501262  0.04473437  1
  Ti  Ti10  1  0.36438313  0.00910172  0.27670149  1
  Ti  Ti11  1  0.35789011  -0.01475798  0.64609216  1
  Ti  Ti12  1  0.36798736  0.35358025  -0.03033980  1
  Ti  Ti13  1  0.29113562  0.29360672  0.32314029  1
  Ti  Ti14  1  0.28049656  0.36939617  0.65859416  1
  Ti  Ti15  1  0.33516208  0.76470846  -0.01562322  1
  Ti  Ti16  1  0.33968932  0.65272343  0.36643870  1
  Ti  Ti17  1  0.21541361  0.69693672  0.63909104  1
  Ti  Ti18  1  0.73171043  0.02408827  0.05210380  1
  Ti  Ti19  1  0.66597972  -0.05383604  0.31580210  1
  Ti  Ti20  1  0.66483984  -0.00203845  0.68391894  1
  Ti  Ti21  1  0.72299273  0.28869431  0.02165311  1
  Ti  Ti22  1  0.67007415  0.33657546  0.42272910  1
  Ti  Ti23  1  0.59389358  0.34049261  0.66237824  1
  Ti  Ti24  1  0.71175201  0.67610017  -0.01691106  1
  Ti  Ti25  1  0.71022111  0.62271238  0.43940013  1
  Ti  Ti26  1  0.65672986  0.70801414  0.71110311  1
  Ti  Ti27  1  0.00448401  0.21779882  0.13206809  1
  Ti  Ti28  1  -0.00002141  0.24848502  0.47973690  1
  Ti  Ti29  1  0.02099236  0.18408616  0.77453842  1
  Ti  Ti30  1  0.00528103  0.52292556  0.10091388  1
  Ti  Ti31  1  -0.01699933  0.45683970  0.47243848  1
  Ti  Ti32  1  -0.03223554  0.54239331  0.85988342  1
  Ti  Ti33  1  -0.06251253  0.79863396  0.22758302  1
  Ti  Ti34  1  0.03144625  0.88710187  0.42268365  1
  Ti  Ti35  1  0.04094343  0.73490155  0.89891677  1
  Ti  Ti36  1  0.36430048  0.19855559  0.07435453  1
  Ti  Ti37  1  0.30991034  0.14275120  0.55963812  1
  Ti  Ti38  1  0.31626368  0.13467559  0.90655719  1
  Ti  Ti39  1  0.32942926  0.50256494  0.10189900  1
  Ti  Ti40  1  0.34363991  0.45932263  0.48395779  1
  Ti  Ti41  1  0.33446245  0.47892614  0.82327919  1
  Ti  Ti42  1  0.36905444  0.78647902  0.19017181  1
  Ti  Ti43  1  0.34726794  0.79627016  0.52512579  1
  Ti  Ti44  1  0.35689744  0.86584332  0.81351085  1
  Ti  Ti45  1  0.63574853  0.23978584  0.20453368  1
  Ti  Ti46  1  0.64473993  0.18372864  0.52939574  1
  Ti  Ti47  1  0.65090164  0.21508508  0.85733551  1
  Ti  Ti48  1  0.58056310  0.50122728  0.15815521  1
  Ti  Ti49  1  0.75572572  0.47146966  0.52854025  1
  Ti  Ti50  1  0.61488076  0.52905100  0.77487837  1
  Ti  Ti51  1  0.65021683  0.79921578  0.16334964  1
  Ti  Ti52  1  0.62583036  0.87216627  0.50899815  1
  Ti  Ti53  1  0.58589754  0.88664938  0.84540376  1
  Ti  Ti54  1  0.19341643  -0.00505295  0.18225496  1
  Ti  Ti55  1  0.23609609  -0.02608270  0.45651086  1
  Ti  Ti56  1  0.20734195  0.00807373  0.79899490  1
  Ti  Ti57  1  0.21900624  0.32234362  0.13683434  1
  Ti  Ti58  1  0.21182146  0.26644378  0.49158918  1
  Ti  Ti59  1  0.15627863  0.35890087  0.82439340  1
  Ti  Ti60  1  0.09460480  0.69562455  0.15822456  1
  Ti  Ti61  1  0.16035733  0.72638705  0.44250812  1
  Ti  Ti62  1  0.22171260  0.64254173  0.83741176  1
  Ti  Ti63  1  0.55051736  -0.04480474  0.16039242  1
  Ti  Ti64  1  0.43306979  0.04923713  0.46287354  1
  Ti  Ti65  1  0.49543809  0.07172330  0.88116748  1
  Ti  Ti66  1  0.44383515  0.34941508  0.18735452  1
  Ti  Ti67  1  0.44540204  0.27822595  0.50465514  1
  Ti  Ti68  1  0.54791012  0.38511066  0.89866339  1
  Ti  Ti69  1  0.50128747  0.66046209  0.24783151  1
  Ti  Ti70  1  0.48624709  0.61828725  0.50044452  1
  Ti  Ti71  1  0.44285269  0.67276681  0.82589744  1
  Ti  Ti72  1  0.83953819  -0.02845262  0.24025482  1
  Ti  Ti73  1  0.77171755  0.05080008  0.43886136  1
  Ti  Ti74  1  0.80460168  -0.04628111  0.86923338  1
  Ti  Ti75  1  0.86086577  0.39334282  0.14962481  1
  Ti  Ti76  1  0.81701439  0.30275696  0.57070624  1
  Ti  Ti77  1  0.82499936  0.26679341  0.76453586  1
  Ti  Ti78  1  0.86861023  0.60805889  0.22388567  1
  Ti  Ti79  1  0.89675789  0.62468510  0.54104883  1
  Ti  Ti80  1  0.82901378  0.70249731  0.84077409  1
  Ti  Ti81  1  0.17280803  0.15901724  0.05408462  1
  Ti  Ti82  1  0.12263360  0.16011456  0.28635754  1
  Ti  Ti83  1  0.22384204  0.18684723  0.71931796  1
  Ti  Ti84  1  0.21436466  0.63842516  0.03959722  1
  Ti  Ti85  1  0.18612888  0.50047516  0.38335826  1
  Ti  Ti86  1  0.07570137  0.54577721  0.68377962  1
  Ti  Ti87  1  0.12840080  0.87322094  0.01214318  1
  Ti  Ti88  1  0.20749646  0.84815201  0.29530388  1
  Ti  Ti89  1  0.09267328  0.88106544  0.70472926  1
  Ti  Ti90  1  0.56312016  0.15371802  0.05287121  1
  Ti  Ti91  1  0.53921422  0.09201245  0.29891196  1
  Ti  Ti92  1  0.50844316  0.13104189  0.64442554  1
  Ti  Ti93  1  0.54198642  0.58929288  -0.04287367  1
  Ti  Ti94  1  0.55428818  0.51320467  0.36897911  1
  Ti  Ti95  1  0.44646613  0.48464598  0.65402322  1
  Ti  Ti96  1  0.52298725  0.78399023  0.01949116  1
  Ti  Ti97  1  0.62584978  0.75891454  0.36184949  1
  Ti  Ti98  1  0.50500232  0.82062744  0.66942068  1
  Ti  Ti99  1  0.84804902  0.15850203  -0.07306280  1
  Ti  Ti100  1  0.82376910  0.16548824  0.26736314  1
  Ti  Ti101  1  0.81712333  0.11687675  0.62026166  1
  Ti  Ti102  1  0.84874403  0.39833815  -0.09621729  1
  Ti  Ti103  1  0.74541193  0.47956877  0.29906568  1
  Ti  Ti104  1  0.82834187  0.54658845  0.71817464  1
  Ti  Ti105  1  0.82279318  0.85218937  0.07608622  1
  Ti  Ti106  1  0.81726961  0.85776161  0.40363477  1
  Ti  Ti107  1  0.82847391  0.77575135  0.66538249  1
  Co  Co108  1  0.06102143  0.04485176  0.70961791  1
  Co  Co109  1  0.09786010  0.71455252  0.75159110  1
  Co  Co110  1  0.44913356  0.37676415  0.77370884  1
  Co  Co111  1  0.55513918  0.32413916  0.05933724  1
  Co  Co112  1  0.04860403  0.95609648  0.27110043  1
  Co  Co113  1  0.31951180  0.28295687  0.81744257  1
  Co  Co114  1  0.25267081  0.10853668  0.37255655  1
  Co  Co115  1  0.61016435  0.03931110  0.46998106  1
  Co  Co116  1  0.75396246  0.76277372  0.51499564  1
  Co  Co117  1  0.44227407  0.19389399  0.22100937  1
  Co  Co118  1  0.24935127  0.52890489  0.68862061  1
  Co  Co119  1  0.37736489  0.11806671  0.75136239  1
  Co  Co120  1  0.95071939  0.25363243  0.64808191  1
  Co  Co121  1  0.67642109  0.62936033  0.26100691  1
  Co  Co122  1  0.67123036  0.19331145  0.69154859  1
  Co  Co123  1  0.84898827  0.38501334  0.41622184  1
  Co  Co124  1  0.95845729  0.08906949  0.21707084  1
  Co  Co125  1  0.88552794  0.82495925  0.92971702  1
  Co  Co126  1  0.16179966  0.47208403  0.09916347  1
  Co  Co127  1  0.06734206  0.77429430  0.30747146  1
  Co  Co128  1  0.25018663  0.60470226  0.50285812  1
  Co  Co129  1  0.60671903  0.65003585  0.10543871  1
  Co  Co130  1  0.43320318  0.64947802  0.08922087  1
  Co  Co131  1  0.50916233  0.64584210  0.67962808  1
  Co  Co132  1  0.47499335  0.23488788  0.93322204  1
  Co  Co133  1  0.74360308  0.62726073  0.60408432  1
  Co  Co134  1  0.86152226  0.55774494  0.39212137  1
  Co  Co135  1  0.96493224  0.11342210  0.56025619  1
  Co  Co136  1  0.94931175  0.66525366  0.72909836  1
  Co  Co137  1  0.69844568  0.38630730  0.14801058  1
  Co  Co138  1  0.95823453  0.94057052  0.13582138  1
  Co  Co139  1  0.51110732  0.22789886  0.77585506  1
  Co  Co140  1  0.11068084  0.36173487  0.42974542  1
  Co  Co141  1  0.76775352  0.31502993  0.28625364  1
  Co  Co142  1  0.47490884  0.75897183  0.41842372  1
  Co  Co143  1  0.77868013  0.70035625  0.13024347  1
  Co  Co144  1  0.22260790  0.28911362  -0.03501957  1
  Co  Co145  1  0.04890553  0.97723582  0.55803042  1
  Co  Co146  1  0.90127436  0.98342508  0.49312984  1
  Co  Co147  1  0.06674453  0.05245727  0.10871970  1
  Co  Co148  1  0.94193199  0.46443917  0.28282995  1
  Co  Co149  1  0.12234574  0.10438245  0.46654385  1
  Co  Co150  1  0.10801072  0.17937645  0.60778049  1
  Co  Co151  1  0.36421572  0.61672478  0.60331664  1
  Co  Co152  1  0.73666003  0.83566215  0.79192273  1
  Co  Co153  1  0.39980976  0.26393558  0.65982404  1
  Co  Co154  1  0.74132666  0.54461120  0.13184272  1
  Co  Co155  1  0.18478017  0.66006991  0.29124627  1
  Co  Co156  1  0.39042211  0.17813976  0.37889679  1
  Co  Co157  1  0.30972550  0.63083104  0.20104399  1
  Co  Co158  1  0.59994706  0.71622983  0.55037578  1
  Co  Co159  1  0.94045555  0.83437031  0.77569073  1
  Co  Co160  1  0.60530449  0.71996004  0.86178392  1
  Co  Co161  1  0.76518023  0.93503136  0.57190957  1
  Ni  Ni162  1  0.51637924  0.96863177  0.58458084  1
  Ni  Ni163  1  0.89636977  0.28662428  0.02944636  1
  Ni  Ni164  1  0.22553636  0.46240301  0.95167531  1
  Ni  Ni165  1  0.43646836  0.90520707  0.94562989  1
  Ni  Ni166  1  0.51179195  0.93366929  0.38028603  1
  Ni  Ni167  1  0.09292318  0.55754477  0.95846632  1
  Ni  Ni168  1  0.61001358  0.53259721  0.60291549  1
  Ni  Ni169  1  0.67740088  0.16639355  0.35910013  1
  Ni  Ni170  1  0.57428232  0.96742369  0.00204577  1
  Ni  Ni171  1  0.27838629  0.14748087  0.21291218  1
  Ni  Ni172  1  0.25590183  0.86472067  0.68195314  1
  Ni  Ni173  1  0.77453619  0.09913548  0.78344313  1
  Ni  Ni174  1  0.74952943  0.40611500  0.68859207  1
  Ni  Ni175  1  0.19609062  0.82172421  0.84992386  1
  Ni  Ni176  1  -0.00889889  0.80058784  0.06110013  1
  Ni  Ni177  1  0.19427370  0.02342057  0.61899871  1
  Ni  Ni178  1  0.06085514  0.93303099  0.86223801  1
  Ni  Ni179  1  0.82143346  0.21531609  0.43279172  1
  Ni  Ni180  1  0.76075976  0.54773412  0.87652510  1
  Ni  Ni181  1  0.17272633  0.46351850  0.55384473  1
  Ni  Ni182  1  0.35612013  0.58764883  0.95129845  1
  Ni  Ni183  1  0.07724844  0.59729660  0.51818109  1
  Ni  Ni184  1  0.93621935  0.04348050  0.81910439  1
  Ni  Ni185  1  0.53496561  0.25191638  0.35711504  1
  Ni  Ni186  1  0.69471365  0.85011699  0.96710631  1
  Ni  Ni187  1  0.85035629  0.51371737  0.01920853  1
  Ni  Ni188  1  0.97174992  0.28548818  0.88844344  1
  Ni  Ni189  1  0.50684578  0.83197630  0.26154218  1
  Ni  Ni190  1  0.43832058  0.38315569  0.36326535  1
  Ni  Ni191  1  0.91771307  0.43408902  0.62588636  1
  Ni  Ni192  1  0.26523840  0.44596284  0.24774149  1
  Ni  Ni193  1  0.17494602  0.02174761  0.96577736  1
  Ni  Ni194  1  0.49209205  0.98145198  0.74494198  1
  Ni  Ni195  1  -0.01169907  0.39169093  0.76646907  1
  Ni  Ni196  1  0.47336096  0.46930379  0.03505927  1
  Ni  Ni197  1  0.12269305  0.33924937  0.27080356  1
  Ni  Ni198  1  0.93476952  0.72971121  0.41177630  1
  Ni  Ni199  1  0.59385642  0.38302159  0.27676543  1
  Ni  Ni200  1  0.16490954  0.85490997  0.54709024  1
  Ni  Ni201  1  0.77580954  0.78066201  0.26850496  1
  Ni  Ni202  1  0.10094238  0.50845954  0.23922598  1
  Ni  Ni203  1  0.81988371  0.15643157  0.10323540  1
  Ni  Ni204  1  0.36491959  0.74340370  0.69912193  1
  Ni  Ni205  1  0.67484989  0.46331992  0.99531383  1
  Ni  Ni206  1  0.66647680  0.05645091  0.90163125  1
  Ni  Ni207  1  0.52384044  0.42540835  0.50934979  1
  Ni  Ni208  1  0.68945119  0.07392090  0.20533978  1
  Ni  Ni209  1  0.23119684  0.82195440  0.12261832  1
  Ni  Ni210  1  0.15212701  0.17031160  0.87781643  1
  Ni  Ni211  1  0.69907612  0.38503861  0.83901341  1
  Ni  Ni212  1  0.41606050  0.51336627  0.26147740  1
  Ni  Ni213  1  0.43647593  0.05889886  0.12150940  1
  Ni  Ni214  1  0.90845633  0.83362779  0.54008942  1
  Ni  Ni215  1  0.35698509  0.86397560  0.36970583  1
