# generated using pymatgen
data_Ti2CoNi
_symmetry_space_group_name_H-M   'P 1'
_cell_length_a   14.66525379
_cell_length_b   14.61127070
_cell_length_c   14.60683362
_cell_angle_alpha   90.06333162
_cell_angle_beta   90.06962230
_cell_angle_gamma   90.13129443
_symmetry_Int_Tables_number   1
_chemical_formula_structural   Ti2CoNi
_chemical_formula_sum   'Ti108 Co54 Ni54'
_cell_volume   3129.91054297
_cell_formula_units_Z   54
loop_
 _symmetry_equiv_pos_site_id
 _symmetry_equiv_pos_as_xyz
  1  'x, y, z'
loop_
 _atom_site_type_symbol
 _atom_site_label
 _atom_site_symmetry_multiplicity
 _atom_site_fract_x
 _atom_site_fract_y
 _atom_site_fract_z
 _atom_site_occupancy
  Ti  Ti0  1  -0.02907270  -0.06877732  0.00034249  1
  Ti  Ti1  1  -0.00564087  -0.11150543  0.33650582  1
  Ti  Ti2  1  -0.01013615  0.00025652  0.60591025  1
  Ti  Ti3  1  -0.03049735  0.35326107  -0.00062065  1
  Ti  Ti4  1  -0.00419894  0.36937948  0.33863319  1
  Ti  Ti5  1  0.01659395  0.30106085  0.65383907  1
  Ti  Ti6  1  0.04634192  0.65713571  -0.07536320  1
  Ti  Ti7  1  0.01423507  0.62175136  0.24828736  1
  Ti  Ti8  1  0.01812069  0.66419861  0.69890744  1
  Ti  Ti9  1  0.34265402  0.01613839  -0.00900026  1
  Ti  Ti10  1  0.34664366  -0.07103018  0.33967487  1
  Ti  Ti11  1  0.28580502  -0.01158789  0.78772105  1
  Ti  Ti12  1  0.42251890  0.36092327  -0.02908022  1
  Ti  Ti13  1  0.37738032  0.41738887  0.32296242  1
  Ti  Ti14  1  0.31607183  0.41042013  0.67618215  1
  Ti  Ti15  1  0.33630410  0.70626669  -0.07647981  1
  Ti  Ti16  1  0.37293437  0.72746406  0.33369662  1
  Ti  Ti17  1  0.25240888  0.64220273  0.63932918  1
  Ti  Ti18  1  0.68914744  -0.06087596  -0.01644909  1
  Ti  Ti19  1  0.76208306  0.02553245  0.37430403  1
  Ti  Ti20  1  0.66176467  0.04149582  0.70820204  1
  Ti  Ti21  1  0.66648613  0.36173115  0.04336528  1
  Ti  Ti22  1  0.55927320  0.32597271  0.31625742  1
  Ti  Ti23  1  0.69514121  0.34494609  0.73011522  1
  Ti  Ti24  1  0.77068690  0.68275353  -0.00612817  1
  Ti  Ti25  1  0.57516754  0.72312936  0.39677736  1
  Ti  Ti26  1  0.58540063  0.63219680  0.64362323  1
  Ti  Ti27  1  -0.03786496  0.19491102  0.12732154  1
  Ti  Ti28  1  -0.03318833  0.07860153  0.43599363  1
  Ti  Ti29  1  -0.04252381  0.18699090  0.89891947  1
  Ti  Ti30  1  0.01630898  0.44503744  0.16222038  1
  Ti  Ti31  1  -0.07427605  0.56477901  0.48496221  1
  Ti  Ti32  1  0.09164134  0.46672359  0.90011650  1
  Ti  Ti33  1  0.05647556  0.77657634  0.12877905  1
  Ti  Ti34  1  0.05904696  0.83833087  0.51073489  1
  Ti  Ti35  1  -0.01521078  0.82413428  0.83246503  1
  Ti  Ti36  1  0.29661423  0.13677449  0.16073977  1
  Ti  Ti37  1  0.31439839  0.18999708  0.55962413  1
  Ti  Ti38  1  0.27060814  0.15679153  0.87010097  1
  Ti  Ti39  1  0.25625094  0.44158991  0.15757347  1
  Ti  Ti40  1  0.28299729  0.47803176  0.50324719  1
  Ti  Ti41  1  0.29144504  0.54267492  0.80971459  1
  Ti  Ti42  1  0.36384387  0.81595059  0.07305184  1
  Ti  Ti43  1  0.30384760  0.83550457  0.49942162  1
  Ti  Ti44  1  0.36198204  0.81194775  0.77505190  1
  Ti  Ti45  1  0.59580595  0.18243229  0.17759628  1
  Ti  Ti46  1  0.67205359  0.23656426  0.43679974  1
  Ti  Ti47  1  0.75116258  0.16663859  0.83209540  1
  Ti  Ti48  1  0.68960475  0.44483576  0.22315085  1
  Ti  Ti49  1  0.72700165  0.51134790  0.56993110  1
  Ti  Ti50  1  0.70437732  0.49696234  0.89075350  1
  Ti  Ti51  1  0.69638169  0.90291234  0.20476353  1
  Ti  Ti52  1  0.66421946  0.89580652  0.54871953  1
  Ti  Ti53  1  0.69064339  0.79734429  0.82761160  1
  Ti  Ti54  1  0.09359833  0.07151805  0.19089449  1
  Ti  Ti55  1  0.18480950  0.02929273  0.49329531  1
  Ti  Ti56  1  0.06196325  0.01399254  0.84160801  1
  Ti  Ti57  1  0.12717474  0.27984211  0.19298026  1
  Ti  Ti58  1  0.11874920  0.25059009  0.46227451  1
  Ti  Ti59  1  0.24258621  0.34845871  0.88727403  1
  Ti  Ti60  1  0.24580651  0.66707425  0.19783910  1
  Ti  Ti61  1  0.11430838  0.57330628  0.43244951  1
  Ti  Ti62  1  0.17596456  0.72933512  0.80943574  1
  Ti  Ti63  1  0.49099120  -0.00281607  0.12934946  1
  Ti  Ti64  1  0.45118357  0.01079241  0.52320785  1
  Ti  Ti65  1  0.48220579  -0.00014327  0.78690417  1
  Ti  Ti66  1  0.42941369  0.29670620  0.16362385  1
  Ti  Ti67  1  0.45179613  0.31512977  0.48132152  1
  Ti  Ti68  1  0.52196657  0.34345993  0.79185293  1
  Ti  Ti69  1  0.47725780  0.67571702  0.16925264  1
  Ti  Ti70  1  0.41863644  0.65235708  0.50682464  1
  Ti  Ti71  1  0.49895308  0.62242627  0.82478068  1
  Ti  Ti72  1  0.81695763  0.05419650  0.15818026  1
  Ti  Ti73  1  0.81027856  0.01309628  0.57845858  1
  Ti  Ti74  1  0.83054615  -0.00912532  0.86103761  1
  Ti  Ti75  1  0.84863335  0.34670499  0.18995328  1
  Ti  Ti76  1  0.85521323  0.36884585  0.49795057  1
  Ti  Ti77  1  0.81677397  0.34185816  0.88195971  1
  Ti  Ti78  1  0.82746817  0.57953729  0.17637377  1
  Ti  Ti79  1  0.82968695  0.74699748  0.47033628  1
  Ti  Ti80  1  0.85512072  0.68902010  0.81637064  1
  Ti  Ti81  1  0.15488170  0.19494676  0.01316398  1
  Ti  Ti82  1  0.22343183  0.16900418  0.33636795  1
  Ti  Ti83  1  0.17910401  0.13541639  0.69301720  1
  Ti  Ti84  1  0.13430714  0.56854496  0.07687951  1
  Ti  Ti85  1  0.18375853  0.40302643  0.34878025  1
  Ti  Ti86  1  0.11063131  0.49982063  0.62412089  1
  Ti  Ti87  1  0.18629130  0.92636932  0.08210049  1
  Ti  Ti88  1  0.15459985  0.74865704  0.34813646  1
  Ti  Ti89  1  0.20975051  0.84108890  0.64804337  1
  Ti  Ti90  1  0.48705164  0.15874511  -0.09328847  1
  Ti  Ti91  1  0.45715623  0.09087857  0.29893410  1
  Ti  Ti92  1  0.55053499  0.19236693  0.61523002  1
  Ti  Ti93  1  0.57502345  0.53592681  0.06215276  1
  Ti  Ti94  1  0.52239809  0.54646857  0.33373682  1
  Ti  Ti95  1  0.53818983  0.42444095  0.60768435  1
  Ti  Ti96  1  0.53923776  0.79406959  -0.05056251  1
  Ti  Ti97  1  0.54292308  0.90006544  0.31652858  1
  Ti  Ti98  1  0.50612410  0.80243470  0.61207259  1
  Ti  Ti99  1  0.69852108  0.15692399  0.00775666  1
  Ti  Ti100  1  0.86526708  0.21055897  0.32232036  1
  Ti  Ti101  1  0.76478987  0.20535690  0.62924774  1
  Ti  Ti102  1  0.89216307  0.52779758  -0.05787114  1
  Ti  Ti103  1  0.72263143  0.55623248  0.38253456  1
  Ti  Ti104  1  0.82966873  0.50784853  0.73758691  1
  Ti  Ti105  1  0.84763211  0.83957568  0.11386391  1
  Ti  Ti106  1  0.75371168  0.74290938  0.30546186  1
  Ti  Ti107  1  0.86626925  0.82063515  0.64678403  1
  Co  Co108  1  0.76073461  0.91702641  0.72222210  1
  Co  Co109  1  0.93499539  0.06619278  0.27082509  1
  Co  Co110  1  0.09533715  0.83773495  0.95544380  1
  Co  Co111  1  0.44285999  0.47842069  0.77922297  1
  Co  Co112  1  0.26573145  0.82772862  0.22132580  1
  Co  Co113  1  0.88841485  0.23723624  0.75621857  1
  Co  Co114  1  0.09186163  0.03150847  0.34696174  1
  Co  Co115  1  0.33930817  0.96655615  0.16373703  1
  Co  Co116  1  0.67928720  0.70494176  0.51247050  1
  Co  Co117  1  0.40939777  0.23740693  0.33048058  1
  Co  Co118  1  0.47023371  0.65655562  0.00489769  1
  Co  Co119  1  0.29139921  0.03011179  0.61213653  1
  Co  Co120  1  0.74338453  0.72344316  0.15011029  1
  Co  Co121  1  0.92240889  0.16682136  0.59907150  1
  Co  Co122  1  0.13567344  0.56829506  0.77422557  1
  Co  Co123  1  0.08825047  0.28816275  0.88117725  1
  Co  Co124  1  0.11618494  0.69159429  0.55572609  1
  Co  Co125  1  0.04777191  0.82855378  0.67894831  1
  Co  Co126  1  0.28285613  0.29545313  0.24460925  1
  Co  Co127  1  0.44622689  0.48400015  0.47072139  1
  Co  Co128  1  0.25996475  0.86039866  0.93385463  1
  Co  Co129  1  0.43581889  0.83406149  0.21569989  1
  Co  Co130  1  0.39884183  0.52861489  0.93311021  1
  Co  Co131  1  0.70796766  0.86983718  0.39586935  1
  Co  Co132  1  0.26266039  0.46544329  0.99399802  1
  Co  Co133  1  0.00701469  0.70831301  0.40427884  1
  Co  Co134  1  0.23903245  0.02055667  0.27582825  1
  Co  Co135  1  0.07916799  0.14594532  0.57090068  1
  Co  Co136  1  0.69594684  0.34961276  0.56062501  1
  Co  Co137  1  0.59843637  0.41952062  0.44418801  1
  Co  Co138  1  0.34480405  0.09444974  0.42402093  1
  Co  Co139  1  0.92980905  0.94423077  0.73893068  1
  Co  Co140  1  0.95754315  0.70977871  0.56059568  1
  Co  Co141  1  0.55032350  0.46203639  0.90994339  1
  Co  Co142  1  0.58316492  0.57519795  0.49173552  1
  Co  Co143  1  0.16036470  0.88597618  0.80925094  1
  Co  Co144  1  0.97499815  0.54443583  0.80179299  1
  Co  Co145  1  0.64422748  0.60537188  0.23024535  1
  Co  Co146  1  0.18421275  0.01679354  0.94332563  1
  Co  Co147  1  0.84244238  0.35921144  0.66419788  1
  Co  Co148  1  0.62771099  0.05286223  0.87875866  1
  Co  Co149  1  0.84364802  0.91639807  0.28131754  1
  Co  Co150  1  0.95942183  0.37949817  0.81782751  1
  Co  Co151  1  0.59817911  0.76614268  0.23419473  1
  Co  Co152  1  0.18342727  0.89926884  0.39099597  1
  Co  Co153  1  0.32119638  0.61626363  0.06792766  1
  Co  Co154  1  0.20628385  0.60573407  0.93526490  1
  Co  Co155  1  0.28447117  0.29815855  0.06688673  1
  Co  Co156  1  0.95926004  0.25122866  0.46339308  1
  Co  Co157  1  0.12573973  0.90321172  0.23697272  1
  Co  Co158  1  0.61180288  0.69960125  0.07551405  1
  Co  Co159  1  0.73989433  0.38394358  0.37366516  1
  Co  Co160  1  0.03842776  0.19547965  0.30674730  1
  Co  Co161  1  0.84907823  0.08091265  0.72288571  1
  Ni  Ni162  1  0.96658081  0.59149144  0.07646646  1
  Ni  Ni163  1  0.70141373  0.63232880  0.77190209  1
  Ni  Ni164  1  0.61473726  0.49410329  0.74466502  1
  Ni  Ni165  1  0.14282652  0.39041130  0.75011841  1
  Ni  Ni166  1  0.82435265  0.83727619  0.93293229  1
  Ni  Ni167  1  0.81498904  0.15940122  0.47525966  1
  Ni  Ni168  1  0.87275851  0.91005903  0.46226813  1
  Ni  Ni169  1  0.63055928  0.04901526  0.27094624  1
  Ni  Ni170  1  0.40604576  0.47801629  0.08933323  1
  Ni  Ni171  1  0.42168798  0.28268991  0.65592449  1
  Ni  Ni172  1  0.37766423  0.55901006  0.23009296  1
  Ni  Ni173  1  0.18418945  0.34108220  0.58749730  1
  Ni  Ni174  1  0.25367483  0.67413547  0.47286902  1
  Ni  Ni175  1  0.51786794  0.44701533  0.20037334  1
  Ni  Ni176  1  0.28932699  0.30181125  0.43146996  1
  Ni  Ni177  1  0.01373717  0.12844028  0.73018977  1
  Ni  Ni178  1  0.25966735  0.26640688  0.72374264  1
  Ni  Ni179  1  0.97727807  0.93930982  0.16846733  1
  Ni  Ni180  1  0.43505914  0.14640449  0.07230155  1
  Ni  Ni181  1  0.83224437  0.25742156  0.03510669  1
  Ni  Ni182  1  0.56841159  0.85846130  0.09946398  1
  Ni  Ni183  1  0.03782019  0.07746683  0.02358528  1
  Ni  Ni184  1  0.86940785  0.47041873  0.30995712  1
  Ni  Ni185  1  0.65049656  0.03402089  0.10982666  1
  Ni  Ni186  1  0.86227738  0.09071844  0.99974841  1
  Ni  Ni187  1  0.58941830  1.00617685  0.42653769  1
  Ni  Ni188  1  0.13120105  0.36838877  0.04278585  1
  Ni  Ni189  1  0.66382225  0.09131120  0.53692433  1
  Ni  Ni190  1  0.14686923  0.53315508  0.25586074  1
  Ni  Ni191  1  0.81135939  0.65077087  0.63211100  1
  Ni  Ni192  1  0.62386539  0.63930851  0.92578888  1
  Ni  Ni193  1  0.37616697  0.13274526  0.72643636  1
  Ni  Ni194  1  0.64126055  0.28662642  0.89603165  1
  Ni  Ni195  1  0.20299594  0.74194887  0.04446213  1
  Ni  Ni196  1  0.04773145  0.40726597  0.49281492  1
  Ni  Ni197  1  0.69386951  0.76890410  0.66266271  1
  Ni  Ni198  1  0.93747839  0.74521663  0.99920806  1
  Ni  Ni199  1  0.27748833  0.56372134  0.35764940  1
  Ni  Ni200  1  0.71515774  0.26516120  0.25796813  1
  Ni  Ni201  1  0.41798584  0.89577271  0.90906554  1
  Ni  Ni202  1  0.38467634  0.91055513  0.64854938  1
  Ni  Ni203  1  0.54502224  0.25421127  0.03121045  1
  Ni  Ni204  1  0.41473121  0.68204154  0.69143927  1
  Ni  Ni205  1  0.59012189  0.88739229  0.72676760  1
  Ni  Ni206  1  0.92082742  0.76269379  0.24985282  1
  Ni  Ni207  1  0.13162024  0.98070891  0.67484389  1
  Ni  Ni208  1  0.38243903  0.27486210  0.82457552  1
  Ni  Ni209  1  0.58867194  0.18022131  0.77278167  1
  Ni  Ni210  1  0.81172232  0.43783954  0.05537743  1
  Ni  Ni211  1  0.87423571  0.63112578  0.33989510  1
  Ni  Ni212  1  0.40945648  0.53740917  0.62584276  1
  Ni  Ni213  1  0.46315375  0.84065498  0.45352165  1
  Ni  Ni214  1  0.95090431  0.47279137  0.62157118  1
  Ni  Ni215  1  0.51171241  0.15756739  0.44813289  1
