# generated using pymatgen
data_Ti2CoNi
_symmetry_space_group_name_H-M   'P 1'
_cell_length_a   14.65355141
_cell_length_b   14.59253586
_cell_length_c   14.55918829
_cell_angle_alpha   90.15990361
_cell_angle_beta   89.67592630
_cell_angle_gamma   90.19805758
_symmetry_Int_Tables_number   1
_chemical_formula_structural   Ti2CoNi
_chemical_formula_sum   'Ti108 Co54 Ni54'
_cell_volume   3113.14690218
_cell_formula_units_Z   54
loop_
 _symmetry_equiv_pos_site_id
 _symmetry_equiv_pos_as_xyz
  1  'x, y, z'
loop_
 _atom_site_type_symbol
 _atom_site_label
 _atom_site_symmetry_multiplicity
 _atom_site_fract_x
 _atom_site_fract_y
 _atom_site_fract_z
 _atom_site_occupancy
  Ti  Ti0  1  0.01287430  0.04407532  -0.02285462  1
  Ti  Ti1  1  -0.01913118  -0.02076418  0.39053364  1
  Ti  Ti2  1  -0.03236689  0.01473793  0.61804444  1
  Ti  Ti3  1  0.06300720  0.31300845  0.00359478  1
  Ti  Ti4  1  0.06440642  0.28736698  0.30505837  1
  Ti  Ti5  1  -0.01562203  0.34207123  0.62095903  1
  Ti  Ti6  1  -0.07445363  0.74478357  -0.06804667  1
  Ti  Ti7  1  -0.01500587  0.63062394  0.25042475  1
  Ti  Ti8  1  -0.03204530  0.66456062  0.62250886  1
  Ti  Ti9  1  0.31366686  0.08033550  -0.00719141  1
  Ti  Ti10  1  0.37837022  -0.01191540  0.28202254  1
  Ti  Ti11  1  0.33625649  0.03802039  0.73330277  1
  Ti  Ti12  1  0.39067721  0.32463075  -0.06493414  1
  Ti  Ti13  1  0.24217326  0.35983892  0.41996097  1
  Ti  Ti14  1  0.39240673  0.31591430  0.68924111  1
  Ti  Ti15  1  0.37918849  0.71642751  -0.02737227  1
  Ti  Ti16  1  0.23763747  0.62931404  0.30397711  1
  Ti  Ti17  1  0.36347073  0.62369434  0.74919315  1
  Ti  Ti18  1  0.65146233  0.05529777  -0.01089803  1
  Ti  Ti19  1  0.63585865  0.00173809  0.34156267  1
  Ti  Ti20  1  0.74148099  0.00454377  0.62131371  1
  Ti  Ti21  1  0.66970515  0.36140641  -0.01800976  1
  Ti  Ti22  1  0.66684809  0.36072220  0.34258471  1
  Ti  Ti23  1  0.66468146  0.37596961  0.65452521  1
  Ti  Ti24  1  0.64212377  0.58779770  0.02804286  1
  Ti  Ti25  1  0.73253659  0.63960743  0.37724162  1
  Ti  Ti26  1  0.67231276  0.68660449  0.72025574  1
  Ti  Ti27  1  -0.02734711  0.19567689  0.14546200  1
  Ti  Ti28  1  0.02802401  0.16447492  0.45231360  1
  Ti  Ti29  1  0.01919242  0.18737319  0.78258829  1
  Ti  Ti30  1  -0.00489261  0.44571494  0.14699679  1
  Ti  Ti31  1  0.06320421  0.49790811  0.51683612  1
  Ti  Ti32  1  0.01534314  0.55691078  0.82492766  1
  Ti  Ti33  1  -0.00924695  0.85457894  0.21812884  1
  Ti  Ti34  1  0.01898241  0.81517306  0.50831324  1
  Ti  Ti35  1  -0.03025964  0.85772394  0.74203653  1
  Ti  Ti36  1  0.36381463  0.16112573  0.20812481  1
  Ti  Ti37  1  0.32555969  0.08115191  0.46919389  1
  Ti  Ti38  1  0.32963557  0.18873569  0.83315699  1
  Ti  Ti39  1  0.29323434  0.53624698  0.10411062  1
  Ti  Ti40  1  0.36620252  0.51122932  0.39321799  1
  Ti  Ti41  1  0.28082788  0.41866105  0.81441812  1
  Ti  Ti42  1  0.35549258  0.71299262  0.17746583  1
  Ti  Ti43  1  0.33736331  0.88360570  0.48828842  1
  Ti  Ti44  1  0.31327579  0.84207388  0.76224904  1
  Ti  Ti45  1  0.69558287  0.12149497  0.19044817  1
  Ti  Ti46  1  0.60124413  0.23821426  0.50622026  1
  Ti  Ti47  1  0.66654220  0.12237218  0.77443214  1
  Ti  Ti48  1  0.65688249  0.47185182  0.18564116  1
  Ti  Ti49  1  0.73304461  0.48811681  0.47568953  1
  Ti  Ti50  1  0.71116479  0.53257028  0.84169401  1
  Ti  Ti51  1  0.68213814  0.80180143  0.24272798  1
  Ti  Ti52  1  0.64222189  0.78231106  0.56330387  1
  Ti  Ti53  1  0.63411118  0.81853905  0.87496235  1
  Ti  Ti54  1  0.23934839  -0.11347891  0.19631555  1
  Ti  Ti55  1  0.14722438  0.00644475  0.49001191  1
  Ti  Ti56  1  0.19185533  -0.02839515  0.89418730  1
  Ti  Ti57  1  0.25134857  0.30377377  0.22602669  1
  Ti  Ti58  1  0.18938547  0.34107757  0.62540578  1
  Ti  Ti59  1  0.10249388  0.36950774  0.82629677  1
  Ti  Ti60  1  0.13616696  0.70802246  0.16793375  1
  Ti  Ti61  1  0.25767693  0.70118160  0.47727658  1
  Ti  Ti62  1  0.19480351  0.70177148  0.85508750  1
  Ti  Ti63  1  0.55908773  -0.04714839  0.17053797  1
  Ti  Ti64  1  0.54770720  -0.04525069  0.56147376  1
  Ti  Ti65  1  0.52187367  -0.01599092  0.79828642  1
  Ti  Ti66  1  0.52965035  0.29608951  0.18361817  1
  Ti  Ti67  1  0.42944626  0.33436877  0.47726828  1
  Ti  Ti68  1  0.54398557  0.32971038  0.80802382  1
  Ti  Ti69  1  0.54980201  0.64481155  0.22231743  1
  Ti  Ti70  1  0.46534608  0.72808872  0.49850450  1
  Ti  Ti71  1  0.53145384  0.64305565  0.85776386  1
  Ti  Ti72  1  0.89616148  0.02091684  0.18097443  1
  Ti  Ti73  1  0.84714888  0.09551572  0.48877580  1
  Ti  Ti74  1  0.85040081  0.07407374  0.86157671  1
  Ti  Ti75  1  0.76590023  0.30926260  0.17942075  1
  Ti  Ti76  1  0.79149974  0.29730547  0.51720235  1
  Ti  Ti77  1  0.85107711  0.34820540  0.91378735  1
  Ti  Ti78  1  0.84386205  0.68784858  0.11880073  1
  Ti  Ti79  1  0.91105074  0.59691467  0.44400802  1
  Ti  Ti80  1  0.85539496  0.66379477  0.77427164  1
  Ti  Ti81  1  0.20199710  0.20683633  0.05059211  1
  Ti  Ti82  1  0.19392642  0.10830976  0.31407310  1
  Ti  Ti83  1  0.14478854  0.05791544  0.70688778  1
  Ti  Ti84  1  0.14159764  0.51202551  -0.01568951  1
  Ti  Ti85  1  0.11740291  0.48015984  0.31279491  1
  Ti  Ti86  1  0.22057527  0.56193315  0.62774401  1
  Ti  Ti87  1  0.12285808  0.85430656  0.04398427  1
  Ti  Ti88  1  0.13300182  0.80552548  0.35680681  1
  Ti  Ti89  1  0.16887222  0.75709340  0.65482547  1
  Ti  Ti90  1  0.48346698  0.15569800  0.03015796  1
  Ti  Ti91  1  0.49771389  0.13916765  0.35963235  1
  Ti  Ti92  1  0.44124754  0.14181525  0.60540588  1
  Ti  Ti93  1  0.43533572  0.50367449  -0.02181449  1
  Ti  Ti94  1  0.54897858  0.53942111  0.40295626  1
  Ti  Ti95  1  0.48230312  0.47932217  0.61314878  1
  Ti  Ti96  1  0.47427897  0.91266896  -0.00335073  1
  Ti  Ti97  1  0.47628653  0.82416107  0.30764677  1
  Ti  Ti98  1  0.50619836  0.80557623  0.71107667  1
  Ti  Ti99  1  0.80895404  0.17618648  0.04119052  1
  Ti  Ti100  1  0.86000797  0.20684823  0.32451480  1
  Ti  Ti101  1  0.82320453  0.25301432  0.74587660  1
  Ti  Ti102  1  0.85267490  0.55379454  -0.03214432  1
  Ti  Ti103  1  0.83596284  0.50579964  0.25243161  1
  Ti  Ti104  1  0.78338399  0.53486561  0.64210923  1
  Ti  Ti105  1  0.78747461  0.84649398  0.00942061  1
  Ti  Ti106  1  0.82671241  0.88736881  0.34350695  1
  Ti  Ti107  1  0.82136895  0.81085872  0.62464751  1
  Co  Co108  1  0.53390260  0.11573225  0.19085926  1
  Co  Co109  1  0.72137253  0.94547193  0.47465490  1
  Co  Co110  1  0.15138410  0.87347548  0.76893861  1
  Co  Co111  1  0.21201136  0.53861172  0.45669841  1
  Co  Co112  1  0.89195679  0.44668902  0.52290680  1
  Co  Co113  1  0.78058672  0.67003051  0.55879813  1
  Co  Co114  1  0.87726742  0.91744502  0.51423546  1
  Co  Co115  1  0.71987867  0.96079121  0.87870964  1
  Co  Co116  1  0.23846712  0.04588519  0.15207914  1
  Co  Co117  1  0.29923402  0.92258377  0.04518104  1
  Co  Co118  1  0.67692916  0.73747894  0.08925505  1
  Co  Co119  1  0.01067546  0.10799533  0.29026343  1
  Co  Co120  1  0.73571500  0.18829408  0.62076888  1
  Co  Co121  1  0.20752322  0.27657984  0.90134893  1
  Co  Co122  1  0.45621515  0.81002752  0.86304613  1
  Co  Co123  1  -0.00869146  0.75102665  0.09644928  1
  Co  Co124  1  0.13729494  0.54848563  0.16108499  1
  Co  Co125  1  0.25023493  0.38709198  1.01229525  1
  Co  Co126  1  0.26721722  0.46476320  0.25514653  1
  Co  Co127  1  0.64048491  0.21969471  0.06090133  1
  Co  Co128  1  0.89482195  0.91914629  0.89686453  1
  Co  Co129  1  0.10659564  0.66461373  0.53126810  1
  Co  Co130  1  0.26428151  0.82361530  0.92761498  1
  Co  Co131  1  0.33967044  0.21742410  0.37256203  1
  Co  Co132  1  0.35925727  0.25563605  0.07890575  1
  Co  Co133  1  0.51663550  0.48587402  0.11778174  1
  Co  Co134  1  0.88394385  0.75282646  0.45487961  1
  Co  Co135  1  0.56471173  0.25065975  0.66822181  1
  Co  Co136  1  0.38418461  0.39845134  0.13682585  1
  Co  Co137  1  0.41875772  0.66659324  0.34748450  1
  Co  Co138  1  0.67153352  0.19797413  0.32845730  1
  Co  Co139  1  0.54932829  0.75003423  0.99528921  1
  Co  Co140  1  0.24681931  0.94374656  0.36998917  1
  Co  Co141  1  0.41290153  0.86013393  0.15147038  1
  Co  Co142  1  0.08034313  0.64649650  0.37804298  1
  Co  Co143  1  0.93742596  0.29835216  0.44725558  1
  Co  Co144  1  0.83247469  0.94636706  0.74763691  1
  Co  Co145  1  0.73292696  0.78953631  0.43149915  1
  Co  Co146  1  0.40486489  0.55272087  0.22618025  1
  Co  Co147  1  0.85318775  0.09741926  0.69970915  1
  Co  Co148  1  0.25220546  -0.04271780  0.61510966  1
  Co  Co149  1  0.47325773  0.63355139  0.07744237  1
  Co  Co150  1  0.02477805  0.00919872  0.81118324  1
  Co  Co151  1  0.63954307  0.89664931  0.04099054  1
  Co  Co152  1  0.51583292  0.44666359  0.27678445  1
  Co  Co153  1  0.52253868  0.29595357  0.35355773  1
  Co  Co154  1  0.91944114  0.34033193  0.24760628  1
  Co  Co155  1  0.12659991  0.18040162  0.18676252  1
  Co  Co156  1  0.95532878  0.90579454  0.05453619  1
  Co  Co157  1  0.79271821  0.80804149  0.81708132  1
  Co  Co158  1  0.15467239  0.12454445  0.87771256  1
  Co  Co159  1  0.51815380  0.34325160  1.02659599  1
  Co  Co160  1  0.14183076  0.37877815  0.14050640  1
  Co  Co161  1  0.38396324  0.36082888  0.30678965  1
  Ni  Ni162  1  0.90009947  0.33105674  0.07014638  1
  Ni  Ni163  1  0.04172506  0.71869307  0.78917755  1
  Ni  Ni164  1  0.30664575  0.79012429  0.33166475  1
  Ni  Ni165  1  0.58935628  0.40558472  0.50057667  1
  Ni  Ni166  1  0.94482046  0.20369386  0.95102804  1
  Ni  Ni167  1  0.92762422  0.19278097  0.59843292  1
  Ni  Ni168  1  0.58494529  0.52978895  0.73248636  1
  Ni  Ni169  1  0.58802747  0.86341166  0.42221216  1
  Ni  Ni170  1  0.06587015  0.01620771  0.13804866  1
  Ni  Ni171  1  0.31960240  0.43433968  0.55941344  1
  Ni  Ni172  1  0.30028552  0.56835156  0.90930323  1
  Ni  Ni173  1  0.82364124  0.38525990  0.37247410  1
  Ni  Ni174  1  0.72064059  0.62837313  0.20945433  1
  Ni  Ni175  1  0.05161029  0.85838288  0.89818817  1
  Ni  Ni176  1  0.94987434  0.37899818  0.78359289  1
  Ni  Ni177  1  0.65414104  0.90329134  0.72163065  1
  Ni  Ni178  1  0.56779263  0.46809334  0.89486235  1
  Ni  Ni179  1  0.73904809  0.21570207  0.89775808  1
  Ni  Ni180  1  0.93949084  0.50649199  0.67431852  1
  Ni  Ni181  1  0.96679228  0.45816391  0.36125148  1
  Ni  Ni182  1  0.34707933  0.74365681  0.62442750  1
  Ni  Ni183  1  0.22505623  0.67877156  0.02919335  1
  Ni  Ni184  1  0.10866690  0.96383223  0.28681835  1
  Ni  Ni185  1  0.18487979  0.54926652  0.79524177  1
  Ni  Ni186  1  0.19135858  0.20125356  0.45733300  1
  Ni  Ni187  1  0.19363669  0.22232876  0.74180093  1
  Ni  Ni188  1  0.79368298  0.41762339  0.76417658  1
  Ni  Ni189  1  0.40951200  0.02194043  0.11918445  1
  Ni  Ni190  1  0.98660881  0.58992383  0.06622437  1
  Ni  Ni191  1  0.07333963  0.68592249  0.96341897  1
  Ni  Ni192  1  0.09393893  0.46595991  0.69053686  1
  Ni  Ni193  1  0.81928871  0.00896420  0.02777272  1
  Ni  Ni194  1  0.09917917  0.90864067  0.61981024  1
  Ni  Ni195  1  0.62393110  0.60632069  0.54599617  1
  Ni  Ni196  1  0.73946138  0.95217843  0.18521181  1
  Ni  Ni197  1  0.50342456  0.65367404  0.65006294  1
  Ni  Ni198  1  0.48363754  0.14826935  0.77074852  1
  Ni  Ni199  1  0.36443782  0.95458212  0.88121473  1
  Ni  Ni200  1  0.57534303  0.20439347  0.90548166  1
  Ni  Ni201  1  0.40676963  0.91763862  0.63799883  1
  Ni  Ni202  1  0.68713853  0.10726019  0.46694838  1
  Ni  Ni203  1  0.43576126  0.47127675  0.79264689  1
  Ni  Ni204  1  0.09002291  0.33221225  0.47986069  1
  Ni  Ni205  1  0.58456965  0.70869006  0.38183520  1
  Ni  Ni206  1  0.74321461  0.68723162  0.92667427  1
  Ni  Ni207  1  0.09998934  0.18985311  0.60501421  1
  Ni  Ni208  1  0.98340487  0.45116752  0.95582300  1
  Ni  Ni209  1  0.37443759  0.59387493  0.55090695  1
  Ni  Ni210  1  0.31295247  0.24562128  0.55578266  1
  Ni  Ni211  1  0.78134216  0.45093073  0.07173439  1
  Ni  Ni212  1  0.79474336  0.05392490  0.32861113  1
  Ni  Ni213  1  0.59785897  0.09614576  0.62555189  1
  Ni  Ni214  1  0.47028047  -0.02209151  0.41582379  1
  Ni  Ni215  1  0.84824251  0.72356505  0.28831795  1
