# generated using pymatgen
data_Ti2CoNi
_symmetry_space_group_name_H-M   'P 1'
_cell_length_a   14.50240974
_cell_length_b   14.56512855
_cell_length_c   14.59975341
_cell_angle_alpha   89.76477607
_cell_angle_beta   90.18258174
_cell_angle_gamma   90.43021632
_symmetry_Int_Tables_number   1
_chemical_formula_structural   Ti2CoNi
_chemical_formula_sum   'Ti108 Co54 Ni54'
_cell_volume   3083.76977905
_cell_formula_units_Z   54
loop_
 _symmetry_equiv_pos_site_id
 _symmetry_equiv_pos_as_xyz
  1  'x, y, z'
loop_
 _atom_site_type_symbol
 _atom_site_label
 _atom_site_symmetry_multiplicity
 _atom_site_fract_x
 _atom_site_fract_y
 _atom_site_fract_z
 _atom_site_occupancy
  Ti  Ti0  1  -0.00078920  0.01511088  0.00612005  1
  Ti  Ti1  1  0.00146398  -0.04581680  0.39719127  1
  Ti  Ti2  1  0.05126353  0.01501041  0.61179066  1
  Ti  Ti3  1  0.00427220  0.36182628  -0.14988557  1
  Ti  Ti4  1  0.04224751  0.34410918  0.31971112  1
  Ti  Ti5  1  0.08598008  0.32290525  0.67286797  1
  Ti  Ti6  1  0.00505478  0.65232319  -0.03741835  1
  Ti  Ti7  1  0.02316005  0.63295841  0.33907562  1
  Ti  Ti8  1  -0.02526137  0.67001819  0.70008934  1
  Ti  Ti9  1  0.29997153  -0.04426750  -0.01385213  1
  Ti  Ti10  1  0.39023337  -0.03577305  0.40110475  1
  Ti  Ti11  1  0.35503813  -0.01309922  0.73558161  1
  Ti  Ti12  1  0.36189826  0.28147548  -0.01473500  1
  Ti  Ti13  1  0.27528220  0.35778796  0.35040848  1
  Ti  Ti14  1  0.34935371  0.19495529  0.69490896  1
  Ti  Ti15  1  0.34824506  0.73614144  -0.03692022  1
  Ti  Ti16  1  0.33230056  0.69225576  0.31978911  1
  Ti  Ti17  1  0.28710197  0.69855515  0.70313907  1
  Ti  Ti18  1  0.58471857  -0.04306681  0.02552990  1
  Ti  Ti19  1  0.68315877  0.05647143  0.33985346  1
  Ti  Ti20  1  0.77114660  0.01149315  0.63045056  1
  Ti  Ti21  1  0.61887030  0.25822646  0.01156386  1
  Ti  Ti22  1  0.60290408  0.35513937  0.29135667  1
  Ti  Ti23  1  0.64339337  0.37608564  0.65799817  1
  Ti  Ti24  1  0.64781780  0.63647364  0.03371692  1
  Ti  Ti25  1  0.64472683  0.64900401  0.34783568  1
  Ti  Ti26  1  0.63884632  0.67962781  0.57438763  1
  Ti  Ti27  1  0.03819258  0.25323012  0.07613760  1
  Ti  Ti28  1  0.07171548  0.20500282  0.52709312  1
  Ti  Ti29  1  -0.05609807  0.18077340  0.87566308  1
  Ti  Ti30  1  -0.00880174  0.54248568  0.15100513  1
  Ti  Ti31  1  0.00984906  0.54248430  0.55050544  1
  Ti  Ti32  1  -0.10214699  0.51931788  0.82542070  1
  Ti  Ti33  1  -0.01954580  0.86576523  0.13205740  1
  Ti  Ti34  1  -0.07073613  0.86849163  0.55580936  1
  Ti  Ti35  1  0.04639639  0.82660431  0.84865620  1
  Ti  Ti36  1  0.30057087  0.18915410  0.23439252  1
  Ti  Ti37  1  0.30224860  0.14015070  0.46018399  1
  Ti  Ti38  1  0.40396432  0.09064111  0.90497634  1
  Ti  Ti39  1  0.37529041  0.57939181  0.15334045  1
  Ti  Ti40  1  0.34100233  0.47575945  0.56188300  1
  Ti  Ti41  1  0.39106377  0.48051467  0.89027926  1
  Ti  Ti42  1  0.27747836  0.75359479  0.13278626  1
  Ti  Ti43  1  0.36476502  0.88666615  0.57350014  1
  Ti  Ti44  1  0.23948139  0.84690336  0.83395078  1
  Ti  Ti45  1  0.62504101  0.18297006  0.20007574  1
  Ti  Ti46  1  0.65068162  0.14920862  0.50886752  1
  Ti  Ti47  1  0.71000378  0.15333546  0.86156751  1
  Ti  Ti48  1  0.71871779  0.46845878  0.16949120  1
  Ti  Ti49  1  0.69353046  0.51262978  0.52493531  1
  Ti  Ti50  1  0.60452436  0.50547760  0.87528738  1
  Ti  Ti51  1  0.76648196  0.82064827  0.12902447  1
  Ti  Ti52  1  0.66672553  0.84040114  0.40445553  1
  Ti  Ti53  1  0.69638547  0.82897505  0.86134193  1
  Ti  Ti54  1  0.17554914  -0.01670361  0.14068923  1
  Ti  Ti55  1  0.21110277  -0.07761541  0.41262674  1
  Ti  Ti56  1  0.02517364  0.02459519  0.79658298  1
  Ti  Ti57  1  0.23358273  0.42371283  0.15755481  1
  Ti  Ti58  1  0.14955966  0.37699442  0.49726973  1
  Ti  Ti59  1  0.24815729  0.36561206  0.81032623  1
  Ti  Ti60  1  0.16734372  0.58744669  0.12134462  1
  Ti  Ti61  1  0.15961581  0.71774788  0.45105777  1
  Ti  Ti62  1  0.23005331  0.57055519  0.86800094  1
  Ti  Ti63  1  0.47337047  -0.09210372  0.20744466  1
  Ti  Ti64  1  0.57014194  -0.01992327  0.51927018  1
  Ti  Ti65  1  0.57198788  -0.02510456  0.80422115  1
  Ti  Ti66  1  0.39065971  0.33664979  0.16310057  1
  Ti  Ti67  1  0.55119664  0.32888670  0.47437892  1
  Ti  Ti68  1  0.49478565  0.33053168  0.77806586  1
  Ti  Ti69  1  0.50265519  0.71052121  0.15018838  1
  Ti  Ti70  1  0.47063458  0.59619394  0.47235700  1
  Ti  Ti71  1  0.45615419  0.64278237  0.82673482  1
  Ti  Ti72  1  0.78879085  0.10372017  0.16814509  1
  Ti  Ti73  1  0.79835076  -0.02932435  0.45123172  1
  Ti  Ti74  1  0.83773604  -0.03570352  0.80069469  1
  Ti  Ti75  1  0.89285647  0.35994122  0.18132070  1
  Ti  Ti76  1  0.80094505  0.30522420  0.53904092  1
  Ti  Ti77  1  0.77342034  0.29985671  0.76972228  1
  Ti  Ti78  1  0.85240232  0.65018900  0.25911532  1
  Ti  Ti79  1  0.79605344  0.68671302  0.45583118  1
  Ti  Ti80  1  0.85495441  0.72577572  0.84958739  1
  Ti  Ti81  1  0.16250306  0.13305282  -0.03425715  1
  Ti  Ti82  1  0.16839028  0.08246116  0.30668900  1
  Ti  Ti83  1  0.17727543  0.14074999  0.71285251  1
  Ti  Ti84  1  0.08607322  0.47222605  -0.02100817  1
  Ti  Ti85  1  0.19869218  0.53763792  0.42735133  1
  Ti  Ti86  1  0.16264960  0.52781115  0.68302006  1
  Ti  Ti87  1  0.14407064  0.83897988  0.02286939  1
  Ti  Ti88  1  0.14036232  0.81177713  0.26075801  1
  Ti  Ti89  1  0.11244566  0.82329731  0.67203628  1
  Ti  Ti90  1  0.45574627  0.10102413  0.10338966  1
  Ti  Ti91  1  0.47498204  0.09015137  0.30826346  1
  Ti  Ti92  1  0.51814734  0.21628177  0.61771159  1
  Ti  Ti93  1  0.54250705  0.46852478  0.06783144  1
  Ti  Ti94  1  0.45828584  0.46399613  0.26919224  1
  Ti  Ti95  1  0.48979200  0.50300948  0.70945886  1
  Ti  Ti96  1  0.53619417  0.78265686  -0.06513002  1
  Ti  Ti97  1  0.48231130  0.79268088  0.39671954  1
  Ti  Ti98  1  0.52298509  0.76424057  0.70707913  1
  Ti  Ti99  1  0.83036829  0.24481463  0.01734609  1
  Ti  Ti100  1  0.77284702  0.24110539  0.34315633  1
  Ti  Ti101  1  0.90840343  0.17440771  0.61710539  1
  Ti  Ti102  1  0.84354422  0.53373696  0.04187512  1
  Ti  Ti103  1  0.77209082  0.49070289  0.34076430  1
  Ti  Ti104  1  0.83468418  0.46263695  0.64028720  1
  Ti  Ti105  1  0.82992969  0.90593790  -0.02399261  1
  Ti  Ti106  1  0.85425984  0.93285472  0.27641907  1
  Ti  Ti107  1  0.81180366  0.78814931  0.67835956  1
  Co  Co108  1  0.29059453  0.58405394  0.01853427  1
  Co  Co109  1  0.88423576  0.55742744  0.43438862  1
  Co  Co110  1  0.60930185  0.81641862  0.09722484  1
  Co  Co111  1  0.79190442  0.61777122  0.73453835  1
  Co  Co112  1  0.47412829  0.22444012  0.21997658  1
  Co  Co113  1  0.07517876  0.40193930  0.13533786  1
  Co  Co114  1  0.29986619  0.11668687  0.06448149  1
  Co  Co115  1  0.92812564  0.49340461  0.28461805  1
  Co  Co116  1  0.66135377  0.34718861  0.87957133  1
  Co  Co117  1  0.72878939  0.18792541  0.64515147  1
  Co  Co118  1  0.08276281  0.72257152  0.12995222  1
  Co  Co119  1  0.30756025  0.85696172  0.28364088  1
  Co  Co120  1  0.55812052  0.94612086  0.34192029  1
  Co  Co121  1  0.32925013  0.02682441  0.25028764  1
  Co  Co122  1  0.38620010  0.35899343  0.67196770  1
  Co  Co123  1  0.32013567  0.91101958  0.13413218  1
  Co  Co124  1  0.75239547  0.38612134  0.03685900  1
  Co  Co125  1  0.86945707  0.81887837  0.41032391  1
  Co  Co126  1  0.67446445  0.72699543  0.73553064  1
  Co  Co127  1  0.32170740  0.51293218  0.73511685  1
  Co  Co128  1  0.66028362  0.88962059  0.68380746  1
  Co  Co129  1  0.17481412  0.23454763  0.39089937  1
  Co  Co130  1  0.57108069  0.34032678  0.14331050  1
  Co  Co131  1  0.83809427  0.37840053  0.89722344  1
  Co  Co132  1  0.63903921  0.66920434  0.87275276  1
  Co  Co133  1  0.84482474  0.07888929  0.96435166  1
  Co  Co134  1  0.42244662  0.73907249  0.54668719  1
  Co  Co135  1  0.63394491  0.57253960  0.70061669  1
  Co  Co136  1  0.16200698  0.28452255  0.22973878  1
  Co  Co137  1  0.43876206  0.84574948  0.05641292  1
  Co  Co138  1  0.73501284  0.46615872  0.77997953  1
  Co  Co139  1  0.13098891  0.48565794  0.27775314  1
  Co  Co140  1  0.76277210  0.78190063  0.29071559  1
  Co  Co141  1  0.31833447  0.80022012  0.43448376  1
  Co  Co142  1  0.61388034  0.06119593  0.66524715  1
  Co  Co143  1  0.23845739  0.41855539  0.97022294  1
  Co  Co144  1  0.22619152  0.23353162  0.57117848  1
  Co  Co145  1  0.69166437  0.92840060  0.23607040  1
  Co  Co146  1  0.94774797  0.78580774  0.26422393  1
  Co  Co147  1  0.24157252  0.78608370  0.57526542  1
  Co  Co148  1  0.61366319  0.21946641  0.75021470  1
  Co  Co149  1  0.03238351  0.79723997  0.39835010  1
  Co  Co150  1  0.37891405  0.45380553  0.04788052  1
  Co  Co151  1  0.02103397  0.18003458  0.72687097  1
  Co  Co152  1  0.41904513  0.62619725  0.65034740  1
  Co  Co153  1  0.84423648  0.61362910  0.58886361  1
  Co  Co154  1  0.59985945  0.03188085  0.16831494  1
  Co  Co155  1  0.03194279  0.48056181  0.40705010  1
  Co  Co156  1  0.59784192  0.78975086  0.25887206  1
  Co  Co157  1  0.48213088  0.11100313  0.74975016  1
  Co  Co158  1  0.95225050  0.06880511  0.49247745  1
  Co  Co159  1  0.85869035  0.98163690  0.11238540  1
  Co  Co160  1  0.69368946  0.11178618  0.03805322  1
  Co  Co161  1  0.93877962  0.39299719  0.02754578  1
  Ni  Ni162  1  0.74022471  0.29589369  0.17819667  1
  Ni  Ni163  1  0.06250132  0.55137614  0.82323581  1
  Ni  Ni164  1  0.21615718  0.27738849  0.07034643  1
  Ni  Ni165  1  0.23561324  0.38042625  0.64447501  1
  Ni  Ni166  1  0.50416581  0.37193122  0.94136906  1
  Ni  Ni167  1  0.56782256  0.08748280  0.93418392  1
  Ni  Ni168  1  0.58644581  0.55688785  0.20663798  1
  Ni  Ni169  1  0.97128047  0.70338776  0.51555512  1
  Ni  Ni170  1  0.12325875  0.66753270  0.60838570  1
  Ni  Ni171  1  0.24780013  0.01774640  0.57902529  1
  Ni  Ni172  1  0.42107217  0.42622736  0.42357924  1
  Ni  Ni173  1  0.50209720  0.21995579  0.88680105  1
  Ni  Ni174  1  0.05197615  0.95781751  0.24682388  1
  Ni  Ni175  1  0.30529640  0.63619092  0.51459884  1
  Ni  Ni176  1  0.70926242  0.66459776  0.17996476  1
  Ni  Ni177  1  0.70534763  0.99609664  0.90921272  1
  Ni  Ni178  1  0.48476038  0.63080970  0.30718454  1
  Ni  Ni179  1  0.25016146  0.05289381  0.84475430  1
  Ni  Ni180  1  0.12604690  0.06353509  0.46470876  1
  Ni  Ni181  1  0.91817827  0.32116512  0.70181048  1
  Ni  Ni182  1  0.43787462  0.91984254  0.90265129  1
  Ni  Ni183  1  0.85857864  0.09205780  0.34242610  1
  Ni  Ni184  1  0.30417100  0.52233594  0.29598883  1
  Ni  Ni185  1  0.39615502  0.80416261  0.80268644  1
  Ni  Ni186  1  0.95880482  0.80849905  0.98100889  1
  Ni  Ni187  1  0.73984751  0.83859151  0.54612495  1
  Ni  Ni188  1  0.37863807  0.29025416  0.52266656  1
  Ni  Ni189  1  0.76382607  0.57460742  0.90578574  1
  Ni  Ni190  1  0.18348331  0.64732522  0.27261043  1
  Ni  Ni191  1  0.41488110  0.26299072  0.36593942  1
  Ni  Ni192  1  0.79617490  0.71666482  0.00089642  1
  Ni  Ni193  1  0.12504466  0.24215795  0.84274809  1
  Ni  Ni194  1  0.47174713  0.12368478  0.47865592  1
  Ni  Ni195  1  0.92768359  0.23001660  0.42799951  1
  Ni  Ni196  1  0.10189515  0.87545014  0.52101494  1
  Ni  Ni197  1  -0.00062630  0.46615669  0.69708628  1
  Ni  Ni198  1  0.70521419  0.37024134  0.42759312  1
  Ni  Ni199  1  0.29098985  0.20863811  0.85404688  1
  Ni  Ni200  1  0.16761974  0.68939855  0.97471361  1
  Ni  Ni201  1  0.80560069  0.13605028  0.49234453  1
  Ni  Ni202  1  0.58308461  0.20541271  0.36787005  1
  Ni  Ni203  1  0.49736164  0.93280134  0.66647293  1
  Ni  Ni204  1  0.84137809  0.12210225  0.75475188  1
  Ni  Ni205  1  0.58539174  0.49401122  0.38738373  1
  Ni  Ni206  1  0.91785672  0.69924487  0.10856896  1
  Ni  Ni207  1  0.47298162  0.60675564  0.99555864  1
  Ni  Ni208  1  0.97784545  0.35929066  0.52447035  1
  Ni  Ni209  1  0.14027088  0.69638121  0.79864601  1
  Ni  Ni210  1  0.13302024  0.96712733  0.91003212  1
  Ni  Ni211  1  0.55871603  0.82194448  0.55150850  1
  Ni  Ni212  1  0.15199659  0.14593417  0.14408542  1
  Ni  Ni213  1  0.17882840  0.96484721  0.72804645  1
  Ni  Ni214  1  0.95323033  0.87375238  0.71986213  1
  Ni  Ni215  1  0.52129196  0.46102520  0.55903530  1
