# generated using pymatgen
data_Ti2CoNi
_symmetry_space_group_name_H-M   'P 1'
_cell_length_a   14.62032065
_cell_length_b   14.62088823
_cell_length_c   14.56720732
_cell_angle_alpha   89.82256935
_cell_angle_beta   90.26411356
_cell_angle_gamma   89.87186274
_symmetry_Int_Tables_number   1
_chemical_formula_structural   Ti2CoNi
_chemical_formula_sum   'Ti108 Co54 Ni54'
_cell_volume   3113.86054906
_cell_formula_units_Z   54
loop_
 _symmetry_equiv_pos_site_id
 _symmetry_equiv_pos_as_xyz
  1  'x, y, z'
loop_
 _atom_site_type_symbol
 _atom_site_label
 _atom_site_symmetry_multiplicity
 _atom_site_fract_x
 _atom_site_fract_y
 _atom_site_fract_z
 _atom_site_occupancy
  Ti  Ti0  1  -0.01746278  0.00531265  -0.09263591  1
  Ti  Ti1  1  -0.05014420  0.01033770  0.29186093  1
  Ti  Ti2  1  0.01819898  -0.00850557  0.63245113  1
  Ti  Ti3  1  0.01996940  0.33367609  0.09321232  1
  Ti  Ti4  1  -0.02317088  0.26152516  0.29516086  1
  Ti  Ti5  1  -0.06068269  0.38058646  0.66683571  1
  Ti  Ti6  1  0.03150058  0.68691150  0.02771018  1
  Ti  Ti7  1  -0.00033905  0.58763515  0.36527367  1
  Ti  Ti8  1  0.05536192  0.64187184  0.69812394  1
  Ti  Ti9  1  0.31860287  0.02397375  0.00738452  1
  Ti  Ti10  1  0.33998874  -0.14934514  0.35769256  1
  Ti  Ti11  1  0.30386262  0.02979059  0.67969653  1
  Ti  Ti12  1  0.35963740  0.31423889  0.00666945  1
  Ti  Ti13  1  0.34269359  0.40901335  0.27460577  1
  Ti  Ti14  1  0.36538806  0.38117077  0.62606562  1
  Ti  Ti15  1  0.32312910  0.69702843  0.08628414  1
  Ti  Ti16  1  0.34277594  0.65137273  0.32036639  1
  Ti  Ti17  1  0.30527025  0.68393074  0.71140224  1
  Ti  Ti18  1  0.70616707  0.02711096  -0.00876970  1
  Ti  Ti19  1  0.73688295  0.05202154  0.34292617  1
  Ti  Ti20  1  0.66175126  0.01523779  0.68193309  1
  Ti  Ti21  1  0.68563910  0.30728765  0.09260624  1
  Ti  Ti22  1  0.65368767  0.37741188  0.29123530  1
  Ti  Ti23  1  0.67721008  0.31238969  0.73615657  1
  Ti  Ti24  1  0.67562721  0.69257501  -0.09734431  1
  Ti  Ti25  1  0.58585431  0.67431395  0.28378180  1
  Ti  Ti26  1  0.72293108  0.69162166  0.69211256  1
  Ti  Ti27  1  -0.02087023  0.13290912  0.15516758  1
  Ti  Ti28  1  0.07629561  0.16051661  0.52762206  1
  Ti  Ti29  1  0.04248643  0.20655990  0.86539455  1
  Ti  Ti30  1  -0.06194329  0.51812804  0.18641149  1
  Ti  Ti31  1  0.06517048  0.46797809  0.52817850  1
  Ti  Ti32  1  -0.03121997  0.46182419  0.85602272  1
  Ti  Ti33  1  -0.02611640  0.84858761  0.17933330  1
  Ti  Ti34  1  0.02161031  0.80576859  0.51589279  1
  Ti  Ti35  1  -0.02673577  0.79492213  0.84237240  1
  Ti  Ti36  1  0.27407899  0.13067272  0.20114205  1
  Ti  Ti37  1  0.30586692  0.15337627  0.41604907  1
  Ti  Ti38  1  0.34759766  0.20670297  0.74698102  1
  Ti  Ti39  1  0.35906465  0.50212786  0.09940840  1
  Ti  Ti40  1  0.34873634  0.56917919  0.53451808  1
  Ti  Ti41  1  0.32485990  0.50486966  0.77165393  1
  Ti  Ti42  1  0.27531998  0.90839624  0.16649525  1
  Ti  Ti43  1  0.31845862  0.79519305  0.54886007  1
  Ti  Ti44  1  0.35038279  0.79299056  0.88663519  1
  Ti  Ti45  1  0.61335697  0.11797474  0.15736971  1
  Ti  Ti46  1  0.62425300  0.13448125  0.51254201  1
  Ti  Ti47  1  0.58382111  0.16250469  0.82165678  1
  Ti  Ti48  1  0.56848498  0.49463834  0.14753059  1
  Ti  Ti49  1  0.73563612  0.42958591  0.48289910  1
  Ti  Ti50  1  0.66035416  0.51827503  0.83677291  1
  Ti  Ti51  1  0.69911465  0.82938048  0.12370501  1
  Ti  Ti52  1  0.72409542  0.86551457  0.49690693  1
  Ti  Ti53  1  0.62413556  0.83991496  0.80419710  1
  Ti  Ti54  1  0.11439573  0.00643555  0.07055974  1
  Ti  Ti55  1  0.24268519  -0.01542151  0.48254825  1
  Ti  Ti56  1  0.18171750  0.06420466  0.87418743  1
  Ti  Ti57  1  0.18726361  0.41135027  0.12193400  1
  Ti  Ti58  1  0.23128691  0.30653223  0.49215805  1
  Ti  Ti59  1  0.22561429  0.32885210  0.85946500  1
  Ti  Ti60  1  0.10009363  0.67330673  0.21276556  1
  Ti  Ti61  1  0.17619163  0.63991232  0.46602631  1
  Ti  Ti62  1  0.14918294  0.74958736  0.81902412  1
  Ti  Ti63  1  0.44806819  0.01835645  0.16530690  1
  Ti  Ti64  1  0.45978290  0.00850296  0.44585660  1
  Ti  Ti65  1  0.48071853  -0.05470297  0.74392972  1
  Ti  Ti66  1  0.48368986  0.27780961  0.17631309  1
  Ti  Ti67  1  0.53321773  0.31838887  0.55772646  1
  Ti  Ti68  1  0.55072455  0.35270968  0.89196874  1
  Ti  Ti69  1  0.56665802  0.69579593  0.08695599  1
  Ti  Ti70  1  0.54976471  0.58992093  0.53603513  1
  Ti  Ti71  1  0.49619016  0.68271472  0.78805858  1
  Ti  Ti72  1  0.79928688  -0.00546410  0.16471691  1
  Ti  Ti73  1  0.88580458  -0.02881795  0.47495398  1
  Ti  Ti74  1  0.79035188  -0.03296130  0.82486867  1
  Ti  Ti75  1  0.82449884  0.36125490  0.22014135  1
  Ti  Ti76  1  0.92048454  0.28651002  0.51405316  1
  Ti  Ti77  1  0.86476501  0.26599907  0.79709030  1
  Ti  Ti78  1  0.78165808  0.65765194  0.18914518  1
  Ti  Ti79  1  0.82899448  0.65606603  0.50325272  1
  Ti  Ti80  1  0.86493081  0.61673549  0.79576299  1
  Ti  Ti81  1  0.18336594  0.21565570  0.02702438  1
  Ti  Ti82  1  0.11561424  0.12370144  0.34220677  1
  Ti  Ti83  1  0.15444569  0.19190669  0.70378986  1
  Ti  Ti84  1  0.20506828  0.51521214  -0.04687558  1
  Ti  Ti85  1  0.15635633  0.44142929  0.34747122  1
  Ti  Ti86  1  0.13338360  0.46064050  0.71681006  1
  Ti  Ti87  1  0.18231323  0.87144884  -0.04123320  1
  Ti  Ti88  1  0.12733218  0.88703980  0.31477134  1
  Ti  Ti89  1  0.21622103  0.87562152  0.71189981  1
  Ti  Ti90  1  0.50414432  0.08235360  -0.01806491  1
  Ti  Ti91  1  0.50885725  0.20197286  0.37755833  1
  Ti  Ti92  1  0.48341239  0.10889364  0.63431026  1
  Ti  Ti93  1  0.50069247  0.56840807  -0.04667065  1
  Ti  Ti94  1  0.48773593  0.52568185  0.35817812  1
  Ti  Ti95  1  0.51596757  0.45158145  0.73011545  1
  Ti  Ti96  1  0.46551422  0.85705662  0.07099971  1
  Ti  Ti97  1  0.54765507  0.80521374  0.41622906  1
  Ti  Ti98  1  0.51791805  0.78597288  0.61183349  1
  Ti  Ti99  1  0.85637035  0.15788909  -0.03581324  1
  Ti  Ti100  1  0.78139927  0.21919162  0.40479617  1
  Ti  Ti101  1  0.79639494  0.15956862  0.64992401  1
  Ti  Ti102  1  0.84929838  0.42164779  0.01700037  1
  Ti  Ti103  1  0.81846447  0.53361745  0.33978575  1
  Ti  Ti104  1  0.77627469  0.47744047  0.68578858  1
  Ti  Ti105  1  0.83813205  0.85013248  -0.01053375  1
  Ti  Ti106  1  0.78332091  0.85176981  0.30635537  1
  Ti  Ti107  1  0.84903665  0.84202182  0.66264944  1
  Co  Co108  1  0.93694509  0.30561282  0.94266628  1
  Co  Co109  1  0.91541522  0.11061880  0.55236492  1
  Co  Co110  1  0.98191292  0.20417836  0.67759327  1
  Co  Co111  1  0.66063039  0.71853165  0.53300173  1
  Co  Co112  1  0.66907873  0.85090627  0.64963029  1
  Co  Co113  1  0.65596923  0.57609625  0.02566029  1
  Co  Co114  1  0.37118746  0.25356907  0.30658477  1
  Co  Co115  1  0.88446641  0.69255136  0.93551810  1
  Co  Co116  1  0.87897009  0.26477628  0.10979153  1
  Co  Co117  1  0.12408653  1.01942951  0.22220812  1
  Co  Co118  1  0.63064078  0.43506889  0.61948403  1
  Co  Co119  1  0.04066315  0.82086089  0.68740256  1
  Co  Co120  1  0.03551037  0.14083287  0.00884599  1
  Co  Co121  1  0.94046969  0.93553821  0.76254711  1
  Co  Co122  1  0.68943534  0.22115370  0.25667017  1
  Co  Co123  1  0.16186381  0.73988259  0.60655143  1
  Co  Co124  1  0.37972445  0.82664365  0.71817191  1
  Co  Co125  1  0.56644738  0.07315420  0.30785870  1
  Co  Co126  1  0.05716460  0.07052171  0.76388354  1
  Co  Co127  1  0.22685047  0.45367290  0.54267322  1
  Co  Co128  1  0.29519343  0.17132024  0.91815046  1
  Co  Co129  1  0.75582617  0.48741145  0.12760756  1
  Co  Co130  1  0.20218266  0.58393605  0.63325296  1
  Co  Co131  1  0.57343865  -0.04752486  0.55819162  1
  Co  Co132  1  0.79275942  0.55383535  0.93240967  1
  Co  Co133  1  0.29315523  0.51115088  0.39429592  1
  Co  Co134  1  0.08344274  0.31869933  0.60067641  1
  Co  Co135  1  0.65393612  0.95835848  0.23508933  1
  Co  Co136  1  0.67175761  0.42678428  0.98251114  1
  Co  Co137  1  0.89998876  0.09538675  0.78202857  1
  Co  Co138  1  0.18948101  0.80530785  0.44662762  1
  Co  Co139  1  0.39101993  0.16654621  0.07084548  1
  Co  Co140  1  0.09213797  0.50648663  0.21145800  1
  Co  Co141  1  0.40735172  0.08898032  0.30276546  1
  Co  Co142  1  0.73550382  0.03374952  0.51550861  1
  Co  Co143  1  0.94690332  0.13277041  0.39745568  1
  Co  Co144  1  0.09845884  0.91901331  0.81861322  1
  Co  Co145  1  0.88872530  0.59127832  0.05763025  1
  Co  Co146  1  0.71200169  0.56989376  0.56990817  1
  Co  Co147  1  0.82848060  0.99491872  0.64013938  1
  Co  Co148  1  0.59407321  0.95885311  0.08666533  1
  Co  Co149  1  0.76175144  0.69677506  0.03661002  1
  Co  Co150  1  0.84520676  0.36753712  0.38189689  1
  Co  Co151  1  0.25276347  0.54660587  0.23373150  1
  Co  Co152  1  0.18587381  0.59365745  0.09688721  1
  Co  Co153  1  0.60637004  0.59171097  0.69681567  1
  Co  Co154  1  0.46695298  0.92777998  0.29705643  1
  Co  Co155  1  0.84690394  0.15530785  0.25719223  1
  Co  Co156  1  0.44351026  0.22372087  0.89456371  1
  Co  Co157  1  0.65724977  0.86134985  0.96554250  1
  Co  Co158  1  0.05353737  0.33321852  0.77635230  1
  Co  Co159  1  0.14780231  0.90200563  0.57066652  1
  Co  Co160  1  0.22941793  0.33726138  0.69216473  1
  Co  Co161  1  0.61825211  0.95046074  0.39875603  1
  Ni  Ni162  1  0.29184822  0.28884713  0.16159875  1
  Ni  Ni163  1  0.74571731  0.13147020  0.82517899  1
  Ni  Ni164  1  0.70683188  0.26950859  0.91033641  1
  Ni  Ni165  1  0.38972454  0.39225460  0.45927777  1
  Ni  Ni166  1  0.05261053  -0.00890928  0.44911453  1
  Ni  Ni167  1  0.12327645  0.23014743  0.18528839  1
  Ni  Ni168  1  0.65760170  0.57114788  0.41247080  1
  Ni  Ni169  1  0.06243649  0.73674877  0.36549045  1
  Ni  Ni170  1  0.19109389  0.59370621  0.81066941  1
  Ni  Ni171  1  0.24446351  0.14111681  0.57217541  1
  Ni  Ni172  1  0.42542531  0.70349103  0.45862967  1
  Ni  Ni173  1  0.50254001  0.39627209  0.04224136  1
  Ni  Ni174  1  0.72398580  0.29110019  0.57611843  1
  Ni  Ni175  1  0.23992416  0.76111541  0.24181807  1
  Ni  Ni176  1  0.56711060  0.82573392  0.22430821  1
  Ni  Ni177  1  0.79254410  0.40832859  0.84952852  1
  Ni  Ni178  1  0.04433283  0.51062645  0.03915766  1
  Ni  Ni179  1  0.98546077  0.42724025  0.33335349  1
  Ni  Ni180  1  0.92900436  0.99652456  0.06517506  1
  Ni  Ni181  1  0.50066320  0.27463365  0.72206790  1
  Ni  Ni182  1  0.49786715  0.36294648  0.33702740  1
  Ni  Ni183  1  0.40512095  0.93305631  0.58793765  1
  Ni  Ni184  1  0.01600529  0.86442406  0.00995892  1
  Ni  Ni185  1  0.34347441  0.62610119  0.90030701  1
  Ni  Ni186  1  0.44779569  0.61316807  0.18756820  1
  Ni  Ni187  1  0.20578477  0.27434574  0.32043712  1
  Ni  Ni188  1  0.39156928  0.21982251  0.55111703  1
  Ni  Ni189  1  0.45930664  0.93078936  0.91853699  1
  Ni  Ni190  1  0.30840652  0.95203878  0.83952117  1
  Ni  Ni191  1  0.37792582  0.46337055  0.93043464  1
  Ni  Ni192  1  0.79670782  0.79321436  0.82876616  1
  Ni  Ni193  1  0.26891706  0.00316136  0.31415963  1
  Ni  Ni194  1  1.01156721  0.63403775  0.52501505  1
  Ni  Ni195  1  0.41784234  0.07490764  0.82795151  1
  Ni  Ni196  1  0.41003952  0.77958892  0.21596064  1
  Ni  Ni197  1  0.13906314  0.81397906  0.11601131  1
  Ni  Ni198  1  0.51522775  0.76239564  0.93678848  1
  Ni  Ni199  1  0.73634825  0.71221843  0.37270393  1
  Ni  Ni200  1  0.09328616  0.37944790  0.94578584  1
  Ni  Ni201  1  0.63358076  0.29613689  0.43358978  1
  Ni  Ni202  1  0.91338377  0.70257935  0.64191028  1
  Ni  Ni203  1  0.03955553  0.61721214  0.87869503  1
  Ni  Ni204  1  0.61090449  0.00005877  0.85603580  1
  Ni  Ni205  1  0.67750326  0.53896330  0.25872273  1
  Ni  Ni206  1  0.44032248  0.58479653  0.66803532  1
  Ni  Ni207  1  0.93118992  0.54147032  0.64080954  1
  Ni  Ni208  1  0.38883140  0.35674319  0.80962598  1
  Ni  Ni209  1  0.91183874  0.71056426  0.28112785  1
  Ni  Ni210  1  0.55774749  0.23530979  0.01958301  1
  Ni  Ni211  1  0.20137140  0.69436822  0.96715648  1
  Ni  Ni212  1  0.77158538  0.14818131  0.10960682  1
  Ni  Ni213  1  0.94998785  0.85659499  0.36084244  1
  Ni  Ni214  1  0.07209539  0.30819323  0.42899963  1
  Ni  Ni215  1  0.90307200  0.48879399  0.48646930  1
