# generated using pymatgen
data_Ti2CoNi
_symmetry_space_group_name_H-M   'P 1'
_cell_length_a   14.56221173
_cell_length_b   14.61207419
_cell_length_c   14.58253079
_cell_angle_alpha   89.86448402
_cell_angle_beta   89.89512924
_cell_angle_gamma   89.94634276
_symmetry_Int_Tables_number   1
_chemical_formula_structural   Ti2CoNi
_chemical_formula_sum   'Ti108 Co54 Ni54'
_cell_volume   3102.91573042
_cell_formula_units_Z   54
loop_
 _symmetry_equiv_pos_site_id
 _symmetry_equiv_pos_as_xyz
  1  'x, y, z'
loop_
 _atom_site_type_symbol
 _atom_site_label
 _atom_site_symmetry_multiplicity
 _atom_site_fract_x
 _atom_site_fract_y
 _atom_site_fract_z
 _atom_site_occupancy
  Ti  Ti0  1  -0.05906899  -0.01446662  -0.00320963  1
  Ti  Ti1  1  0.02553346  -0.08827448  0.35913395  1
  Ti  Ti2  1  -0.06376605  0.04829388  0.63679920  1
  Ti  Ti3  1  -0.01587651  0.35007061  0.04511891  1
  Ti  Ti4  1  -0.03099851  0.41509380  0.26229605  1
  Ti  Ti5  1  0.01446849  0.32501185  0.75200984  1
  Ti  Ti6  1  -0.08489333  0.66439563  -0.02048014  1
  Ti  Ti7  1  0.00820409  0.58709097  0.34586671  1
  Ti  Ti8  1  0.08218721  0.66713295  0.68356800  1
  Ti  Ti9  1  0.33043487  -0.01101473  -0.04737937  1
  Ti  Ti10  1  0.35371557  0.01032436  0.29182051  1
  Ti  Ti11  1  0.30256270  0.01203897  0.61655178  1
  Ti  Ti12  1  0.38652577  0.38512505  -0.06570857  1
  Ti  Ti13  1  0.35102862  0.33992696  0.30582226  1
  Ti  Ti14  1  0.33478787  0.34396815  0.59745509  1
  Ti  Ti15  1  0.38137679  0.72799524  -0.04625237  1
  Ti  Ti16  1  0.24046522  0.65087969  0.28495041  1
  Ti  Ti17  1  0.38057733  0.72277069  0.70411637  1
  Ti  Ti18  1  0.61942152  -0.02373771  0.00489599  1
  Ti  Ti19  1  0.64325627  -0.04517513  0.30038802  1
  Ti  Ti20  1  0.72501756  0.03921347  0.72578800  1
  Ti  Ti21  1  0.68264712  0.46626330  0.04533641  1
  Ti  Ti22  1  0.61658087  0.29967249  0.31752401  1
  Ti  Ti23  1  0.66782458  0.29246161  0.70239559  1
  Ti  Ti24  1  0.62750303  0.65589750  0.07560207  1
  Ti  Ti25  1  0.71220590  0.66230085  0.25679564  1
  Ti  Ti26  1  0.64995488  0.60250500  0.68319040  1
  Ti  Ti27  1  -0.01061833  0.16280669  0.16336605  1
  Ti  Ti28  1  0.05213369  0.13458925  0.47769770  1
  Ti  Ti29  1  0.03051753  0.14721708  0.85712707  1
  Ti  Ti30  1  -0.05536614  0.53167026  0.10500954  1
  Ti  Ti31  1  0.02951664  0.51129128  0.53708076  1
  Ti  Ti32  1  -0.03808732  0.56391447  0.81193255  1
  Ti  Ti33  1  0.05743348  0.77115997  0.07800748  1
  Ti  Ti34  1  -0.08518348  0.86430088  0.53977805  1
  Ti  Ti35  1  0.06612675  0.80125988  0.81000181  1
  Ti  Ti36  1  0.30753183  0.10438895  0.09597710  1
  Ti  Ti37  1  0.38103998  0.18098297  0.53528173  1
  Ti  Ti38  1  0.33351044  0.18801039  0.90747131  1
  Ti  Ti39  1  0.34477544  0.60275471  0.12466287  1
  Ti  Ti40  1  0.34431197  0.57111427  0.55604703  1
  Ti  Ti41  1  0.38138506  0.49086609  0.73536683  1
  Ti  Ti42  1  0.29737445  0.87780778  0.11704592  1
  Ti  Ti43  1  0.26442081  0.73469875  0.46828431  1
  Ti  Ti44  1  0.32801163  0.87641237  0.81054715  1
  Ti  Ti45  1  0.63870372  0.16031629  0.14494824  1
  Ti  Ti46  1  0.69356378  0.08482263  0.44308218  1
  Ti  Ti47  1  0.70231718  0.30071572  0.89790509  1
  Ti  Ti48  1  0.70974696  0.46843053  0.24029877  1
  Ti  Ti49  1  0.65392598  0.44209622  0.44587966  1
  Ti  Ti50  1  0.66794376  0.48414548  0.84834819  1
  Ti  Ti51  1  0.72566320  0.84188972  0.15338132  1
  Ti  Ti52  1  0.73871527  0.86647517  0.46767464  1
  Ti  Ti53  1  0.65346770  0.86415415  0.84148425  1
  Ti  Ti54  1  0.05192064  -0.01841051  0.17525300  1
  Ti  Ti55  1  0.18384083  0.00179943  0.43832816  1
  Ti  Ti56  1  0.21333694  0.07166026  0.79824761  1
  Ti  Ti57  1  0.22475752  0.34514557  0.17552775  1
  Ti  Ti58  1  0.11083928  0.31614489  0.54448738  1
  Ti  Ti59  1  0.20748303  0.30544264  0.79576569  1
  Ti  Ti60  1  0.11769482  0.59688124  0.14332498  1
  Ti  Ti61  1  0.05630911  0.72521204  0.50037773  1
  Ti  Ti62  1  0.19389398  0.61296603  0.85889309  1
  Ti  Ti63  1  0.48289229  0.08067044  0.18274375  1
  Ti  Ti64  1  0.46541451  0.01528231  0.47018652  1
  Ti  Ti65  1  0.51245038  0.00043971  0.85336078  1
  Ti  Ti66  1  0.46314985  0.30220570  0.14124677  1
  Ti  Ti67  1  0.47690910  0.32827223  0.45365970  1
  Ti  Ti68  1  0.51700933  0.30601401  0.79722174  1
  Ti  Ti69  1  0.49554790  0.67461847  0.27708001  1
  Ti  Ti70  1  0.56367695  0.63677636  0.49025361  1
  Ti  Ti71  1  0.53723903  0.64312426  0.84271598  1
  Ti  Ti72  1  0.86613836  -0.02325968  0.17730033  1
  Ti  Ti73  1  0.88411636  0.04499456  0.44114355  1
  Ti  Ti74  1  0.89791681  -0.07070373  0.80747175  1
  Ti  Ti75  1  0.81652970  0.25101215  0.16878335  1
  Ti  Ti76  1  0.79032187  0.32089774  0.54058024  1
  Ti  Ti77  1  0.83165325  0.39253912  0.76748054  1
  Ti  Ti78  1  0.89666514  0.69579874  0.19478326  1
  Ti  Ti79  1  0.82097653  0.69988786  0.62450218  1
  Ti  Ti80  1  0.80870176  0.73506184  0.84100089  1
  Ti  Ti81  1  0.13880383  0.21738755  0.05289639  1
  Ti  Ti82  1  0.21574576  0.17310453  0.28964522  1
  Ti  Ti83  1  0.12304498  0.17388020  0.67408277  1
  Ti  Ti84  1  0.21252549  0.45711241  0.00411159  1
  Ti  Ti85  1  0.21127016  0.45674145  0.44242053  1
  Ti  Ti86  1  0.10893329  0.48655049  0.72545515  1
  Ti  Ti87  1  0.13523592  0.91258444  -0.04408080  1
  Ti  Ti88  1  0.22845524  0.83854553  0.31974663  1
  Ti  Ti89  1  0.14964425  0.85613432  0.61530479  1
  Ti  Ti90  1  0.52368145  0.23028271  -0.01431446  1
  Ti  Ti91  1  0.44999431  0.17888455  0.34624680  1
  Ti  Ti92  1  0.49911095  0.11446086  0.66767549  1
  Ti  Ti93  1  0.48853289  0.49859962  0.05760032  1
  Ti  Ti94  1  0.48134402  0.47342475  0.29720229  1
  Ti  Ti95  1  0.52268405  0.45329477  0.58816500  1
  Ti  Ti96  1  0.50633542  0.80303048  0.10017494  1
  Ti  Ti97  1  0.44106322  0.83265736  0.36868877  1
  Ti  Ti98  1  0.51887037  0.84124741  0.60432397  1
  Ti  Ti99  1  0.78398445  0.13541408  0.00121163  1
  Ti  Ti100  1  0.92921248  0.24447285  0.34089219  1
  Ti  Ti101  1  0.84814547  0.20266156  0.71487438  1
  Ti  Ti102  1  0.83158272  0.49602593  -0.05713703  1
  Ti  Ti103  1  0.81137480  0.54674483  0.39884711  1
  Ti  Ti104  1  0.84433550  0.51301300  0.62155885  1
  Ti  Ti105  1  0.78869631  0.88934215  -0.02596909  1
  Ti  Ti106  1  0.89415321  0.75088049  0.38086747  1
  Ti  Ti107  1  0.78231602  0.87143133  0.67577577  1
  Co  Co108  1  0.17890555  0.92563415  0.75967530  1
  Co  Co109  1  0.35658330  0.42726356  0.12005360  1
  Co  Co110  1  0.31619883  0.09201953  0.42639020  1
  Co  Co111  1  0.85787935  0.54493435  0.24506806  1
  Co  Co112  1  0.74600829  0.69417671  0.44265577  1
  Co  Co113  1  0.48447705  0.28364336  0.63283419  1
  Co  Co114  1  0.14217101  0.02992420  0.61903380  1
  Co  Co115  1  0.04801645  0.53425244  0.97745412  1
  Co  Co116  1  0.59159693  0.80434190  0.24675625  1
  Co  Co117  1  0.36538901  0.32905465  0.77459484  1
  Co  Co118  1  0.61557205  0.14698647  0.76983754  1
  Co  Co119  1  0.95944364  0.78422491  0.67204048  1
  Co  Co120  1  0.26645919  0.45694162  0.83523495  1
  Co  Co121  1  0.88308274  0.08071914  0.87129899  1
  Co  Co122  1  0.22888002  0.73364132  0.13105795  1
  Co  Co123  1  0.05336396  0.07751603  0.02698182  1
  Co  Co124  1  0.07038870  0.28826518  0.91878324  1
  Co  Co125  1  0.05010912  0.98903359  0.84669956  1
  Co  Co126  1  0.73566036  1.01209734  0.88568883  1
  Co  Co127  1  0.12787513  0.84044294  0.20284411  1
  Co  Co128  1  0.71137038  0.56711039  0.53455492  1
  Co  Co129  1  0.78337570  0.58336112  0.09839956  1
  Co  Co130  1  0.89885630  0.25913986  0.86695300  1
  Co  Co131  1  0.74980947  0.80257945  0.31222788  1
  Co  Co132  1  0.15187420  0.61832779  0.41610625  1
  Co  Co133  1  0.19110896  0.09934602  0.95032814  1
  Co  Co134  1  0.95195457  0.27145721  0.48639326  1
  Co  Co135  1  0.37680420  0.75089650  0.19301412  1
  Co  Co136  1  0.94075129  0.19026774  0.00893622  1
  Co  Co137  1  0.62324621  0.12456151  0.93161205  1
  Co  Co138  1  0.82790871  0.41623491  0.12792084  1
  Co  Co139  1  0.82922086  0.32837159  0.99421527  1
  Co  Co140  1  0.07171180  0.74167996  0.32701794  1
  Co  Co141  1  0.76807183  0.07151553  0.28272428  1
  Co  Co142  1  0.47005229  0.15296128  0.84416692  1
  Co  Co143  1  0.23320868  0.78732409  0.94431284  1
  Co  Co144  1  -0.01954952  0.21218693  0.62578866  1
  Co  Co145  1  0.11350932  0.43329285  0.87403399  1
  Co  Co146  1  0.81164400  0.36948786  0.30308782  1
  Co  Co147  1  0.95766150  0.41050349  0.88761935  1
  Co  Co148  1  0.62038555  0.57107717  0.35629334  1
  Co  Co149  1  0.04605080  0.40263157  0.40981972  1
  Co  Co150  1  0.07565435  0.69375871  -0.06236609  1
  Co  Co151  1  0.17473369  0.58216939  0.56566579  1
  Co  Co152  1  0.21781870  0.63410295  0.01357003  1
  Co  Co153  1  0.75536122  0.17016148  0.83767926  1
  Co  Co154  1  0.95979150  0.83827855  0.23440259  1
  Co  Co155  1  1.02135343  0.93309568  0.69171149  1
  Co  Co156  1  0.70712887  0.62298915  0.92868623  1
  Co  Co157  1  0.25358961  0.58773018  0.70785939  1
  Co  Co158  1  0.22566620  0.75274585  0.77837735  1
  Co  Co159  1  0.23656194  0.72088052  0.61982183  1
  Co  Co160  1  0.44082101  0.89771868  0.22237730  1
  Co  Co161  1  0.75279081  0.21908300  0.32083129  1
  Ni  Ni162  1  0.95624730  0.82465490  0.93260773  1
  Ni  Ni163  1  0.42549362  0.71759812  0.49969445  1
  Ni  Ni164  1  0.77968496  1.00242212  0.56711048  1
  Ni  Ni165  1  0.94002224  0.37945868  0.61212163  1
  Ni  Ni166  1  0.31601361  0.27704812  0.04810209  1
  Ni  Ni167  1  0.54387427  0.47199393  0.75395849  1
  Ni  Ni168  1  0.20999817  0.43324694  0.62100165  1
  Ni  Ni169  1  0.37856331  0.60436373  0.37539851  1
  Ni  Ni170  1  0.18415026  1.00232754  0.08274269  1
  Ni  Ni171  1  0.68870523  0.44476600  0.64939230  1
  Ni  Ni172  1  0.32913107  0.18583440  0.70654522  1
  Ni  Ni173  1  0.79346751  0.58105206  0.78117181  1
  Ni  Ni174  1  0.09421530  0.43649236  0.13489715  1
  Ni  Ni175  1  0.13747106  0.49362703  0.29225388  1
  Ni  Ni176  1  0.08676658  0.08545241  0.31675421  1
  Ni  Ni177  1  0.03649299  0.96439878  0.51833640  1
  Ni  Ni178  1  0.60451245  0.12681342  0.30731425  1
  Ni  Ni179  1  0.07383823  0.28601880  0.22467571  1
  Ni  Ni180  1  0.57925821  0.89612359  0.45120827  1
  Ni  Ni181  1  0.84788279  0.92549910  0.33838395  1
  Ni  Ni182  1  0.35543085  0.20244295  0.20862250  1
  Ni  Ni183  1  0.89031088  0.41671817  0.44741723  1
  Ni  Ni184  1  0.58452196  0.75766805  0.94906502  1
  Ni  Ni185  1  0.55053156  0.16630537  0.49488569  1
  Ni  Ni186  1  0.47585779  0.07009192  0.01193682  1
  Ni  Ni187  1  0.38032839  0.45428326  0.44358887  1
  Ni  Ni188  1  0.35862801  0.55505685  0.94813436  1
  Ni  Ni189  1  0.37160174  0.03945392  0.77253088  1
  Ni  Ni190  1  0.91078806  0.63269114  0.50647691  1
  Ni  Ni191  1  0.59132227  0.38503316  0.16799210  1
  Ni  Ni192  1  0.67066711  0.75589796  0.73037613  1
  Ni  Ni193  1  0.72270404  0.02089622  0.12784525  1
  Ni  Ni194  1  0.62066914  0.30951574  0.53881140  1
  Ni  Ni195  1  0.20426653  -0.01451988  0.24363350  1
  Ni  Ni196  1  0.45876321  0.88076727  0.95911357  1
  Ni  Ni197  1  0.93292590  0.07294889  0.29184584  1
  Ni  Ni198  1  0.68035868  0.15846109  0.60510658  1
  Ni  Ni199  1  0.68397172  0.29764560  0.06409251  1
  Ni  Ni200  1  0.77084089  0.73254684  0.03150047  1
  Ni  Ni201  1  0.60660750  0.00817866  0.57242486  1
  Ni  Ni202  1  0.32296120  0.91998054  0.44798111  1
  Ni  Ni203  1  0.21246978  0.16307758  0.53283220  1
  Ni  Ni204  1  0.56946760  0.55660529  0.18993450  1
  Ni  Ni205  1  0.34935824  0.84885167  0.59186969  1
  Ni  Ni206  1  0.83061405  0.16380496  0.54156374  1
  Ni  Ni207  1  0.57549959  0.94804379  0.15376639  1
  Ni  Ni208  1  0.57600117  0.94431535  0.71695805  1
  Ni  Ni209  1  0.89651503  0.82775618  0.08651748  1
  Ni  Ni210  1  0.27850131  0.28375868  0.43845885  1
  Ni  Ni211  1  0.66032630  0.75205659  0.56764924  1
  Ni  Ni212  1  0.48901056  0.60948350  0.66259829  1
  Ni  Ni213  1  0.49078744  0.81017608  0.80822238  1
  Ni  Ni214  1  0.30307150  0.49647586  0.26361118  1
  Ni  Ni215  1  0.55915162  0.38975682  0.95376934  1
