# generated using pymatgen
data_Ti2CoNi
_symmetry_space_group_name_H-M   'P 1'
_cell_length_a   14.61176152
_cell_length_b   14.54223344
_cell_length_c   14.57329181
_cell_angle_alpha   90.00902164
_cell_angle_beta   89.98608073
_cell_angle_gamma   89.91691060
_symmetry_Int_Tables_number   1
_chemical_formula_structural   Ti2CoNi
_chemical_formula_sum   'Ti108 Co54 Ni54'
_cell_volume   3096.64110113
_cell_formula_units_Z   54
loop_
 _symmetry_equiv_pos_site_id
 _symmetry_equiv_pos_as_xyz
  1  'x, y, z'
loop_
 _atom_site_type_symbol
 _atom_site_label
 _atom_site_symmetry_multiplicity
 _atom_site_fract_x
 _atom_site_fract_y
 _atom_site_fract_z
 _atom_site_occupancy
  Ti  Ti0  1  -0.04204098  -0.02874724  -0.00303282  1
  Ti  Ti1  1  -0.01636945  -0.10465233  0.29436998  1
  Ti  Ti2  1  0.00389832  0.04880515  0.65304498  1
  Ti  Ti3  1  0.08086540  0.34602563  -0.00474049  1
  Ti  Ti4  1  0.03012914  0.22032326  0.31564323  1
  Ti  Ti5  1  -0.02446412  0.38989012  0.72082772  1
  Ti  Ti6  1  0.05718280  0.71677473  -0.07460724  1
  Ti  Ti7  1  0.03943375  0.70825810  0.34480369  1
  Ti  Ti8  1  0.01687727  0.65852922  0.65741765  1
  Ti  Ti9  1  0.24777457  0.00542352  -0.04118896  1
  Ti  Ti10  1  0.41739167  0.01038744  0.31289770  1
  Ti  Ti11  1  0.30381419  0.06975914  0.63891061  1
  Ti  Ti12  1  0.32341549  0.41892348  -0.08134767  1
  Ti  Ti13  1  0.39662622  0.31570855  0.34245513  1
  Ti  Ti14  1  0.36795390  0.32245501  0.58356391  1
  Ti  Ti15  1  0.31442775  0.64205663  0.11386944  1
  Ti  Ti16  1  0.35142268  0.62589362  0.33935420  1
  Ti  Ti17  1  0.32489393  0.74311579  0.64425889  1
  Ti  Ti18  1  0.69177823  0.01925922  0.10500825  1
  Ti  Ti19  1  0.67218735  0.04362010  0.32855311  1
  Ti  Ti20  1  0.68176258  -0.03520346  0.67855510  1
  Ti  Ti21  1  0.68966126  0.39314716  -0.07398294  1
  Ti  Ti22  1  0.74140736  0.27003305  0.35988538  1
  Ti  Ti23  1  0.72244755  0.33818613  0.73354250  1
  Ti  Ti24  1  0.57716493  0.66677584  -0.07664815  1
  Ti  Ti25  1  0.62868428  0.69627256  0.36882891  1
  Ti  Ti26  1  0.65253271  0.63127881  0.60479940  1
  Ti  Ti27  1  0.02255042  0.13507265  0.12471337  1
  Ti  Ti28  1  -0.03036427  0.17217285  0.50209359  1
  Ti  Ti29  1  0.07733675  0.20161588  0.83048082  1
  Ti  Ti30  1  -0.03155293  0.49154946  0.13186931  1
  Ti  Ti31  1  0.08010940  0.55121448  0.46960922  1
  Ti  Ti32  1  -0.02420412  0.50547206  0.91293460  1
  Ti  Ti33  1  -0.02121327  0.80667654  0.08751806  1
  Ti  Ti34  1  0.03709978  0.90763734  0.50754086  1
  Ti  Ti35  1  -0.00675599  0.91667207  0.82199147  1
  Ti  Ti36  1  0.36165938  0.18112072  0.12395286  1
  Ti  Ti37  1  0.36366921  0.13764828  0.46357075  1
  Ti  Ti38  1  0.36477331  0.22473208  0.88189513  1
  Ti  Ti39  1  0.27070992  0.46155151  0.23376332  1
  Ti  Ti40  1  0.28150491  0.51409248  0.49571820  1
  Ti  Ti41  1  0.39001683  0.54054877  0.78965045  1
  Ti  Ti42  1  0.28689989  0.87509700  0.20925789  1
  Ti  Ti43  1  0.34648555  0.93180536  0.51275137  1
  Ti  Ti44  1  0.24258328  0.83273609  0.86452718  1
  Ti  Ti45  1  0.64075098  0.16853510  0.18853738  1
  Ti  Ti46  1  0.65913235  0.15480272  0.50479329  1
  Ti  Ti47  1  0.70051861  0.21218385  0.86941545  1
  Ti  Ti48  1  0.68163734  0.47975534  0.17523451  1
  Ti  Ti49  1  0.68573025  0.41004041  0.51206141  1
  Ti  Ti50  1  0.68527327  0.54058930  0.80744466  1
  Ti  Ti51  1  0.67682427  0.86120509  0.22565744  1
  Ti  Ti52  1  0.69897335  0.86713225  0.43411277  1
  Ti  Ti53  1  0.67185146  0.82784438  0.84204392  1
  Ti  Ti54  1  0.11578728  -0.04288779  0.11213038  1
  Ti  Ti55  1  0.15964455  0.10973938  0.48728382  1
  Ti  Ti56  1  0.16096783  -0.00424644  0.78154476  1
  Ti  Ti57  1  0.20490592  0.27388842  0.21672317  1
  Ti  Ti58  1  0.12754021  0.31335471  0.45471557  1
  Ti  Ti59  1  0.23643344  0.35297805  0.74499737  1
  Ti  Ti60  1  0.13275787  0.60220300  0.18514896  1
  Ti  Ti61  1  0.21681717  0.69830552  0.44016930  1
  Ti  Ti62  1  0.20201617  0.66731079  0.78054239  1
  Ti  Ti63  1  0.43207419  -0.01336755  0.08683233  1
  Ti  Ti64  1  0.54532179  -0.07308969  0.53578569  1
  Ti  Ti65  1  0.52572689  0.00491937  0.88898418  1
  Ti  Ti66  1  0.59075208  0.34249590  0.08635341  1
  Ti  Ti67  1  0.49974294  0.42760809  0.49097554  1
  Ti  Ti68  1  0.51259972  0.34892662  0.88849877  1
  Ti  Ti69  1  0.52873357  0.63669344  0.13515613  1
  Ti  Ti70  1  0.45880666  0.62193647  0.51502403  1
  Ti  Ti71  1  0.41836736  0.73220702  0.84514322  1
  Ti  Ti72  1  0.86573661  0.00722710  0.17261278  1
  Ti  Ti73  1  0.83657742  -0.09172549  0.56070552  1
  Ti  Ti74  1  0.78723183  -0.02317542  0.86808014  1
  Ti  Ti75  1  0.88935312  0.30985948  0.18948530  1
  Ti  Ti76  1  0.81617414  0.27179723  0.57205942  1
  Ti  Ti77  1  0.90330416  0.28507337  0.85318441  1
  Ti  Ti78  1  0.78349440  0.69443336  0.11857427  1
  Ti  Ti79  1  0.89613931  0.69169081  0.52913762  1
  Ti  Ti80  1  0.85789877  0.64387957  0.82797645  1
  Ti  Ti81  1  0.18576970  0.17648806  0.02913063  1
  Ti  Ti82  1  0.16714084  0.07953394  0.26239665  1
  Ti  Ti83  1  0.09459936  0.26865760  0.63582391  1
  Ti  Ti84  1  0.15218218  0.53888979  -0.02792483  1
  Ti  Ti85  1  0.08194847  0.41914355  0.28832048  1
  Ti  Ti86  1  0.12374349  0.50490719  0.66781103  1
  Ti  Ti87  1  0.17605331  0.76024431  0.06418146  1
  Ti  Ti88  1  0.17621648  0.88341764  0.37420371  1
  Ti  Ti89  1  0.12793936  0.82379980  0.68369957  1
  Ti  Ti90  1  0.53521749  0.17157970  0.00598808  1
  Ti  Ti91  1  0.52842622  0.17461148  0.33528975  1
  Ti  Ti92  1  0.46311563  0.17693368  0.69646724  1
  Ti  Ti93  1  0.47200739  0.47978412  0.04392173  1
  Ti  Ti94  1  0.54664898  0.52781625  0.31980078  1
  Ti  Ti95  1  0.55062331  0.42905563  0.70315857  1
  Ti  Ti96  1  0.42900288  0.78349307  0.05098356  1
  Ti  Ti97  1  0.46315338  0.79542045  0.36699771  1
  Ti  Ti98  1  0.52316303  0.77655523  0.66776943  1
  Ti  Ti99  1  0.84287641  0.11710026  -0.00904351  1
  Ti  Ti100  1  0.85925486  0.10922055  0.35845276  1
  Ti  Ti101  1  0.81581261  0.12717401  0.73989660  1
  Ti  Ti102  1  0.80310661  0.52833864  -0.00661865  1
  Ti  Ti103  1  0.75806836  0.51823948  0.35402387  1
  Ti  Ti104  1  0.80838915  0.48568468  0.64472459  1
  Ti  Ti105  1  0.79248202  0.85953273  0.03185242  1
  Ti  Ti106  1  0.82649063  0.71842542  0.32698536  1
  Ti  Ti107  1  0.82909333  0.79849933  0.72696455  1
  Co  Co108  1  0.69266419  0.21802041  0.04677325  1
  Co  Co109  1  0.56613938  0.89197490  0.10282888  1
  Co  Co110  1  0.98951161  0.06068049  0.26150715  1
  Co  Co111  1  0.48175295  0.21511665  0.51887350  1
  Co  Co112  1  0.20793352  0.29460720  0.90530545  1
  Co  Co113  1  0.55643634  0.01762257  0.21384930  1
  Co  Co114  1  0.05304192  0.30099165  0.15791247  1
  Co  Co115  1  -0.03676432  0.34026487  0.56119133  1
  Co  Co116  1  0.68716134  0.81146292  0.62326803  1
  Co  Co117  1  0.22483222  0.13699102  0.85263961  1
  Co  Co118  1  0.78172660  0.57276088  0.50941891  1
  Co  Co119  1  0.38244418  0.85791247  0.75773731  1
  Co  Co120  1  0.61955756  0.55722471  0.46496793  1
  Co  Co121  1  0.51613687  0.05590222  0.44702841  1
  Co  Co122  1  0.89216980  0.42908294  0.30360063  1
  Co  Co123  1  -0.00329401  0.41559217  0.42600013  1
  Co  Co124  1  0.84189941  0.10217953  0.57892107  1
  Co  Co125  1  0.91333029  0.56937546  0.41583917  1
  Co  Co126  1  -0.00078954  0.56035860  0.28663834  1
  Co  Co127  1  0.24388958  0.22490268  0.56841523  1
  Co  Co128  1  0.53589740  0.89248235  0.77824512  1
  Co  Co129  1  0.81659309  0.27709396  0.98000921  1
  Co  Co130  1  0.11232135  0.88815402  0.95972973  1
  Co  Co131  1  0.40859779  0.34678938  0.75528201  1
  Co  Co132  1  0.15380881  0.98638677  0.58985400  1
  Co  Co133  1  0.77140920  0.39059898  0.07758128  1
  Co  Co134  1  0.45533012  0.88380869  0.21647660  1
  Co  Co135  1  0.56638156  0.76329816  0.50839456  1
  Co  Co136  1  0.52699708  0.83363756  0.93670923  1
  Co  Co137  1  0.96547064  0.23348007  0.02167449  1
  Co  Co138  1  0.56310789  0.91302315  0.34968948  1
  Co  Co139  1  0.63947820  0.76299256  0.05133122  1
  Co  Co140  1  0.39476304  0.47597044  0.37911980  1
  Co  Co141  1  0.95284056  0.51315165  0.57010458  1
  Co  Co142  1  0.57367068  0.25599696  0.77805530  1
  Co  Co143  1  0.06815121  0.58433181  0.81019774  1
  Co  Co144  1  0.81935765  0.16233685  0.15671605  1
  Co  Co145  1  0.55719380  0.75874826  0.22238490  1
  Co  Co146  1  0.93611524  0.54186254  0.73079974  1
  Co  Co147  1  0.18153450  0.56704117  0.33989056  1
  Co  Co148  1  0.28289159  0.87329220  0.04523785  1
  Co  Co149  1  0.24637786  0.39358819  0.37808492  1
  Co  Co150  1  0.91854012  0.39200325  1.01297495  1
  Co  Co151  1  0.74226414  0.72860614  0.49376080  1
  Co  Co152  1  0.09336416  0.40081586  0.83571286  1
  Co  Co153  1  0.38554398  0.90467781  0.91911940  1
  Co  Co154  1  0.41657424  0.61104007  0.97048854  1
  Co  Co155  1  0.44568042  0.97254490  0.66269696  1
  Co  Co156  1  0.03470825  0.63172853  0.06416030  1
  Co  Co157  1  0.84195496  0.42297810  0.47016914  1
  Co  Co158  1  0.89789335  0.28430045  0.39809410  1
  Co  Co159  1  0.21794837  0.50604121  0.81541932  1
  Co  Co160  1  0.30117241  0.20730251  0.72978123  1
  Co  Co161  1  0.26618162  0.90974297  0.67606285  1
  Ni  Ni162  1  0.22353350  0.72240690  0.26851377  1
  Ni  Ni163  1  0.89891348  0.66935371  -0.00226284  1
  Ni  Ni164  1  0.81549334  0.93831825  0.33259912  1
  Ni  Ni165  1  0.58490462  0.29638903  0.43426763  1
  Ni  Ni166  1  0.42128020  0.49437322  0.62455688  1
  Ni  Ni167  1  0.66141422  0.59103428  0.04662986  1
  Ni  Ni168  1  0.34550582  0.02349906  0.80074384  1
  Ni  Ni169  1  0.08706210  0.06209945  -0.06271553  1
  Ni  Ni170  1  0.17333203  0.66681329  0.59815520  1
  Ni  Ni171  1  0.88723773  0.81060430  0.90569801  1
  Ni  Ni172  1  0.14498922  0.43677048  0.12423294  1
  Ni  Ni173  1  0.56137796  0.08008668  0.61406374  1
  Ni  Ni174  1  0.20909479  0.83397804  0.53820996  1
  Ni  Ni175  1  0.58801788  0.30212760  0.60537875  1
  Ni  Ni176  1  0.86712892  0.97142299  0.71822251  1
  Ni  Ni177  1  0.61066199  0.37659812  0.30072160  1
  Ni  Ni178  1  0.74550666  0.69979669  0.93714241  1
  Ni  Ni179  1  0.39240350  0.73492308  0.22119379  1
  Ni  Ni180  1  0.35986947  0.76507926  0.48454015  1
  Ni  Ni181  1  0.75158802  0.02193652  0.47549348  1
  Ni  Ni182  1  0.69075729  0.69396353  0.75570248  1
  Ni  Ni183  1  0.49395516  0.25135309  0.18861603  1
  Ni  Ni184  1  0.26555195  1.02391462  0.37883120  1
  Ni  Ni185  1  0.83180138  0.44750077  0.83151410  1
  Ni  Ni186  1  0.94304252  0.21483096  0.68228953  1
  Ni  Ni187  1  0.15463555  0.12856500  0.68460461  1
  Ni  Ni188  1  0.94501483  0.69523063  0.20284023  1
  Ni  Ni189  1  0.42054781  0.53393378  0.21072205  1
  Ni  Ni190  1  0.06211618  0.74593254  0.50676121  1
  Ni  Ni191  1  -0.00384772  0.75190306  0.78465265  1
  Ni  Ni192  1  0.96864123  0.85071766  0.65265678  1
  Ni  Ni193  1  0.94927227  0.08414400  0.84064318  1
  Ni  Ni194  1  0.72040968  0.30902193  0.20147758  1
  Ni  Ni195  1  0.66958428  0.07909276  0.95253647  1
  Ni  Ni196  1  0.26695437  0.04205740  0.12997301  1
  Ni  Ni197  1  0.68286189  0.18287533  0.66701529  1
  Ni  Ni198  1  0.10305774  0.81308680  0.21300857  1
  Ni  Ni199  1  0.20853719  0.39156458  0.57711847  1
  Ni  Ni200  1  0.63048055  0.07924424  0.78485284  1
  Ni  Ni201  1  0.84778920  0.83755064  0.19913986  1
  Ni  Ni202  1  0.53100988  0.61937674  0.73417138  1
  Ni  Ni203  1  0.26766835  0.32729872  0.06661356  1
  Ni  Ni204  1  0.39407638  0.37398962  0.17178751  1
  Ni  Ni205  1  0.53165880  0.51235383  0.87583760  1
  Ni  Ni206  1  0.89921521  0.82775345  0.42788275  1
  Ni  Ni207  1  0.39171150  0.08450760  -0.04424975  1
  Ni  Ni208  1  0.29111467  0.49467862  0.05993694  1
  Ni  Ni209  1  0.05309486  0.02813017  0.39799603  1
  Ni  Ni210  1  0.65463618  0.92178220  0.97487936  1
  Ni  Ni211  1  0.26489660  0.66264021  0.93884029  1
  Ni  Ni212  1  0.68172646  0.63641940  0.22883134  1
  Ni  Ni213  1  0.28542243  0.57166949  0.66252282  1
  Ni  Ni214  1  0.24318132  0.21444150  0.36862911  1
  Ni  Ni215  1  0.42992387  0.30560726  1.02799163  1
