# generated using pymatgen
data_Ti2CoNi
_symmetry_space_group_name_H-M   'P 1'
_cell_length_a   14.63795259
_cell_length_b   14.57821134
_cell_length_c   14.62611238
_cell_angle_alpha   89.95866666
_cell_angle_beta   89.88612013
_cell_angle_gamma   90.13251724
_symmetry_Int_Tables_number   1
_chemical_formula_structural   Ti2CoNi
_chemical_formula_sum   'Ti108 Co54 Ni54'
_cell_volume   3121.12634869
_cell_formula_units_Z   54
loop_
 _symmetry_equiv_pos_site_id
 _symmetry_equiv_pos_as_xyz
  1  'x, y, z'
loop_
 _atom_site_type_symbol
 _atom_site_label
 _atom_site_symmetry_multiplicity
 _atom_site_fract_x
 _atom_site_fract_y
 _atom_site_fract_z
 _atom_site_occupancy
  Ti  Ti0  1  -0.03876975  0.01456342  0.07477347  1
  Ti  Ti1  1  0.05118435  -0.02534275  0.36517229  1
  Ti  Ti2  1  0.01824693  -0.04617074  0.61946680  1
  Ti  Ti3  1  -0.08011267  0.32502168  -0.04892345  1
  Ti  Ti4  1  0.01883286  0.34137684  0.29082781  1
  Ti  Ti5  1  -0.02169025  0.35965327  0.74799239  1
  Ti  Ti6  1  -0.02018201  0.67440811  0.03410650  1
  Ti  Ti7  1  -0.00895999  0.63249304  0.36138163  1
  Ti  Ti8  1  0.00458939  0.68541600  0.64844170  1
  Ti  Ti9  1  0.42574895  -0.01191579  0.01954421  1
  Ti  Ti10  1  0.28341066  0.01035580  0.36831236  1
  Ti  Ti11  1  0.32835054  -0.00486042  0.69610363  1
  Ti  Ti12  1  0.32612072  0.44603721  0.04945468  1
  Ti  Ti13  1  0.33924594  0.36961688  0.23890201  1
  Ti  Ti14  1  0.32150978  0.29098194  0.63271209  1
  Ti  Ti15  1  0.32979069  0.64392039  -0.09988956  1
  Ti  Ti16  1  0.30639242  0.72456231  0.34905004  1
  Ti  Ti17  1  0.34433948  0.78060605  0.70366855  1
  Ti  Ti18  1  0.62326150  -0.01477409  0.01327296  1
  Ti  Ti19  1  0.65035081  0.00331526  0.35195445  1
  Ti  Ti20  1  0.69353242  0.07482793  0.67626621  1
  Ti  Ti21  1  0.61496443  0.33361624  -0.01533014  1
  Ti  Ti22  1  0.67180801  0.31443568  0.35422075  1
  Ti  Ti23  1  0.74079018  0.35441254  0.66143616  1
  Ti  Ti24  1  0.71394008  0.70182485  -0.05987163  1
  Ti  Ti25  1  0.69957272  0.69269358  0.33786285  1
  Ti  Ti26  1  0.68565645  0.71130052  0.73793224  1
  Ti  Ti27  1  0.09703632  0.15855879  0.14056183  1
  Ti  Ti28  1  0.01333237  0.12768552  0.50336763  1
  Ti  Ti29  1  -0.00657234  0.16440926  0.80720231  1
  Ti  Ti30  1  0.05806359  0.52372969  0.12761768  1
  Ti  Ti31  1  -0.06692640  0.45021503  0.44985230  1
  Ti  Ti32  1  0.00913966  0.51607483  0.90313427  1
  Ti  Ti33  1  -0.00706617  0.77951721  0.21939901  1
  Ti  Ti34  1  -0.10144782  0.82931193  0.52121130  1
  Ti  Ti35  1  -0.05539991  0.81930964  0.79425044  1
  Ti  Ti36  1  0.29058231  0.16680795  0.23270594  1
  Ti  Ti37  1  0.36853338  0.12849309  0.51513022  1
  Ti  Ti38  1  0.35823645  0.08919665  0.86163931  1
  Ti  Ti39  1  0.34916569  0.59888940  0.17820336  1
  Ti  Ti40  1  0.36940137  0.47235797  0.54847496  1
  Ti  Ti41  1  0.28888561  0.43190601  0.75406979  1
  Ti  Ti42  1  0.42038294  0.79475695  0.19315373  1
  Ti  Ti43  1  0.36758141  0.85390813  0.49654597  1
  Ti  Ti44  1  0.32569242  0.87006075  0.87743923  1
  Ti  Ti45  1  0.68094503  0.17552029  0.08790877  1
  Ti  Ti46  1  0.57395203  0.16067292  0.46626902  1
  Ti  Ti47  1  0.68351932  0.21057587  0.82363701  1
  Ti  Ti48  1  0.65256552  0.43291821  0.14354585  1
  Ti  Ti49  1  0.73062126  0.48192871  0.49909496  1
  Ti  Ti50  1  0.55508720  0.46319028  0.82163384  1
  Ti  Ti51  1  0.67312896  0.77991167  0.11094445  1
  Ti  Ti52  1  0.70472984  0.76342332  0.54870028  1
  Ti  Ti53  1  0.64442837  0.88332954  0.82753348  1
  Ti  Ti54  1  0.24140343  0.01324598  0.12504458  1
  Ti  Ti55  1  0.19125097  0.01329494  0.54289390  1
  Ti  Ti56  1  0.09373439  -0.01901353  0.83860857  1
  Ti  Ti57  1  0.16117744  0.34559387  0.15283256  1
  Ti  Ti58  1  0.09554986  0.36439261  0.57275429  1
  Ti  Ti59  1  0.12301406  0.30668970  0.89504569  1
  Ti  Ti60  1  0.15709728  0.65609073  0.24323138  1
  Ti  Ti61  1  0.14587260  0.65235171  0.47205553  1
  Ti  Ti62  1  0.16660982  0.72058599  0.81021400  1
  Ti  Ti63  1  0.44900672  0.01014984  0.21564584  1
  Ti  Ti64  1  0.50145543  -0.02201394  0.46036326  1
  Ti  Ti65  1  0.52944858  0.08938792  0.77604716  1
  Ti  Ti66  1  0.45147072  0.29079946  0.09506303  1
  Ti  Ti67  1  0.56266957  0.37365400  0.50345686  1
  Ti  Ti68  1  0.43678940  0.28755917  0.80494215  1
  Ti  Ti69  1  0.54673663  0.59117235  0.21965505  1
  Ti  Ti70  1  0.56013584  0.61694034  0.53531642  1
  Ti  Ti71  1  0.52847668  0.66176450  0.87379530  1
  Ti  Ti72  1  0.79374433  0.04482014  0.20864266  1
  Ti  Ti73  1  0.77446743  0.05304341  0.50569575  1
  Ti  Ti74  1  0.83297928  -0.03701716  0.88610423  1
  Ti  Ti75  1  0.85081659  0.37228671  0.17988428  1
  Ti  Ti76  1  0.81176849  0.27834187  0.48593909  1
  Ti  Ti77  1  0.73620274  0.40355931  0.86695122  1
  Ti  Ti78  1  0.86349164  0.60914901  0.20551313  1
  Ti  Ti79  1  0.86938600  0.64282509  0.52453419  1
  Ti  Ti80  1  0.85143855  0.62849866  0.78548530  1
  Ti  Ti81  1  0.21583721  0.16669163  -0.02867161  1
  Ti  Ti82  1  0.18639881  0.27048742  0.36872960  1
  Ti  Ti83  1  0.15332333  0.25862148  0.71946676  1
  Ti  Ti84  1  0.18685979  0.50343788  -0.05550739  1
  Ti  Ti85  1  0.23886004  0.48165812  0.35624792  1
  Ti  Ti86  1  0.15690292  0.55270033  0.67091791  1
  Ti  Ti87  1  0.13346174  0.86949074  0.01863344  1
  Ti  Ti88  1  0.18579891  0.85721714  0.25580788  1
  Ti  Ti89  1  0.19622144  0.83503436  0.60009130  1
  Ti  Ti90  1  0.52208476  0.15882764  -0.04431867  1
  Ti  Ti91  1  0.58732304  0.15443062  0.27127673  1
  Ti  Ti92  1  0.53093740  0.23421750  0.63807861  1
  Ti  Ti93  1  0.51731086  0.51598570  0.00438469  1
  Ti  Ti94  1  0.51613577  0.40485385  0.29622863  1
  Ti  Ti95  1  0.43661591  0.56236855  0.71535969  1
  Ti  Ti96  1  0.42929542  0.77994209  0.00586739  1
  Ti  Ti97  1  0.53056752  0.81716390  0.35403202  1
  Ti  Ti98  1  0.52199466  0.76623186  0.66754088  1
  Ti  Ti99  1  0.87707329  0.18238293  0.08709391  1
  Ti  Ti100  1  0.88360394  0.18869254  0.32449189  1
  Ti  Ti101  1  0.84960483  0.19929058  0.66121572  1
  Ti  Ti102  1  0.82758562  0.55042168  -0.03137738  1
  Ti  Ti103  1  0.71541857  0.49738637  0.29959313  1
  Ti  Ti104  1  0.87484038  0.49691363  0.64095033  1
  Ti  Ti105  1  0.85563873  0.86624655  0.08488080  1
  Ti  Ti106  1  0.83215335  0.89388940  0.34516944  1
  Ti  Ti107  1  0.79415473  0.91286727  0.67560939  1
  Co  Co108  1  0.21177339  0.85868797  0.42574908  1
  Co  Co109  1  0.70160804  0.61749777  0.16456631  1
  Co  Co110  1  0.58703803  0.59812110  0.71520179  1
  Co  Co111  1  0.82415156  0.10193955  0.79271245  1
  Co  Co112  1  0.78562699  0.04441844  0.03592034  1
  Co  Co113  1  0.52339513  0.12568823  0.11413767  1
  Co  Co114  1  0.67578071  0.57268161  0.85570971  1
  Co  Co115  1  0.81616746  0.77194391  0.22020919  1
  Co  Co116  1  0.10043281  0.04204239  0.00130585  1
  Co  Co117  1  0.91847177  0.34734651  0.58983732  1
  Co  Co118  1  0.67703799  0.51826513  0.00579023  1
  Co  Co119  1  0.72643400  0.50179143  0.72400875  1
  Co  Co120  1  0.05493616  0.79431301  0.53412553  1
  Co  Co121  1  0.94663857  0.99278959  0.76924553  1
  Co  Co122  1  0.83627155  0.74552559  0.66225105  1
  Co  Co123  1  0.72596913  0.60793984  0.60529216  1
  Co  Co124  1  0.28060052  0.72292054  0.52606799  1
  Co  Co125  1  0.54855650  0.81635584  0.51648548  1
  Co  Co126  1  0.25249723  0.34671662  0.49003037  1
  Co  Co127  1  0.39729781  0.15083016  0.70202874  1
  Co  Co128  1  0.76515898  0.23583404  0.96109400  1
  Co  Co129  1  0.09744836  0.42085702  0.42529372  1
  Co  Co130  1  0.58673893  0.29211176  0.18664856  1
  Co  Co131  1  0.38448921  0.39990131  0.40037409  1
  Co  Co132  1  0.03394853  0.19669284  0.99302481  1
  Co  Co133  1  0.11839451  0.65387559  0.95229177  1
  Co  Co134  1  0.46313397  0.45954888  0.14869801  1
  Co  Co135  1  0.46325012  0.64387636  0.07160997  1
  Co  Co136  1  0.40407391  0.65851288  0.59447279  1
  Co  Co137  1  0.17575234  0.11735311  0.42650161  1
  Co  Co138  1  0.43746279  0.21197862  0.23232891  1
  Co  Co139  1  0.20172823  0.49454957  0.52920263  1
  Co  Co140  1  0.94664040  0.07380178  0.92516190  1
  Co  Co141  1  0.36721781  0.22976997  0.95584398  1
  Co  Co142  1  0.28221648  0.23068054  0.80608524  1
  Co  Co143  1  0.11408967  0.73053357  0.10271150  1
  Co  Co144  1  0.44194354  0.70212280  0.44590871  1
  Co  Co145  1  0.87108455  0.45904206  0.81210789  1
  Co  Co146  1  0.31581041  0.59052803  0.44786336  1
  Co  Co147  1  0.24443848  0.75051626  0.98029329  1
  Co  Co148  1  0.92935705  0.48267381  0.27681339  1
  Co  Co149  1  -0.01627094  0.90788791  0.94379279  1
  Co  Co150  1  0.88422023  0.04959742  0.63062182  1
  Co  Co151  1  0.42105150  0.29240566  0.51314988  1
  Co  Co152  1  0.57591761  0.74207537  0.22124923  1
  Co  Co153  1  0.78608520  0.80259490  0.81837924  1
  Co  Co154  1  0.45869535  0.39271459  0.66653360  1
  Co  Co155  1  0.60228056  0.46822644  0.62496070  1
  Co  Co156  1  0.28057824  0.26391456  0.09409557  1
  Co  Co157  1  0.85646361  0.73464945  0.37926956  1
  Co  Co158  1  0.36070523  0.12022914  0.07633590  1
  Co  Co159  1  0.48790792  0.26478763  0.37163499  1
  Co  Co160  1  0.22466673  0.60807167  0.06448250  1
  Co  Co161  1  0.92708529  0.92624077  0.22365127  1
  Ni  Ni162  1  0.92114532  0.98710836  0.47537862  1
  Ni  Ni163  1  0.62984159  0.01312798  0.17887296  1
  Ni  Ni164  1  0.44735979  0.91858565  0.61908414  1
  Ni  Ni165  1  0.81849315  0.69652028  0.07169121  1
  Ni  Ni166  1  0.49386384  0.96235678  0.87439968  1
  Ni  Ni167  1  0.77627516  0.38178973  0.03366809  1
  Ni  Ni168  1  0.92458069  0.46345611  0.06110865  1
  Ni  Ni169  1  0.15623963  0.06466862  0.27033300  1
  Ni  Ni170  1  0.68597309  0.85866010  0.42067961  1
  Ni  Ni171  1  0.57983251  0.94460016  0.70165994  1
  Ni  Ni172  1  0.73620672  0.86746570  0.97341605  1
  Ni  Ni173  1  0.60339988  0.33437311  0.74504417  1
  Ni  Ni174  1  0.51715533  0.06810967  0.60451755  1
  Ni  Ni175  1  1.00256103  0.53976745  0.73922131  1
  Ni  Ni176  1  0.75372698  0.23670731  0.22888536  1
  Ni  Ni177  1  0.38571905  0.49598369  0.87536392  1
  Ni  Ni178  1  0.68594485  0.87303431  0.25081377  1
  Ni  Ni179  1  0.24792267  0.13624992  0.64642515  1
  Ni  Ni180  1  0.07562918  0.82296379  0.70982974  1
  Ni  Ni181  1  0.05036473  0.17265902  0.33766342  1
  Ni  Ni182  1  0.58213905  0.51630646  0.40414653  1
  Ni  Ni183  1  0.21235811  0.89051199  0.76321228  1
  Ni  Ni184  1  0.69040818  0.20970126  0.57106068  1
  Ni  Ni185  1  0.43732468  0.10154484  0.35829460  1
  Ni  Ni186  1  0.84220174  0.27362054  0.81420431  1
  Ni  Ni187  1  0.54067345  0.88570767  0.12550870  1
  Ni  Ni188  1  0.28386434  0.36155219  0.90758263  1
  Ni  Ni189  1  0.47227001  0.80761038  0.82384637  1
  Ni  Ni190  1  0.03065005  0.53820760  0.55355282  1
  Ni  Ni191  1  0.65367184  0.94462062  0.55913144  1
  Ni  Ni192  1  0.24299134  -0.00480383  0.94065939  1
  Ni  Ni193  1  0.21592697  0.49724339  0.18296544  1
  Ni  Ni194  1  0.97467873  0.08167164  0.22819229  1
  Ni  Ni195  1  0.98449942  0.28339542  0.44852122  1
  Ni  Ni196  1  0.26930105  0.75038602  0.15077101  1
  Ni  Ni197  1  0.08616059  0.50802324  0.28964642  1
  Ni  Ni198  1  0.09990379  0.08117988  0.69153352  1
  Ni  Ni199  1  0.07003225  0.78656581  0.36928782  1
  Ni  Ni200  1  0.01290839  0.21813538  0.63865936  1
  Ni  Ni201  1  0.57973004  0.81702324  0.96436853  1
  Ni  Ni202  1  0.30508083  0.88114289  0.06067188  1
  Ni  Ni203  1  0.08306812  0.95448650  0.17168743  1
  Ni  Ni204  1  0.28783343  0.62715555  0.72392340  1
  Ni  Ni205  1  0.12416356  0.43483495  0.78798280  1
  Ni  Ni206  1  0.83219602  0.57048830  0.38035258  1
  Ni  Ni207  1  0.37611365  0.88653959  0.32380088  1
  Ni  Ni208  1  0.88019423  0.76866719  0.93843618  1
  Ni  Ni209  1  0.67580549  0.04894667  0.86777931  1
  Ni  Ni210  1  0.72838282  0.15301123  0.37728008  1
  Ni  Ni211  1  0.83447944  0.36527527  0.34445988  1
  Ni  Ni212  1  0.06624472  0.38935447  0.01881289  1
  Ni  Ni213  1  0.41663913  0.54997891  0.32782997  1
  Ni  Ni214  1  0.45603462  0.36612926  0.94468237  1
  Ni  Ni215  1  0.99366391  0.29698637  0.12635957  1
