# generated using pymatgen
data_Ti2CoNi
_symmetry_space_group_name_H-M   'P 1'
_cell_length_a   14.61078964
_cell_length_b   14.63993330
_cell_length_c   14.72398023
_cell_angle_alpha   89.68423047
_cell_angle_beta   89.92342664
_cell_angle_gamma   90.19821268
_symmetry_Int_Tables_number   1
_chemical_formula_structural   Ti2CoNi
_chemical_formula_sum   'Ti108 Co54 Ni54'
_cell_volume   3149.40431678
_cell_formula_units_Z   54
loop_
 _symmetry_equiv_pos_site_id
 _symmetry_equiv_pos_as_xyz
  1  'x, y, z'
loop_
 _atom_site_type_symbol
 _atom_site_label
 _atom_site_symmetry_multiplicity
 _atom_site_fract_x
 _atom_site_fract_y
 _atom_site_fract_z
 _atom_site_occupancy
  Ti  Ti0  1  0.03090761  0.04753621  0.00312327  1
  Ti  Ti1  1  0.01548509  -0.11139269  0.32446000  1
  Ti  Ti2  1  -0.01656888  0.02033223  0.78359833  1
  Ti  Ti3  1  0.06238792  0.38288693  0.02056448  1
  Ti  Ti4  1  0.00498755  0.32034809  0.41205994  1
  Ti  Ti5  1  0.03230922  0.31146996  0.61568355  1
  Ti  Ti6  1  -0.01170711  0.61672387  -0.00706994  1
  Ti  Ti7  1  0.00515609  0.64362155  0.33035849  1
  Ti  Ti8  1  -0.03447455  0.69842046  0.66539015  1
  Ti  Ti9  1  0.32145402  -0.06668010  0.01381704  1
  Ti  Ti10  1  0.34797890  -0.00914540  0.27603143  1
  Ti  Ti11  1  0.28373076  -0.06241914  0.67463326  1
  Ti  Ti12  1  0.27708919  0.28884249  -0.02261590  1
  Ti  Ti13  1  0.43662199  0.35888059  0.33890988  1
  Ti  Ti14  1  0.33409526  0.34637192  0.71197285  1
  Ti  Ti15  1  0.32604101  0.65638005  0.06534669  1
  Ti  Ti16  1  0.26057562  0.65798313  0.29155452  1
  Ti  Ti17  1  0.35244523  0.76602019  0.64294603  1
  Ti  Ti18  1  0.71129308  0.01734719  -0.02509576  1
  Ti  Ti19  1  0.67508122  -0.03358507  0.30580229  1
  Ti  Ti20  1  0.71487267  0.06591271  0.62721408  1
  Ti  Ti21  1  0.72731406  0.38199327  0.02792332  1
  Ti  Ti22  1  0.66744398  0.34498496  0.30118591  1
  Ti  Ti23  1  0.67797513  0.32073050  0.62543735  1
  Ti  Ti24  1  0.65130165  0.57529269  0.00496123  1
  Ti  Ti25  1  0.63999091  0.68653016  0.35748355  1
  Ti  Ti26  1  0.57857947  0.68842590  0.67882774  1
  Ti  Ti27  1  -0.01357815  0.19946638  0.26910543  1
  Ti  Ti28  1  0.01138706  0.14293667  0.48398410  1
  Ti  Ti29  1  -0.02872409  0.21751998  0.92205025  1
  Ti  Ti30  1  -0.04011507  0.52524237  0.16733568  1
  Ti  Ti31  1  0.05695701  0.48543156  0.47269822  1
  Ti  Ti32  1  0.08123895  0.52665773  0.87031101  1
  Ti  Ti33  1  -0.00515562  0.85543767  0.12465993  1
  Ti  Ti34  1  0.05540906  0.81442921  0.51419113  1
  Ti  Ti35  1  -0.07168057  0.84271801  0.81891971  1
  Ti  Ti36  1  0.41918621  0.09335786  0.13867704  1
  Ti  Ti37  1  0.36379332  0.18447801  0.41953138  1
  Ti  Ti38  1  0.40115704  0.17153606  0.83640526  1
  Ti  Ti39  1  0.41999816  0.52523215  0.19699892  1
  Ti  Ti40  1  0.29849556  0.49261971  0.59019671  1
  Ti  Ti41  1  0.24546204  0.50556054  0.79134220  1
  Ti  Ti42  1  0.26892333  0.81282462  0.16961895  1
  Ti  Ti43  1  0.34321548  0.94548009  0.48205283  1
  Ti  Ti44  1  0.48636908  0.85112351  0.88778052  1
  Ti  Ti45  1  0.62179608  0.11393436  0.16330706  1
  Ti  Ti46  1  0.58691356  0.18562256  0.50847311  1
  Ti  Ti47  1  0.61488986  0.13396422  0.79175736  1
  Ti  Ti48  1  0.71968324  0.49771624  0.18483977  1
  Ti  Ti49  1  0.64448091  0.47391941  0.51541025  1
  Ti  Ti50  1  0.65741651  0.43929478  0.84857771  1
  Ti  Ti51  1  0.66763814  0.90275689  0.13309497  1
  Ti  Ti52  1  0.72331703  0.73706757  0.51888340  1
  Ti  Ti53  1  0.70233044  0.83327237  0.84455989  1
  Ti  Ti54  1  0.11381702  0.05219476  0.21802458  1
  Ti  Ti55  1  0.14192838  -0.00598220  0.52213788  1
  Ti  Ti56  1  0.18815600  -0.05142064  0.86764710  1
  Ti  Ti57  1  0.15618429  0.25392098  0.16440654  1
  Ti  Ti58  1  0.23823400  0.34282545  0.46245990  1
  Ti  Ti59  1  0.14227887  0.25967604  0.77975503  1
  Ti  Ti60  1  0.12945419  0.62033904  0.13520317  1
  Ti  Ti61  1  0.23564331  0.67829090  0.51142943  1
  Ti  Ti62  1  0.21457920  0.73050102  0.81330008  1
  Ti  Ti63  1  0.51311252  -0.02847025  0.03773346  1
  Ti  Ti64  1  0.57043460  -0.03151266  0.48828339  1
  Ti  Ti65  1  0.45960726  -0.00899540  0.75584401  1
  Ti  Ti66  1  0.48957360  0.31393057  0.15407004  1
  Ti  Ti67  1  0.45746802  0.35526991  0.52513434  1
  Ti  Ti68  1  0.48103055  0.34907715  0.84029739  1
  Ti  Ti69  1  0.57539458  0.62821870  0.19384756  1
  Ti  Ti70  1  0.46410754  0.76357657  0.48141506  1
  Ti  Ti71  1  0.43815227  0.67910415  0.82581775  1
  Ti  Ti72  1  0.85102223  -0.05438695  0.21355630  1
  Ti  Ti73  1  0.83945447  0.04651703  0.46744024  1
  Ti  Ti74  1  0.81629254  0.11835505  0.82534597  1
  Ti  Ti75  1  0.85700255  0.36713765  0.23298359  1
  Ti  Ti76  1  0.85655136  0.32056704  0.55677800  1
  Ti  Ti77  1  0.81328351  0.31604459  0.83656982  1
  Ti  Ti78  1  0.79885690  0.67182736  0.18837831  1
  Ti  Ti79  1  0.88339623  0.60709764  0.50435910  1
  Ti  Ti80  1  0.86294435  0.67637833  0.84291209  1
  Ti  Ti81  1  0.21802930  0.10624723  0.05405388  1
  Ti  Ti82  1  0.16505189  0.19023387  0.36919037  1
  Ti  Ti83  1  0.16215227  0.08028838  0.69888001  1
  Ti  Ti84  1  0.23545210  0.48516658  0.01098120  1
  Ti  Ti85  1  0.26807336  0.44706112  0.30281098  1
  Ti  Ti86  1  0.10795773  0.55690410  0.64583485  1
  Ti  Ti87  1  0.12860748  0.78381239  0.02187651  1
  Ti  Ti88  1  0.19800220  0.88782289  0.35273868  1
  Ti  Ti89  1  0.10362399  0.87919990  0.69871487  1
  Ti  Ti90  1  0.54184439  0.15233303  -0.02618092  1
  Ti  Ti91  1  0.52033013  0.08181157  0.33967486  1
  Ti  Ti92  1  0.47464099  0.21303472  0.66630082  1
  Ti  Ti93  1  0.46238237  0.52476428  -0.03015786  1
  Ti  Ti94  1  0.51048113  0.54258639  0.39688672  1
  Ti  Ti95  1  0.47932535  0.52120612  0.66793538  1
  Ti  Ti96  1  0.50628650  0.74535445  0.04373313  1
  Ti  Ti97  1  0.46919331  0.83974530  0.31079049  1
  Ti  Ti98  1  0.61484453  0.90591062  0.68268403  1
  Ti  Ti99  1  0.79515439  0.20344622  0.03527546  1
  Ti  Ti100  1  0.78297361  0.14490217  0.28842427  1
  Ti  Ti101  1  0.89950564  0.13823997  0.63783942  1
  Ti  Ti102  1  0.87028699  0.48512373  -0.09330969  1
  Ti  Ti103  1  0.83024226  0.44571098  0.41015367  1
  Ti  Ti104  1  0.81505461  0.50950863  0.71222340  1
  Ti  Ti105  1  0.79985903  0.81693363  0.01073793  1
  Ti  Ti106  1  0.82739453  0.85880825  0.39778304  1
  Ti  Ti107  1  0.79611803  0.81799665  0.66913959  1
  Co  Co108  1  0.28337703  0.28138496  0.29198903  1
  Co  Co109  1  0.83824269  0.95525940  0.87811032  1
  Co  Co110  1  0.26733730  0.12651152  0.23080683  1
  Co  Co111  1  0.26094921  0.37615007  0.14964440  1
  Co  Co112  1  0.84516320  0.97788133  0.70422274  1
  Co  Co113  1  0.26911032  0.09635321  0.53831531  1
  Co  Co114  1  -0.03245296  0.69206221  0.13311057  1
  Co  Co115  1  0.96955058  0.95071204  0.47009430  1
  Co  Co116  1  0.76468517  0.18630733  0.53064260  1
  Co  Co117  1  0.44049705  0.27697055  0.99353225  1
  Co  Co118  1  0.87403203  0.08377980  0.97893286  1
  Co  Co119  1  0.76752381  0.05106035  0.12912500  1
  Co  Co120  1  0.52884559  -0.02371414  0.21672539  1
  Co  Co121  1  0.88451883  0.94366459  0.04272637  1
  Co  Co122  1  0.39083155  0.41585286  0.06670192  1
  Co  Co123  1  0.73651316  0.58022826  0.87388103  1
  Co  Co124  1  0.33083262  0.24808082  0.57161671  1
  Co  Co125  1  0.36397183  0.13279179  -0.00513700  1
  Co  Co126  1  0.98544405  0.44699402  0.31273291  1
  Co  Co127  1  0.60407188  0.70672641  0.90407384  1
  Co  Co128  1  0.40258291  1.01240780  0.90313064  1
  Co  Co129  1  0.63123578  0.83977324  0.39576306  1
  Co  Co130  1  0.89346371  0.77355783  0.52080128  1
  Co  Co131  1  0.12596405  0.34828427  0.29928998  1
  Co  Co132  1  0.56606571  0.57552068  0.81940237  1
  Co  Co133  1  0.77991648  0.22743902  0.70642139  1
  Co  Co134  1  0.26529570  0.53591826  0.16337936  1
  Co  Co135  1  0.33440551  0.23782087  0.12505347  1
  Co  Co136  1  0.28838044  0.18710262  0.71921905  1
  Co  Co137  1  0.10243731  0.74658873  0.22756437  1
  Co  Co138  1  0.86264537  0.55459338  0.29830799  1
  Co  Co139  1  0.57404035  -0.00561032  0.88336399  1
  Co  Co140  1  1.00834493  0.01841364  0.61809016  1
  Co  Co141  1  0.58243545  0.79377748  0.21533175  1
  Co  Co142  1  0.81054775  0.68500852  0.37456712  1
  Co  Co143  1  0.13892977  0.89799925  0.19440936  1
  Co  Co144  1  0.24308300  1.04979364  0.38226055  1
  Co  Co145  1  0.12823565  0.22006397  0.97296520  1
  Co  Co146  1  0.45298701  0.92353116  0.59532433  1
  Co  Co147  1  0.56525456  0.37733837  0.97631919  1
  Co  Co148  1  0.69952848  0.53302097  0.34027000  1
  Co  Co149  1  0.62487728  0.85764930  -0.01768318  1
  Co  Co150  1  0.52841430  0.37037417  0.66897720  1
  Co  Co151  1  -0.04823936  0.87106858  0.64532378  1
  Co  Co152  1  0.58829112  0.81197416  0.55817754  1
  Co  Co153  1  0.87274010  0.22097919  0.40116615  1
  Co  Co154  1  0.12379290  0.45219627  0.15977826  1
  Co  Co155  1  0.54913212  0.06569204  0.63479452  1
  Co  Co156  1  0.44508715  0.08224933  0.51005345  1
  Co  Co157  1  0.22208547  0.84259363  0.54333298  1
  Co  Co158  1  0.04883676  0.65066492  0.51170359  1
  Co  Co159  1  0.08145572  0.03896717  0.37677245  1
  Co  Co160  1  0.37266944  0.07358267  0.65022373  1
  Co  Co161  1  0.94672142  0.76981035  0.97776345  1
  Ni  Ni162  1  0.31575614  0.78361523  0.39556004  1
  Ni  Ni163  1  0.41178791  0.62230872  0.55114206  1
  Ni  Ni164  1  0.08229937  0.42136685  0.73700522  1
  Ni  Ni165  1  0.42294250  0.87863818  0.14496295  1
  Ni  Ni166  1  0.14246734  0.72559313  0.64778518  1
  Ni  Ni167  1  0.13663593  0.73640978  0.38815928  1
  Ni  Ni168  1  0.55327130  0.24528220  0.36131599  1
  Ni  Ni169  1  0.89954337  0.33827815  0.02866057  1
  Ni  Ni170  1  0.67669218  0.24623271  0.92101870  1
  Ni  Ni171  1  0.70728342  0.99294178  0.78803120  1
  Ni  Ni172  1  0.94394224  0.46461041  0.60245514  1
  Ni  Ni173  1  0.82053318  0.64790381  0.01608763  1
  Ni  Ni174  1  0.55901173  0.46813757  0.10498525  1
  Ni  Ni175  1  0.72250538  0.67269680  0.74683603  1
  Ni  Ni176  1  0.93006968  0.04843995  0.32541925  1
  Ni  Ni177  1  0.72611351  0.91277540  0.52674604  1
  Ni  Ni178  1  0.71107346  0.32318095  0.45711223  1
  Ni  Ni179  1  0.33361935  0.85522068  0.81595314  1
  Ni  Ni180  1  0.47877521  0.81827029  0.72419174  1
  Ni  Ni181  1  0.98558352  0.37194674  0.85822726  1
  Ni  Ni182  1  0.74331918  0.26173651  0.17914974  1
  Ni  Ni183  1  0.91019406  0.77334539  0.26744144  1
  Ni  Ni184  1  0.31745751  0.60867526  0.90565579  1
  Ni  Ni185  1  0.62107704  0.26012428  0.07629720  1
  Ni  Ni186  1  0.42477430  0.66598423  0.33899768  1
  Ni  Ni187  1  0.84283559  0.49414752  0.06633617  1
  Ni  Ni188  1  0.36917089  0.47960860  0.44196644  1
  Ni  Ni189  1  0.09134241  0.11508300  0.85283144  1
  Ni  Ni190  1  0.12604662  0.52934489  0.30624618  1
  Ni  Ni191  1  0.96789991  0.55553186  0.75807611  1
  Ni  Ni192  1  0.00450156  0.34047129  0.17208688  1
  Ni  Ni193  1  0.42460473  0.19807218  0.26319936  1
  Ni  Ni194  1  0.41958383  0.71750634  0.18833447  1
  Ni  Ni195  1  0.25064354  0.10696002  0.87387947  1
  Ni  Ni196  1  0.64451655  0.49852251  0.68970422  1
  Ni  Ni197  1  0.27488356  0.62838485  0.68000153  1
  Ni  Ni198  1  0.57871255  0.63162482  0.52450489  1
  Ni  Ni199  1  0.16435763  0.21303791  0.58690168  1
  Ni  Ni200  1  0.16660038  0.38077432  0.88256334  1
  Ni  Ni201  1  0.68561609  0.08592817  0.41917970  1
  Ni  Ni202  1  0.40629655  0.49976097  0.81243779  1
  Ni  Ni203  1  0.18627579  0.37662033  0.61876293  1
  Ni  Ni204  1  0.16739632  0.63873315  0.95749458  1
  Ni  Ni205  1  0.95562682  0.23833369  0.75592649  1
  Ni  Ni206  1  0.15443275  0.94590901  0.04620218  1
  Ni  Ni207  1  0.21325388  0.52841298  0.44823004  1
  Ni  Ni208  1  0.73293788  0.59675184  0.59653095  1
  Ni  Ni209  1  0.62883662  0.29355617  0.77425408  1
  Ni  Ni210  1  0.56268465  0.46271481  0.26388039  1
  Ni  Ni211  1  0.67150521  0.72453716  0.07874488  1
  Ni  Ni212  1  0.74254399  0.80770172  0.26160408  1
  Ni  Ni213  1  0.00608924  0.19110322  0.09169972  1
  Ni  Ni214  1  0.29012720  0.77635634  0.95556291  1
  Ni  Ni215  1  0.03525906  0.89794463  0.93078263  1
