# generated using pymatgen
data_Ti2CoNi
_symmetry_space_group_name_H-M   'P 1'
_cell_length_a   14.53335618
_cell_length_b   14.58384620
_cell_length_c   14.60579342
_cell_angle_alpha   89.92081219
_cell_angle_beta   90.19492403
_cell_angle_gamma   90.04234999
_symmetry_Int_Tables_number   1
_chemical_formula_structural   Ti2CoNi
_chemical_formula_sum   'Ti108 Co54 Ni54'
_cell_volume   3095.70879830
_cell_formula_units_Z   54
loop_
 _symmetry_equiv_pos_site_id
 _symmetry_equiv_pos_as_xyz
  1  'x, y, z'
loop_
 _atom_site_type_symbol
 _atom_site_label
 _atom_site_symmetry_multiplicity
 _atom_site_fract_x
 _atom_site_fract_y
 _atom_site_fract_z
 _atom_site_occupancy
  Ti  Ti0  1  -0.11856745  0.07280598  -0.02082912  1
  Ti  Ti1  1  0.01237504  0.04178932  0.41228892  1
  Ti  Ti2  1  0.06443281  -0.11172977  0.68341309  1
  Ti  Ti3  1  -0.00409996  0.25913967  -0.00291502  1
  Ti  Ti4  1  0.02821656  0.27380150  0.32212726  1
  Ti  Ti5  1  -0.05803577  0.34181335  0.63984072  1
  Ti  Ti6  1  -0.03016466  0.71676743  -0.06372152  1
  Ti  Ti7  1  0.01591982  0.69976898  0.36815755  1
  Ti  Ti8  1  -0.03063363  0.64300172  0.67733342  1
  Ti  Ti9  1  0.30547018  -0.00878177  -0.02150331  1
  Ti  Ti10  1  0.26685336  -0.02409600  0.32911782  1
  Ti  Ti11  1  0.35451352  -0.02635761  0.64639484  1
  Ti  Ti12  1  0.26165193  0.32061672  0.02176796  1
  Ti  Ti13  1  0.32504878  0.34056056  0.31534135  1
  Ti  Ti14  1  0.28647547  0.32895559  0.61545299  1
  Ti  Ti15  1  0.38505483  0.70648836  -0.00767891  1
  Ti  Ti16  1  0.35552408  0.66923112  0.31765422  1
  Ti  Ti17  1  0.36192726  0.70542580  0.63542136  1
  Ti  Ti18  1  0.62253100  -0.01952880  -0.01796770  1
  Ti  Ti19  1  0.69596862  -0.05551007  0.30214747  1
  Ti  Ti20  1  0.59332895  -0.04093968  0.63666201  1
  Ti  Ti21  1  0.70505510  0.31687994  0.01080680  1
  Ti  Ti22  1  0.66243140  0.38958910  0.35729890  1
  Ti  Ti23  1  0.63228272  0.29541682  0.56700471  1
  Ti  Ti24  1  0.62691497  0.66626403  -0.04235043  1
  Ti  Ti25  1  0.63407504  0.62586620  0.30089401  1
  Ti  Ti26  1  0.65961580  0.67334319  0.61614285  1
  Ti  Ti27  1  -0.01138475  0.09954210  0.21776736  1
  Ti  Ti28  1  -0.01142045  0.16389892  0.59235256  1
  Ti  Ti29  1  -0.02646845  0.18878597  0.80698033  1
  Ti  Ti30  1  0.07795740  0.50310951  0.12899178  1
  Ti  Ti31  1  0.06915848  0.53805078  0.54823999  1
  Ti  Ti32  1  0.03556017  0.54216197  0.83702593  1
  Ti  Ti33  1  0.00622324  0.86696366  0.21666659  1
  Ti  Ti34  1  -0.01886308  0.86740669  0.51181685  1
  Ti  Ti35  1  0.07415706  0.86036592  0.87052525  1
  Ti  Ti36  1  0.40130818  0.14677388  0.12093040  1
  Ti  Ti37  1  0.35256258  0.16673052  0.52969359  1
  Ti  Ti38  1  0.33658936  0.18997083  0.87718971  1
  Ti  Ti39  1  0.31989643  0.54239973  0.09603154  1
  Ti  Ti40  1  0.37217573  0.51335514  0.54488226  1
  Ti  Ti41  1  0.28017981  0.57647187  0.77006407  1
  Ti  Ti42  1  0.35314630  0.92628078  0.14681042  1
  Ti  Ti43  1  0.29583190  0.82043277  0.48600209  1
  Ti  Ti44  1  0.38501935  0.87294650  0.80354290  1
  Ti  Ti45  1  0.67096019  0.17788509  0.12936522  1
  Ti  Ti46  1  0.65855305  0.10077699  0.52603529  1
  Ti  Ti47  1  0.67072094  0.18592961  0.73626939  1
  Ti  Ti48  1  0.61382343  0.43090368  0.15555855  1
  Ti  Ti49  1  0.69279269  0.48925185  0.55902638  1
  Ti  Ti50  1  0.62773352  0.45116195  0.87494469  1
  Ti  Ti51  1  0.74363757  0.70207755  0.14264576  1
  Ti  Ti52  1  0.72426359  0.87386514  0.49761747  1
  Ti  Ti53  1  0.70101524  0.82929533  0.85406240  1
  Ti  Ti54  1  0.12947042  -0.00468631  0.11118395  1
  Ti  Ti55  1  0.13784154  0.04158874  0.57092291  1
  Ti  Ti56  1  0.13425354  0.02677347  0.88759165  1
  Ti  Ti57  1  0.16964850  0.35296102  0.21081166  1
  Ti  Ti58  1  0.11124190  0.31047322  0.53837996  1
  Ti  Ti59  1  0.12459028  0.34110717  0.87255498  1
  Ti  Ti60  1  0.17618143  0.68246234  0.21698041  1
  Ti  Ti61  1  0.23088952  0.63564884  0.46503617  1
  Ti  Ti62  1  0.18146191  0.68232720  0.89753985  1
  Ti  Ti63  1  0.55720324  0.01513926  0.17541663  1
  Ti  Ti64  1  0.45608410  0.00190396  0.47847895  1
  Ti  Ti65  1  0.49552161  0.06228998  0.77302982  1
  Ti  Ti66  1  0.41314647  0.36634639  0.13521572  1
  Ti  Ti67  1  0.49620686  0.28770772  0.41458563  1
  Ti  Ti68  1  0.43827756  0.38170826  0.84927244  1
  Ti  Ti69  1  0.48271110  0.60631070  0.18092505  1
  Ti  Ti70  1  0.49746357  0.72388752  0.46005906  1
  Ti  Ti71  1  0.48543441  0.60066744  0.80292944  1
  Ti  Ti72  1  0.76253734  0.01230136  0.11625710  1
  Ti  Ti73  1  0.84599588  0.00941806  0.49094419  1
  Ti  Ti74  1  0.91289166  -0.01605657  0.79598949  1
  Ti  Ti75  1  0.86171315  0.41064228  0.28364335  1
  Ti  Ti76  1  0.83338020  0.39359731  0.47428224  1
  Ti  Ti77  1  0.85552050  0.39880857  0.89475127  1
  Ti  Ti78  1  0.90590199  0.59774765  0.09695446  1
  Ti  Ti79  1  0.86402495  0.60141013  0.49664115  1
  Ti  Ti80  1  0.82616680  0.69270339  0.80212030  1
  Ti  Ti81  1  0.19086155  0.15933333  0.02472607  1
  Ti  Ti82  1  0.19251870  0.15416667  0.29741898  1
  Ti  Ti83  1  0.20620292  0.14937456  0.70070245  1
  Ti  Ti84  1  0.18768801  0.49419652  -0.03031909  1
  Ti  Ti85  1  0.12633250  0.51873386  0.35705903  1
  Ti  Ti86  1  0.14462647  0.43012917  0.70629927  1
  Ti  Ti87  1  0.14729585  0.81639171  0.04385440  1
  Ti  Ti88  1  0.15963045  0.81565577  0.34341745  1
  Ti  Ti89  1  0.21921285  0.78892701  0.74555367  1
  Ti  Ti90  1  0.55165341  0.17414175  -0.05220772  1
  Ti  Ti91  1  0.52741845  0.11297264  0.35107415  1
  Ti  Ti92  1  0.48771080  0.25398717  0.73130231  1
  Ti  Ti93  1  0.50490396  0.52539023  0.00452922  1
  Ti  Ti94  1  0.47416900  0.51834312  0.37881523  1
  Ti  Ti95  1  0.51503300  0.45156841  0.66619389  1
  Ti  Ti96  1  0.51206847  0.84316973  0.05011572  1
  Ti  Ti97  1  0.51193078  0.84524634  0.26446105  1
  Ti  Ti98  1  0.52860195  0.77971663  0.71248077  1
  Ti  Ti99  1  0.85920635  0.21919780  0.12894511  1
  Ti  Ti100  1  0.85675458  0.17590353  0.37489297  1
  Ti  Ti101  1  0.82047807  0.10545891  0.66075137  1
  Ti  Ti102  1  0.74810650  0.51333967  0.02818606  1
  Ti  Ti103  1  0.83718077  0.63380678  0.29906375  1
  Ti  Ti104  1  0.76731699  0.40465621  0.71346370  1
  Ti  Ti105  1  0.79253899  0.84196006  0.02992125  1
  Ti  Ti106  1  0.86009528  0.81845987  0.37086416  1
  Ti  Ti107  1  0.83373872  0.75813912  0.59623849  1
  Co  Co108  1  0.37485868  0.42390203  -0.01440960  1
  Co  Co109  1  0.66214159  0.22266561  0.41335183  1
  Co  Co110  1  0.54399823  0.36682350  0.99029283  1
  Co  Co111  1  0.80490452  0.11739490  0.82918550  1
  Co  Co112  1  0.30269243  0.51139214  0.38290427  1
  Co  Co113  1  0.62728034  0.58845522  0.11273958  1
  Co  Co114  1  0.99228730  0.70091482  0.52833647  1
  Co  Co115  1  0.89287616  0.56342704  -0.06669512  1
  Co  Co116  1  0.10909608  0.35218150  0.05887560  1
  Co  Co117  1  0.20340253  0.43418119  0.48713564  1
  Co  Co118  1  0.01259506  0.60506839  0.23984331  1
  Co  Co119  1  0.61386915  0.35660490  0.74567008  1
  Co  Co120  1  0.90270155  0.48696820  0.60201978  1
  Co  Co121  1  0.05479357  0.59335235  0.99319561  1
  Co  Co122  1  1.02155392  0.43390376  0.27405318  1
  Co  Co123  1  0.59434427  0.80761310  0.56173082  1
  Co  Co124  1  0.78606631  0.68724490  -0.03250562  1
  Co  Co125  1  0.57878293  0.91503568  0.79450557  1
  Co  Co126  1  0.42008130  0.25792111  0.99705633  1
  Co  Co127  1  0.04979755  0.69972859  0.11213349  1
  Co  Co128  1  0.25681643  0.07235424  0.16173813  1
  Co  Co129  1  0.36111323  0.37245268  0.46788864  1
  Co  Co130  1  1.00741070  0.43757159  0.96665533  1
  Co  Co131  1  0.13659240  0.93557770  0.45060788  1
  Co  Co132  1  0.98658474  0.31726279  0.16849983  1
  Co  Co133  1  0.28323954  0.23885245  0.17777075  1
  Co  Co134  1  0.72908982  -0.01059146  0.74116891  1
  Co  Co135  1  0.83771804  0.26235214  0.75581782  1
  Co  Co136  1  0.26925294  0.42876996  0.85268550  1
  Co  Co137  1  0.06441124  0.07167921  0.73921867  1
  Co  Co138  1  0.65443242  0.11799414  0.26781601  1
  Co  Co139  1  0.21056308  0.88337138  0.60065470  1
  Co  Co140  1  0.26873981  0.29356877  0.77463035  1
  Co  Co141  1  0.19976235  0.69878929  0.61235652  1
  Co  Co142  1  0.06023060  0.72743045  0.78365132  1
  Co  Co143  1  0.44357963  0.85634662  0.56298092  1
  Co  Co144  1  0.76875753  0.97646986  0.91329095  1
  Co  Co145  1  0.84165561  0.23470294  0.94061339  1
  Co  Co146  1  0.73645591  0.06904549  0.39013775  1
  Co  Co147  1  0.94490613  0.53788257  0.37440004  1
  Co  Co148  1  0.70227107  0.82725888  0.69080835  1
  Co  Co149  1  0.75426323  0.52672085  0.20575056  1
  Co  Co150  1  0.18784658  0.86700981  0.18924860  1
  Co  Co151  1  0.42544004  0.99618076  0.28649150  1
  Co  Co152  1  0.23523949  0.53552434  0.61393217  1
  Co  Co153  1  0.12945909  0.60402560  0.71540056  1
  Co  Co154  1  0.71461377  0.13608496  -0.02607917  1
  Co  Co155  1  0.64062141  0.06546988  0.84432962  1
  Co  Co156  1  0.35369191  0.56666455  0.91652067  1
  Co  Co157  1  0.71008167  0.29175702  0.85726447  1
  Co  Co158  1  0.88493720  0.85525384  0.89870550  1
  Co  Co159  1  0.11090596  0.20391030  0.15692669  1
  Co  Co160  1  0.09251640  0.26660320  0.70515234  1
  Co  Co161  1  0.81089038  0.09809911  0.23505413  1
  Ni  Ni162  1  0.44900082  0.23656606  0.25595844  1
  Ni  Ni163  1  0.50932089  0.39437271  0.27573770  1
  Ni  Ni164  1  0.46936531  0.96286752  0.90273279  1
  Ni  Ni165  1  0.28465160  0.00570315  0.49500682  1
  Ni  Ni166  1  0.38128446  0.49214626  0.24312242  1
  Ni  Ni167  1  0.88984159  0.97649743  0.31196872  1
  Ni  Ni168  1  0.75262442  0.25881411  0.27928181  1
  Ni  Ni169  1  0.79135300  0.59037734  0.66385952  1
  Ni  Ni170  1  0.14701986  0.18368702  0.85336681  1
  Ni  Ni171  1  0.74741518  0.55814806  0.85696607  1
  Ni  Ni172  1  0.41600571  0.86381772  0.39268613  1
  Ni  Ni173  1  0.36783212  0.15068760  0.70064265  1
  Ni  Ni174  1  0.83140963  0.91898898  0.63580175  1
  Ni  Ni175  1  0.20347106  0.64817169  0.05580764  1
  Ni  Ni176  1  0.22680273  0.52126963  0.23124494  1
  Ni  Ni177  1  0.50983977  0.12648446  0.60423041  1
  Ni  Ni178  1  0.02563858  0.10708145  0.04983547  1
  Ni  Ni179  1  0.60292414  0.58925975  0.46445290  1
  Ni  Ni180  1  0.31795151  0.82011491  0.27401800  1
  Ni  Ni181  1  0.26467185  0.83093452  0.91919217  1
  Ni  Ni182  1  0.09582006  0.17467365  0.44560518  1
  Ni  Ni183  1  0.50344881  0.61026996  0.60847573  1
  Ni  Ni184  1  0.46295126  0.01806163  0.04482534  1
  Ni  Ni185  1  0.53904088  0.43239526  0.50281389  1
  Ni  Ni186  1  0.76735853  0.36422705  0.15659468  1
  Ni  Ni187  1  0.88665829  0.51703028  0.76841417  1
  Ni  Ni188  1  0.73016691  0.69994023  0.44740790  1
  Ni  Ni189  1  0.57432134  0.89775052  0.42314784  1
  Ni  Ni190  1  0.35310451  0.43884245  0.71217202  1
  Ni  Ni191  1  0.23955333  0.25784064  0.43613485  1
  Ni  Ni192  1  0.81639583  0.86507933  0.20360455  1
  Ni  Ni193  1  0.00973262  0.41318205  0.44991479  1
  Ni  Ni194  1  0.40644226  0.75276919  0.15409945  1
  Ni  Ni195  1  0.51970848  0.78165070  0.88916776  1
  Ni  Ni196  1  0.92261878  0.81657430  0.74224651  1
  Ni  Ni197  1  0.58537326  0.73537547  0.16726931  1
  Ni  Ni198  1  0.95686582  0.82839019  0.06244690  1
  Ni  Ni199  1  0.65763325  0.87997689  0.14124409  1
  Ni  Ni200  1  0.10274766  0.98191223  0.28774233  1
  Ni  Ni201  1  0.96639340  0.00727733  0.61875775  1
  Ni  Ni202  1  0.00616904  0.95712340  0.98435311  1
  Ni  Ni203  1  0.20418190  0.97217307  0.73590943  1
  Ni  Ni204  1  0.79404264  0.25726932  0.58687173  1
  Ni  Ni205  1  0.91134498  0.73467703  0.19867762  1
  Ni  Ni206  1  0.74837986  0.52702902  0.39074093  1
  Ni  Ni207  1  0.94534841  0.26762695  0.47463948  1
  Ni  Ni208  1  0.54186761  0.26532341  0.11444432  1
  Ni  Ni209  1  0.34750418  0.12734782  0.37202221  1
  Ni  Ni210  1  0.64176975  0.54098028  0.72552018  1
  Ni  Ni211  1  0.45478042  0.30239733  0.57834555  1
  Ni  Ni212  1  0.12457166  0.78032639  0.50095705  1
  Ni  Ni213  1  0.36484620  0.71292825  0.82553369  1
  Ni  Ni214  1  -0.01704924  0.37701537  0.79398105  1
  Ni  Ni215  1  0.32693828  0.03641570  0.81885390  1
