# generated using pymatgen
data_Ti2CoNi
_symmetry_space_group_name_H-M   'P 1'
_cell_length_a   14.64820342
_cell_length_b   14.61800378
_cell_length_c   14.59837497
_cell_angle_alpha   90.26294127
_cell_angle_beta   90.02592737
_cell_angle_gamma   90.09974984
_symmetry_Int_Tables_number   1
_chemical_formula_structural   Ti2CoNi
_chemical_formula_sum   'Ti108 Co54 Ni54'
_cell_volume   3125.87544790
_cell_formula_units_Z   54
loop_
 _symmetry_equiv_pos_site_id
 _symmetry_equiv_pos_as_xyz
  1  'x, y, z'
loop_
 _atom_site_type_symbol
 _atom_site_label
 _atom_site_symmetry_multiplicity
 _atom_site_fract_x
 _atom_site_fract_y
 _atom_site_fract_z
 _atom_site_occupancy
  Ti  Ti0  1  0.04635987  0.00014950  -0.04011492  1
  Ti  Ti1  1  -0.01774525  -0.09492991  0.35255444  1
  Ti  Ti2  1  0.02753339  0.02717410  0.64191046  1
  Ti  Ti3  1  0.03947385  0.28210444  0.01824577  1
  Ti  Ti4  1  0.07461392  0.34313799  0.33649593  1
  Ti  Ti5  1  0.04237098  0.37409063  0.67014270  1
  Ti  Ti6  1  -0.05260440  0.73301193  0.04623305  1
  Ti  Ti7  1  -0.06709999  0.58500862  0.29528869  1
  Ti  Ti8  1  -0.05162332  0.62250871  0.68991311  1
  Ti  Ti9  1  0.34544945  -0.03689313  0.02961376  1
  Ti  Ti10  1  0.41078752  0.01701096  0.35044309  1
  Ti  Ti11  1  0.21134125  -0.02434844  0.66790365  1
  Ti  Ti12  1  0.33486921  0.38924079  -0.01075250  1
  Ti  Ti13  1  0.27922496  0.35000471  0.36436102  1
  Ti  Ti14  1  0.35882637  0.37072364  0.65102522  1
  Ti  Ti15  1  0.33471205  0.75495462  0.04594453  1
  Ti  Ti16  1  0.35100383  0.63754725  0.37133312  1
  Ti  Ti17  1  0.31996432  0.74165713  0.68225619  1
  Ti  Ti18  1  0.69393719  0.06901720  -0.01425229  1
  Ti  Ti19  1  0.69560221  -0.07238669  0.31880367  1
  Ti  Ti20  1  0.74894474  0.02429139  0.68159890  1
  Ti  Ti21  1  0.72588330  0.29179669  0.02849753  1
  Ti  Ti22  1  0.64925197  0.28970205  0.36433913  1
  Ti  Ti23  1  0.67683069  0.24022003  0.66257932  1
  Ti  Ti24  1  0.65699660  0.63244215  -0.00493500  1
  Ti  Ti25  1  0.64610429  0.63210521  0.32417430  1
  Ti  Ti26  1  0.63309196  0.67699357  0.69900857  1
  Ti  Ti27  1  -0.04083653  0.18562980  0.18557588  1
  Ti  Ti28  1  0.00098038  0.19416038  0.49720018  1
  Ti  Ti29  1  0.02277287  0.22058972  0.81114001  1
  Ti  Ti30  1  0.05430188  0.46585975  0.17395164  1
  Ti  Ti31  1  -0.01147651  0.47141087  0.51065311  1
  Ti  Ti32  1  -0.04108053  0.54795272  0.90630910  1
  Ti  Ti33  1  0.05260308  0.84965252  0.16984907  1
  Ti  Ti34  1  0.03064878  0.76346208  0.49497122  1
  Ti  Ti35  1  -0.04475481  0.84864315  0.87079596  1
  Ti  Ti36  1  0.29564999  0.18247902  0.23307606  1
  Ti  Ti37  1  0.30610735  0.15987715  0.44062352  1
  Ti  Ti38  1  0.36313297  0.25861745  0.81850465  1
  Ti  Ti39  1  0.40510783  0.59674089  0.14043800  1
  Ti  Ti40  1  0.40869281  0.54767982  0.55666922  1
  Ti  Ti41  1  0.30600151  0.46126025  0.80745057  1
  Ti  Ti42  1  0.28428358  0.88013968  0.20653706  1
  Ti  Ti43  1  0.29250975  0.85507500  0.53376543  1
  Ti  Ti44  1  0.32895986  0.82010321  0.87676614  1
  Ti  Ti45  1  0.69040715  0.07975319  0.20412195  1
  Ti  Ti46  1  0.60591927  0.07580537  0.42610161  1
  Ti  Ti47  1  0.69103527  0.21558364  0.85667815  1
  Ti  Ti48  1  0.61814204  0.53141325  0.15792615  1
  Ti  Ti49  1  0.63763542  0.54131972  0.54591723  1
  Ti  Ti50  1  0.65953676  0.45182683  0.86772045  1
  Ti  Ti51  1  0.63587814  0.89436570  0.14277620  1
  Ti  Ti52  1  0.66549604  0.89153923  0.51554702  1
  Ti  Ti53  1  0.62801133  0.88736994  0.80775133  1
  Ti  Ti54  1  0.17884478  0.03510229  0.13683696  1
  Ti  Ti55  1  0.17281791  0.04470547  0.46576990  1
  Ti  Ti56  1  0.23413437  0.00788239  0.86668505  1
  Ti  Ti57  1  0.24135257  0.37540750  0.17393456  1
  Ti  Ti58  1  0.17082640  0.29669575  0.52099902  1
  Ti  Ti59  1  0.18022554  0.31905516  0.87467609  1
  Ti  Ti60  1  0.21851929  0.67491999  0.17742056  1
  Ti  Ti61  1  0.10589689  0.60632682  0.42813880  1
  Ti  Ti62  1  0.16914652  0.64150380  0.79339211  1
  Ti  Ti63  1  0.49266759  0.14903522  0.15843302  1
  Ti  Ti64  1  0.46732393  -0.03365627  0.53800677  1
  Ti  Ti65  1  0.47984210  0.01276603  0.73819118  1
  Ti  Ti66  1  0.54210721  0.33595993  0.12589797  1
  Ti  Ti67  1  0.51326485  0.38826431  0.49002235  1
  Ti  Ti68  1  0.53489885  0.31637046  0.91402328  1
  Ti  Ti69  1  0.56209041  0.72174812  0.14771504  1
  Ti  Ti70  1  0.54595028  0.71202966  0.47645849  1
  Ti  Ti71  1  0.40812402  0.63929295  0.84247968  1
  Ti  Ti72  1  0.84757480  -0.09376177  0.19201779  1
  Ti  Ti73  1  0.82941533  0.00303854  0.43226214  1
  Ti  Ti74  1  0.81666153  -0.02230062  0.86712158  1
  Ti  Ti75  1  0.81329522  0.42589469  0.16663280  1
  Ti  Ti76  1  0.79446012  0.23456433  0.49178918  1
  Ti  Ti77  1  0.87836444  0.34431099  0.89225892  1
  Ti  Ti78  1  0.78169257  0.64815188  0.16003181  1
  Ti  Ti79  1  0.78245910  0.60793893  0.45866093  1
  Ti  Ti80  1  0.76067618  0.61076480  0.82322756  1
  Ti  Ti81  1  0.22347255  0.22050993  0.04456939  1
  Ti  Ti82  1  0.06393473  0.08082168  0.30481703  1
  Ti  Ti83  1  0.24246650  0.17567337  0.64929047  1
  Ti  Ti84  1  0.10228008  0.57910440  0.03348017  1
  Ti  Ti85  1  0.19089282  0.52662172  0.29270993  1
  Ti  Ti86  1  0.19040156  0.49930972  0.61743313  1
  Ti  Ti87  1  0.14054773  0.82614158  -0.08826079  1
  Ti  Ti88  1  0.19775650  0.76491494  0.36002781  1
  Ti  Ti89  1  0.12193895  0.79658122  0.65061132  1
  Ti  Ti90  1  0.47984643  0.10232200  -0.07434055  1
  Ti  Ti91  1  0.47765312  0.21030606  0.34933101  1
  Ti  Ti92  1  0.44960923  0.19242173  0.63770891  1
  Ti  Ti93  1  0.50564292  0.50225675  -0.01174421  1
  Ti  Ti94  1  0.51925425  0.45605542  0.29342579  1
  Ti  Ti95  1  0.55109167  0.47502837  0.70140872  1
  Ti  Ti96  1  0.51466513  0.83983863  -0.01515788  1
  Ti  Ti97  1  0.41304574  0.81577506  0.36670969  1
  Ti  Ti98  1  0.50134850  0.81315751  0.63496233  1
  Ti  Ti99  1  0.90176594  0.14334112  -0.03652665  1
  Ti  Ti100  1  0.80232511  0.24508204  0.26481397  1
  Ti  Ti101  1  0.88364766  0.18282217  0.67284418  1
  Ti  Ti102  1  0.79866668  0.48933749  -0.00494495  1
  Ti  Ti103  1  0.81467547  0.41533093  0.40691402  1
  Ti  Ti104  1  0.80078757  0.43878162  0.62900892  1
  Ti  Ti105  1  0.76955331  0.78836018  -0.08037423  1
  Ti  Ti106  1  0.84179385  0.78593989  0.39786123  1
  Ti  Ti107  1  0.83354106  0.79026950  0.72085436  1
  Co  Co108  1  0.38756336  0.71775127  0.52278396  1
  Co  Co109  1  0.68584560  0.82605668  0.66769173  1
  Co  Co110  1  0.91132353  0.33501910  0.55377431  1
  Co  Co111  1  0.68039173  0.77326481  0.39346058  1
  Co  Co112  1  0.35276235  0.56662667  0.97700033  1
  Co  Co113  1  0.37238347  0.74289670  0.22327574  1
  Co  Co114  1  0.25693160  0.55504381  0.46188900  1
  Co  Co115  1  0.35948343  0.90921446  0.70019263  1
  Co  Co116  1  0.90309879  0.75423660  0.22051453  1
  Co  Co117  1  0.19380365  0.89628264  0.05283228  1
  Co  Co118  1  0.21317158  0.70766456  0.51884760  1
  Co  Co119  1  0.14107025  0.44193939  0.44936255  1
  Co  Co120  1  0.38874155  0.47149917  0.39702050  1
  Co  Co121  1  0.12132058  0.15013946  0.92098163  1
  Co  Co122  1  0.65066199  0.43459931  0.03686134  1
  Co  Co123  1  0.45918266  0.12291521  0.48980614  1
  Co  Co124  1  0.82138322  0.64793060  0.99009017  1
  Co  Co125  1  0.65060866  0.05462752  0.81044553  1
  Co  Co126  1  0.56646303  0.58285573  0.83114939  1
  Co  Co127  1  0.90252697  0.69236183  0.85066947  1
  Co  Co128  1  0.00094164  0.03575876  0.45789361  1
  Co  Co129  1  0.58385137  0.10544335  0.62567417  1
  Co  Co130  1  0.46127303  0.44806956  0.84253017  1
  Co  Co131  1  0.94783040  0.89606851  0.52639218  1
  Co  Co132  1  0.22859802  0.67392501  0.94924512  1
  Co  Co133  1  0.65982549  0.46257791  0.39776127  1
  Co  Co134  1  0.52407297  0.55456746  0.42927308  1
  Co  Co135  1  0.97164145  0.06203962  0.82077506  1
  Co  Co136  1  0.60065765  0.95539473  0.65122786  1
  Co  Co137  1  0.41656120  0.43765809  0.12253994  1
  Co  Co138  1  0.67401653  0.38852196  0.23713715  1
  Co  Co139  1  0.70194797  0.72084901  0.54526493  1
  Co  Co140  1  0.36996365  0.27901853  0.12621317  1
  Co  Co141  1  0.24855383  0.52606842  0.10192507  1
  Co  Co142  1  0.33801401  0.49532194  0.24894075  1
  Co  Co143  1  0.66134527  0.23624035  0.18012430  1
  Co  Co144  1  0.21580767  0.84519372  0.76810160  1
  Co  Co145  1  0.41709680  0.23839312  0.98587695  1
  Co  Co146  1  0.05662309  0.68530939  0.91068373  1
  Co  Co147  1  0.02897655  0.75134098  0.76306247  1
  Co  Co148  1  0.72295293  0.10574018  0.54130521  1
  Co  Co149  1  0.88031478  0.05664954  0.57376417  1
  Co  Co150  1  0.29843103  0.41178869  0.51313507  1
  Co  Co151  1  0.34556685  0.11855889  0.07353134  1
  Co  Co152  1  0.13291244  0.09438900  0.76619481  1
  Co  Co153  1  0.90631609  0.94621118  0.72017884  1
  Co  Co154  1  0.74471019  0.12084370  0.35847079  1
  Co  Co155  1  0.81508219  0.13024085  0.81246865  1
  Co  Co156  1  0.77586659  0.79570232  0.08227882  1
  Co  Co157  1  0.29650933  0.14802479  0.91711596  1
  Co  Co158  1  0.55744177  0.79417453  0.28502499  1
  Co  Co159  1  0.54621384  0.00711766  0.24952185  1
  Co  Co160  1  0.07486429  0.93431097  0.78632350  1
  Co  Co161  1  0.72660246  0.78128955  0.23774027  1
  Ni  Ni162  1  0.13732434  0.91968064  0.29512341  1
  Ni  Ni163  1  0.92461414  0.29295788  0.38066294  1
  Ni  Ni164  1  0.43752741  0.94681731  0.88509219  1
  Ni  Ni165  1  0.88211763  0.29412158  0.07246886  1
  Ni  Ni166  1  0.04791880  0.65486723  0.18685283  1
  Ni  Ni167  1  0.20699801  0.50755912  0.92684623  1
  Ni  Ni168  1  0.76759030  0.52651214  0.28844991  1
  Ni  Ni169  1  0.91413841  0.89942036  0.02893382  1
  Ni  Ni170  1  0.54657018  0.91105317  0.39573197  1
  Ni  Ni171  1  0.45875963  0.86948610  0.14838892  1
  Ni  Ni172  1  0.12119706  0.74671896  0.05810478  1
  Ni  Ni173  1  0.94862583  0.34954252  0.22101901  1
  Ni  Ni174  1  0.13011824  0.46839153  0.78360012  1
  Ni  Ni175  1  0.92529537  0.57181570  0.11095583  1
  Ni  Ni176  1  0.48862360  0.67183123  -0.00804913  1
  Ni  Ni177  1  0.14903151  0.40196709  0.03475729  1
  Ni  Ni178  1  0.24124804  0.04712198  0.29850214  1
  Ni  Ni179  1  0.89771204  0.33671704  0.72492443  1
  Ni  Ni180  1  0.53889982  0.17197964  0.78288078  1
  Ni  Ni181  1  0.31813444  0.57728928  0.69702939  1
  Ni  Ni182  1  0.87199534  0.73664173  0.56509876  1
  Ni  Ni183  1  0.74617527  0.35470317  0.77712634  1
  Ni  Ni184  1  0.39137331  1.01558443  0.18611025  1
  Ni  Ni185  1  0.91679927  0.04047753  0.10580368  1
  Ni  Ni186  1  0.10879053  0.91269275  0.52483728  1
  Ni  Ni187  1  0.06288475  0.12567446  0.07306314  1
  Ni  Ni188  1  0.66898473  0.90750328  0.97813595  1
  Ni  Ni189  1  0.20349360  0.33151408  0.70928013  1
  Ni  Ni190  1  0.58633082  0.22788720  0.51313755  1
  Ni  Ni191  1  0.12398247  0.24248385  0.19318901  1
  Ni  Ni192  1  0.39146381  0.27909565  0.50576151  1
  Ni  Ni193  1  0.60406681  0.73445325  0.87472021  1
  Ni  Ni194  1  0.02502769  0.73671795  0.32941466  1
  Ni  Ni195  1  0.27483561  0.91671264  0.38661682  1
  Ni  Ni196  1  0.08812901  0.62806936  0.60604536  1
  Ni  Ni197  1  0.47159509  0.80691071  0.79549017  1
  Ni  Ni198  1  0.78406849  0.61138882  0.64534056  1
  Ni  Ni199  1  0.48919706  0.63371745  0.28315519  1
  Ni  Ni200  1  0.79650770  0.15505176  1.10181217  1
  Ni  Ni201  1  0.50443206  0.32259240  0.74038002  1
  Ni  Ni202  1  0.41112726  0.33652943  0.26790062  1
  Ni  Ni203  1  0.85720305  0.48387792  0.78694302  1
  Ni  Ni204  1  0.33849945  0.09435563  0.75803303  1
  Ni  Ni205  1  0.47082637  0.64808480  0.67528262  1
  Ni  Ni206  1  0.16353934  0.20233450  0.36063268  1
  Ni  Ni207  1  0.52935683  1.00755074  0.06247457  1
  Ni  Ni208  1  0.88081188  0.05933705  0.27564615  1
  Ni  Ni209  1  0.58916445  0.18908098  0.02923206  1
  Ni  Ni210  1  0.67725114  0.36685611  0.53789977  1
  Ni  Ni211  1  0.33095994  0.04671720  0.57739755  1
  Ni  Ni212  1  0.80929236  0.89596297  0.58854821  1
  Ni  Ni213  1  0.07959828  0.20799203  0.64819274  1
  Ni  Ni214  1  0.96262848  0.43243914  1.03338897  1
  Ni  Ni215  1  0.94205689  0.62466886  0.46334228  1
