# generated using pymatgen
data_Ti2CoNi
_symmetry_space_group_name_H-M   'P 1'
_cell_length_a   14.66391366
_cell_length_b   14.62007309
_cell_length_c   14.63206230
_cell_angle_alpha   89.95244234
_cell_angle_beta   90.00663973
_cell_angle_gamma   90.11757737
_symmetry_Int_Tables_number   1
_chemical_formula_structural   Ti2CoNi
_chemical_formula_sum   'Ti108 Co54 Ni54'
_cell_volume   3136.92339614
_cell_formula_units_Z   54
loop_
 _symmetry_equiv_pos_site_id
 _symmetry_equiv_pos_as_xyz
  1  'x, y, z'
loop_
 _atom_site_type_symbol
 _atom_site_label
 _atom_site_symmetry_multiplicity
 _atom_site_fract_x
 _atom_site_fract_y
 _atom_site_fract_z
 _atom_site_occupancy
  Ti  Ti0  1  0.02249893  0.11063562  0.05368678  1
  Ti  Ti1  1  0.10052473  0.06193506  0.38385132  1
  Ti  Ti2  1  -0.03769232  -0.07705748  0.62976967  1
  Ti  Ti3  1  0.04140660  0.33639374  0.02798275  1
  Ti  Ti4  1  0.02219111  0.31967676  0.29789769  1
  Ti  Ti5  1  0.02072361  0.27814261  0.61770699  1
  Ti  Ti6  1  -0.03603428  0.65088091  -0.07000873  1
  Ti  Ti7  1  0.04264773  0.62821616  0.31504229  1
  Ti  Ti8  1  -0.04002483  0.71348529  0.69665568  1
  Ti  Ti9  1  0.31635245  0.01313030  -0.03944183  1
  Ti  Ti10  1  0.30774843  0.06693890  0.30325969  1
  Ti  Ti11  1  0.34167124  -0.00515530  0.76494099  1
  Ti  Ti12  1  0.34382362  0.38351935  -0.03155063  1
  Ti  Ti13  1  0.29249102  0.33680483  0.41374391  1
  Ti  Ti14  1  0.38114774  0.34812786  0.69440851  1
  Ti  Ti15  1  0.39605993  0.59769925  0.01870122  1
  Ti  Ti16  1  0.36473609  0.70342661  0.34443864  1
  Ti  Ti17  1  0.38304301  0.68457751  0.68183748  1
  Ti  Ti18  1  0.66732773  0.01786354  0.00678979  1
  Ti  Ti19  1  0.64005362  0.02295834  0.37149066  1
  Ti  Ti20  1  0.67477185  -0.02448652  0.67933765  1
  Ti  Ti21  1  0.73118328  0.38433733  -0.06666258  1
  Ti  Ti22  1  0.68279589  0.26162582  0.40068965  1
  Ti  Ti23  1  0.59200077  0.29812177  0.68734243  1
  Ti  Ti24  1  0.68620442  0.67348553  0.03859887  1
  Ti  Ti25  1  0.74474820  0.65591613  0.32925693  1
  Ti  Ti26  1  0.65306162  0.63384554  0.62949801  1
  Ti  Ti27  1  -0.00047168  0.12775159  0.23995614  1
  Ti  Ti28  1  -0.04139190  0.09748116  0.52233005  1
  Ti  Ti29  1  0.00952563  0.11730168  0.85963908  1
  Ti  Ti30  1  -0.03420844  0.47047926  0.19086098  1
  Ti  Ti31  1  -0.06460704  0.52553980  0.47659086  1
  Ti  Ti32  1  0.08350252  0.58784640  0.77838657  1
  Ti  Ti33  1  -0.01481611  0.82932870  0.18876342  1
  Ti  Ti34  1  0.09873797  0.88492347  0.47150047  1
  Ti  Ti35  1  -0.04696399  0.85244950  0.88066314  1
  Ti  Ti36  1  0.37493628  0.24234954  0.14190326  1
  Ti  Ti37  1  0.29510106  0.20421511  0.57966159  1
  Ti  Ti38  1  0.28528762  0.21493837  0.82590207  1
  Ti  Ti39  1  0.36009426  0.45428716  0.14394990  1
  Ti  Ti40  1  0.31658027  0.53877880  0.48930401  1
  Ti  Ti41  1  0.37911661  0.51588865  0.81971700  1
  Ti  Ti42  1  0.32590110  0.86421295  0.21868866  1
  Ti  Ti43  1  0.28874845  0.81813978  0.50045108  1
  Ti  Ti44  1  0.24837253  0.79927562  0.74564139  1
  Ti  Ti45  1  0.61055953  0.22082367  0.13296143  1
  Ti  Ti46  1  0.75335234  0.11522609  0.51155414  1
  Ti  Ti47  1  0.73119608  0.21166919  0.84032817  1
  Ti  Ti48  1  0.70829621  0.48026213  0.21983012  1
  Ti  Ti49  1  0.61646661  0.53767395  0.44121084  1
  Ti  Ti50  1  0.65803357  0.51291296  0.80455531  1
  Ti  Ti51  1  0.68217777  0.88145860  0.14940280  1
  Ti  Ti52  1  0.64139985  0.74568375  0.46959282  1
  Ti  Ti53  1  0.67132098  0.84619363  0.90136277  1
  Ti  Ti54  1  0.13413750  -0.05718697  0.10871221  1
  Ti  Ti55  1  0.25359478  0.02302919  0.49976151  1
  Ti  Ti56  1  0.12171125  -0.04858637  0.75603872  1
  Ti  Ti57  1  0.15589454  0.41871308  0.16044442  1
  Ti  Ti58  1  0.12802590  0.33792470  0.48771452  1
  Ti  Ti59  1  0.10397920  0.32962982  0.82654236  1
  Ti  Ti60  1  0.16545238  0.73382823  0.11615791  1
  Ti  Ti61  1  0.12035550  0.58158545  0.52869704  1
  Ti  Ti62  1  0.25410992  0.65136531  0.85895081  1
  Ti  Ti63  1  0.48184819  -0.04333339  0.11687792  1
  Ti  Ti64  1  0.45955445  0.01667896  0.45544707  1
  Ti  Ti65  1  0.49641555  -0.04731810  0.89239953  1
  Ti  Ti66  1  0.50367967  0.34621143  0.23130506  1
  Ti  Ti67  1  0.46850540  0.31804600  0.42053866  1
  Ti  Ti68  1  0.47749744  0.30132498  0.86525146  1
  Ti  Ti69  1  0.50176456  0.73690581  0.16475509  1
  Ti  Ti70  1  0.47378715  0.64139342  0.52449664  1
  Ti  Ti71  1  0.50721746  0.73034674  0.83574608  1
  Ti  Ti72  1  0.86461291  -0.00123806  0.12446716  1
  Ti  Ti73  1  0.78443790  -0.08476242  0.52315570  1
  Ti  Ti74  1  0.78569935  0.01623080  0.84246166  1
  Ti  Ti75  1  0.80386801  0.33910692  0.11401970  1
  Ti  Ti76  1  0.88118519  0.28658807  0.46810090  1
  Ti  Ti77  1  0.86739670  0.37691022  0.80342278  1
  Ti  Ti78  1  0.84312864  0.59503612  0.12940407  1
  Ti  Ti79  1  0.81546653  0.71896871  0.57394822  1
  Ti  Ti80  1  0.79394675  0.65509762  0.77739129  1
  Ti  Ti81  1  0.21779284  0.14379174  0.05971196  1
  Ti  Ti82  1  0.19203674  0.22420467  0.26881996  1
  Ti  Ti83  1  0.12664482  0.15814905  0.71692138  1
  Ti  Ti84  1  0.17964997  0.48661185  -0.03912417  1
  Ti  Ti85  1  0.21580072  0.52277839  0.32182717  1
  Ti  Ti86  1  0.15157073  0.45002683  0.66217040  1
  Ti  Ti87  1  0.15405028  0.83225251  -0.07117073  1
  Ti  Ti88  1  0.16407699  0.79599677  0.31537820  1
  Ti  Ti89  1  0.11682530  0.77673313  0.62171527  1
  Ti  Ti90  1  0.52370463  0.13735866  -0.03015514  1
  Ti  Ti91  1  0.51760224  0.15870554  0.30444325  1
  Ti  Ti92  1  0.50625608  0.11774138  0.67653258  1
  Ti  Ti93  1  0.55879454  0.47836955  0.07559881  1
  Ti  Ti94  1  0.51102246  0.53680422  0.26934899  1
  Ti  Ti95  1  0.55884848  0.47413312  0.61416808  1
  Ti  Ti96  1  0.41232726  0.80942693  -0.00336150  1
  Ti  Ti97  1  0.51470938  0.85465501  0.34072240  1
  Ti  Ti98  1  0.46872944  0.90741248  0.62342742  1
  Ti  Ti99  1  0.82828472  0.16323258  0.00013446  1
  Ti  Ti100  1  0.78325102  0.15733270  0.27000814  1
  Ti  Ti101  1  0.84175736  0.22069640  0.66124430  1
  Ti  Ti102  1  0.89385233  0.46836143  -0.01130103  1
  Ti  Ti103  1  0.78017300  0.42974179  0.38958200  1
  Ti  Ti104  1  0.81709402  0.51225747  0.64824477  1
  Ti  Ti105  1  0.85781483  0.77871196  0.04873973  1
  Ti  Ti106  1  0.85994086  0.84325600  0.34826180  1
  Ti  Ti107  1  0.80656146  0.84628199  0.73156833  1
  Co  Co108  1  0.20800856  0.67473432  0.41531988  1
  Co  Co109  1  0.39234210  0.16095108  0.45444635  1
  Co  Co110  1  0.05278733  0.21380132  0.41560934  1
  Co  Co111  1  0.03859079  0.51923450  0.04423811  1
  Co  Co112  1  0.57740827  0.18533264  0.81189386  1
  Co  Co113  1  0.37495111  0.59801579  0.21166894  1
  Co  Co114  1  0.80825675  0.01850640  0.39376433  1
  Co  Co115  1  0.09571172  0.23919392  0.14276681  1
  Co  Co116  1  0.10781561  0.99236385  0.59664021  1
  Co  Co117  1  0.27551333  0.87318806  0.05738059  1
  Co  Co118  1  0.73938737  0.41713064  0.53941839  1
  Co  Co119  1  0.71470347  0.25989436  0.56926020  1
  Co  Co120  1  0.23725388  0.31136165  0.07322313  1
  Co  Co121  1  0.08825393  0.75166271  0.79902767  1
  Co  Co122  1  0.52101885  0.60315482  0.72468146  1
  Co  Co123  1  0.11251078  0.57547041  0.17756422  1
  Co  Co124  1  0.52926189  0.75491817  0.64277060  1
  Co  Co125  1  0.90789458  0.39487058  0.58251838  1
  Co  Co126  1  0.62418260  0.03563330  0.83467346  1
  Co  Co127  1  0.79949333  0.91532823  0.98529298  1
  Co  Co128  1  0.56488884  0.42121465  0.92647735  1
  Co  Co129  1  0.75177268  0.98617115  0.24913227  1
  Co  Co130  1  0.72409722  0.49661731  0.05318337  1
  Co  Co131  1  0.51085661  0.44141169  0.76803206  1
  Co  Co132  1  -0.01416200  0.56005534  0.63784320  1
  Co  Co133  1  0.91702112  -0.00715124  0.27845273  1
  Co  Co134  1  0.46083327  0.25215474  0.58123036  1
  Co  Co135  1  0.15043165  0.07579212  0.20233697  1
  Co  Co136  1  0.48234267  0.32511864  0.04813326  1
  Co  Co137  1  0.41385486  0.84110054  0.76230947  1
  Co  Co138  1  0.22670692  0.18004315  0.42212379  1
  Co  Co139  1  0.57171505  0.85122761  0.02826647  1
  Co  Co140  1  0.80997343  0.76355710  0.89144870  1
  Co  Co141  1  0.03269764  0.77778315  0.02519556  1
  Co  Co142  1  0.38191029  1.05019826  0.59821976  1
  Co  Co143  1  0.70529211  0.87161165  0.37054824  1
  Co  Co144  1  0.12527449  0.14661908  0.54695454  1
  Co  Co145  1  0.35995955  0.21435363  0.96940893  1
  Co  Co146  1  0.97880258  0.92047728  0.04410394  1
  Co  Co147  1  0.23856451  0.06802980  0.67187458  1
  Co  Co148  1  0.31089963  0.86468654  0.88555295  1
  Co  Co149  1  0.36751710  0.22505700  0.30835439  1
  Co  Co150  1  0.27466283  0.72304821  0.99143068  1
  Co  Co151  1  -0.01175802  0.09854535  0.67733457  1
  Co  Co152  1  0.22897432  0.66368243  0.25075697  1
  Co  Co153  1  0.91337131  0.02520979  0.94759681  1
  Co  Co154  1  0.12334380  0.64673156  0.96487446  1
  Co  Co155  1  0.33735652  0.72947968  0.13914365  1
  Co  Co156  1  0.56564199  0.17625706  0.46961180  1
  Co  Co157  1  0.24497072  0.57869291  0.08276268  1
  Co  Co158  1  0.67963682  0.81514094  0.62472443  1
  Co  Co159  1  0.65572044  0.72944742  0.76462169  1
  Co  Co160  1  0.98933419  0.65928808  0.12052062  1
  Co  Co161  1  0.26430403  0.91192702  0.63018592  1
  Ni  Ni162  1  0.90109785  0.70033382  0.25544874  1
  Ni  Ni163  1  0.95655185  0.95585000  0.43522514  1
  Ni  Ni164  1  0.05508859  0.71756832  0.45755749  1
  Ni  Ni165  1  0.25979656  0.67800107  0.57275843  1
  Ni  Ni166  1  0.28284026  0.39775084  0.56991724  1
  Ni  Ni167  1  0.60121936  0.04775824  0.19693316  1
  Ni  Ni168  1  0.63279774  0.77247573  0.26841361  1
  Ni  Ni169  1  0.96492457  0.24614278  0.77448712  1
  Ni  Ni170  1  0.83085791  0.04040378  0.65551481  1
  Ni  Ni171  1  0.87167749  0.54320579  0.30643364  1
  Ni  Ni172  1  0.12968923  0.21187906  0.94167422  1
  Ni  Ni173  1  0.79597201  0.59506684  0.93618884  1
  Ni  Ni174  1  0.89173987  0.67955557  0.41865224  1
  Ni  Ni175  1  0.53461340  0.69229116  0.99923050  1
  Ni  Ni176  1  0.90859669  0.29117749  0.94204516  1
  Ni  Ni177  1  0.93728122  0.98007614  0.78072004  1
  Ni  Ni178  1  0.39623855  0.51380536  0.64379378  1
  Ni  Ni179  1  0.37745614  0.47126631  0.34159652  1
  Ni  Ni180  1  0.19439582  0.07582115  0.85500337  1
  Ni  Ni181  1  0.28913155  0.35915407  0.24887711  1
  Ni  Ni182  1  0.42660389  0.12213578  0.83629832  1
  Ni  Ni183  1  0.25925458  0.39681386  0.81383119  1
  Ni  Ni184  1  0.91196002  0.54227887  0.80193958  1
  Ni  Ni185  1  0.29582889  0.01138986  0.14323858  1
  Ni  Ni186  1  1.02433931  0.45907523  0.88760874  1
  Ni  Ni187  1  0.92911298  0.23652616  0.13119608  1
  Ni  Ni188  1  0.76606446  0.58486985  0.48912773  1
  Ni  Ni189  1  0.45458508  0.80219288  0.48756621  1
  Ni  Ni190  1  0.62476113  0.27059972  -0.02532817  1
  Ni  Ni191  1  0.90613809  0.15071302  0.37543392  1
  Ni  Ni192  1  0.59430511  0.89971630  0.49554059  1
  Ni  Ni193  1  0.68987378  0.14145789  0.69347807  1
  Ni  Ni194  1  0.57889435  0.87715488  0.76291465  1
  Ni  Ni195  1  0.69134188  0.31672081  0.24238219  1
  Ni  Ni196  1  0.85974064  0.31667146  0.27695736  1
  Ni  Ni197  1  0.40916989  0.09802461  0.07620240  1
  Ni  Ni198  1  0.07515073  0.93626077  0.28115487  1
  Ni  Ni199  1  0.76322999  0.73935475  0.18214885  1
  Ni  Ni200  1  0.63485316  0.62548151  0.19406342  1
  Ni  Ni201  1  0.73554326  0.11091505  0.12476900  1
  Ni  Ni202  1  0.73721091  0.36546160  0.70839743  1
  Ni  Ni203  1  0.46047311  0.99682893  0.27718976  1
  Ni  Ni204  1  0.08874018  0.98864067  0.94335362  1
  Ni  Ni205  1  0.60400146  0.40570171  0.35043972  1
  Ni  Ni206  1  0.60459347  0.04794730  0.55402385  1
  Ni  Ni207  1  -0.00194167  0.42063368  0.72137058  1
  Ni  Ni208  1  0.52001178  0.56974332  0.89321496  1
  Ni  Ni209  1  0.06275127  0.46369237  0.38242605  1
  Ni  Ni210  1  0.93813924  0.80848432  0.51749762  1
  Ni  Ni211  1  0.23964630  0.58569257  0.70059433  1
  Ni  Ni212  1  0.53481038  0.67528641  0.35538579  1
  Ni  Ni213  1  0.59176381  0.34981674  0.51520242  1
  Ni  Ni214  1  0.20802687  0.29942233  0.68476458  1
  Ni  Ni215  1  0.34874404  0.90672756  0.37660127  1
