# generated using pymatgen
data_Ti2CoNi
_symmetry_space_group_name_H-M   'P 1'
_cell_length_a   14.58270890
_cell_length_b   14.61637991
_cell_length_c   14.55863344
_cell_angle_alpha   90.08442013
_cell_angle_beta   90.02351139
_cell_angle_gamma   89.79661966
_symmetry_Int_Tables_number   1
_chemical_formula_structural   Ti2CoNi
_chemical_formula_sum   'Ti108 Co54 Ni54'
_cell_volume   3103.09732868
_cell_formula_units_Z   54
loop_
 _symmetry_equiv_pos_site_id
 _symmetry_equiv_pos_as_xyz
  1  'x, y, z'
loop_
 _atom_site_type_symbol
 _atom_site_label
 _atom_site_symmetry_multiplicity
 _atom_site_fract_x
 _atom_site_fract_y
 _atom_site_fract_z
 _atom_site_occupancy
  Ti  Ti0  1  0.00423936  0.04049446  0.09438353  1
  Ti  Ti1  1  -0.01135517  0.06270217  0.29847126  1
  Ti  Ti2  1  0.01432530  -0.05336844  0.66086023  1
  Ti  Ti3  1  -0.01313010  0.34695022  -0.03161952  1
  Ti  Ti4  1  -0.03102870  0.38924561  0.43255628  1
  Ti  Ti5  1  -0.05527539  0.31843042  0.67045010  1
  Ti  Ti6  1  0.03742042  0.67075682  -0.00115430  1
  Ti  Ti7  1  0.07514543  0.63367170  0.32623427  1
  Ti  Ti8  1  0.02142717  0.71071980  0.64110721  1
  Ti  Ti9  1  0.36260555  0.04203632  -0.01195648  1
  Ti  Ti10  1  0.39301415  0.06637300  0.28083763  1
  Ti  Ti11  1  0.33545649  -0.08445177  0.64705121  1
  Ti  Ti12  1  0.35544367  0.26717651  -0.01248742  1
  Ti  Ti13  1  0.33481794  0.27504281  0.30296554  1
  Ti  Ti14  1  0.40428285  0.35024428  0.66511986  1
  Ti  Ti15  1  0.28852547  0.67869084  -0.01270826  1
  Ti  Ti16  1  0.35164303  0.59641360  0.41518274  1
  Ti  Ti17  1  0.33366692  0.62205820  0.67600618  1
  Ti  Ti18  1  0.73994257  -0.01486063  -0.01837696  1
  Ti  Ti19  1  0.58889387  0.00357034  0.29433523  1
  Ti  Ti20  1  0.69145262  0.07435917  0.66151708  1
  Ti  Ti21  1  0.64136209  0.36040276  -0.06755927  1
  Ti  Ti22  1  0.68355736  0.32737024  0.28754411  1
  Ti  Ti23  1  0.76061687  0.25387884  0.63109711  1
  Ti  Ti24  1  0.69160970  0.70143734  -0.04184930  1
  Ti  Ti25  1  0.61115933  0.68452688  0.38375068  1
  Ti  Ti26  1  0.68363242  0.63406056  0.64475217  1
  Ti  Ti27  1  -0.04860468  0.21731520  0.19707378  1
  Ti  Ti28  1  0.00383322  0.12419748  0.49892499  1
  Ti  Ti29  1  0.07595848  0.09719038  0.81163845  1
  Ti  Ti30  1  -0.05051220  0.50981728  0.08889043  1
  Ti  Ti31  1  0.05316051  0.55085678  0.51583297  1
  Ti  Ti32  1  0.03041703  0.52950458  0.73753927  1
  Ti  Ti33  1  0.02133890  0.87514944  0.21155224  1
  Ti  Ti34  1  -0.09530028  0.85974116  0.53519823  1
  Ti  Ti35  1  -0.01019287  0.87759066  0.86245325  1
  Ti  Ti36  1  0.26772415  0.19142062  0.15035506  1
  Ti  Ti37  1  0.34839388  0.17919677  0.61361111  1
  Ti  Ti38  1  0.31438566  0.18375306  0.80834051  1
  Ti  Ti39  1  0.41038527  0.51597832  0.20810811  1
  Ti  Ti40  1  0.27852683  0.48096828  0.56505974  1
  Ti  Ti41  1  0.33623353  0.53007231  0.87379836  1
  Ti  Ti42  1  0.31075353  0.86886283  0.19259488  1
  Ti  Ti43  1  0.32350270  0.85664752  0.44980294  1
  Ti  Ti44  1  0.31311867  0.84598024  0.88118655  1
  Ti  Ti45  1  0.72047217  0.34127642  0.10604360  1
  Ti  Ti46  1  0.60521879  0.14281434  0.47898276  1
  Ti  Ti47  1  0.67716062  0.13971647  0.86737252  1
  Ti  Ti48  1  0.75254399  0.55036781  0.14344329  1
  Ti  Ti49  1  0.63011287  0.36122944  0.46578299  1
  Ti  Ti50  1  0.64245163  0.52747454  0.81284823  1
  Ti  Ti51  1  0.68914683  0.83315623  0.24179064  1
  Ti  Ti52  1  0.59012223  0.86161895  0.46014284  1
  Ti  Ti53  1  0.61832173  0.87196308  0.89521404  1
  Ti  Ti54  1  0.16877622  0.00709460  0.19981372  1
  Ti  Ti55  1  0.21648579  0.03153166  0.50053363  1
  Ti  Ti56  1  0.17950088  -0.06803412  0.77531812  1
  Ti  Ti57  1  0.10474537  0.32276924  0.24414918  1
  Ti  Ti58  1  0.18130332  0.35284747  0.42482321  1
  Ti  Ti59  1  0.16845905  0.38017552  0.85202431  1
  Ti  Ti60  1  0.22489118  0.66564280  0.20078132  1
  Ti  Ti61  1  0.19866253  0.67600751  0.49324471  1
  Ti  Ti62  1  0.17283402  0.63592521  0.81287344  1
  Ti  Ti63  1  0.56720587  0.01122114  0.09363425  1
  Ti  Ti64  1  0.42267894  0.04250639  0.51882806  1
  Ti  Ti65  1  0.48674965  0.03916417  0.78974964  1
  Ti  Ti66  1  0.51366160  0.39087629  0.26943618  1
  Ti  Ti67  1  0.42030509  0.36125792  0.46541376  1
  Ti  Ti68  1  0.52060199  0.32737617  0.79989392  1
  Ti  Ti69  1  0.41014123  0.69364430  0.13944020  1
  Ti  Ti70  1  0.50317110  0.67300339  0.56737534  1
  Ti  Ti71  1  0.51163291  0.62378217  0.90730097  1
  Ti  Ti72  1  0.84992508  -0.07334558  0.14995716  1
  Ti  Ti73  1  0.73539714  -0.00354097  0.46876701  1
  Ti  Ti74  1  0.82458933  -0.00081068  0.80406279  1
  Ti  Ti75  1  0.88131044  0.39608027  0.23554784  1
  Ti  Ti76  1  0.77909296  0.41947709  0.54871652  1
  Ti  Ti77  1  0.81475755  0.31766334  0.84120369  1
  Ti  Ti78  1  0.87376724  0.72007119  0.20024550  1
  Ti  Ti79  1  0.85440956  0.68442492  0.43614982  1
  Ti  Ti80  1  0.79524878  0.67473684  0.79737682  1
  Ti  Ti81  1  0.15517857  0.13792338  0.00828520  1
  Ti  Ti82  1  0.12588108  0.18084954  0.37168894  1
  Ti  Ti83  1  0.16788267  0.20842067  0.59021563  1
  Ti  Ti84  1  0.16166781  0.50830265  0.02596196  1
  Ti  Ti85  1  0.21836731  0.46983944  0.24690125  1
  Ti  Ti86  1  0.12476588  0.40225688  0.63376617  1
  Ti  Ti87  1  0.16639117  0.81713432  0.05369885  1
  Ti  Ti88  1  0.11983934  0.83252709  0.38550280  1
  Ti  Ti89  1  0.16064463  0.84387166  0.57653477  1
  Ti  Ti90  1  0.55951590  0.19914657  0.03038799  1
  Ti  Ti91  1  0.53075363  0.19481821  0.23574349  1
  Ti  Ti92  1  0.52749926  0.16955338  0.67733199  1
  Ti  Ti93  1  0.57444456  0.48741349  0.06426159  1
  Ti  Ti94  1  0.52330269  0.52113284  0.40411950  1
  Ti  Ti95  1  0.57449315  0.46552332  0.63043534  1
  Ti  Ti96  1  0.53476632  0.81152334  0.07740354  1
  Ti  Ti97  1  0.47514374  0.81335768  0.29388995  1
  Ti  Ti98  1  0.48277140  0.84133779  0.73785409  1
  Ti  Ti99  1  0.81396464  0.12993593  0.07255877  1
  Ti  Ti100  1  0.82390262  0.17573473  0.38456533  1
  Ti  Ti101  1  0.94200916  0.12917670  0.66743136  1
  Ti  Ti102  1  0.88088915  0.53323345  -0.10641230  1
  Ti  Ti103  1  0.73918916  0.51351751  0.35233642  1
  Ti  Ti104  1  0.82917787  0.47673462  0.72284194  1
  Ti  Ti105  1  0.86415182  0.79595680  0.01134328  1
  Ti  Ti106  1  0.89648884  0.90692915  0.34820122  1
  Ti  Ti107  1  0.72600678  0.83526175  0.72699662  1
  Co  Co108  1  0.81432900  0.16243184  0.76331283  1
  Co  Co109  1  0.60316089  0.30523046  0.61569113  1
  Co  Co110  1  0.54245852  0.26504650  0.37689575  1
  Co  Co111  1  0.57534983  0.64565211  0.06531676  1
  Co  Co112  1  0.08403096  0.80210269  0.74440154  1
  Co  Co113  1  0.75168972  0.24151513  0.97215289  1
  Co  Co114  1  0.29747331  0.42473863  0.98064132  1
  Co  Co115  1  0.94043086  0.46313559  0.58619420  1
  Co  Co116  1  0.70858890  0.53462163  0.95985150  1
  Co  Co117  1  0.62159131  0.71912731  0.79718938  1
  Co  Co118  1  0.24646789  0.11194939  0.30717543  1
  Co  Co119  1  0.88339906  0.27070373  0.51709330  1
  Co  Co120  1  0.52718345  -0.01440857  0.62848817  1
  Co  Co121  1  0.63219271  0.96908422  0.76454921  1
  Co  Co122  1  0.65695923  0.23993332  0.75829069  1
  Co  Co123  1  0.66682442  0.15598528  0.15335360  1
  Co  Co124  1  0.87865340  0.29198953  0.07629417  1
  Co  Co125  1  0.98479713  0.39132225  0.80884736  1
  Co  Co126  1  0.73113706  0.71198411  0.12207489  1
  Co  Co127  1  0.80326702  0.12900360  0.53833889  1
  Co  Co128  1  0.58481864  0.71178656  0.20927242  1
  Co  Co129  1  0.08773083  0.25156894  0.72851570  1
  Co  Co130  1  0.18563395  0.30762465  0.00690823  1
  Co  Co131  1  0.46411596  0.85551166  0.55051505  1
  Co  Co132  1  0.43026859  0.16196938  0.40526750  1
  Co  Co133  1  0.45800062  0.64638049  0.29547673  1
  Co  Co134  1  0.67814051  0.13464294  0.32009182  1
  Co  Co135  1  0.16892979  0.81432785  0.23123278  1
  Co  Co136  1  0.43324238  0.40234198  0.05815026  1
  Co  Co137  1  0.48613893  0.23722151  0.53489403  1
  Co  Co138  1  0.48952888  0.45359389  0.90463983  1
  Co  Co139  1  0.24866164  0.78197707  0.71345193  1
  Co  Co140  1  0.26399834  0.36778670  0.13517673  1
  Co  Co141  1  0.70694942  -0.00174168  0.16299959  1
  Co  Co142  1  0.50595797  0.63490799  0.73061724  1
  Co  Co143  1  0.74960002  0.96799935  0.31771601  1
  Co  Co144  1  0.80832558  0.35222062  0.38888971  1
  Co  Co145  1  0.04733300  0.95347445  0.49947027  1
  Co  Co146  1  0.89695923  1.01917164  0.45927856  1
  Co  Co147  1  0.59267429  0.78581122  0.63727100  1
  Co  Co148  1  0.09191130  0.24206174  0.89192340  1
  Co  Co149  1  0.29070957  0.54552792  0.10693200  1
  Co  Co150  1  0.81421044  0.84174742  0.87094002  1
  Co  Co151  1  0.74044221  0.66478066  0.28654541  1
  Co  Co152  1  0.25035075  0.30911899  0.71336613  1
  Co  Co153  1  0.95275058  0.22392047  0.81602142  1
  Co  Co154  1  0.16319822  0.58970820  0.64505495  1
  Co  Co155  1  0.79123407  0.23924908  0.22137735  1
  Co  Co156  1  0.42488639  0.56034618  1.02994621  1
  Co  Co157  1  0.44035047  0.73459075  0.43124126  1
  Co  Co158  1  0.56151559  0.32897016  0.12578339  1
  Co  Co159  1  0.28075550  0.32340701  0.54886447  1
  Co  Co160  1  0.40973524  0.27933732  0.15243927  1
  Co  Co161  1  0.84331490  -0.00500550  0.62883018  1
  Ni  Ni162  1  0.83576761  0.07761267  0.23576154  1
  Ni  Ni163  1  0.67624135  0.91799546  0.59745529  1
  Ni  Ni164  1  0.35605189  0.83505503  0.04050108  1
  Ni  Ni165  1  0.45600823  0.93776754  0.18189039  1
  Ni  Ni166  1  0.57157385  0.03923435  0.93290426  1
  Ni  Ni167  1  -0.02511426  0.24501884  0.36639573  1
  Ni  Ni168  1  0.34664705  -0.01552681  0.80843359  1
  Ni  Ni169  1  0.89425267  0.85471750  0.71861616  1
  Ni  Ni170  1  0.89810689  0.61533793  0.68113054  1
  Ni  Ni171  1  0.05179217  0.51475006  0.90374325  1
  Ni  Ni172  1  0.27993635  0.74090420  0.34346610  1
  Ni  Ni173  1  0.10629383  0.15850741  0.18432737  1
  Ni  Ni174  1  0.14729946  0.77798889  0.88878824  1
  Ni  Ni175  1  0.94635640  0.70159953  0.85945839  1
  Ni  Ni176  1  0.06273157  0.47134455  0.33022546  1
  Ni  Ni177  1  0.90988870  0.56583348  0.25230280  1
  Ni  Ni178  1  0.33516510  0.74638252  0.56806365  1
  Ni  Ni179  1  0.12251409  -0.00151970  0.36464020  1
  Ni  Ni180  1  0.35269645  0.69351049  0.82069020  1
  Ni  Ni181  1  0.46442009  0.92074260  0.95198142  1
  Ni  Ni182  1  0.81406626  0.57639452  0.55281221  1
  Ni  Ni183  1  0.04406735  0.28910868  0.53298542  1
  Ni  Ni184  1  0.22524116  0.05531089  0.88150481  1
  Ni  Ni185  1  0.75544649  0.81192365  0.39872683  1
  Ni  Ni186  1  0.60237847  0.54938096  0.23614406  1
  Ni  Ni187  1  0.07390255  0.39071725  0.10447817  1
  Ni  Ni188  1  0.69111021  0.85739169  0.06558788  1
  Ni  Ni189  1  0.82231400  0.42407232  0.00370111  1
  Ni  Ni190  1  0.22364372  0.97188110  0.04600529  1
  Ni  Ni191  1  0.08254706  0.54835139  0.17934987  1
  Ni  Ni192  1  0.02974097  0.72334214  0.47776664  1
  Ni  Ni193  1  0.65563247  0.55456116  0.49656925  1
  Ni  Ni194  1  0.68842785  0.39272539  0.73032139  1
  Ni  Ni195  1  0.43891457  0.51540008  0.55683098  1
  Ni  Ni196  1  0.90580521  -0.01821728  0.97280385  1
  Ni  Ni197  1  0.82296570  0.74025453  0.61642226  1
  Ni  Ni198  1  0.42428725  0.11345914  0.12062964  1
  Ni  Ni199  1  1.00628635  0.86808367  0.04715641  1
  Ni  Ni200  1  0.27697963  0.94818020  0.33127409  1
  Ni  Ni201  1  0.11207668  0.06675614  0.64014212  1
  Ni  Ni202  1  0.43367463  0.49033800  0.74073837  1
  Ni  Ni203  1  0.09000503  0.98297115  0.94811970  1
  Ni  Ni204  1  0.48069429  0.18444300  0.88097745  1
  Ni  Ni205  1  0.34391905  0.44161960  0.34995272  1
  Ni  Ni206  1  0.89344157  0.52362650  0.41011563  1
  Ni  Ni207  1  0.47701853  0.77657960  0.89204140  1
  Ni  Ni208  1  0.26426323  0.06279048  0.69017311  1
  Ni  Ni209  1  0.85029796  0.63342337  0.02414001  1
  Ni  Ni210  1  0.25337601  0.47656065  0.73687042  1
  Ni  Ni211  1  0.05625802  0.71104572  0.16251562  1
  Ni  Ni212  1  0.19671947  0.51665066  0.42262129  1
  Ni  Ni213  1  0.28056924  0.18912662  0.45235995  1
  Ni  Ni214  1  0.45519825  0.95347746  0.38839663  1
  Ni  Ni215  1  0.96622434  0.75877319  0.33313639  1
