# generated using pymatgen
data_Ti2CoNi
_symmetry_space_group_name_H-M   'P 1'
_cell_length_a   14.64169104
_cell_length_b   14.71843113
_cell_length_c   14.56610122
_cell_angle_alpha   90.01760113
_cell_angle_beta   90.15869929
_cell_angle_gamma   89.92858467
_symmetry_Int_Tables_number   1
_chemical_formula_structural   Ti2CoNi
_chemical_formula_sum   'Ti108 Co54 Ni54'
_cell_volume   3139.01982506
_cell_formula_units_Z   54
loop_
 _symmetry_equiv_pos_site_id
 _symmetry_equiv_pos_as_xyz
  1  'x, y, z'
loop_
 _atom_site_type_symbol
 _atom_site_label
 _atom_site_symmetry_multiplicity
 _atom_site_fract_x
 _atom_site_fract_y
 _atom_site_fract_z
 _atom_site_occupancy
  Ti  Ti0  1  -0.03441582  -0.02990236  0.12525012  1
  Ti  Ti1  1  -0.02110727  0.01187663  0.39962520  1
  Ti  Ti2  1  0.03209685  0.04272421  0.68966777  1
  Ti  Ti3  1  -0.11622771  0.34848301  0.04846501  1
  Ti  Ti4  1  -0.01563753  0.37489773  0.31421100  1
  Ti  Ti5  1  0.06089835  0.28407339  0.62512125  1
  Ti  Ti6  1  0.00035319  0.62784365  -0.07857399  1
  Ti  Ti7  1  0.02750632  0.68053720  0.39353805  1
  Ti  Ti8  1  -0.01038868  0.67695434  0.70444795  1
  Ti  Ti9  1  0.37788428  -0.00621628  -0.00806220  1
  Ti  Ti10  1  0.32402255  -0.02387352  0.40686319  1
  Ti  Ti11  1  0.36647147  0.04562907  0.62854768  1
  Ti  Ti12  1  0.29306129  0.35108919  -0.06628856  1
  Ti  Ti13  1  0.34880053  0.36714831  0.32892282  1
  Ti  Ti14  1  0.37762793  0.35604958  0.75095214  1
  Ti  Ti15  1  0.28771913  0.65208442  0.01571136  1
  Ti  Ti16  1  0.33228770  0.71835478  0.28417290  1
  Ti  Ti17  1  0.34960154  0.67272046  0.65777599  1
  Ti  Ti18  1  0.74910372  -0.00096795  -0.01557302  1
  Ti  Ti19  1  0.62759130  0.02432159  0.29439508  1
  Ti  Ti20  1  0.67249158  0.07197814  0.67777351  1
  Ti  Ti21  1  0.67617716  0.32187137  -0.04364161  1
  Ti  Ti22  1  0.74805980  0.38493821  0.29635112  1
  Ti  Ti23  1  0.70464712  0.27387121  0.67662892  1
  Ti  Ti24  1  0.66404078  0.72486259  0.05620948  1
  Ti  Ti25  1  0.64542032  0.68577919  0.40242556  1
  Ti  Ti26  1  0.66131339  0.64077228  0.61528064  1
  Ti  Ti27  1  0.09941633  0.10212517  0.16136502  1
  Ti  Ti28  1  -0.02531055  0.19992183  0.45502762  1
  Ti  Ti29  1  -0.03510647  0.13410352  0.87002685  1
  Ti  Ti30  1  -0.01385835  0.51377220  0.09870605  1
  Ti  Ti31  1  0.01565140  0.44876876  0.49896012  1
  Ti  Ti32  1  -0.02841455  0.43953728  0.88772775  1
  Ti  Ti33  1  0.05080075  0.78836128  0.15332947  1
  Ti  Ti34  1  -0.02233593  0.78119002  0.55538927  1
  Ti  Ti35  1  -0.00805876  0.91328418  0.84743703  1
  Ti  Ti36  1  0.29333119  0.11529757  0.17066239  1
  Ti  Ti37  1  0.30992097  0.24917225  0.58355777  1
  Ti  Ti38  1  0.28772734  0.13664335  0.87625677  1
  Ti  Ti39  1  0.42912660  0.46714743  0.18932249  1
  Ti  Ti40  1  0.30195518  0.54788673  0.47928231  1
  Ti  Ti41  1  0.34115084  0.55210575  0.82756133  1
  Ti  Ti42  1  0.35943058  0.81574186  0.11018061  1
  Ti  Ti43  1  0.28892337  0.75562503  0.48710707  1
  Ti  Ti44  1  0.29021334  0.85914499  0.77413244  1
  Ti  Ti45  1  0.70340527  0.28141842  0.13334781  1
  Ti  Ti46  1  0.66689315  0.21064903  0.47998299  1
  Ti  Ti47  1  0.59736012  0.19891579  0.82724611  1
  Ti  Ti48  1  0.64276298  0.52101348  0.16250782  1
  Ti  Ti49  1  0.69067695  0.42237815  0.48037698  1
  Ti  Ti50  1  0.63531847  0.50068177  0.92946458  1
  Ti  Ti51  1  0.68600680  0.84389947  0.21598468  1
  Ti  Ti52  1  0.69901210  0.82282756  0.54470438  1
  Ti  Ti53  1  0.64409582  0.88225576  0.78464952  1
  Ti  Ti54  1  0.19785895  -0.06757514  0.11644056  1
  Ti  Ti55  1  0.20685137  -0.06072823  0.56925380  1
  Ti  Ti56  1  0.17790229  -0.03147370  0.90895112  1
  Ti  Ti57  1  0.23929001  0.32887509  0.13960524  1
  Ti  Ti58  1  0.18163174  0.36618328  0.43996368  1
  Ti  Ti59  1  0.11133316  0.30243864  0.83061028  1
  Ti  Ti60  1  0.17431223  0.56078622  0.18146032  1
  Ti  Ti61  1  0.13783594  0.63378451  0.54349705  1
  Ti  Ti62  1  0.16801495  0.58936741  0.73937138  1
  Ti  Ti63  1  0.46881351  -0.01680696  0.16849889  1
  Ti  Ti64  1  0.50716910  -0.04611693  0.47157979  1
  Ti  Ti65  1  0.48250064  0.03634808  0.82306529  1
  Ti  Ti66  1  0.54226078  0.32031353  0.22245699  1
  Ti  Ti67  1  0.46795858  0.26961124  0.46412986  1
  Ti  Ti68  1  0.48966818  0.33147278  0.91661685  1
  Ti  Ti69  1  0.49323326  0.65688343  0.15266879  1
  Ti  Ti70  1  0.49711973  0.75057036  0.51641890  1
  Ti  Ti71  1  0.54143688  0.62897351  0.80338678  1
  Ti  Ti72  1  0.80082321  -0.00907074  0.19013760  1
  Ti  Ti73  1  0.70345738  0.01246897  0.48412065  1
  Ti  Ti74  1  0.82797046  -0.00471371  0.78755409  1
  Ti  Ti75  1  0.87914537  0.24855510  0.22519782  1
  Ti  Ti76  1  0.85525000  0.30892979  0.57210263  1
  Ti  Ti77  1  0.82919612  0.29554912  0.84209720  1
  Ti  Ti78  1  0.80202295  0.66024440  0.20515053  1
  Ti  Ti79  1  0.83834408  0.71152470  0.45872982  1
  Ti  Ti80  1  0.82534227  0.63480105  0.82112308  1
  Ti  Ti81  1  0.14105731  0.21513691  -0.00222835  1
  Ti  Ti82  1  0.17356544  0.19862932  0.32475152  1
  Ti  Ti83  1  0.18824449  0.13566698  0.65571946  1
  Ti  Ti84  1  0.15066405  0.47268389  -0.02500416  1
  Ti  Ti85  1  0.12745973  0.52589818  0.36977556  1
  Ti  Ti86  1  0.20218504  0.42743727  0.63074840  1
  Ti  Ti87  1  0.15156368  0.77861274  -0.03023553  1
  Ti  Ti88  1  0.18646864  0.85048754  0.31232432  1
  Ti  Ti89  1  0.09592128  0.86445483  0.70028709  1
  Ti  Ti90  1  0.58133064  0.10831356  0.01114034  1
  Ti  Ti91  1  0.41655006  0.14634830  0.31134173  1
  Ti  Ti92  1  0.50356883  0.20597362  0.64793482  1
  Ti  Ti93  1  0.43709309  0.51128424  -0.00824997  1
  Ti  Ti94  1  0.46191185  0.59596668  0.36461349  1
  Ti  Ti95  1  0.55641589  0.47711855  0.65340107  1
  Ti  Ti96  1  0.57128890  0.90733416  -0.01678937  1
  Ti  Ti97  1  0.51321467  0.80869254  0.28356364  1
  Ti  Ti98  1  0.46181701  0.88771179  0.68503242  1
  Ti  Ti99  1  0.86896083  0.13985552  0.05362921  1
  Ti  Ti100  1  0.80685562  0.11548486  0.34747680  1
  Ti  Ti101  1  0.88365262  0.15472120  0.67636952  1
  Ti  Ti102  1  0.81376571  0.58155055  0.01641642  1
  Ti  Ti103  1  0.88519077  0.54460868  0.35600800  1
  Ti  Ti104  1  0.80599523  0.49462686  0.64636958  1
  Ti  Ti105  1  0.89525085  0.80708302  0.00626812  1
  Ti  Ti106  1  0.91744653  0.84985798  0.31600827  1
  Ti  Ti107  1  0.82669252  0.80889041  0.71425456  1
  Co  Co108  1  0.49314341  0.77816346  0.03546350  1
  Co  Co109  1  0.33168320  0.39122847  0.50000082  1
  Co  Co110  1  0.95998019  0.29424726  0.75090883  1
  Co  Co111  1  0.01094492  0.53447964  0.25622470  1
  Co  Co112  1  0.44495799  0.17100374  0.92003881  1
  Co  Co113  1  0.30467624  0.23576777  0.41914373  1
  Co  Co114  1  0.69227167  0.21353126  0.28860168  1
  Co  Co115  1  0.07171522  0.08744337  0.53090387  1
  Co  Co116  1  -0.02005874  0.27984778  0.92935477  1
  Co  Co117  1  0.40532823  0.82499007  0.39681089  1
  Co  Co118  1  0.56085900  0.12634389  0.39060472  1
  Co  Co119  1  0.74380414  0.86429475  0.05956957  1
  Co  Co120  1  0.42786943  0.74503045  0.77154722  1
  Co  Co121  1  0.55347570  0.62208333  -0.00115548  1
  Co  Co122  1  0.22578831  0.43606800  0.80235023  1
  Co  Co123  1  0.22626713  0.07470843  1.02929723  1
  Co  Co124  1  0.30319081  0.84226090  -0.03937786  1
  Co  Co125  1  0.60531121  0.92893832  0.61831487  1
  Co  Co126  1  0.93410450  0.91446036  0.66344061  1
  Co  Co127  1  0.69391467  0.72186066  0.76288516  1
  Co  Co128  1  0.56994104  0.41681790  1.06634594  1
  Co  Co129  1  0.68848378  0.65352038  0.90902405  1
  Co  Co130  1  0.93692478  0.67176377  0.08617570  1
  Co  Co131  1  0.91642135  0.03949594  0.55790105  1
  Co  Co132  1  0.99793923  0.20870061  0.08065095  1
  Co  Co133  1  0.62046494  0.86509379  0.39665029  1
  Co  Co134  1  0.40880179  0.35816189  0.06710673  1
  Co  Co135  1  0.57144032  0.76672058  0.88411472  1
  Co  Co136  1  0.85699751  0.43113560  0.46527981  1
  Co  Co137  1  0.44378204  0.36893736  0.60534629  1
  Co  Co138  1  0.86177099  0.44550493  0.19912561  1
  Co  Co139  1  0.54065136  0.25637560  0.06018620  1
  Co  Co140  1  0.34368378  0.50237678  0.66368960  1
  Co  Co141  1  0.05863276  0.06514948  -0.00596393  1
  Co  Co142  1  0.54644126  0.33334270  0.73813519  1
  Co  Co143  1  0.77372855  0.94623139  0.35163093  1
  Co  Co144  1  0.93809879  0.59523375  0.52800652  1
  Co  Co145  1  0.14215706  0.96774991  0.41957086  1
  Co  Co146  1  0.39172589  0.26035694  0.18922425  1
  Co  Co147  1  0.48683139  0.46886324  0.81689568  1
  Co  Co148  1  0.94790234  0.41949431  0.64333543  1
  Co  Co149  1  0.85974422  0.81364875  0.16868382  1
  Co  Co150  1  0.10264767  0.64130965  0.05854667  1
  Co  Co151  1  0.07082801  0.43292476  0.74925727  1
  Co  Co152  1  0.31333801  0.21946966  0.02905505  1
  Co  Co153  1  0.82280562  0.66563494  0.63188997  1
  Co  Co154  1  0.59455607  0.33306245  0.56950340  1
  Co  Co155  1  0.03879377  0.93056425  0.54028582  1
  Co  Co156  1  0.75917498  0.78637701  0.34422619  1
  Co  Co157  1  0.05159855  0.53853542  0.63338853  1
  Co  Co158  1  0.80076374  0.86383107  0.88076506  1
  Co  Co159  1  0.36945662  0.88083488  0.55240398  1
  Co  Co160  1  0.77553495  0.95629603  0.62782028  1
  Co  Co161  1  0.93815769  0.53326074  0.75899166  1
  Ni  Ni162  1  0.24107002  0.09269345  0.49096198  1
  Ni  Ni163  1  0.48178020  0.43849268  0.44704960  1
  Ni  Ni164  1  0.28775272  0.47573735  0.06786450  1
  Ni  Ni165  1  0.72349223  0.55372837  0.32190339  1
  Ni  Ni166  1  0.59299361  0.55375097  0.48040345  1
  Ni  Ni167  1  0.19430801  0.74565048  0.65167118  1
  Ni  Ni168  1  0.81014417  0.15028971  0.52372640  1
  Ni  Ni169  1  0.43557122  0.13036639  0.08623161  1
  Ni  Ni170  1  0.44883302  0.58442432  0.54849775  1
  Ni  Ni171  1  0.24419008  0.25995833  0.75397803  1
  Ni  Ni172  1  0.55680948  0.08406864  0.55603560  1
  Ni  Ni173  1  0.21118319  0.73681253  0.15496070  1
  Ni  Ni174  1  0.68397642  0.38960948  0.79606699  1
  Ni  Ni175  1  0.34755674  0.90568714  0.25552596  1
  Ni  Ni176  1  0.33915250  0.60480965  0.16471919  1
  Ni  Ni177  1  0.63423748  0.67413123  0.23976385  1
  Ni  Ni178  1  0.69029822  0.54832539  0.76485973  1
  Ni  Ni179  1  0.16608270  0.61405644  0.90328626  1
  Ni  Ni180  1  0.16440389  0.39257172  0.27336273  1
  Ni  Ni181  1  0.29349883  0.53044070  0.30750700  1
  Ni  Ni182  1  0.05154856  0.90070571  1.00800516  1
  Ni  Ni183  1  0.12763152  0.80230783  0.47415876  1
  Ni  Ni184  1  0.19756288  0.67635048  0.36869876  1
  Ni  Ni185  1  0.14636403  0.22256024  0.49549225  1
  Ni  Ni186  1  0.42039481  0.68814280  0.92291032  1
  Ni  Ni187  1  0.76543142  0.14976419  0.80187838  1
  Ni  Ni188  1  0.76523652  0.57161200  0.49627818  1
  Ni  Ni189  1  0.06293340  0.95112649  0.25995471  1
  Ni  Ni190  1  0.38530773  0.16727675  0.74883234  1
  Ni  Ni191  1  0.74460700  0.43755831  0.06203420  1
  Ni  Ni192  1  0.91001828  -0.00676360  0.96253909  1
  Ni  Ni193  1  0.82286896  0.27674157  0.40086324  1
  Ni  Ni194  1  0.57691497  0.47955477  0.31831246  1
  Ni  Ni195  1  0.06924710  0.27068470  0.20941465  1
  Ni  Ni196  1  0.80149841  0.45935662  0.89372562  1
  Ni  Ni197  1  0.65034502  0.03932782  0.85630134  1
  Ni  Ni198  1  0.21208970  0.02872690  0.28447870  1
  Ni  Ni199  1  0.06198764  0.36021750  0.05610206  1
  Ni  Ni200  1  0.94972249  0.10000259  0.24295849  1
  Ni  Ni201  1  0.55750157  0.14953765  0.19952537  1
  Ni  Ni202  1  0.56154585  0.75901511  0.67487536  1
  Ni  Ni203  1  0.12617485  0.12221861  0.82547412  1
  Ni  Ni204  1  0.73275682  0.17137161  0.96301037  1
  Ni  Ni205  1  0.95421882  0.69459298  0.25088682  1
  Ni  Ni206  1  0.71418395  0.12103375  0.13739092  1
  Ni  Ni207  1  0.10884910  0.74434318  0.81179804  1
  Ni  Ni208  1  0.63073919  0.98011955  0.12498755  1
  Ni  Ni209  1  0.59653183  0.32660230  0.37823953  1
  Ni  Ni210  1  0.27600925  0.71144026  0.83822951  1
  Ni  Ni211  1  0.40947298  0.11382156  0.48339627  1
  Ni  Ni212  1  0.20860628  0.99983884  0.74249318  1
  Ni  Ni213  1  0.44251650  0.87735296  0.87113831  1
  Ni  Ni214  1  0.86192091  0.89405543  0.48993377  1
  Ni  Ni215  1  0.94011003  0.76287422  0.84551828  1
