# generated using pymatgen
data_Ti2CoNi
_symmetry_space_group_name_H-M   'P 1'
_cell_length_a   14.69295697
_cell_length_b   14.66642714
_cell_length_c   14.69724499
_cell_angle_alpha   89.99140813
_cell_angle_beta   90.07331214
_cell_angle_gamma   89.89570218
_symmetry_Int_Tables_number   1
_chemical_formula_structural   Ti2CoNi
_chemical_formula_sum   'Ti108 Co54 Ni54'
_cell_volume   3167.14822704
_cell_formula_units_Z   54
loop_
 _symmetry_equiv_pos_site_id
 _symmetry_equiv_pos_as_xyz
  1  'x, y, z'
loop_
 _atom_site_type_symbol
 _atom_site_label
 _atom_site_symmetry_multiplicity
 _atom_site_fract_x
 _atom_site_fract_y
 _atom_site_fract_z
 _atom_site_occupancy
  Ti  Ti0  1  0.00425082  0.04757168  0.00950313  1
  Ti  Ti1  1  -0.04095951  0.00249268  0.26095142  1
  Ti  Ti2  1  -0.01596847  0.01261726  0.59998010  1
  Ti  Ti3  1  0.01301592  0.24442169  -0.01934681  1
  Ti  Ti4  1  0.00280139  0.28625389  0.36071826  1
  Ti  Ti5  1  0.01082292  0.32748386  0.70996088  1
  Ti  Ti6  1  -0.02543022  0.69364239  -0.05328485  1
  Ti  Ti7  1  0.04016151  0.68805187  0.39486093  1
  Ti  Ti8  1  0.01257515  0.67091722  0.61005113  1
  Ti  Ti9  1  0.30819336  -0.01975251  0.05811836  1
  Ti  Ti10  1  0.29874270  -0.02738544  0.28212536  1
  Ti  Ti11  1  0.35429674  0.04931753  0.64116481  1
  Ti  Ti12  1  0.33759730  0.27527652  0.06708047  1
  Ti  Ti13  1  0.37201459  0.31194148  0.31799613  1
  Ti  Ti14  1  0.28952381  0.23184804  0.69539685  1
  Ti  Ti15  1  0.28930393  0.69294996  -0.00036337  1
  Ti  Ti16  1  0.39396387  0.66242400  0.28955440  1
  Ti  Ti17  1  0.31702963  0.71214109  0.68533045  1
  Ti  Ti18  1  0.62736957  -0.01211237  0.01087698  1
  Ti  Ti19  1  0.67785528  0.01853262  0.35983726  1
  Ti  Ti20  1  0.68288605  -0.02345604  0.65623855  1
  Ti  Ti21  1  0.65470798  0.27293260  -0.08239127  1
  Ti  Ti22  1  0.65943839  0.35993397  0.40398246  1
  Ti  Ti23  1  0.71088490  0.40866156  0.60721074  1
  Ti  Ti24  1  0.65073046  0.70190194  0.07908046  1
  Ti  Ti25  1  0.60934199  0.64430263  0.27330009  1
  Ti  Ti26  1  0.58933207  0.60540918  0.63791255  1
  Ti  Ti27  1  0.05706555  0.28089902  0.16373320  1
  Ti  Ti28  1  0.01610847  0.19749032  0.54906032  1
  Ti  Ti29  1  0.13151396  0.17974380  0.84601518  1
  Ti  Ti30  1  0.00149720  0.47709922  0.16989876  1
  Ti  Ti31  1  0.03554468  0.39263861  0.51821701  1
  Ti  Ti32  1  -0.06534780  0.53934775  0.78140843  1
  Ti  Ti33  1  0.01622762  0.79480937  0.17027181  1
  Ti  Ti34  1  -0.04306356  0.84420400  0.51846297  1
  Ti  Ti35  1  0.04888792  0.78839846  0.79799497  1
  Ti  Ti36  1  0.33203789  0.13552746  0.19733131  1
  Ti  Ti37  1  0.39217605  0.20116159  0.48824719  1
  Ti  Ti38  1  0.35760299  0.12917787  0.92564879  1
  Ti  Ti39  1  0.27114083  0.50704188  0.24987677  1
  Ti  Ti40  1  0.30555166  0.50285910  0.42771212  1
  Ti  Ti41  1  0.35860440  0.45631915  0.85339770  1
  Ti  Ti42  1  0.40349963  0.81788358  0.08855534  1
  Ti  Ti43  1  0.33077124  0.85301308  0.45060265  1
  Ti  Ti44  1  0.35456443  0.94394537  0.85766165  1
  Ti  Ti45  1  0.63909663  0.17037309  0.23917698  1
  Ti  Ti46  1  0.59821016  0.12866668  0.50557168  1
  Ti  Ti47  1  0.70776052  0.08638041  0.87585832  1
  Ti  Ti48  1  0.67522431  0.49714117  0.12889415  1
  Ti  Ti49  1  0.68046850  0.55401223  0.46475611  1
  Ti  Ti50  1  0.69252497  0.50828610  0.80236800  1
  Ti  Ti51  1  0.67416563  0.84467362  0.24016598  1
  Ti  Ti52  1  0.68296733  0.84696244  0.50258761  1
  Ti  Ti53  1  0.71440664  0.80779425  0.93219712  1
  Ti  Ti54  1  0.11974441  -0.05383012  0.11548001  1
  Ti  Ti55  1  0.17731497  -0.03331139  0.55397621  1
  Ti  Ti56  1  0.04991893  -0.00964205  0.81038341  1
  Ti  Ti57  1  0.18743827  0.40958086  0.10846834  1
  Ti  Ti58  1  0.19906685  0.27074354  0.46939466  1
  Ti  Ti59  1  0.16003359  0.40272269  0.88107172  1
  Ti  Ti60  1  0.12956543  0.63581130  0.19972074  1
  Ti  Ti61  1  0.20614378  0.67361230  0.50177046  1
  Ti  Ti62  1  0.19827974  0.61165172  0.83408479  1
  Ti  Ti63  1  0.49262315  -0.03752922  0.17703295  1
  Ti  Ti64  1  0.48303413  -0.02887504  0.49582888  1
  Ti  Ti65  1  0.54749797  -0.00787967  0.82044878  1
  Ti  Ti66  1  0.52844984  0.36923943  0.21674722  1
  Ti  Ti67  1  0.54916720  0.29894289  0.56060601  1
  Ti  Ti68  1  0.54949090  0.38481561  0.79426602  1
  Ti  Ti69  1  0.45888354  0.57361301  0.14039491  1
  Ti  Ti70  1  0.45322744  0.74563423  0.56064426  1
  Ti  Ti71  1  0.43896273  0.64844532  0.84627447  1
  Ti  Ti72  1  0.80346769  0.05301526  0.11544446  1
  Ti  Ti73  1  0.84864209  0.02008435  0.44554685  1
  Ti  Ti74  1  0.85224431  0.02179757  0.74288530  1
  Ti  Ti75  1  0.77122721  0.29530810  0.15756995  1
  Ti  Ti76  1  0.84928681  0.27502121  0.48658982  1
  Ti  Ti77  1  0.82071871  0.36667672  0.86275069  1
  Ti  Ti78  1  0.81871550  0.67277766  0.22973535  1
  Ti  Ti79  1  0.84809883  0.65546004  0.43754818  1
  Ti  Ti80  1  0.79785231  0.65220670  0.86360125  1
  Ti  Ti81  1  0.18278810  0.11902472  0.03042582  1
  Ti  Ti82  1  0.13138722  0.09161791  0.38967467  1
  Ti  Ti83  1  0.13879527  0.12263244  0.66997671  1
  Ti  Ti84  1  0.12154808  0.57738846  0.02498639  1
  Ti  Ti85  1  0.09304840  0.51085486  0.35820199  1
  Ti  Ti86  1  0.19113426  0.53463798  0.64422474  1
  Ti  Ti87  1  0.17657049  0.85658198  -0.05450731  1
  Ti  Ti88  1  0.19712394  0.79674325  0.29253880  1
  Ti  Ti89  1  0.21574267  0.90249543  0.73480326  1
  Ti  Ti90  1  0.52206637  0.22333712  0.04460037  1
  Ti  Ti91  1  0.46241643  0.09923803  0.33954378  1
  Ti  Ti92  1  0.57334890  0.19680688  0.75261354  1
  Ti  Ti93  1  0.48479395  0.41499684  0.01160724  1
  Ti  Ti94  1  0.48892434  0.56513185  0.44188734  1
  Ti  Ti95  1  0.39021909  0.41852118  0.59452114  1
  Ti  Ti96  1  0.51292174  0.82068634  -0.07940769  1
  Ti  Ti97  1  0.51965853  0.79520118  0.37447369  1
  Ti  Ti98  1  0.50608875  0.89665881  0.66385742  1
  Ti  Ti99  1  0.82634025  0.20455171  -0.01210521  1
  Ti  Ti100  1  0.84043073  0.16048702  0.29211086  1
  Ti  Ti101  1  0.84590983  0.23644864  0.67949825  1
  Ti  Ti102  1  0.90006532  0.50765315  -0.00653809  1
  Ti  Ti103  1  0.87390418  0.46265893  0.32040288  1
  Ti  Ti104  1  0.80597607  0.58715005  0.64843059  1
  Ti  Ti105  1  0.85073755  0.95018613  -0.05027454  1
  Ti  Ti106  1  0.82711280  0.84316419  0.36936353  1
  Ti  Ti107  1  0.76959176  0.79823188  0.71241067  1
  Co  Co108  1  0.56914660  0.56235646  0.01624735  1
  Co  Co109  1  0.14256538  0.22507926  0.29719808  1
  Co  Co110  1  0.09234618  0.55664421  0.51872826  1
  Co  Co111  1  0.67116392  0.67534995  0.75867667  1
  Co  Co112  1  0.95124254  0.24515060  0.83565952  1
  Co  Co113  1  0.76656960  0.39693256  0.01541220  1
  Co  Co114  1  0.24497865  0.33540001  0.23852316  1
  Co  Co115  1  0.37564230  0.41418367  0.15274025  1
  Co  Co116  1  0.79550369  0.20264746  0.82471274  1
  Co  Co117  1  0.74171947  0.16802571  0.42551528  1
  Co  Co118  1  0.64834428  0.00749742  0.17994018  1
  Co  Co119  1  0.48281410  0.69685162  0.01852844  1
  Co  Co120  1  0.79311509  0.31051286  0.33588655  1
  Co  Co121  1  0.58570967  0.69556544  0.47869558  1
  Co  Co122  1  0.61144737  0.77473714  0.62921707  1
  Co  Co123  1  0.91496449  0.70162277  0.74589085  1
  Co  Co124  1  0.82026178  0.92714640  0.58046971  1
  Co  Co125  1  0.61498727  0.67234046  0.90818965  1
  Co  Co126  1  0.63325065  0.43409444  0.94066673  1
  Co  Co127  1  0.05441948  0.54483425  0.88943239  1
  Co  Co128  1  0.08094843  0.85805538  0.64528926  1
  Co  Co129  1  0.17128608  0.28489206  0.99809604  1
  Co  Co130  1  0.28535623  0.15729977  0.35567357  1
  Co  Co131  1  0.72406444  0.68750179  0.55432350  1
  Co  Co132  1  0.92847478  0.93186493  0.10137437  1
  Co  Co133  1  0.22216158  0.64087310  0.33922098  1
  Co  Co134  1  0.79412834  0.97873328  0.25881347  1
  Co  Co135  1  0.19001694  0.01155163  0.91142715  1
  Co  Co136  1  0.83549604  0.10562054  0.58150304  1
  Co  Co137  1  0.70824912  0.12666626  0.69986281  1
  Co  Co138  1  0.40167534  0.55910705  0.97949485  1
  Co  Co139  1  -0.01282432  0.13429771  0.72131628  1
  Co  Co140  1  0.69854884  0.31728259  0.74004305  1
  Co  Co141  1  0.10562712  0.94075156  0.27285348  1
  Co  Co142  1  0.05343213  0.11086787  0.15368262  1
  Co  Co143  1  0.45967733  0.96065466  0.98763113  1
  Co  Co144  1  0.95947789  0.12817502  0.41521623  1
  Co  Co145  1  0.54244501  0.12357045  0.91554965  1
  Co  Co146  1  0.20205384  0.21869377  0.14760218  1
  Co  Co147  1  0.28858472  0.68658001  0.17595642  1
  Co  Co148  1  0.30286177  0.41133582  0.99132227  1
  Co  Co149  1  0.71169518  0.72195436  0.37237048  1
  Co  Co150  1  0.73179659  0.55707207  0.97902371  1
  Co  Co151  1  0.15913677  0.37738359  0.36038778  1
  Co  Co152  1  0.25855134  1.08078299  0.78244495  1
  Co  Co153  1  0.35243897  0.88857267  0.62089524  1
  Co  Co154  1  0.10461411  0.74135349  0.04329063  1
  Co  Co155  1  0.44464633  0.21593774  0.64216519  1
  Co  Co156  1  0.19600471  0.93217228  0.39982784  1
  Co  Co157  1  0.58829763  0.84652063  0.07925907  1
  Co  Co158  1  0.42690899  0.48618846  0.29682297  1
  Co  Co159  1  0.22388836  0.80987090  0.58591005  1
  Co  Co160  1  0.86327148  0.74700886  0.59033570  1
  Co  Co161  1  0.18570794  0.07443358  0.22487688  1
  Ni  Ni162  1  0.42872622  0.11157973  0.77947663  1
  Ni  Ni163  1  0.92053681  0.09417795  0.87604466  1
  Ni  Ni164  1  0.44389945  0.08991892  0.07952802  1
  Ni  Ni165  1  0.35649601  0.68630083  0.44021409  1
  Ni  Ni166  1  0.63305491  0.33451137  0.08674447  1
  Ni  Ni167  1  0.47694382  0.21051442  0.20906041  1
  Ni  Ni168  1  0.23687260  0.12945671  0.53400866  1
  Ni  Ni169  1  0.97234645  0.63579658  0.10889862  1
  Ni  Ni170  1  0.44283422  0.28684929  0.90022307  1
  Ni  Ni171  1  0.72548736  0.93246398  0.82626690  1
  Ni  Ni172  1  0.33165133  0.54864264  0.72704731  1
  Ni  Ni173  1  0.28050717  0.27908442  0.87414107  1
  Ni  Ni174  1  0.60691241  0.82688918  0.78400501  1
  Ni  Ni175  1  0.15594711  0.31113852  0.63322558  1
  Ni  Ni176  1  0.70829388  0.23694467  0.57737806  1
  Ni  Ni177  1  0.91291993  0.18528648  0.13012335  1
  Ni  Ni178  1  0.85835373  0.83440493  0.20878830  1
  Ni  Ni179  1  0.58760684  0.48801491  0.31114467  1
  Ni  Ni180  1  0.51336513  0.75791295  0.20393144  1
  Ni  Ni181  1  0.98591895  0.39855670  0.86671717  1
  Ni  Ni182  1  0.02556456  -0.03127745  0.42625916  1
  Ni  Ni183  1  0.81187022  0.44398307  0.47480604  1
  Ni  Ni184  1  0.27360234  0.76889497  0.84088706  1
  Ni  Ni185  1  0.75058326  0.87725224  0.08487842  1
  Ni  Ni186  1  0.91471188  0.32956649  0.22763752  1
  Ni  Ni187  1  0.84022261  0.41826363  0.70597582  1
  Ni  Ni188  1  0.99282539  0.83382593  0.33521215  1
  Ni  Ni189  1  0.53236327  0.06672043  0.64797636  1
  Ni  Ni190  1  -0.03611595  0.60866799  0.27575107  1
  Ni  Ni191  1  0.08625524  0.47124391  0.74413630  1
  Ni  Ni192  1  0.55538384  0.46196919  0.55990086  1
  Ni  Ni193  1  0.23337134  0.82620949  0.11742845  1
  Ni  Ni194  1  0.48785622  0.51881136  0.72874409  1
  Ni  Ni195  1  0.90924651  0.34837346  0.06326190  1
  Ni  Ni196  1  0.46479268  0.39226318  0.43520378  1
  Ni  Ni197  1  0.00859096  0.86597527  0.96657056  1
  Ni  Ni198  1  0.32927874  0.02637655  0.44941351  1
  Ni  Ni199  1  0.73941364  0.54869323  0.31040944  1
  Ni  Ni200  1  0.53596101  0.94955832  0.33628090  1
  Ni  Ni201  1  0.36310633  0.58698538  0.57043365  1
  Ni  Ni202  1  0.20087184  0.42832258  0.51968111  1
  Ni  Ni203  1  0.28273090  0.54803718  0.08757837  1
  Ni  Ni204  1  0.96229268  0.50075369  0.61842680  1
  Ni  Ni205  1  0.93066175  0.87161578  0.70025930  1
  Ni  Ni206  1  0.88018259  0.81832567  0.85507987  1
  Ni  Ni207  1  0.53354705  0.25072805  0.36970531  1
  Ni  Ni208  1  0.95107242  0.53315602  0.45182837  1
  Ni  Ni209  1  0.15369987  0.70945405  0.69787483  1
  Ni  Ni210  1  0.11116424  0.81841199  0.47000774  1
  Ni  Ni211  1  0.67362471  0.15002520  0.05533508  1
  Ni  Ni212  1  0.37285398  0.83022358  0.25468677  1
  Ni  Ni213  1  0.39840583  0.34115122  0.74106418  1
  Ni  Ni214  1  0.05045360  0.41260367  0.01524684  1
  Ni  Ni215  1  0.42055616  0.81244115  0.77379334  1
