# generated using pymatgen
data_Ti2CoNi
_symmetry_space_group_name_H-M   'P 1'
_cell_length_a   14.64860810
_cell_length_b   14.61783956
_cell_length_c   14.69372397
_cell_angle_alpha   89.91922192
_cell_angle_beta   89.81388851
_cell_angle_gamma   89.96860869
_symmetry_Int_Tables_number   1
_chemical_formula_structural   Ti2CoNi
_chemical_formula_sum   'Ti108 Co54 Ni54'
_cell_volume   3146.36166211
_cell_formula_units_Z   54
loop_
 _symmetry_equiv_pos_site_id
 _symmetry_equiv_pos_as_xyz
  1  'x, y, z'
loop_
 _atom_site_type_symbol
 _atom_site_label
 _atom_site_symmetry_multiplicity
 _atom_site_fract_x
 _atom_site_fract_y
 _atom_site_fract_z
 _atom_site_occupancy
  Ti  Ti0  1  -0.03712745  0.05092373  0.00542088  1
  Ti  Ti1  1  0.04728981  -0.01244518  0.33802606  1
  Ti  Ti2  1  0.03123804  0.06080121  0.64375979  1
  Ti  Ti3  1  0.03621444  0.33365853  -0.01563907  1
  Ti  Ti4  1  0.02642892  0.39331968  0.34427965  1
  Ti  Ti5  1  -0.01773470  0.39379604  0.67345433  1
  Ti  Ti6  1  -0.03687376  0.67664780  -0.03208721  1
  Ti  Ti7  1  0.02351816  0.72787880  0.24380727  1
  Ti  Ti8  1  -0.00908016  0.63864655  0.71041100  1
  Ti  Ti9  1  0.39476571  -0.01610396  0.05600251  1
  Ti  Ti10  1  0.37860343  0.03736871  0.33996861  1
  Ti  Ti11  1  0.43066637  -0.01592242  0.71118729  1
  Ti  Ti12  1  0.31964321  0.33150529  -0.00855281  1
  Ti  Ti13  1  0.30323676  0.34277632  0.28029158  1
  Ti  Ti14  1  0.33208767  0.29382145  0.58672126  1
  Ti  Ti15  1  0.30704622  0.62796743  -0.05417759  1
  Ti  Ti16  1  0.40672646  0.66744650  0.40133753  1
  Ti  Ti17  1  0.31392798  0.67345675  0.65341564  1
  Ti  Ti18  1  0.61478115  0.07085685  0.03647639  1
  Ti  Ti19  1  0.65034402  -0.01207208  0.37804830  1
  Ti  Ti20  1  0.61697639  -0.05048026  0.66431426  1
  Ti  Ti21  1  0.63613428  0.32847081  0.04673499  1
  Ti  Ti22  1  0.66512768  0.29311526  0.29237140  1
  Ti  Ti23  1  0.69234842  0.29347403  0.66426750  1
  Ti  Ti24  1  0.68657435  0.62615937  -0.01439126  1
  Ti  Ti25  1  0.66477175  0.62578597  0.29298334  1
  Ti  Ti26  1  0.68723663  0.74941805  0.61056055  1
  Ti  Ti27  1  -0.08315029  0.13432577  0.16850146  1
  Ti  Ti28  1  -0.04431446  0.15178886  0.49624521  1
  Ti  Ti29  1  -0.07307100  0.12545211  0.81226114  1
  Ti  Ti30  1  0.04270915  0.45027801  0.14663794  1
  Ti  Ti31  1  -0.02897270  0.54448526  0.51340306  1
  Ti  Ti32  1  0.02355329  0.48113130  0.83396588  1
  Ti  Ti33  1  -0.03661891  0.91046463  0.18194066  1
  Ti  Ti34  1  0.03539140  0.82754879  0.48161102  1
  Ti  Ti35  1  -0.00593215  0.83994163  0.85154422  1
  Ti  Ti36  1  0.29463528  0.19079655  0.13070943  1
  Ti  Ti37  1  0.28874941  0.11098957  0.49599326  1
  Ti  Ti38  1  0.36765470  0.11589664  0.85339641  1
  Ti  Ti39  1  0.33819281  0.48843903  0.10841921  1
  Ti  Ti40  1  0.33126263  0.48714284  0.44313249  1
  Ti  Ti41  1  0.30660531  0.52286426  0.76706586  1
  Ti  Ti42  1  0.44894810  0.79277467  0.14096119  1
  Ti  Ti43  1  0.31582636  0.88912535  0.47522395  1
  Ti  Ti44  1  0.32617943  0.85594091  0.79699464  1
  Ti  Ti45  1  0.68430716  0.10074943  0.21917222  1
  Ti  Ti46  1  0.61712361  0.20563635  0.52885109  1
  Ti  Ti47  1  0.72817479  0.18200088  0.82913612  1
  Ti  Ti48  1  0.68161988  0.49395886  0.16131397  1
  Ti  Ti49  1  0.67384090  0.55981972  0.53218441  1
  Ti  Ti50  1  0.70877928  0.49355884  0.80678366  1
  Ti  Ti51  1  0.65798327  0.81190916  0.21547093  1
  Ti  Ti52  1  0.69617869  0.79813759  0.42152743  1
  Ti  Ti53  1  0.62366783  0.83631986  0.91244012  1
  Ti  Ti54  1  0.22712950  0.00820905  0.19064466  1
  Ti  Ti55  1  0.14738348  -0.02711492  0.50734592  1
  Ti  Ti56  1  0.09667578  0.02832865  0.84408674  1
  Ti  Ti57  1  0.14843275  0.30435633  0.18959343  1
  Ti  Ti58  1  0.12155328  0.29040821  0.52839475  1
  Ti  Ti59  1  0.20097405  0.23946628  0.86581088  1
  Ti  Ti60  1  0.25141322  0.69731261  0.16236283  1
  Ti  Ti61  1  0.21104973  0.62698701  0.49912328  1
  Ti  Ti62  1  0.17889182  0.72423099  0.81616679  1
  Ti  Ti63  1  0.53726901  -0.04179345  0.21953334  1
  Ti  Ti64  1  0.48813960  0.04459517  0.51004051  1
  Ti  Ti65  1  0.61660703  0.01829335  0.85027198  1
  Ti  Ti66  1  0.51645374  0.40598780  0.22446051  1
  Ti  Ti67  1  0.50122157  0.39361970  0.54607597  1
  Ti  Ti68  1  0.55991271  0.32894002  0.81955032  1
  Ti  Ti69  1  0.45861078  0.61273372  0.21758452  1
  Ti  Ti70  1  0.48512286  0.60074893  0.56572590  1
  Ti  Ti71  1  0.51720904  0.64005099  0.88052823  1
  Ti  Ti72  1  0.78266013  -0.05993044  0.13438628  1
  Ti  Ti73  1  0.83535374  -0.00549237  0.45891633  1
  Ti  Ti74  1  0.80400275  -0.02805425  0.79286008  1
  Ti  Ti75  1  0.84561243  0.36881835  0.24807755  1
  Ti  Ti76  1  0.78771730  0.29841709  0.47076567  1
  Ti  Ti77  1  0.86368043  0.40297871  0.91012396  1
  Ti  Ti78  1  0.79971761  0.68379512  0.12338745  1
  Ti  Ti79  1  0.87450363  0.72231630  0.52396847  1
  Ti  Ti80  1  0.71189809  0.69271626  0.80154965  1
  Ti  Ti81  1  0.17265460  0.08591574  0.01446625  1
  Ti  Ti82  1  0.11377213  0.15965087  0.29944411  1
  Ti  Ti83  1  0.20785956  0.13562532  0.67362434  1
  Ti  Ti84  1  0.19061622  0.46686921  -0.07492237  1
  Ti  Ti85  1  0.12601120  0.55579945  0.34399567  1
  Ti  Ti86  1  0.13217579  0.51318488  0.64122614  1
  Ti  Ti87  1  0.09516203  0.88391383  0.03164379  1
  Ti  Ti88  1  0.19559024  0.76872538  0.35459571  1
  Ti  Ti89  1  0.14567331  0.89161423  0.69061464  1
  Ti  Ti90  1  0.45897547  0.19272079  0.02526962  1
  Ti  Ti91  1  0.45596994  0.22153382  0.25724462  1
  Ti  Ti92  1  0.54332869  0.14232885  0.70995431  1
  Ti  Ti93  1  0.52568152  0.51903223  0.04895020  1
  Ti  Ti94  1  0.53942380  0.49620233  0.39054713  1
  Ti  Ti95  1  0.49807640  0.50563702  0.74235436  1
  Ti  Ti96  1  0.40835673  0.80768600  -0.04611118  1
  Ti  Ti97  1  0.48831890  0.85993397  0.40398659  1
  Ti  Ti98  1  0.49759764  0.75021018  0.69819894  1
  Ti  Ti99  1  0.84156085  0.22329805  -0.01200512  1
  Ti  Ti100  1  0.82779261  0.16408958  0.33077144  1
  Ti  Ti101  1  0.86737272  0.22482393  0.66069776  1
  Ti  Ti102  1  0.85865608  0.49185534  0.08815471  1
  Ti  Ti103  1  0.82039653  0.48006393  0.40503409  1
  Ti  Ti104  1  0.80970006  0.45199773  0.61229104  1
  Ti  Ti105  1  0.81255984  0.80450275  -0.06423112  1
  Ti  Ti106  1  0.83992061  0.74031769  0.29798322  1
  Ti  Ti107  1  0.86246856  0.81045012  0.69767562  1
  Co  Co108  1  0.66674213  0.04609415  0.53703530  1
  Co  Co109  1  0.95851739  0.61809425  0.12468074  1
  Co  Co110  1  0.42070737  0.64642529  0.05469489  1
  Co  Co111  1  0.78140748  0.09437859  0.07519336  1
  Co  Co112  1  0.31667991  0.24165611  0.74354587  1
  Co  Co113  1  0.05416311  0.68787154  0.40477125  1
  Co  Co114  1  0.15530595  0.68433820  0.66602703  1
  Co  Co115  1  0.37211392  0.11953001  0.65464465  1
  Co  Co116  1  0.61226913  0.90026715  0.51309199  1
  Co  Co117  1  0.57757263  0.47782186  0.90225788  1
  Co  Co118  1  0.68334005  0.45122516  0.32213224  1
  Co  Co119  1  0.42102347  0.32704647  0.12897248  1
  Co  Co120  1  0.40027801  0.37969015  0.71785365  1
  Co  Co121  1  0.39948507  0.49308559  0.91608132  1
  Co  Co122  1  1.02202318  0.79978836  0.65891193  1
  Co  Co123  1  0.60813415  0.65925170  0.14602378  1
  Co  Co124  1  0.28100564  0.15832981  0.28469096  1
  Co  Co125  1  0.04629338  0.67386556  0.55831460  1
  Co  Co126  1  0.91752963  0.61863673  0.37590864  1
  Co  Co127  1  0.88178742  0.01958388  0.28731318  1
  Co  Co128  1  0.21877050  0.47957305  0.21976348  1
  Co  Co129  1  0.45714930  0.20190503  0.54572580  1
  Co  Co130  1  0.80689221  0.06999682  0.92134868  1
  Co  Co131  1  0.38923614  0.20231437  0.40709076  1
  Co  Co132  1  0.72138652  0.95324976  0.98121324  1
  Co  Co133  1  0.53996776  0.76308449  0.54277950  1
  Co  Co134  1  0.80702088  0.55544226  0.25257298  1
  Co  Co135  1  0.90396683  0.91039140  0.00440945  1
  Co  Co136  1  0.29211622  0.37443518  0.83278102  1
  Co  Co137  1  0.18894299  0.40871816  0.07452430  1
  Co  Co138  1  0.95970037  0.52121912  0.26318390  1
  Co  Co139  1  0.68369882  0.14720651  0.39417294  1
  Co  Co140  1  0.27660999  0.62028389  0.31223349  1
  Co  Co141  1  0.53272154  0.09708899  0.33719818  1
  Co  Co142  1  0.37560487  0.75051819  0.53317457  1
  Co  Co143  1  0.66223151  0.39663317  0.49495233  1
  Co  Co144  1  0.15164009  0.56919060  0.78852972  1
  Co  Co145  1  0.10478502  0.59785466  0.19397552  1
  Co  Co146  1  0.02397117  0.23553966  0.63930949  1
  Co  Co147  1  0.70199951  0.79903653  0.05899577  1
  Co  Co148  1  0.09310162  0.72535405  0.08480884  1
  Co  Co149  1  0.52103463  0.29550907  0.66649960  1
  Co  Co150  1  0.16951986  0.25089421  0.02781135  1
  Co  Co151  1  0.78694718  0.14933411  0.53367541  1
  Co  Co152  1  0.69679038  0.85012474  0.76388333  1
  Co  Co153  1  0.38603916  0.49145755  0.28901025  1
  Co  Co154  1  0.96585102  0.95044434  0.74179749  1
  Co  Co155  1  0.92932243  0.77952203  0.09593842  1
  Co  Co156  1  0.86471976  0.05217923  0.64449168  1
  Co  Co157  1  0.76614128  0.64654127  0.43127720  1
  Co  Co158  1  0.36712940  0.50151356  0.60991452  1
  Co  Co159  1  0.45138875  0.89374522  0.57886590  1
  Co  Co160  1  0.41653779  0.27079973  0.86485259  1
  Co  Co161  1  0.55119762  0.26467714  0.39589111  1
  Ni  Ni162  1  0.44235680  0.08293699  0.17540505  1
  Ni  Ni163  1  0.81885139  0.35279876  0.75836555  1
  Ni  Ni164  1  0.71236453  0.32929059  0.89739429  1
  Ni  Ni165  1  0.11495821  0.62761834  0.93445030  1
  Ni  Ni166  1  0.10224554  0.45196449  0.47948270  1
  Ni  Ni167  1  0.42770628  0.36212464  0.38851827  1
  Ni  Ni168  1  0.75555625  0.24688172  0.14921167  1
  Ni  Ni169  1  0.51921764  0.87031743  0.79859753  1
  Ni  Ni170  1  0.37432872  0.69228046  0.80776120  1
  Ni  Ni171  1  0.58025590  0.21065015  0.14742795  1
  Ni  Ni172  1  0.23558003  0.42160969  0.55871007  1
  Ni  Ni173  1  0.83719106  0.56813075  0.92152390  1
  Ni  Ni174  1  0.56179082  0.90367832  0.05692906  1
  Ni  Ni175  1  0.06853714  0.03877311  0.15332943  1
  Ni  Ni176  1  -0.05857762  0.92498134  0.57658766  1
  Ni  Ni177  1  0.48676809  0.36483128  -0.01608934  1
  Ni  Ni178  1  0.19216497  0.79010292  0.54534105  1
  Ni  Ni179  1  0.90709204  0.32427877  0.09822138  1
  Ni  Ni180  1  0.87447574  0.51506427  0.76146087  1
  Ni  Ni181  1  0.25509376  1.00786408  0.78705033  1
  Ni  Ni182  1  0.96951823  0.29689740  0.81638858  1
  Ni  Ni183  1  0.55302538  0.73380871  1.01739976  1
  Ni  Ni184  1  0.58172821  0.66425971  0.42793306  1
  Ni  Ni185  1  0.80667332  0.63005620  0.66146660  1
  Ni  Ni186  1  0.04315502  0.17839312  0.93126553  1
  Ni  Ni187  1  0.13401308  0.85809080  0.20708917  1
  Ni  Ni188  1  1.00246233  0.50964419  0.99276943  1
  Ni  Ni189  1  0.52718677  0.74975276  0.28828398  1
  Ni  Ni190  1  0.77070508  0.89642867  0.57945456  1
  Ni  Ni191  1  0.26993329  -0.03942313  0.95096711  1
  Ni  Ni192  1  0.08156235  0.18309864  0.77146570  1
  Ni  Ni193  1  0.35509214  0.77381619  0.28631210  1
  Ni  Ni194  1  0.62946734  0.44377377  0.65661292  1
  Ni  Ni195  1  0.11574970  0.12625388  0.46143407  1
  Ni  Ni196  1  0.94306643  0.37016290  0.51419617  1
  Ni  Ni197  1  0.87834753  0.68785631  0.81745152  1
  Ni  Ni198  1  0.21925604  0.93670908  0.34053079  1
  Ni  Ni199  1  0.21748521  0.76916291  0.98028527  1
  Ni  Ni200  1  0.71210992  0.09973876  0.68833871  1
  Ni  Ni201  1  -0.01290246  0.27236882  0.23181558  1
  Ni  Ni202  1  0.19147507  0.57438074  0.06478449  1
  Ni  Ni203  1  0.28445923  -0.02355851  0.61995471  1
  Ni  Ni204  1  0.72119950  0.46445804  -0.00831452  1
  Ni  Ni205  1  0.36968205  0.92309328  0.22217883  1
  Ni  Ni206  1  0.27456383  0.86587871  0.09812454  1
  Ni  Ni207  1  0.77619582  0.90038733  0.30532415  1
  Ni  Ni208  1  0.93578798  0.27051865  0.38670411  1
  Ni  Ni209  1  0.55804658  0.17170377  0.89234542  1
  Ni  Ni210  1  0.44013025  0.96983610  0.89700633  1
  Ni  Ni211  1  0.16837974  0.32625922  0.70187306  1
  Ni  Ni212  1  0.93008739  0.86800742  0.35604868  1
  Ni  Ni213  1  0.62493202  0.60729039  0.69278155  1
  Ni  Ni214  1  0.16187830  0.88035941  0.86573927  1
  Ni  Ni215  1  0.22801425  0.25094256  0.40884166  1
