# generated using pymatgen
data_Ti2CoNi
_symmetry_space_group_name_H-M   'P 1'
_cell_length_a   14.72030153
_cell_length_b   14.59767359
_cell_length_c   14.56481587
_cell_angle_alpha   89.91725875
_cell_angle_beta   89.93866197
_cell_angle_gamma   90.18492672
_symmetry_Int_Tables_number   1
_chemical_formula_structural   Ti2CoNi
_chemical_formula_sum   'Ti108 Co54 Ni54'
_cell_volume   3129.69767582
_cell_formula_units_Z   54
loop_
 _symmetry_equiv_pos_site_id
 _symmetry_equiv_pos_as_xyz
  1  'x, y, z'
loop_
 _atom_site_type_symbol
 _atom_site_label
 _atom_site_symmetry_multiplicity
 _atom_site_fract_x
 _atom_site_fract_y
 _atom_site_fract_z
 _atom_site_occupancy
  Ti  Ti0  1  0.06257267  0.04040567  0.05775630  1
  Ti  Ti1  1  0.01116863  -0.09983882  0.30307175  1
  Ti  Ti2  1  0.00574783  0.07749536  0.64628606  1
  Ti  Ti3  1  0.02588765  0.27090431  -0.01212689  1
  Ti  Ti4  1  -0.01131087  0.34430349  0.32260056  1
  Ti  Ti5  1  0.03983079  0.34933364  0.75762492  1
  Ti  Ti6  1  -0.06256038  0.69378849  0.06125180  1
  Ti  Ti7  1  -0.03915290  0.65497920  0.40753176  1
  Ti  Ti8  1  -0.00866896  0.65140500  0.72272240  1
  Ti  Ti9  1  0.35994488  -0.03211354  -0.02944239  1
  Ti  Ti10  1  0.33739927  0.07844195  0.31226912  1
  Ti  Ti11  1  0.30301174  -0.03710860  0.62834197  1
  Ti  Ti12  1  0.32778833  0.29050560  0.07534658  1
  Ti  Ti13  1  0.29515415  0.28968119  0.37369896  1
  Ti  Ti14  1  0.29833137  0.31066944  0.59937386  1
  Ti  Ti15  1  0.26365938  0.62989774  -0.00583348  1
  Ti  Ti16  1  0.40768587  0.61948500  0.28421356  1
  Ti  Ti17  1  0.33429679  0.67545489  0.58737356  1
  Ti  Ti18  1  0.65309870  -0.02387975  -0.05897046  1
  Ti  Ti19  1  0.63828152  -0.04558713  0.30079012  1
  Ti  Ti20  1  0.73044891  -0.07391936  0.65671125  1
  Ti  Ti21  1  0.61863769  0.37718212  -0.00466935  1
  Ti  Ti22  1  0.69988693  0.28413275  0.39173865  1
  Ti  Ti23  1  0.67282366  0.36394101  0.66632057  1
  Ti  Ti24  1  0.63707075  0.68341632  0.01753971  1
  Ti  Ti25  1  0.66002849  0.63916316  0.32685711  1
  Ti  Ti26  1  0.64704592  0.63886224  0.68106550  1
  Ti  Ti27  1  -0.06875382  0.17238231  0.13482995  1
  Ti  Ti28  1  -0.00425183  0.18451594  0.46613007  1
  Ti  Ti29  1  0.04139834  0.13397447  0.84127084  1
  Ti  Ti30  1  0.03001054  0.54355221  0.17783311  1
  Ti  Ti31  1  -0.07753071  0.46125746  0.45768999  1
  Ti  Ti32  1  -0.01735079  0.59270459  0.90963088  1
  Ti  Ti33  1  -0.00430136  0.86766214  0.10228601  1
  Ti  Ti34  1  0.04844958  0.82974129  0.49038308  1
  Ti  Ti35  1  0.01892940  0.83533160  0.89759986  1
  Ti  Ti36  1  0.45681886  0.13613628  0.16445774  1
  Ti  Ti37  1  0.31741333  0.13869481  0.49481524  1
  Ti  Ti38  1  0.32557056  0.22797739  0.86129496  1
  Ti  Ti39  1  0.35468258  0.47223692  0.17764620  1
  Ti  Ti40  1  0.32969171  0.56187847  0.44005687  1
  Ti  Ti41  1  0.33166449  0.49011095  0.84200940  1
  Ti  Ti42  1  0.32322041  0.75544453  0.20949359  1
  Ti  Ti43  1  0.40622520  0.87473855  0.48605282  1
  Ti  Ti44  1  0.40475847  0.89436511  0.78930923  1
  Ti  Ti45  1  0.63212041  0.16896426  0.24613579  1
  Ti  Ti46  1  0.62617343  0.10244007  0.48585298  1
  Ti  Ti47  1  0.70183282  0.20526687  0.76999931  1
  Ti  Ti48  1  0.64852387  0.38474858  0.21903216  1
  Ti  Ti49  1  0.61668371  0.44998650  0.51420062  1
  Ti  Ti50  1  0.66044962  0.51743135  0.86478194  1
  Ti  Ti51  1  0.67556213  0.89654653  0.11054963  1
  Ti  Ti52  1  0.62169348  0.79997459  0.55333005  1
  Ti  Ti53  1  0.71652410  0.74201367  0.85917329  1
  Ti  Ti54  1  0.25542480  0.04665882  0.13556463  1
  Ti  Ti55  1  0.15122956  0.06515376  0.51737978  1
  Ti  Ti56  1  0.20842149  -0.09886836  0.81102668  1
  Ti  Ti57  1  0.10383875  0.31529148  0.17034911  1
  Ti  Ti58  1  0.10168006  0.39013999  0.48326697  1
  Ti  Ti59  1  0.13239578  0.46662694  0.88504978  1
  Ti  Ti60  1  0.12760851  0.74188428  0.17062685  1
  Ti  Ti61  1  0.14272606  0.68701458  0.60385075  1
  Ti  Ti62  1  0.15769204  0.67873274  0.83000765  1
  Ti  Ti63  1  0.46540841  -0.06159524  0.15366210  1
  Ti  Ti64  1  0.47956017  0.05368318  0.62645886  1
  Ti  Ti65  1  0.52524851  0.08230215  0.82625241  1
  Ti  Ti66  1  0.49447391  0.33399936  0.14080907  1
  Ti  Ti67  1  0.43675996  0.37921429  0.49225710  1
  Ti  Ti68  1  0.54829529  0.32343437  0.82183366  1
  Ti  Ti69  1  0.53005307  0.70973704  0.16668626  1
  Ti  Ti70  1  0.49480801  0.69895151  0.45065123  1
  Ti  Ti71  1  0.38486120  0.69418076  0.79182870  1
  Ti  Ti72  1  0.77104282  0.05185507  0.17481642  1
  Ti  Ti73  1  0.87226887  0.01135504  0.44674366  1
  Ti  Ti74  1  0.86791912  0.03620185  0.78324293  1
  Ti  Ti75  1  0.91261603  0.37946368  0.14892427  1
  Ti  Ti76  1  0.87357767  0.33540880  0.62790011  1
  Ti  Ti77  1  0.86466116  0.29919246  0.83943385  1
  Ti  Ti78  1  0.81160277  0.68434107  0.19973635  1
  Ti  Ti79  1  0.78478943  0.71376472  0.50365761  1
  Ti  Ti80  1  0.82038349  0.59650496  0.79807054  1
  Ti  Ti81  1  0.19475943  0.18618928  0.00744948  1
  Ti  Ti82  1  0.15680688  0.15784181  0.32736914  1
  Ti  Ti83  1  0.16179488  0.21309984  0.69041436  1
  Ti  Ti84  1  0.20083538  0.44779905  0.06970817  1
  Ti  Ti85  1  0.19791397  0.49267986  0.29979476  1
  Ti  Ti86  1  0.20123109  0.48914517  0.61587434  1
  Ti  Ti87  1  0.18504603  0.88245963  0.01618036  1
  Ti  Ti88  1  0.20713698  0.84263818  0.35130529  1
  Ti  Ti89  1  0.12503802  0.90837397  0.63548605  1
  Ti  Ti90  1  0.50896084  0.19945118  -0.01093154  1
  Ti  Ti91  1  0.48769435  0.20219567  0.37275964  1
  Ti  Ti92  1  0.43859562  0.21696407  0.70745797  1
  Ti  Ti93  1  0.52263300  0.52750273  0.05477164  1
  Ti  Ti94  1  0.52692104  0.51673373  0.37752128  1
  Ti  Ti95  1  0.49157490  0.50121052  0.70074954  1
  Ti  Ti96  1  0.39817350  0.77836843  0.01704410  1
  Ti  Ti97  1  0.50099055  0.82420217  0.31169660  1
  Ti  Ti98  1  0.56759755  0.79864810  0.75354380  1
  Ti  Ti99  1  0.80927309  0.12485467  -0.03477358  1
  Ti  Ti100  1  0.85553649  0.18022871  0.32074120  1
  Ti  Ti101  1  0.80272675  0.12214067  0.61441402  1
  Ti  Ti102  1  0.82280250  0.45580240  -0.04084009  1
  Ti  Ti103  1  0.80452949  0.42983072  0.30846255  1
  Ti  Ti104  1  0.88404510  0.54998377  0.61198913  1
  Ti  Ti105  1  0.83562673  0.89475866  -0.03386911  1
  Ti  Ti106  1  0.80910959  0.87930870  0.30529039  1
  Ti  Ti107  1  0.89397311  0.83329053  0.73249334  1
  Co  Co108  1  0.14264078  0.70899703  0.43666319  1
  Co  Co109  1  0.58192924  0.28550769  0.49610790  1
  Co  Co110  1  0.71531032  0.05476582  0.80977712  1
  Co  Co111  1  0.71997667  0.53630824  0.21190641  1
  Co  Co112  1  0.03619737  0.58243578  0.54241917  1
  Co  Co113  1  0.26893852  0.19057303  0.19564449  1
  Co  Co114  1  0.63383990  0.08206707  0.09533348  1
  Co  Co115  1  0.26183806  0.36436808  0.92962625  1
  Co  Co116  1  0.38106467  0.81638190  0.64815733  1
  Co  Co117  1  0.26447151  0.41627167  0.46759856  1
  Co  Co118  1  0.11208608  0.16041550  0.14922298  1
  Co  Co119  1  0.07702786  0.64882152  0.29394965  1
  Co  Co120  1  0.04333489  0.49881349  0.35255850  1
  Co  Co121  1  0.77687064  0.76398752  0.04201741  1
  Co  Co122  1  0.10409053  0.53318677  0.74005288  1
  Co  Co123  1  0.84553287  0.86078861  0.15485556  1
  Co  Co124  1  0.50698347  0.91420236  0.90591801  1
  Co  Co125  1  0.45037136  0.20847564  0.54224929  1
  Co  Co126  1  0.53592711  0.35227744  0.33524139  1
  Co  Co127  1  0.23455238  0.66048828  0.31402752  1
  Co  Co128  1  0.75909545  0.38947207  0.10121885  1
  Co  Co129  1  0.38185427  0.43405497  0.33014167  1
  Co  Co130  1  0.90161724  0.55303745  0.28294012  1
  Co  Co131  1  0.94630136  0.48651696  0.76977514  1
  Co  Co132  1  0.02694564  0.05943667  0.36686307  1
  Co  Co133  1  0.73260340  0.25148694  0.55514756  1
  Co  Co134  1  0.64787802  0.15153338  0.93333790  1
  Co  Co135  1  0.90899924  0.02311876  0.25822275  1
  Co  Co136  1  0.35875162  0.12525206  0.02164329  1
  Co  Co137  1  0.96813377  0.40436478  0.90685112  1
  Co  Co138  1  0.80170485  0.61847604  0.97032772  1
  Co  Co139  1  0.85524840  0.53667772  0.11698458  1
  Co  Co140  1  0.01062441  0.19204742  0.27362909  1
  Co  Co141  1  0.50976529  0.34929374  0.63664766  1
  Co  Co142  1  0.40049495  0.27400412  0.24948336  1
  Co  Co143  1  0.59445374  0.20709500  0.64161860  1
  Co  Co144  1  1.01587303  0.43903911  0.61954009  1
  Co  Co145  1  0.01420709  0.98620808  0.50997898  1
  Co  Co146  1  0.24041220  0.78030618  0.70780519  1
  Co  Co147  1  0.59435996  0.95158053  0.76804384  1
  Co  Co148  1  0.64241941  0.06249874  0.65941977  1
  Co  Co149  1  0.72381978  0.29141939  0.91945857  1
  Co  Co150  1  0.75280068  0.89210379  0.81928995  1
  Co  Co151  1  0.21877332  0.60145517  0.16341751  1
  Co  Co152  1  0.88898303  -0.04322269  0.61515437  1
  Co  Co153  1  0.23777323  0.81930439  0.52856332  1
  Co  Co154  1  0.95611198  0.75378402  0.24048140  1
  Co  Co155  1  0.64201224  0.24528122  0.09500191  1
  Co  Co156  1  0.54458191  0.84392080  0.04409878  1
  Co  Co157  1  0.88353357  0.74137388  0.89541548  1
  Co  Co158  1  0.50552206  0.03076188  0.01685733  1
  Co  Co159  1  0.16511232  0.55391522  0.45423331  1
  Co  Co160  1  0.69120044  0.52608271  0.05004458  1
  Co  Co161  1  0.35030201  0.74958954  0.38997768  1
  Ni  Ni162  1  0.03724605  0.43291342  0.04588397  1
  Ni  Ni163  1  0.38861356  0.62547419  0.10853744  1
  Ni  Ni164  1  0.16858965  0.23462532  0.49565563  1
  Ni  Ni165  1  0.77220768  0.40774478  0.50823145  1
  Ni  Ni166  1  0.79110168  0.43518426  0.76212716  1
  Ni  Ni167  1  0.03100182  0.26545190  0.60250844  1
  Ni  Ni168  1  0.72894409  0.52235552  0.61810297  1
  Ni  Ni169  1  0.51450260  0.89958950  0.62531613  1
  Ni  Ni170  1  0.80481879  0.70762484  0.67151948  1
  Ni  Ni171  1  0.25204634  0.35093206  0.22437052  1
  Ni  Ni172  1  0.16741275  0.04829626  0.73495612  1
  Ni  Ni173  1  0.15118869  0.26199993  0.86129282  1
  Ni  Ni174  1  0.36345638  0.05539622  0.77997900  1
  Ni  Ni175  1  0.94408544  0.71918920  0.57218760  1
  Ni  Ni176  1  1.02088549  0.95627219  0.76926473  1
  Ni  Ni177  1  0.77483007  0.26135147  0.20300195  1
  Ni  Ni178  1  0.27658322  0.78242568  0.90260419  1
  Ni  Ni179  1  0.77781791  0.55848883  0.43544051  1
  Ni  Ni180  1  0.85697562  0.27946127  0.01914639  1
  Ni  Ni181  1  0.51932555  0.49704753  0.21785272  1
  Ni  Ni182  1  0.67556450  0.78267979  0.22274878  1
  Ni  Ni183  1  0.36389840  0.47942077  0.00782146  1
  Ni  Ni184  1  0.92348597  0.19931418  0.72096876  1
  Ni  Ni185  1  0.21417108  0.37442600  0.75568014  1
  Ni  Ni186  1  0.86678164  0.29429466  0.44590691  1
  Ni  Ni187  1  0.11219551  0.99548728  0.90363123  1
  Ni  Ni188  1  0.49562448  0.69788403  0.62929944  1
  Ni  Ni189  1  0.07019156  0.79600507  0.73966331  1
  Ni  Ni190  1  0.47475528  0.55516395  0.54373615  1
  Ni  Ni191  1  0.35669807  0.91013774  0.30327313  1
  Ni  Ni192  1  0.63333523  0.62262263  0.50434729  1
  Ni  Ni193  1  0.45148353  0.04888124  0.45603705  1
  Ni  Ni194  1  0.49815100  0.03097277  0.30010445  1
  Ni  Ni195  1  0.89843456  1.00809280  0.08223096  1
  Ni  Ni196  1  0.29735649  0.13119786  0.65594267  1
  Ni  Ni197  1  0.54477641  0.62539904  0.81533951  1
  Ni  Ni198  1  0.25899120  0.60099112  0.72495307  1
  Ni  Ni199  1  0.74965666  0.89782805  0.48039063  1
  Ni  Ni200  1  0.89824755  0.81510389  0.42668770  1
  Ni  Ni201  1  0.49864861  0.47844539  0.88498131  1
  Ni  Ni202  1  0.10619862  0.58355427  1.02526972  1
  Ni  Ni203  1  0.42927360  0.62141071  0.94247923  1
  Ni  Ni204  1  0.25125527  0.07116170  0.89873611  1
  Ni  Ni205  1  0.57163612  0.93319833  0.45813768  1
  Ni  Ni206  1  0.38046233  0.37362068  0.73622803  1
  Ni  Ni207  1  0.14260823  0.91692078  0.18466718  1
  Ni  Ni208  1  0.74362845  0.06246138  0.35735935  1
  Ni  Ni209  1  0.30318866  0.89005483  0.13183965  1
  Ni  Ni210  1  0.95323672  0.00701940  0.92667940  1
  Ni  Ni211  1  0.52381857  0.75467010  0.90700355  1
  Ni  Ni212  1  0.10548292  0.73967921  -0.00278090  1
  Ni  Ni213  1  0.65355954  0.79832695  0.38734678  1
  Ni  Ni214  1  0.43326800  0.34415280  0.94736336  1
  Ni  Ni215  1  0.27805641  0.97578243  0.44552687  1
