# generated using pymatgen
data_Ti2CoNi
_symmetry_space_group_name_H-M   'P 1'
_cell_length_a   14.73583400
_cell_length_b   14.62261643
_cell_length_c   14.65325826
_cell_angle_alpha   90.11244615
_cell_angle_beta   90.35504938
_cell_angle_gamma   89.84701195
_symmetry_Int_Tables_number   1
_chemical_formula_structural   Ti2CoNi
_chemical_formula_sum   'Ti108 Co54 Ni54'
_cell_volume   3157.35418754
_cell_formula_units_Z   54
loop_
 _symmetry_equiv_pos_site_id
 _symmetry_equiv_pos_as_xyz
  1  'x, y, z'
loop_
 _atom_site_type_symbol
 _atom_site_label
 _atom_site_symmetry_multiplicity
 _atom_site_fract_x
 _atom_site_fract_y
 _atom_site_fract_z
 _atom_site_occupancy
  Ti  Ti0  1  0.03585574  -0.06583048  0.04211332  1
  Ti  Ti1  1  0.01301134  0.02240134  0.22018473  1
  Ti  Ti2  1  -0.08998562  -0.06382697  0.64422850  1
  Ti  Ti3  1  -0.01187541  0.36211064  -0.04580315  1
  Ti  Ti4  1  -0.00601046  0.37283569  0.19753329  1
  Ti  Ti5  1  0.04111226  0.35312315  0.63835859  1
  Ti  Ti6  1  -0.07038254  0.63894456  0.00326329  1
  Ti  Ti7  1  0.04433512  0.80615397  0.34636780  1
  Ti  Ti8  1  0.04873315  0.63561549  0.64136990  1
  Ti  Ti9  1  0.31829193  -0.05354075  0.01136986  1
  Ti  Ti10  1  0.29944859  0.03120808  0.34441423  1
  Ti  Ti11  1  0.31885773  -0.06931109  0.63618014  1
  Ti  Ti12  1  0.41188384  0.43385285  0.02187348  1
  Ti  Ti13  1  0.32399499  0.33964343  0.31287924  1
  Ti  Ti14  1  0.32000257  0.28191570  0.62383850  1
  Ti  Ti15  1  0.30811427  0.60048814  -0.06703138  1
  Ti  Ti16  1  0.36720393  0.69886902  0.24697050  1
  Ti  Ti17  1  0.27228757  0.62361944  0.63688016  1
  Ti  Ti18  1  0.65705239  0.06482649  0.07411322  1
  Ti  Ti19  1  0.66702489  -0.04105711  0.34476910  1
  Ti  Ti20  1  0.62577449  -0.08318081  0.70178284  1
  Ti  Ti21  1  0.69343626  0.35047260  0.04501842  1
  Ti  Ti22  1  0.65792853  0.39679318  0.31230716  1
  Ti  Ti23  1  0.65180975  0.35493760  0.63246141  1
  Ti  Ti24  1  0.67878982  0.72011731  -0.04678377  1
  Ti  Ti25  1  0.77785708  0.63434743  0.37047848  1
  Ti  Ti26  1  0.60412099  0.70114767  0.68398249  1
  Ti  Ti27  1  -0.01252276  0.19269160  0.10900692  1
  Ti  Ti28  1  0.01229486  0.21070885  0.47733430  1
  Ti  Ti29  1  -0.00643793  0.19813669  0.84334425  1
  Ti  Ti30  1  0.08856490  0.54309518  0.12186917  1
  Ti  Ti31  1  0.00381368  0.49821574  0.48780069  1
  Ti  Ti32  1  0.00113447  0.52922124  0.81826856  1
  Ti  Ti33  1  -0.03405891  0.68073892  0.20252143  1
  Ti  Ti34  1  0.05982030  0.83836125  0.56699643  1
  Ti  Ti35  1  0.01538320  0.80543913  0.90256487  1
  Ti  Ti36  1  0.29386137  0.12999548  0.18905991  1
  Ti  Ti37  1  0.32008523  0.10666032  0.51717768  1
  Ti  Ti38  1  0.34213789  0.19969682  0.81816127  1
  Ti  Ti39  1  0.37170480  0.49718911  0.20876278  1
  Ti  Ti40  1  0.31168592  0.56546346  0.41804042  1
  Ti  Ti41  1  0.33390990  0.40808001  0.82179998  1
  Ti  Ti42  1  0.47546271  0.82637952  0.10317276  1
  Ti  Ti43  1  0.31606460  0.76138300  0.50388053  1
  Ti  Ti44  1  0.31901682  0.87576729  0.82897138  1
  Ti  Ti45  1  0.61914836  0.24099716  0.17973653  1
  Ti  Ti46  1  0.61770615  0.17798651  0.54915605  1
  Ti  Ti47  1  0.69395770  0.13195948  0.82958624  1
  Ti  Ti48  1  0.59767210  0.57336640  0.23922718  1
  Ti  Ti49  1  0.69601250  0.47628914  0.49539273  1
  Ti  Ti50  1  0.72767826  0.53682963  0.73911751  1
  Ti  Ti51  1  0.69035939  0.78271822  0.26800621  1
  Ti  Ti52  1  0.61475091  0.74899154  0.43379253  1
  Ti  Ti53  1  0.75021433  0.88747657  0.83879580  1
  Ti  Ti54  1  0.19777907  -0.04689508  0.16322717  1
  Ti  Ti55  1  0.10968401  -0.00725323  0.43505140  1
  Ti  Ti56  1  0.14488086  0.07655179  0.90395125  1
  Ti  Ti57  1  0.15561496  0.25703861  0.17611078  1
  Ti  Ti58  1  0.18129787  0.37392088  0.49850088  1
  Ti  Ti59  1  0.17937956  0.28827980  0.87322964  1
  Ti  Ti60  1  0.17620359  0.71766656  0.18327268  1
  Ti  Ti61  1  0.11839536  0.65870700  0.46466517  1
  Ti  Ti62  1  0.14624088  0.67146923  0.80934556  1
  Ti  Ti63  1  0.49824023  0.05791310  0.20487219  1
  Ti  Ti64  1  0.49418353  0.01058903  0.56388967  1
  Ti  Ti65  1  0.46191686  0.01884269  0.78003959  1
  Ti  Ti66  1  0.43919344  0.25201269  0.16350702  1
  Ti  Ti67  1  0.48217378  0.36249343  0.57253269  1
  Ti  Ti68  1  0.57938858  0.32972675  0.87126558  1
  Ti  Ti69  1  0.44404911  0.62905401  0.07612252  1
  Ti  Ti70  1  0.49123782  0.62518103  0.49966247  1
  Ti  Ti71  1  0.45801023  0.71173030  0.82862616  1
  Ti  Ti72  1  0.84946751  0.03680166  0.13238821  1
  Ti  Ti73  1  0.75624563  0.03269448  0.56266613  1
  Ti  Ti74  1  0.91733383  0.00242848  0.85168876  1
  Ti  Ti75  1  0.81076629  0.35324270  0.20775892  1
  Ti  Ti76  1  0.78238445  0.26096808  0.48438878  1
  Ti  Ti77  1  0.80654235  0.29671009  0.89408374  1
  Ti  Ti78  1  0.77957055  0.65706395  0.14292216  1
  Ti  Ti79  1  0.90422192  0.75858035  0.47641422  1
  Ti  Ti80  1  0.89284550  0.67176700  0.78755391  1
  Ti  Ti81  1  0.26844576  0.18032383  0.01367026  1
  Ti  Ti82  1  0.17353420  0.20493476  0.37322668  1
  Ti  Ti83  1  0.16182958  0.15429148  0.71491069  1
  Ti  Ti84  1  0.14924513  0.48729797  -0.06233276  1
  Ti  Ti85  1  0.14496977  0.46856915  0.32892675  1
  Ti  Ti86  1  0.17585238  0.49270518  0.74041183  1
  Ti  Ti87  1  0.20266401  0.77205313  -0.00861028  1
  Ti  Ti88  1  0.26988573  0.85375411  0.32336780  1
  Ti  Ti89  1  0.11511331  0.93046859  0.73956867  1
  Ti  Ti90  1  0.50749124  0.13919548  -0.05500999  1
  Ti  Ti91  1  0.56889272  0.16123774  0.35015019  1
  Ti  Ti92  1  0.47578250  0.18031596  0.66370095  1
  Ti  Ti93  1  0.61408697  0.52672253  -0.03286381  1
  Ti  Ti94  1  0.49071094  0.44858787  0.39963203  1
  Ti  Ti95  1  0.50628741  0.49977744  0.75516388  1
  Ti  Ti96  1  0.60750941  0.90295624  -0.01121252  1
  Ti  Ti97  1  0.47086694  0.88415353  0.29988659  1
  Ti  Ti98  1  0.49177142  0.81321250  0.57777026  1
  Ti  Ti99  1  0.83424547  0.14109250  -0.01978991  1
  Ti  Ti100  1  0.84790617  0.10302058  0.36552816  1
  Ti  Ti101  1  0.89522804  0.18956772  0.65170028  1
  Ti  Ti102  1  0.83461347  0.47214531  0.01186807  1
  Ti  Ti103  1  0.86206272  0.44060741  0.38297362  1
  Ti  Ti104  1  0.84991860  0.41402893  0.62890946  1
  Ti  Ti105  1  0.81217081  0.86222908  0.04160708  1
  Ti  Ti106  1  0.87378700  0.91658499  0.32539246  1
  Ti  Ti107  1  0.77213945  0.78863138  0.63576234  1
  Co  Co108  1  0.14962701  0.09040788  0.26426823  1
  Co  Co109  1  0.60974494  0.62602664  0.83537726  1
  Co  Co110  1  0.61242834  0.32164806  0.45771851  1
  Co  Co111  1  0.60198008  0.00263578  0.86317738  1
  Co  Co112  1  0.50355247  0.40730360  0.22629943  1
  Co  Co113  1  0.34372505  0.41402884  0.47524513  1
  Co  Co114  1  0.92794449  0.34148448  0.50882116  1
  Co  Co115  1  0.09771076  0.22163718  0.99214040  1
  Co  Co116  1  0.19166083  0.03514543  0.61323285  1
  Co  Co117  1  0.35395565  0.05971710  0.90404648  1
  Co  Co118  1  0.73499827  0.72105664  0.78767951  1
  Co  Co119  1  0.54332401  0.48146766  0.09935189  1
  Co  Co120  1  0.30290769  0.25892305  0.45826181  1
  Co  Co121  1  0.23768999  0.57845214  0.25333614  1
  Co  Co122  1  0.24553563  1.01499638  0.78991562  1
  Co  Co123  1  0.62289605  0.57664592  0.39890437  1
  Co  Co124  1  0.98129446  0.50460747  0.28537269  1
  Co  Co125  1  0.53204701  0.73050401  0.22603685  1
  Co  Co126  1  0.39376697  0.90373422  0.46134550  1
  Co  Co127  1  0.46515314  0.60040069  0.32834520  1
  Co  Co128  1  0.00443123  0.08431823  0.36886051  1
  Co  Co129  1  0.89018415  0.28102758  0.34931320  1
  Co  Co130  1  0.17053423  0.81664905  0.45697694  1
  Co  Co131  1  0.69282144  0.08363823  0.23757273  1
  Co  Co132  1  0.76248897  0.19492072  0.12518390  1
  Co  Co133  1  0.03053756  0.36186912  0.37547820  1
  Co  Co134  1  0.60562359  0.24319202  0.73612315  1
  Co  Co135  1  0.46100314  0.54226789  0.90614149  1
  Co  Co136  1  0.59117054  0.92799927  0.18270303  1
  Co  Co137  1  0.75923270  0.99774527  0.95946999  1
  Co  Co138  1  0.85887763  0.75683973  0.29362167  1
  Co  Co139  1  0.22861924  0.70231159  0.35540292  1
  Co  Co140  1  0.04155390  1.01032379  0.58603660  1
  Co  Co141  1  0.43932238  0.75593899  0.39587525  1
  Co  Co142  1  0.95178629  0.93181674  0.46556583  1
  Co  Co143  1  0.92344285  0.74580926  0.63430991  1
  Co  Co144  1  0.28392836  0.43973846  0.63239239  1
  Co  Co145  1  0.45928068  0.91325279  0.91525441  1
  Co  Co146  1  0.45288321  0.64663356  0.66163757  1
  Co  Co147  1  0.65846907  0.20511679  0.98513338  1
  Co  Co148  1  0.59310357  0.81009187  0.83288376  1
  Co  Co149  1  0.91410314  0.08236894  0.52208021  1
  Co  Co150  1  0.49621510  0.29699870  0.33000504  1
  Co  Co151  1  0.47197000  0.86229688  0.73240937  1
  Co  Co152  1  0.34459938  0.56235881  0.76850362  1
  Co  Co153  1  0.25290564  0.94896575  0.48804360  1
  Co  Co154  1  0.02959677  0.21940162  0.28292694  1
  Co  Co155  1  0.90422721  0.53073579  0.14480298  1
  Co  Co156  1  0.28839701  0.71922561  0.82193977  1
  Co  Co157  1  0.13331037  0.08945087  0.08910976  1
  Co  Co158  1  0.73844308  0.18894436  0.66122919  1
  Co  Co159  1  0.61481941  0.07613266  0.68739837  1
  Co  Co160  1  0.88044959  0.17427381  0.22650416  1
  Co  Co161  1  0.78394184  0.52145755  0.26126230  1
  Ni  Ni162  1  0.33218712  0.09835436  0.68392519  1
  Ni  Ni163  1  0.85965892  0.45985527  0.83239072  1
  Ni  Ni164  1  0.26147332  0.37720586  0.98454619  1
  Ni  Ni165  1  0.41392899  0.51294095  0.58660274  1
  Ni  Ni166  1  0.60791974  0.64485844  0.09022971  1
  Ni  Ni167  1  0.53413613  0.31149346  0.03924215  1
  Ni  Ni168  1  0.73507342  0.23216005  0.30965231  1
  Ni  Ni169  1  0.46108549  0.32768997  0.74821622  1
  Ni  Ni170  1  0.95525824  0.63357848  0.38609557  1
  Ni  Ni171  1  0.89869543  0.56683183  0.66245103  1
  Ni  Ni172  1  0.07540919  0.85326579  0.19547970  1
  Ni  Ni173  1  0.16555161  0.21687722  0.55944091  1
  Ni  Ni174  1  0.38360651  0.17641874  0.32834581  1
  Ni  Ni175  1  0.39641295  0.27845236  0.95616495  1
  Ni  Ni176  1  0.75213594  0.92308178  0.19302808  1
  Ni  Ni177  1  0.08644401  0.64008911  0.95827501  1
  Ni  Ni178  1  0.91694452  0.86522781  0.16971855  1
  Ni  Ni179  1  0.70693041  0.43646502  0.87601180  1
  Ni  Ni180  1  0.89634804  0.84155851  0.78055640  1
  Ni  Ni181  1  0.36375305  0.95926887  0.18154074  1
  Ni  Ni182  1  0.70718369  0.49929692  0.12466955  1
  Ni  Ni183  1  0.46159116  0.20761308  0.48117377  1
  Ni  Ni184  1  0.66444658  0.79565263  0.10845718  1
  Ni  Ni185  1  0.06663824  0.37776429  0.80258488  1
  Ni  Ni186  1  0.46159121  0.04181290  0.39420811  1
  Ni  Ni187  1  0.75691456  0.34133724  0.74918560  1
  Ni  Ni188  1  0.18817615  0.77331904  0.65657217  1
  Ni  Ni189  1  0.92135131  0.32542497  0.76102868  1
  Ni  Ni190  1  0.40432286  0.08539203  0.06493012  1
  Ni  Ni191  1  0.86960196  0.30462400  0.05859235  1
  Ni  Ni192  1  0.99603018  0.08395753  0.98536725  1
  Ni  Ni193  1  0.34976246  0.77012246  0.67925495  1
  Ni  Ni194  1  0.09026827  0.62915130  0.29880823  1
  Ni  Ni195  1  0.30982741  0.80778327  0.12904866  1
  Ni  Ni196  1  0.15114444  0.52122494  0.56992996  1
  Ni  Ni197  1  0.58653370  0.52895198  0.61426312  1
  Ni  Ni198  1  0.04126030  0.75899705  0.06626674  1
  Ni  Ni199  1  0.66485301  0.88014136  0.54623526  1
  Ni  Ni200  1  0.37276836  0.77086970  -0.02699509  1
  Ni  Ni201  1  0.69917630  0.10321329  0.42170343  1
  Ni  Ni202  1  0.85011744  0.56871548  0.50706405  1
  Ni  Ni203  1  0.04187041  0.77856085  0.73652844  1
  Ni  Ni204  1  0.25999480  0.57534628  0.08992029  1
  Ni  Ni205  1  0.16081420  0.90988563  0.90580999  1
  Ni  Ni206  1  0.11295408  0.37443759  0.05947519  1
  Ni  Ni207  1  0.19202127  0.32618584  0.70690159  1
  Ni  Ni208  1  0.54915876  0.90877711  0.44399558  1
  Ni  Ni209  1  0.30222657  0.31565729  0.12727495  1
  Ni  Ni210  1  0.84121461  0.75527146  0.92121533  1
  Ni  Ni211  1  0.76330064  0.82487461  0.42631218  1
  Ni  Ni212  1  0.78067178  0.59466821  0.89942436  1
  Ni  Ni213  1  0.78443330  0.03123118  0.72700561  1
  Ni  Ni214  1  0.01103307  0.06944459  0.73458186  1
  Ni  Ni215  1  0.20722499  0.43341893  0.17955281  1
