# generated using pymatgen
data_Ti2CoNi
_symmetry_space_group_name_H-M   'P 1'
_cell_length_a   14.52767831
_cell_length_b   14.48929185
_cell_length_c   14.48742328
_cell_angle_alpha   89.94547191
_cell_angle_beta   89.99387330
_cell_angle_gamma   90.04920863
_symmetry_Int_Tables_number   1
_chemical_formula_structural   Ti2CoNi
_chemical_formula_sum   'Ti108 Co54 Ni54'
_cell_volume   3049.53880757
_cell_formula_units_Z   54
loop_
 _symmetry_equiv_pos_site_id
 _symmetry_equiv_pos_as_xyz
  1  'x, y, z'
loop_
 _atom_site_type_symbol
 _atom_site_label
 _atom_site_symmetry_multiplicity
 _atom_site_fract_x
 _atom_site_fract_y
 _atom_site_fract_z
 _atom_site_occupancy
  Ti  Ti0  1  -0.05823281  -0.01519188  -0.09077837  1
  Ti  Ti1  1  -0.03043156  0.06677147  0.40714339  1
  Ti  Ti2  1  0.00463951  -0.05055340  0.72093992  1
  Ti  Ti3  1  -0.02743156  0.35269153  -0.06261472  1
  Ti  Ti4  1  0.02239462  0.33483408  0.32347015  1
  Ti  Ti5  1  0.10714609  0.27335057  0.61131944  1
  Ti  Ti6  1  0.07404200  0.63717643  -0.02394158  1
  Ti  Ti7  1  0.07919780  0.62687148  0.32897507  1
  Ti  Ti8  1  -0.00228858  0.72423632  0.61606393  1
  Ti  Ti9  1  0.39429439  0.05292669  -0.04736789  1
  Ti  Ti10  1  0.40787906  0.04965049  0.28178806  1
  Ti  Ti11  1  0.38710976  -0.00323303  0.71914057  1
  Ti  Ti12  1  0.38866558  0.36832415  0.01003173  1
  Ti  Ti13  1  0.35433383  0.22983911  0.32911340  1
  Ti  Ti14  1  0.31800852  0.32527150  0.66490169  1
  Ti  Ti15  1  0.29232450  0.64491356  -0.04361228  1
  Ti  Ti16  1  0.31154564  0.62898028  0.29004143  1
  Ti  Ti17  1  0.28344754  0.65590127  0.62815874  1
  Ti  Ti18  1  0.69019069  -0.02054089  0.05506274  1
  Ti  Ti19  1  0.68518459  -0.00270170  0.25915745  1
  Ti  Ti20  1  0.62257287  0.07303986  0.74399354  1
  Ti  Ti21  1  0.65186868  0.33937665  0.02253180  1
  Ti  Ti22  1  0.66239968  0.30074234  0.25764857  1
  Ti  Ti23  1  0.64307299  0.31980623  0.57989584  1
  Ti  Ti24  1  0.64193969  0.68485058  -0.07383238  1
  Ti  Ti25  1  0.59937730  0.70456387  0.32152405  1
  Ti  Ti26  1  0.64138866  0.69698751  0.69952130  1
  Ti  Ti27  1  -0.06137072  0.05096511  0.17886537  1
  Ti  Ti28  1  -0.09054376  0.23036373  0.47276894  1
  Ti  Ti29  1  -0.05757286  0.17029136  0.89483713  1
  Ti  Ti30  1  0.01474666  0.58590268  0.16028833  1
  Ti  Ti31  1  0.01212955  0.51476519  0.58468467  1
  Ti  Ti32  1  -0.05862874  0.53649723  0.84975619  1
  Ti  Ti33  1  0.01990408  0.79686605  0.21785200  1
  Ti  Ti34  1  0.01990949  0.89587649  0.53285790  1
  Ti  Ti35  1  0.01127182  0.82048271  0.91107506  1
  Ti  Ti36  1  0.29691303  0.21157131  0.16523850  1
  Ti  Ti37  1  0.37759143  0.17761311  0.50148146  1
  Ti  Ti38  1  0.29688730  0.15627501  0.82390716  1
  Ti  Ti39  1  0.32911998  0.45691204  0.19179144  1
  Ti  Ti40  1  0.29854603  0.48628320  0.52421529  1
  Ti  Ti41  1  0.38142888  0.50609792  0.85563793  1
  Ti  Ti42  1  0.26940484  0.86019872  0.20302838  1
  Ti  Ti43  1  0.34777194  0.78589055  0.47456559  1
  Ti  Ti44  1  0.30628231  0.83453000  0.81946799  1
  Ti  Ti45  1  0.66787272  0.15614419  0.13890859  1
  Ti  Ti46  1  0.71872154  0.26225528  0.42849017  1
  Ti  Ti47  1  0.65154696  0.20548725  0.88568256  1
  Ti  Ti48  1  0.67205565  0.50089079  0.17117044  1
  Ti  Ti49  1  0.65875359  0.50704427  0.62201595  1
  Ti  Ti50  1  0.73054769  0.56632443  0.80930223  1
  Ti  Ti51  1  0.69940504  0.75247540  0.16253845  1
  Ti  Ti52  1  0.67132433  0.89928917  0.44108096  1
  Ti  Ti53  1  0.70252458  0.87002232  0.76909034  1
  Ti  Ti54  1  0.12371730  -0.02307224  0.12813180  1
  Ti  Ti55  1  0.15691223  0.03870434  0.50615599  1
  Ti  Ti56  1  0.11382576  0.07838151  0.84039480  1
  Ti  Ti57  1  0.10032476  0.29130747  0.13051744  1
  Ti  Ti58  1  0.22769940  0.30743354  0.45743036  1
  Ti  Ti59  1  0.16906234  0.30934865  0.86592512  1
  Ti  Ti60  1  0.20603012  0.68470721  0.13680215  1
  Ti  Ti61  1  0.16363355  0.77033816  0.51431949  1
  Ti  Ti62  1  0.15455719  0.60283123  0.78817782  1
  Ti  Ti63  1  0.49072318  -0.06603266  0.10721043  1
  Ti  Ti64  1  0.54608396  0.02486591  0.55198319  1
  Ti  Ti65  1  0.51214413  -0.07455195  0.85619742  1
  Ti  Ti66  1  0.48120674  0.37262532  0.25913811  1
  Ti  Ti67  1  0.43808312  0.35911242  0.48330473  1
  Ti  Ti68  1  0.49113948  0.28961063  0.85149008  1
  Ti  Ti69  1  0.47086694  0.72257913  0.15321535  1
  Ti  Ti70  1  0.53249774  0.67360229  0.51484928  1
  Ti  Ti71  1  0.48852328  0.64315632  0.80446766  1
  Ti  Ti72  1  0.83434595  -0.10454919  0.18481637  1
  Ti  Ti73  1  0.77439437  0.11963464  0.56839032  1
  Ti  Ti74  1  0.82116078  0.03444410  0.72444731  1
  Ti  Ti75  1  0.93067439  0.36754173  0.14493640  1
  Ti  Ti76  1  0.87313783  0.40182127  0.48423231  1
  Ti  Ti77  1  0.82635077  0.28080923  0.80122286  1
  Ti  Ti78  1  0.82517460  0.59680113  0.15643290  1
  Ti  Ti79  1  0.80614979  0.57870281  0.48197814  1
  Ti  Ti80  1  0.83820603  0.70334406  0.86194085  1
  Ti  Ti81  1  0.21724304  0.09482848  0.00202279  1
  Ti  Ti82  1  0.14524478  0.15248275  0.30567808  1
  Ti  Ti83  1  0.22838095  0.15077977  0.65725653  1
  Ti  Ti84  1  0.18416033  0.46549567  0.03683915  1
  Ti  Ti85  1  0.16820794  0.46899403  0.36270236  1
  Ti  Ti86  1  0.10661041  0.42371310  0.73675584  1
  Ti  Ti87  1  0.22594240  0.85050048  0.00174269  1
  Ti  Ti88  1  0.15942717  0.91211103  0.35427958  1
  Ti  Ti89  1  0.15887002  0.78010450  0.71075457  1
  Ti  Ti90  1  0.53564700  0.16014138  0.02306436  1
  Ti  Ti91  1  0.54525559  0.18819314  0.41004009  1
  Ti  Ti92  1  0.44539057  0.19122745  0.67528665  1
  Ti  Ti93  1  0.53207616  0.48856376  -0.05910051  1
  Ti  Ti94  1  0.45974170  0.54207544  0.37128869  1
  Ti  Ti95  1  0.45159200  0.52957548  0.63728092  1
  Ti  Ti96  1  0.45651728  0.76315801  -0.04936284  1
  Ti  Ti97  1  0.49405594  0.87985834  0.41416607  1
  Ti  Ti98  1  0.44898548  0.77125198  0.66624192  1
  Ti  Ti99  1  0.81636521  0.18078047  0.03540703  1
  Ti  Ti100  1  0.79182839  0.12521350  0.31349116  1
  Ti  Ti101  1  0.93914832  0.18432921  0.67752777  1
  Ti  Ti102  1  0.82594974  0.46104116  0.01418423  1
  Ti  Ti103  1  0.84539151  0.46744339  0.29309780  1
  Ti  Ti104  1  0.84338166  0.45455075  0.66970482  1
  Ti  Ti105  1  0.79925275  0.83492306  -0.01033517  1
  Ti  Ti106  1  0.88905457  0.81117464  0.41854123  1
  Ti  Ti107  1  0.85476849  0.88184257  0.61867449  1
  Co  Co108  1  0.26266579  0.09862318  0.40150304  1
  Co  Co109  1  0.54303427  0.28959154  0.12800931  1
  Co  Co110  1  0.01781261  0.46115362  0.04754872  1
  Co  Co111  1  0.79572545  0.75031799  0.69951612  1
  Co  Co112  1  0.90992309  0.03136406  0.58420080  1
  Co  Co113  1  1.05637929  0.24056836  0.77512226  1
  Co  Co114  1  0.31449406  0.03328997  0.57500987  1
  Co  Co115  1  0.96974410  0.22201731  0.06930564  1
  Co  Co116  1  0.54664559  0.06524542  0.18008298  1
  Co  Co117  1  0.09201696  0.08609159  0.68473793  1
  Co  Co118  1  1.04823521  0.46009561  0.23676315  1
  Co  Co119  1  0.02068304  0.08168846  0.03547145  1
  Co  Co120  1  0.29351124  0.84286694  0.63187068  1
  Co  Co121  1  0.18103564  0.41325846  0.59373602  1
  Co  Co122  1  0.76783219  0.66153541  0.02674167  1
  Co  Co123  1  0.07968589  0.48101698  0.89764114  1
  Co  Co124  1  0.15421510  0.91854402  0.62173800  1
  Co  Co125  1  0.92151905  0.59584887  0.00768458  1
  Co  Co126  1  0.49765514  0.20272554  0.25085964  1
  Co  Co127  1  0.34812257  0.78157790  0.09373357  1
  Co  Co128  1  0.64215364  0.58907846  0.43833809  1
  Co  Co129  1  0.14746034  0.59288831  0.60666795  1
  Co  Co130  1  0.56125697  1.01139110  0.34644834  1
  Co  Co131  1  0.19190316  0.54524987  0.20571551  1
  Co  Co132  1  0.96206991  0.91182181  0.07547126  1
  Co  Co133  1  0.70963846  0.37077113  0.72131897  1
  Co  Co134  1  0.17432747  0.74326635  0.88130120  1
  Co  Co135  1  0.44937651  0.40838287  0.76435310  1
  Co  Co136  1  0.26833709  -0.02328830  0.88466843  1
  Co  Co137  1  0.58917729  0.25253241  0.72926116  1
  Co  Co138  1  -0.00341950  0.19549937  0.23967309  1
  Co  Co139  1  0.61561947  0.51744534  0.30654586  1
  Co  Co140  1  0.77794846  0.29746002  0.94561730  1
  Co  Co141  1  0.58114805  0.85594110  0.25487397  1
  Co  Co142  1  0.42922524  0.03994195  0.44461097  1
  Co  Co143  1  0.93151608  0.74732136  1.06681026  1
  Co  Co144  1  0.85859764  0.72060685  0.54017458  1
  Co  Co145  1  0.77021167  0.61033981  0.64113815  1
  Co  Co146  1  0.09751047  0.21386767  0.43646833  1
  Co  Co147  1  0.02349460  0.13153713  0.54844320  1
  Co  Co148  1  0.23105230  0.46766686  0.88234859  1
  Co  Co149  1  0.42724258  0.91169079  0.56460358  1
  Co  Co150  1  -0.03572693  0.36848675  0.76771048  1
  Co  Co151  1  0.31666640  0.93430198  0.42077836  1
  Co  Co152  1  0.71517619  0.42653289  0.44603186  1
  Co  Co153  1  0.23407103  0.98505893  0.73492771  1
  Co  Co154  1  0.69579554  0.95610418  0.61346461  1
  Co  Co155  1  0.47043254  0.62041111  0.99584203  1
  Co  Co156  1  0.73045811  0.18278990  0.71512348  1
  Co  Co157  1  0.79899129  0.30167652  0.59754779  1
  Co  Co158  1  0.41345858  0.13642053  0.11162848  1
  Co  Co159  1  0.10121381  0.20944008  0.96080523  1
  Co  Co160  1  0.10228577  0.96345388  0.95813962  1
  Co  Co161  1  0.48656802  0.12160170  0.83827198  1
  Ni  Ni162  1  0.87339255  0.72565866  0.27543084  1
  Ni  Ni163  1  0.55702038  0.79412742  0.80179704  1
  Ni  Ni164  1  0.32342980  0.33895937  0.84117084  1
  Ni  Ni165  1  0.86195990  -0.04569586  0.32971705  1
  Ni  Ni166  1  0.59861278  0.03892724  0.93240123  1
  Ni  Ni167  1  0.51908253  0.43981342  0.09717177  1
  Ni  Ni168  1  0.04327108  0.77038435  0.40307933  1
  Ni  Ni169  1  0.54203503  0.91568198  0.67962955  1
  Ni  Ni170  1  0.44646174  0.74099182  0.32028603  1
  Ni  Ni171  1  0.68753961  0.52350231  0.98111974  1
  Ni  Ni172  1  0.65707376  0.40640376  0.86745433  1
  Ni  Ni173  1  0.75595897  0.61807829  0.31660452  1
  Ni  Ni174  1  0.58278024  0.82490670  0.55963407  1
  Ni  Ni175  1  0.57174979  0.35591960  0.40079205  1
  Ni  Ni176  1  0.03301607  0.95780727  0.28893138  1
  Ni  Ni177  1  0.01644946  0.71066812  0.79719975  1
  Ni  Ni178  1  0.21410348  0.62106939  0.44285099  1
  Ni  Ni179  1  0.33047714  0.40400172  0.35813329  1
  Ni  Ni180  1  0.38050394  0.21853947  0.96843052  1
  Ni  Ni181  1  0.75387083  0.97264853  0.89503009  1
  Ni  Ni182  1  0.61140720  0.82978643  0.04924292  1
  Ni  Ni183  1  0.96393737  0.34607946  0.61063968  1
  Ni  Ni184  1  0.36281534  0.52664844  0.04944834  1
  Ni  Ni185  1  0.85328930  0.21129312  0.19692250  1
  Ni  Ni186  1  0.37452105  0.63049599  0.48152147  1
  Ni  Ni187  1  0.84509519  0.02520050  0.03599812  1
  Ni  Ni188  1  0.42093032  0.88644831  0.25873513  1
  Ni  Ni189  1  0.24423570  0.27706694  0.02881711  1
  Ni  Ni190  1  0.23549770  0.03476396  0.25582619  1
  Ni  Ni191  1  0.72159458  0.72580880  0.44439805  1
  Ni  Ni192  1  0.83790223  0.31223273  0.32832136  1
  Ni  Ni193  1  0.48545369  0.34694648  0.63059925  1
  Ni  Ni194  1  0.28109488  0.49532732  0.71607817  1
  Ni  Ni195  1  0.77722107  0.34817159  0.12414800  1
  Ni  Ni196  1  0.31603806  1.00717784  0.12349569  1
  Ni  Ni197  1  0.90656928  0.62771260  0.71347062  1
  Ni  Ni198  1  0.19186095  0.73806661  0.31451460  1
  Ni  Ni199  1  0.21399666  0.34102125  0.24725512  1
  Ni  Ni200  1  0.85999937  0.87166784  0.81124208  1
  Ni  Ni201  1  0.78763566  0.12194411  0.86575814  1
  Ni  Ni202  1  0.81375601  0.43192627  0.84080076  1
  Ni  Ni203  1  0.08681736  0.79968306  0.06498698  1
  Ni  Ni204  1  0.73150599  0.81756822  0.30926627  1
  Ni  Ni205  1  0.80680494  0.98736482  0.47248211  1
  Ni  Ni206  1  0.32803388  0.66521866  0.80386871  1
  Ni  Ni207  1  0.48163452  0.55813174  0.20455804  1
  Ni  Ni208  1  0.37453432  0.89918776  0.98889331  1
  Ni  Ni209  1  0.05563755  0.37893441  0.48315997  1
  Ni  Ni210  1  0.55124681  0.48577005  0.50569946  1
  Ni  Ni211  1  0.96960660  0.52471255  0.41305674  1
  Ni  Ni212  1  0.60826170  0.62490962  0.08018278  1
  Ni  Ni213  1  0.67491005  0.08285669  0.44643140  1
  Ni  Ni214  1  0.61789329  0.16109958  0.57962042  1
  Ni  Ni215  1  0.57699972  0.51721966  0.77308247  1
