# generated using pymatgen
data_Ti2CoNi
_symmetry_space_group_name_H-M   'P 1'
_cell_length_a   14.52462995
_cell_length_b   14.59796851
_cell_length_c   14.49749890
_cell_angle_alpha   89.88548008
_cell_angle_beta   90.31514129
_cell_angle_gamma   89.89655544
_symmetry_Int_Tables_number   1
_chemical_formula_structural   Ti2CoNi
_chemical_formula_sum   'Ti108 Co54 Ni54'
_cell_volume   3073.84829762
_cell_formula_units_Z   54
loop_
 _symmetry_equiv_pos_site_id
 _symmetry_equiv_pos_as_xyz
  1  'x, y, z'
loop_
 _atom_site_type_symbol
 _atom_site_label
 _atom_site_symmetry_multiplicity
 _atom_site_fract_x
 _atom_site_fract_y
 _atom_site_fract_z
 _atom_site_occupancy
  Ti  Ti0  1  0.01345392  0.09122066  0.02034457  1
  Ti  Ti1  1  0.05939835  -0.00425838  0.28043390  1
  Ti  Ti2  1  -0.09914251  -0.07690385  0.68810086  1
  Ti  Ti3  1  -0.01571432  0.28547546  0.02083706  1
  Ti  Ti4  1  0.02330093  0.35929582  0.26581824  1
  Ti  Ti5  1  0.11734624  0.31775333  0.72683402  1
  Ti  Ti6  1  0.03033345  0.61714671  0.03282836  1
  Ti  Ti7  1  0.02525633  0.61430187  0.42164384  1
  Ti  Ti8  1  -0.01431800  0.70232319  0.58815352  1
  Ti  Ti9  1  0.30624059  -0.03455402  -0.01185102  1
  Ti  Ti10  1  0.40099046  0.04494895  0.29910323  1
  Ti  Ti11  1  0.32387990  0.07533912  0.61784995  1
  Ti  Ti12  1  0.34497400  0.40283771  0.05476541  1
  Ti  Ti13  1  0.32515229  0.32937100  0.33858142  1
  Ti  Ti14  1  0.36389998  0.27168896  0.61811154  1
  Ti  Ti15  1  0.36904379  0.75448407  -0.02170382  1
  Ti  Ti16  1  0.35387508  0.69757435  0.40235864  1
  Ti  Ti17  1  0.22671900  0.70471571  0.70091394  1
  Ti  Ti18  1  0.65879399  0.03443373  -0.05802102  1
  Ti  Ti19  1  0.60222104  0.00800245  0.34323239  1
  Ti  Ti20  1  0.65117554  0.03389477  0.70449611  1
  Ti  Ti21  1  0.66154135  0.24422610  0.00260501  1
  Ti  Ti22  1  0.60877596  0.38573237  0.31943920  1
  Ti  Ti23  1  0.67891508  0.27238011  0.68416811  1
  Ti  Ti24  1  0.66453896  0.71002720  0.01341371  1
  Ti  Ti25  1  0.74353032  0.61567465  0.32822238  1
  Ti  Ti26  1  0.68564375  0.60894052  0.65802224  1
  Ti  Ti27  1  0.00004423  0.16653408  0.22389242  1
  Ti  Ti28  1  -0.00270933  0.21214130  0.45128749  1
  Ti  Ti29  1  0.04809376  0.17771985  0.84212136  1
  Ti  Ti30  1  -0.05250302  0.56347650  0.22484390  1
  Ti  Ti31  1  0.03265486  0.48160087  0.56237608  1
  Ti  Ti32  1  -0.04030587  0.52286083  0.81552030  1
  Ti  Ti33  1  -0.05656344  0.78034134  0.17294019  1
  Ti  Ti34  1  0.01291295  0.83234649  0.39351593  1
  Ti  Ti35  1  0.01267331  0.90097999  0.86184745  1
  Ti  Ti36  1  0.29953464  0.15424766  0.19312950  1
  Ti  Ti37  1  0.32182584  0.15896921  0.42858495  1
  Ti  Ti38  1  0.38473219  0.17183984  0.77828514  1
  Ti  Ti39  1  0.36171686  0.60382861  0.11288483  1
  Ti  Ti40  1  0.27268632  0.55511337  0.54271557  1
  Ti  Ti41  1  0.42703069  0.50957717  0.79661738  1
  Ti  Ti42  1  0.40482920  0.75075535  0.23444007  1
  Ti  Ti43  1  0.31096210  0.83835008  0.52132342  1
  Ti  Ti44  1  0.25594165  0.86310717  0.83409483  1
  Ti  Ti45  1  0.68474294  0.11661364  0.21392987  1
  Ti  Ti46  1  0.73428572  0.19176426  0.46697544  1
  Ti  Ti47  1  0.56984665  0.15539900  0.84480147  1
  Ti  Ti48  1  0.64436592  0.51265064  0.05559222  1
  Ti  Ti49  1  0.69018162  0.42354022  0.54572998  1
  Ti  Ti50  1  0.64923574  0.44146982  0.77844363  1
  Ti  Ti51  1  0.60511355  0.85021955  0.21975682  1
  Ti  Ti52  1  0.64255173  0.73869949  0.48591410  1
  Ti  Ti53  1  0.61986507  0.87309362  0.82654229  1
  Ti  Ti54  1  0.22647868  -0.04495237  0.16528040  1
  Ti  Ti55  1  0.18812183  0.00610051  0.48270929  1
  Ti  Ti56  1  0.19187462  0.04960647  0.81700753  1
  Ti  Ti57  1  0.18846190  0.42697276  0.19889394  1
  Ti  Ti58  1  0.22968036  0.36743471  0.53572905  1
  Ti  Ti59  1  0.26329946  0.28947624  0.86251397  1
  Ti  Ti60  1  0.15359947  0.71977946  0.15908487  1
  Ti  Ti61  1  0.14433871  0.77425083  0.51710569  1
  Ti  Ti62  1  0.08115318  0.73479537  0.82471098  1
  Ti  Ti63  1  0.44889693  -0.05267803  0.13118970  1
  Ti  Ti64  1  0.53641768  -0.05832438  0.53821186  1
  Ti  Ti65  1  0.42526676  -0.00755974  0.80515083  1
  Ti  Ti66  1  0.49451272  0.45232952  0.17696887  1
  Ti  Ti67  1  0.46189282  0.42481156  0.46556531  1
  Ti  Ti68  1  0.46568812  0.29947310  0.90410677  1
  Ti  Ti69  1  0.57753269  0.65062743  0.18247952  1
  Ti  Ti70  1  0.45326780  0.63484072  0.55294486  1
  Ti  Ti71  1  0.59609833  0.62609006  0.84519634  1
  Ti  Ti72  1  0.84382909  -0.02289751  0.11064338  1
  Ti  Ti73  1  0.82220465  0.00486916  0.53144314  1
  Ti  Ti74  1  0.80040961  -0.03360255  0.84259358  1
  Ti  Ti75  1  0.80653737  0.27775895  0.13509949  1
  Ti  Ti76  1  0.87154066  0.32642677  0.56025867  1
  Ti  Ti77  1  0.92261227  0.32404223  0.82523404  1
  Ti  Ti78  1  0.78796120  0.63617658  0.14457955  1
  Ti  Ti79  1  0.84442790  0.71846633  0.45214383  1
  Ti  Ti80  1  0.79210748  0.62412421  0.84738749  1
  Ti  Ti81  1  0.19505865  0.17100098  0.00154337  1
  Ti  Ti82  1  0.16357331  0.18372014  0.30163691  1
  Ti  Ti83  1  0.08368757  0.15104621  0.63874823  1
  Ti  Ti84  1  0.18861972  0.48783349  -0.02797324  1
  Ti  Ti85  1  0.17976744  0.48597380  0.38055080  1
  Ti  Ti86  1  0.25593464  0.44226282  0.71327060  1
  Ti  Ti87  1  0.16300800  0.83177757  0.00329355  1
  Ti  Ti88  1  0.20964730  0.83145252  0.33575838  1
  Ti  Ti89  1  0.09037355  0.86820323  0.67485051  1
  Ti  Ti90  1  0.49698911  0.16424512  0.05866224  1
  Ti  Ti91  1  0.53322927  0.19835945  0.35074875  1
  Ti  Ti92  1  0.55897922  0.16247134  0.55678147  1
  Ti  Ti93  1  0.48794050  0.49285785  -0.03424346  1
  Ti  Ti94  1  0.53858515  0.56123579  0.35520103  1
  Ti  Ti95  1  0.53446346  0.47893838  0.64585654  1
  Ti  Ti96  1  0.58334123  0.87305418  0.01687961  1
  Ti  Ti97  1  0.48581409  0.86027732  0.38006197  1
  Ti  Ti98  1  0.42208623  0.78554893  0.72214087  1
  Ti  Ti99  1  0.83845824  0.17925910  -0.06630646  1
  Ti  Ti100  1  0.85124297  0.19366357  0.31874454  1
  Ti  Ti101  1  0.88190329  0.11280067  0.72927159  1
  Ti  Ti102  1  0.82311667  0.38656744  -0.02663591  1
  Ti  Ti103  1  0.81241457  0.41671977  0.27393543  1
  Ti  Ti104  1  0.86060523  0.53269103  0.59600008  1
  Ti  Ti105  1  0.85211316  0.75291446  -0.00311145  1
  Ti  Ti106  1  0.83370766  0.88596138  0.33947350  1
  Ti  Ti107  1  0.78942978  0.76955077  0.63167995  1
  Co  Co108  1  0.75665046  0.34222265  0.42259442  1
  Co  Co109  1  0.38349097  0.67581982  0.83020047  1
  Co  Co110  1  0.91763284  0.84757097  0.53388514  1
  Co  Co111  1  0.07890715  0.08951502  0.41316952  1
  Co  Co112  1  0.52462858  0.21334588  0.70757688  1
  Co  Co113  1  0.38352466  0.44189179  0.61159747  1
  Co  Co114  1  0.33980683  0.46024573  0.23022324  1
  Co  Co115  1  -0.04138409  0.77794753  0.72767371  1
  Co  Co116  1  0.50269676  0.33631586  0.06293539  1
  Co  Co117  1  0.10120739  0.55714013  0.25581039  1
  Co  Co118  1  0.34896803  0.23896335  1.01930785  1
  Co  Co119  1  0.36072937  0.07885674  0.08322810  1
  Co  Co120  1  0.08363260  0.71384464  0.30548579  1
  Co  Co121  1  0.61684000  0.99639255  0.11829732  1
  Co  Co122  1  0.92889811  0.39563684  0.13615099  1
  Co  Co123  1  0.50716269  0.09633233  0.20375185  1
  Co  Co124  1  0.94521871  0.99398192  0.41550702  1
  Co  Co125  1  0.59022437  0.75414158  0.64824818  1
  Co  Co126  1  0.25311449  0.63783389  0.27622468  1
  Co  Co127  1  0.68486125  0.88515551  0.42596424  1
  Co  Co128  1  1.00890518  0.44242933  0.94884167  1
  Co  Co129  1  0.66048513  0.03819413  0.50367138  1
  Co  Co130  1  0.78606878  0.46321537  0.11957932  1
  Co  Co131  1  0.06001420  0.47264266  0.10906282  1
  Co  Co132  1  0.94719443  0.67468542  0.88938204  1
  Co  Co133  1  0.60320920  0.31141576  0.46144890  1
  Co  Co134  1  0.41730525  0.59592585  0.26801378  1
  Co  Co135  1  0.51198461  0.64629993  0.00452671  1
  Co  Co136  1  0.43934173  0.26528063  0.46933553  1
  Co  Co137  1  0.23508309  0.02354325  0.32082863  1
  Co  Co138  1  0.52554221  0.32993924  0.60200217  1
  Co  Co139  1  0.47865697  0.07407325  0.45136340  1
  Co  Co140  1  0.05235740  0.93815105  0.53086639  1
  Co  Co141  1  0.69602492  0.74734417  0.77219341  1
  Co  Co142  1  0.77010044  0.04919477  0.37491831  1
  Co  Co143  1  0.72310538  0.77034498  0.29924368  1
  Co  Co144  1  0.97047872  0.06312699  0.57370169  1
  Co  Co145  1  0.90384554  0.70356806  0.30727956  1
  Co  Co146  1  0.19391761  0.65767137  0.42737641  1
  Co  Co147  1  0.34129070  0.57554872  0.95345480  1
  Co  Co148  1  0.23086664  0.70952236  0.88989858  1
  Co  Co149  1  0.11892274  0.44782767  0.81772166  1
  Co  Co150  1  0.49409317  0.77284509  0.10198175  1
  Co  Co151  1  0.32860904  0.42763685  0.88795015  1
  Co  Co152  1  0.02681184  0.02251840  0.74745822  1
  Co  Co153  1  0.24843588  0.56873222  0.81297017  1
  Co  Co154  1  0.51210838  0.63099655  0.71288463  1
  Co  Co155  1  0.53966495  0.90242267  0.69497593  1
  Co  Co156  1  0.93313541  0.04584807  0.88004400  1
  Co  Co157  1  0.73359651  0.96096651  0.23569827  1
  Co  Co158  1  0.52252934  0.75800990  0.88621952  1
  Co  Co159  1  0.48706476  0.06293983  0.67385505  1
  Co  Co160  1  0.10328902  0.59079643  0.88397511  1
  Co  Co161  1  0.89016821  0.03771696  0.26203247  1
  Ni  Ni162  1  0.88372963  0.14140732  0.11258065  1
  Ni  Ni163  1  0.70664625  0.26570954  0.28618285  1
  Ni  Ni164  1  0.08421414  0.85748459  0.21077809  1
  Ni  Ni165  1  0.73700080  0.30716832  0.84501915  1
  Ni  Ni166  1  0.10081572  0.26031476  0.13152672  1
  Ni  Ni167  1  0.66898973  0.51111691  0.22697319  1
  Ni  Ni168  1  0.12710572  0.60999579  0.58943126  1
  Ni  Ni169  1  0.68937484  0.89790093  0.61330959  1
  Ni  Ni170  1  0.90948493  0.34762144  0.39143814  1
  Ni  Ni171  1  0.74878587  0.87822502  0.97107951  1
  Ni  Ni172  1  0.95386833  0.24771081  0.68036777  1
  Ni  Ni173  1  0.43476470  0.34850701  0.75115393  1
  Ni  Ni174  1  0.74590366  0.58398059  0.48934697  1
  Ni  Ni175  1  0.97093426  0.40876372  0.69288341  1
  Ni  Ni176  1  0.11543290  0.32022215  0.92404023  1
  Ni  Ni177  1  0.35278839  0.60186644  0.67860927  1
  Ni  Ni178  1  0.25247588  0.87849942  0.67175559  1
  Ni  Ni179  1  0.74960957  0.13838248  0.62568344  1
  Ni  Ni180  1  0.76805171  0.82377897  0.13906094  1
  Ni  Ni181  1  0.83802157  0.79757764  0.82999489  1
  Ni  Ni182  1  0.06226359  0.31539823  0.56754621  1
  Ni  Ni183  1  0.23063746  0.18860586  0.72033776  1
  Ni  Ni184  1  0.05326979  0.39723399  0.42843122  1
  Ni  Ni185  1  0.19935517  0.57240721  0.12055585  1
  Ni  Ni186  1  0.39559291  0.93208663  0.63325293  1
  Ni  Ni187  1  0.14041939  0.99383406  0.97193578  1
  Ni  Ni188  1  0.25394844  0.29405576  0.13543492  1
  Ni  Ni189  1  0.16744892  0.29044902  0.41215379  1
  Ni  Ni190  1  0.49215748  0.03169625  0.97113785  1
  Ni  Ni191  1  0.41298245  0.27470903  0.20755130  1
  Ni  Ni192  1  0.21133091  0.19174500  0.54618563  1
  Ni  Ni193  1  0.34356853  0.51534851  0.39017633  1
  Ni  Ni194  1  0.88734058  0.52498222  0.39714751  1
  Ni  Ni195  1  0.16441119  1.01494624  0.64726474  1
  Ni  Ni196  1  0.87398886  0.64568180  0.71276730  1
  Ni  Ni197  1  0.65998532  0.36299064  0.13748915  1
  Ni  Ni198  1  0.46583967  0.79367040  0.54090065  1
  Ni  Ni199  1  0.59294440  0.55973723  0.50825782  1
  Ni  Ni200  1  0.96401113  0.93101339  0.01158066  1
  Ni  Ni201  1  0.13899490  0.09327715  0.14476485  1
  Ni  Ni202  1  0.73103932  0.14401947  0.80791364  1
  Ni  Ni203  1  0.43950349  0.88871862  0.92265288  1
  Ni  Ni204  1  0.88604172  0.53821062  0.01979486  1
  Ni  Ni205  1  0.73569489  0.10749325  0.06155122  1
  Ni  Ni206  1  0.55965603  0.71841681  0.34093432  1
  Ni  Ni207  1  0.61358199  0.38176262  0.93669097  1
  Ni  Ni208  1  0.33680571  0.11275928  0.91802206  1
  Ni  Ni209  1  0.01442516  0.77831313  0.01579847  1
  Ni  Ni210  1  0.35033157  0.97700468  0.44862574  1
  Ni  Ni211  1  0.72096914  0.49706274  0.91451725  1
  Ni  Ni212  1  0.34947029  0.89241614  0.28807658  1
  Ni  Ni213  1  0.79662670  0.40704163  0.69622422  1
  Ni  Ni214  1  0.31076275  0.82171543  0.11948035  1
  Ni  Ni215  1  0.56970930  0.24829579  0.19318020  1
