# generated using pymatgen
data_Ti2CoNi
_symmetry_space_group_name_H-M   'P 1'
_cell_length_a   14.59580879
_cell_length_b   14.65766822
_cell_length_c   14.59181571
_cell_angle_alpha   89.98060707
_cell_angle_beta   89.85340943
_cell_angle_gamma   90.36221626
_symmetry_Int_Tables_number   1
_chemical_formula_structural   Ti2CoNi
_chemical_formula_sum   'Ti108 Co54 Ni54'
_cell_volume   3121.70788314
_cell_formula_units_Z   54
loop_
 _symmetry_equiv_pos_site_id
 _symmetry_equiv_pos_as_xyz
  1  'x, y, z'
loop_
 _atom_site_type_symbol
 _atom_site_label
 _atom_site_symmetry_multiplicity
 _atom_site_fract_x
 _atom_site_fract_y
 _atom_site_fract_z
 _atom_site_occupancy
  Ti  Ti0  1  -0.03156562  0.02356652  -0.05685147  1
  Ti  Ti1  1  0.00804722  -0.07160978  0.37927159  1
  Ti  Ti2  1  -0.00902583  -0.01806923  0.62103971  1
  Ti  Ti3  1  0.05376078  0.30492905  0.00918570  1
  Ti  Ti4  1  0.07582592  0.37665429  0.30890301  1
  Ti  Ti5  1  -0.03116050  0.36031962  0.66217627  1
  Ti  Ti6  1  -0.01184236  0.57374130  0.03533363  1
  Ti  Ti7  1  0.05502909  0.71553071  0.22432578  1
  Ti  Ti8  1  -0.06530110  0.67529962  0.70676172  1
  Ti  Ti9  1  0.27617216  -0.04968138  0.02452138  1
  Ti  Ti10  1  0.35004257  0.01426412  0.42105434  1
  Ti  Ti11  1  0.40711913  0.01148389  0.60931014  1
  Ti  Ti12  1  0.35790350  0.39795309  -0.00222732  1
  Ti  Ti13  1  0.28760344  0.34086449  0.33373059  1
  Ti  Ti14  1  0.37403305  0.30536316  0.64286309  1
  Ti  Ti15  1  0.37620499  0.60264207  0.02019440  1
  Ti  Ti16  1  0.33551031  0.71503386  0.36465370  1
  Ti  Ti17  1  0.32932021  0.62067840  0.68835753  1
  Ti  Ti18  1  0.67619406  -0.06429992  0.07215398  1
  Ti  Ti19  1  0.64056804  0.01733828  0.24098856  1
  Ti  Ti20  1  0.75790967  -0.04878316  0.60127040  1
  Ti  Ti21  1  0.66417775  0.40481026  -0.03813687  1
  Ti  Ti22  1  0.67114996  0.33346191  0.29018504  1
  Ti  Ti23  1  0.67899557  0.29970979  0.60424270  1
  Ti  Ti24  1  0.67286338  0.65671886  -0.04644635  1
  Ti  Ti25  1  0.63210421  0.70805729  0.35494306  1
  Ti  Ti26  1  0.64353241  0.67720539  0.66553226  1
  Ti  Ti27  1  -0.05194647  0.15321766  0.20043313  1
  Ti  Ti28  1  -0.01319244  0.23892663  0.49327482  1
  Ti  Ti29  1  0.00468777  0.11123980  0.77578985  1
  Ti  Ti30  1  -0.00299729  0.53840831  0.23666031  1
  Ti  Ti31  1  0.04508009  0.45903083  0.49888646  1
  Ti  Ti32  1  0.00716606  0.51605430  0.82303572  1
  Ti  Ti33  1  0.02336430  0.89322862  0.17927091  1
  Ti  Ti34  1  0.03641795  0.79850092  0.60254649  1
  Ti  Ti35  1  -0.05086539  0.85167474  0.83678526  1
  Ti  Ti36  1  0.35688365  0.20941584  0.21001596  1
  Ti  Ti37  1  0.24209093  0.18073349  0.46833328  1
  Ti  Ti38  1  0.34345635  0.11365543  0.77533524  1
  Ti  Ti39  1  0.38330461  0.45313826  0.20417000  1
  Ti  Ti40  1  0.35226119  0.48780959  0.52465206  1
  Ti  Ti41  1  0.32053090  0.41400075  0.80414862  1
  Ti  Ti42  1  0.33465366  0.83795938  0.18404325  1
  Ti  Ti43  1  0.34294261  0.82965257  0.54780028  1
  Ti  Ti44  1  0.35078349  0.89719518  0.85097547  1
  Ti  Ti45  1  0.67690698  0.18939663  0.14928753  1
  Ti  Ti46  1  0.70918352  0.12022661  0.54184817  1
  Ti  Ti47  1  0.67109140  0.16757952  0.85535313  1
  Ti  Ti48  1  0.68785298  0.52194312  0.12481458  1
  Ti  Ti49  1  0.65979739  0.48003878  0.50156377  1
  Ti  Ti50  1  0.68922836  0.53116972  0.82148068  1
  Ti  Ti51  1  0.59854845  0.75936429  0.13489016  1
  Ti  Ti52  1  0.60645312  0.81131100  0.53616679  1
  Ti  Ti53  1  0.68397635  0.85559232  0.89526258  1
  Ti  Ti54  1  0.15818079  0.04165298  0.16549522  1
  Ti  Ti55  1  0.15416208  0.01219130  0.43826088  1
  Ti  Ti56  1  0.17503236  0.00501292  0.84970505  1
  Ti  Ti57  1  0.21150762  0.34397905  0.13487537  1
  Ti  Ti58  1  0.17290705  0.33425072  0.59363332  1
  Ti  Ti59  1  0.11806775  0.33926438  0.79422025  1
  Ti  Ti60  1  0.20152966  0.68465789  0.06967077  1
  Ti  Ti61  1  0.19188531  0.59348774  0.50969507  1
  Ti  Ti62  1  0.24641232  0.69014301  0.85942166  1
  Ti  Ti63  1  0.41478510  0.01638010  0.22235618  1
  Ti  Ti64  1  0.52170647  0.09137879  0.47076714  1
  Ti  Ti65  1  0.52589952  0.03969240  0.90634492  1
  Ti  Ti66  1  0.52355149  0.31002756  0.12810772  1
  Ti  Ti67  1  0.51981576  0.28879306  0.48348879  1
  Ti  Ti68  1  0.47104685  0.26617240  0.82097413  1
  Ti  Ti69  1  0.52051455  0.59697124  0.21099854  1
  Ti  Ti70  1  0.52204991  0.61831289  0.51716968  1
  Ti  Ti71  1  0.43162717  0.71178912  0.84514155  1
  Ti  Ti72  1  0.85568962  -0.04268217  0.12913146  1
  Ti  Ti73  1  0.88555280  0.05688127  0.47659689  1
  Ti  Ti74  1  0.81325152  -0.01820496  0.78931559  1
  Ti  Ti75  1  0.90658527  0.38117198  0.18326547  1
  Ti  Ti76  1  0.84676550  0.40199607  0.51814672  1
  Ti  Ti77  1  0.81668955  0.39838521  0.78642115  1
  Ti  Ti78  1  0.85942724  0.74971319  0.19581749  1
  Ti  Ti79  1  0.87712752  0.59177519  0.48004925  1
  Ti  Ti80  1  0.78688239  0.72010556  0.80354739  1
  Ti  Ti81  1  0.19687145  0.14908976  -0.01576492  1
  Ti  Ti82  1  0.15239170  0.19082548  0.29137553  1
  Ti  Ti83  1  0.18148361  0.15014437  0.66723685  1
  Ti  Ti84  1  0.16555141  0.47972819  -0.03127265  1
  Ti  Ti85  1  0.18199000  0.59991679  0.31293401  1
  Ti  Ti86  1  0.13121983  0.62565725  0.70045561  1
  Ti  Ti87  1  0.11903382  0.81952778  -0.05322973  1
  Ti  Ti88  1  0.11934369  0.76837376  0.42004568  1
  Ti  Ti89  1  0.18215977  0.83868641  0.72983546  1
  Ti  Ti90  1  0.45045661  0.17760629  0.00399400  1
  Ti  Ti91  1  0.54045530  0.17190397  0.29924249  1
  Ti  Ti92  1  0.54481382  0.15454455  0.67417345  1
  Ti  Ti93  1  0.50740010  0.51570840  -0.09573966  1
  Ti  Ti94  1  0.48876728  0.45631979  0.38315736  1
  Ti  Ti95  1  0.50598792  0.52698435  0.70938995  1
  Ti  Ti96  1  0.46860567  0.90039482  0.02709047  1
  Ti  Ti97  1  0.57684047  0.88457547  0.34722591  1
  Ti  Ti98  1  0.51063902  0.85551683  0.69105985  1
  Ti  Ti99  1  0.81098971  0.12509342  0.01807038  1
  Ti  Ti100  1  0.79979314  0.18503531  0.35708477  1
  Ti  Ti101  1  0.82421633  0.22779171  0.70760612  1
  Ti  Ti102  1  0.84245820  0.44308100  -0.00537938  1
  Ti  Ti103  1  0.78648252  0.48898713  0.31672392  1
  Ti  Ti104  1  0.78027056  0.55564036  0.65246686  1
  Ti  Ti105  1  0.84982889  0.77062297  -0.00408539  1
  Ti  Ti106  1  0.81179729  0.90449269  0.32018262  1
  Ti  Ti107  1  0.80384446  0.75588318  0.56807503  1
  Co  Co108  1  0.19117529  0.52247523  0.81031693  1
  Co  Co109  1  0.12869496  0.29081501  0.43520741  1
  Co  Co110  1  0.26499235  0.26599698  0.75651883  1
  Co  Co111  1  0.79842840  0.73898827  0.38585850  1
  Co  Co112  1  0.34034696  0.78805511  0.71539928  1
  Co  Co113  1  0.78537299  0.07945952  0.20383937  1
  Co  Co114  1  0.94007398  0.47129958  0.37466094  1
  Co  Co115  1  0.26809129  0.07855383  0.29736966  1
  Co  Co116  1  0.51911384  0.89668883  0.18456873  1
  Co  Co117  1  0.33375186  0.23336264  0.89588803  1
  Co  Co118  1  0.58567641  0.00222484  0.62643959  1
  Co  Co119  1  0.96527458  0.38773465  0.90885469  1
  Co  Co120  1  0.06890290  0.42892004  0.12482819  1
  Co  Co121  1  0.89534915  0.63199561  0.31794283  1
  Co  Co122  1  0.13054293  0.57285362  0.14649581  1
  Co  Co123  1  0.73217620  0.03980039  0.37732942  1
  Co  Co124  1  0.02960718  0.21307107  0.65485852  1
  Co  Co125  1  0.81883061  0.59793014  0.97391682  1
  Co  Co126  1  0.20931017  0.32085155  0.93786679  1
  Co  Co127  1  0.21413812  0.46159339  0.24943798  1
  Co  Co128  1  0.85269085  0.56277392  0.81668682  1
  Co  Co129  1  0.32660757  0.53387279  0.36612750  1
  Co  Co130  1  0.31063794  0.08863297  0.10995142  1
  Co  Co131  1  0.04206730  0.60612494  0.39587068  1
  Co  Co132  1  0.82041661  0.93805779  0.96135216  1
  Co  Co133  1  0.47889563  0.91492264  0.49984501  1
  Co  Co134  1  0.03900867  0.62866920  0.56231280  1
  Co  Co135  1  0.03373256  0.72913466  0.06108372  1
  Co  Co136  1  0.47530083  0.69588629  0.65839419  1
  Co  Co137  1  0.13258415  -0.00489916  0.69181914  1
  Co  Co138  1  0.35178649  0.06062007  0.93085481  1
  Co  Co139  1  0.79871333  0.28004161  0.90202368  1
  Co  Co140  1  0.24962047  0.03847999  0.57321007  1
  Co  Co141  1  0.26629261  0.50970525  0.09872734  1
  Co  Co142  1  0.95257846  0.27400534  0.79988649  1
  Co  Co143  1  0.63047113  0.54274851  0.34945466  1
  Co  Co144  1  0.36091353  0.65837220  0.51467016  1
  Co  Co145  1  0.83950114  0.12853297  0.83924443  1
  Co  Co146  1  0.29229477  0.95740756  0.71108095  1
  Co  Co147  1  0.48271485  0.76258970  0.43530877  1
  Co  Co148  1  0.64427522  0.20298062  0.42276261  1
  Co  Co149  1  0.87214882  0.09472619  0.63843607  1
  Co  Co150  1  0.73937790  0.86766763  0.45523162  1
  Co  Co151  1  0.35406228  0.55934191  0.86082054  1
  Co  Co152  1  0.94252328  0.68388751  0.89365485  1
  Co  Co153  1  0.31267082  0.24764834  0.05742711  1
  Co  Co154  1  0.82833086  0.23757756  0.52661242  1
  Co  Co155  1  0.16837011  0.89214332  0.55429460  1
  Co  Co156  1  0.81601037  0.24917571  0.20564302  1
  Co  Co157  1  0.71677895  0.34328131  0.44175436  1
  Co  Co158  1  0.70774673  0.84089987  0.21501325  1
  Co  Co159  1  0.95160636  0.79271659  0.32105202  1
  Co  Co160  1  0.46541910  0.61544397  0.36388905  1
  Co  Co161  1  0.09236966  0.47035525  0.67142771  1
  Ni  Ni162  1  0.95433075  0.73572801  0.46754413  1
  Ni  Ni163  1  0.53494467  0.33409942  0.68392166  1
  Ni  Ni164  1  0.43449444  0.73567530  0.09814628  1
  Ni  Ni165  1  0.96937182  0.87635849  0.02262290  1
  Ni  Ni166  1  0.21274051  0.73386060  0.59212475  1
  Ni  Ni167  1  0.51952773  0.11416802  0.13819916  1
  Ni  Ni168  1  0.39018928  0.18490312  0.37979247  1
  Ni  Ni169  1  0.63831356  0.97873217  0.78452652  1
  Ni  Ni170  1  0.38748109  0.16687813  0.55179744  1
  Ni  Ni171  1  0.85148975  0.56475368  0.14874871  1
  Ni  Ni172  1  0.16062071  0.92345894  0.28372877  1
  Ni  Ni173  1  0.74240115  0.68401688  0.09860659  1
  Ni  Ni174  1  0.90308727  0.04108589  0.30792916  1
  Ni  Ni175  1  0.40781472  0.88074936  0.33755877  1
  Ni  Ni176  1  0.02927859  0.12107973  0.38169807  1
  Ni  Ni177  1  0.47593511  0.00993345  0.75694721  1
  Ni  Ni178  1  0.62996196  0.97513677  0.47831210  1
  Ni  Ni179  1  0.06569167  0.74158875  0.79709038  1
  Ni  Ni180  1  0.31633663  0.78681417  0.98989952  1
  Ni  Ni181  1  0.10225627  0.63535973  0.91907061  1
  Ni  Ni182  1  0.87936245  0.27723825  0.05451968  1
  Ni  Ni183  1  0.87760939  0.85286155  0.68614219  1
  Ni  Ni184  1  0.86978833  0.33110635  0.35051421  1
  Ni  Ni185  1  0.70023740  0.83613316  0.70940494  1
  Ni  Ni186  1  0.46322590  0.31807008  0.29814103  1
  Ni  Ni187  1  0.63589033  0.24624005  -0.00339601  1
  Ni  Ni188  1  0.58378692  0.67210964  0.81392547  1
  Ni  Ni189  1  0.70144635  0.64264714  0.49544542  1
  Ni  Ni190  1  0.10848528  0.97431614  1.01769363  1
  Ni  Ni191  1  0.25333196  0.86497625  0.40350456  1
  Ni  Ni192  1  0.25240411  0.46762372  0.65871047  1
  Ni  Ni193  1  0.35292204  0.32339283  0.47980584  1
  Ni  Ni194  1  0.73570547  0.63841893  0.25174785  1
  Ni  Ni195  1  0.50233585  0.46604233  0.07192062  1
  Ni  Ni196  1  0.54153218  0.76174039  0.96436669  1
  Ni  Ni197  1  0.20183219  0.44181476  0.43239562  1
  Ni  Ni198  1  0.50685756  0.43872451  0.56340374  1
  Ni  Ni199  1  0.04028027  0.12618430  0.06267932  1
  Ni  Ni200  1  0.06069095  0.27020070  0.17363496  1
  Ni  Ni201  1  0.47653427  0.75191934  0.26233491  1
  Ni  Ni202  1  0.63829359  0.08524134  1.01891281  1
  Ni  Ni203  1  0.66091041  0.32579889  0.80204421  1
  Ni  Ni204  1  -0.04548178  0.19079935  0.93595005  1
  Ni  Ni205  1  0.71317617  0.09831346  0.70734967  1
  Ni  Ni206  1  0.51097065  0.34622154  0.95303720  1
  Ni  Ni207  1  0.89952633  0.88526851  0.50920691  1
  Ni  Ni208  1  0.52282316  0.87793711  0.85415430  1
  Ni  Ni209  1  0.93726373  0.52061800  0.64018126  1
  Ni  Ni210  1  0.20839438  0.76646706  0.26226685  1
  Ni  Ni211  1  0.72677520  0.35432603  0.11291550  1
  Ni  Ni212  1  0.17170776  0.84635721  0.11908817  1
  Ni  Ni213  1  0.54665258  0.61650891  0.04407936  1
  Ni  Ni214  1  0.56725202  0.43826017  0.22493269  1
  Ni  Ni215  1  0.65766119  0.44646838  0.67846506  1
