# generated using pymatgen
data_Ti2CoNi
_symmetry_space_group_name_H-M   'P 1'
_cell_length_a   14.62041997
_cell_length_b   14.62522091
_cell_length_c   14.60115039
_cell_angle_alpha   90.15730972
_cell_angle_beta   89.92332527
_cell_angle_gamma   89.72887829
_symmetry_Int_Tables_number   1
_chemical_formula_structural   Ti2CoNi
_chemical_formula_sum   'Ti108 Co54 Ni54'
_cell_volume   3122.06874139
_cell_formula_units_Z   54
loop_
 _symmetry_equiv_pos_site_id
 _symmetry_equiv_pos_as_xyz
  1  'x, y, z'
loop_
 _atom_site_type_symbol
 _atom_site_label
 _atom_site_symmetry_multiplicity
 _atom_site_fract_x
 _atom_site_fract_y
 _atom_site_fract_z
 _atom_site_occupancy
  Ti  Ti0  1  0.02374308  0.04312666  -0.05072128  1
  Ti  Ti1  1  0.00720028  0.04048981  0.31830216  1
  Ti  Ti2  1  -0.09614282  0.00498235  0.72476137  1
  Ti  Ti3  1  0.04786370  0.35067513  0.04491233  1
  Ti  Ti4  1  0.06315140  0.39896290  0.24080763  1
  Ti  Ti5  1  -0.12748730  0.30183308  0.65061900  1
  Ti  Ti6  1  -0.02733518  0.71535757  -0.07753880  1
  Ti  Ti7  1  0.06999281  0.68192715  0.36083421  1
  Ti  Ti8  1  0.03508900  0.65670321  0.68678765  1
  Ti  Ti9  1  0.37532194  0.00108932  -0.02804320  1
  Ti  Ti10  1  0.34450342  0.05887397  0.25942188  1
  Ti  Ti11  1  0.36477129  0.00115658  0.69573755  1
  Ti  Ti12  1  0.32691626  0.26011331  0.00533306  1
  Ti  Ti13  1  0.30903101  0.35746647  0.38875818  1
  Ti  Ti14  1  0.24719780  0.33112664  0.65168306  1
  Ti  Ti15  1  0.35861639  0.68785278  0.05495155  1
  Ti  Ti16  1  0.33180370  0.62472286  0.28152179  1
  Ti  Ti17  1  0.34082547  0.68534475  0.72702348  1
  Ti  Ti18  1  0.63820484  -0.02826270  -0.05012516  1
  Ti  Ti19  1  0.68740952  0.01016058  0.35463898  1
  Ti  Ti20  1  0.68299172  -0.09920047  0.66641328  1
  Ti  Ti21  1  0.67314980  0.40830531  0.01670103  1
  Ti  Ti22  1  0.63631294  0.27520175  0.29450900  1
  Ti  Ti23  1  0.68361037  0.33142268  0.62108876  1
  Ti  Ti24  1  0.65186545  0.64173462  0.07127658  1
  Ti  Ti25  1  0.67749360  0.67578793  0.32762507  1
  Ti  Ti26  1  0.67285038  0.59708052  0.66236148  1
  Ti  Ti27  1  0.03798833  0.19679512  0.20723054  1
  Ti  Ti28  1  0.00284544  0.19747962  0.42361333  1
  Ti  Ti29  1  0.01078460  0.17267291  0.78608458  1
  Ti  Ti30  1  -0.06626687  0.49347737  0.11746773  1
  Ti  Ti31  1  0.00237845  0.53990965  0.50914889  1
  Ti  Ti32  1  -0.03502607  0.36351294  0.86931801  1
  Ti  Ti33  1  -0.00883357  0.88925394  0.19724091  1
  Ti  Ti34  1  -0.02225815  0.74861763  0.53867080  1
  Ti  Ti35  1  0.00293271  0.83238253  0.76954832  1
  Ti  Ti36  1  0.32977713  0.23656751  0.20676157  1
  Ti  Ti37  1  0.31715646  0.12950441  0.53887110  1
  Ti  Ti38  1  0.31170625  0.12491077  0.85699909  1
  Ti  Ti39  1  0.39409739  0.49846378  0.12498268  1
  Ti  Ti40  1  0.35667035  0.49267494  0.58181644  1
  Ti  Ti41  1  0.28725311  0.47939174  0.78976389  1
  Ti  Ti42  1  0.37770523  0.89627138  0.14206020  1
  Ti  Ti43  1  0.29348726  0.87075166  0.50657396  1
  Ti  Ti44  1  0.29172537  0.85953946  0.85884915  1
  Ti  Ti45  1  0.67288802  0.12806432  0.17115612  1
  Ti  Ti46  1  0.68499042  0.18113005  0.45672768  1
  Ti  Ti47  1  0.66385212  0.18992891  0.78613032  1
  Ti  Ti48  1  0.72002390  0.52928105  0.20154261  1
  Ti  Ti49  1  0.61401549  0.48936254  0.51833117  1
  Ti  Ti50  1  0.67933495  0.57823832  0.85663594  1
  Ti  Ti51  1  0.66935683  0.92865297  0.13660608  1
  Ti  Ti52  1  0.64067882  0.82950712  0.47965191  1
  Ti  Ti53  1  0.60235249  0.82390325  0.81822568  1
  Ti  Ti54  1  0.17878723  -0.04484418  0.24911381  1
  Ti  Ti55  1  0.10286775  -0.03862979  0.46711747  1
  Ti  Ti56  1  0.16346877  -0.01684349  0.77588549  1
  Ti  Ti57  1  0.24508841  0.39770272  0.11940140  1
  Ti  Ti58  1  0.06549836  0.31266513  0.56558431  1
  Ti  Ti59  1  0.15599830  0.34941666  0.86513027  1
  Ti  Ti60  1  0.12502218  0.69214111  0.15633030  1
  Ti  Ti61  1  0.26899284  0.65436146  0.48050010  1
  Ti  Ti62  1  0.13205396  0.62481190  0.84550181  1
  Ti  Ti63  1  0.52105601  -0.01796926  0.23010753  1
  Ti  Ti64  1  0.58568159  0.02053808  0.53740592  1
  Ti  Ti65  1  0.52417478  0.01837437  0.80815963  1
  Ti  Ti66  1  0.50614757  0.33724343  0.16772669  1
  Ti  Ti67  1  0.53273840  0.30429231  0.47248830  1
  Ti  Ti68  1  0.44484265  0.33219869  0.86180866  1
  Ti  Ti69  1  0.52109006  0.60941484  0.22943651  1
  Ti  Ti70  1  0.49787967  0.63050448  0.45210432  1
  Ti  Ti71  1  0.43753453  0.72250705  0.88287359  1
  Ti  Ti72  1  0.82084524  -0.02303219  0.22358887  1
  Ti  Ti73  1  0.89742151  -0.07989012  0.42414370  1
  Ti  Ti74  1  0.81546107  0.06095406  0.89024877  1
  Ti  Ti75  1  0.85591201  0.30628025  0.15751771  1
  Ti  Ti76  1  0.89536345  0.38534142  0.45538620  1
  Ti  Ti77  1  0.78024363  0.32712623  0.84442218  1
  Ti  Ti78  1  0.86535970  0.67672565  0.10110539  1
  Ti  Ti79  1  0.85584634  0.63759880  0.42581271  1
  Ti  Ti80  1  0.86261711  0.64836286  0.77284157  1
  Ti  Ti81  1  0.18522560  0.13168686  0.02590021  1
  Ti  Ti82  1  0.19391403  0.13940137  0.37750668  1
  Ti  Ti83  1  0.17674143  0.16173421  0.68806078  1
  Ti  Ti84  1  0.20514516  0.53191469  -0.01308795  1
  Ti  Ti85  1  0.15187522  0.51548981  0.37559700  1
  Ti  Ti86  1  0.11852238  0.47502664  0.66858412  1
  Ti  Ti87  1  0.17842143  0.86350291  0.05149494  1
  Ti  Ti88  1  0.24620724  0.80106750  0.32844880  1
  Ti  Ti89  1  0.12589933  0.85708350  0.63107367  1
  Ti  Ti90  1  0.50217426  0.16891623  0.00032860  1
  Ti  Ti91  1  0.52500908  0.13321498  0.35079800  1
  Ti  Ti92  1  0.49443389  0.22957862  0.66123890  1
  Ti  Ti93  1  0.49500071  0.55141250  -0.02867325  1
  Ti  Ti94  1  0.57313409  0.45409508  0.32635824  1
  Ti  Ti95  1  0.49426243  0.51462590  0.75631968  1
  Ti  Ti96  1  0.53906331  0.80830353  0.04412337  1
  Ti  Ti97  1  0.51034669  0.79670994  0.33542196  1
  Ti  Ti98  1  0.44262603  0.79374555  0.59852538  1
  Ti  Ti99  1  0.76643043  0.21744554  0.00923691  1
  Ti  Ti100  1  0.84436933  0.15758601  0.28937795  1
  Ti  Ti101  1  0.80788105  0.12116088  0.59311050  1
  Ti  Ti102  1  0.86730236  0.52713316  -0.07850474  1
  Ti  Ti103  1  0.75671218  0.48745136  0.37550124  1
  Ti  Ti104  1  0.82699503  0.47970487  0.71813037  1
  Ti  Ti105  1  0.80559393  0.85908268  -0.00939273  1
  Ti  Ti106  1  0.82169704  0.79101116  0.27759065  1
  Ti  Ti107  1  0.84392921  0.81461102  0.66537137  1
  Co  Co108  1  0.90609230  0.20389422  0.90562291  1
  Co  Co109  1  0.16925712  0.76969070  0.77559858  1
  Co  Co110  1  0.84384855  0.17590148  0.75388938  1
  Co  Co111  1  0.78259257  0.51872368  0.05354507  1
  Co  Co112  1  0.56608193  0.48918333  0.12847291  1
  Co  Co113  1  0.08606985  0.00926648  0.10833624  1
  Co  Co114  1  0.50623011  0.40586345  0.60585793  1
  Co  Co115  1  0.38485754  0.75004367  0.42178726  1
  Co  Co116  1  0.86253937  0.43576823  0.25551686  1
  Co  Co117  1  0.59159932  0.69385013  0.92777260  1
  Co  Co118  1  0.61922697  0.25367181  0.08072377  1
  Co  Co119  1  0.69978579  0.37005827  0.18431524  1
  Co  Co120  1  0.41652183  0.46129852  0.28471199  1
  Co  Co121  1  0.52434133  0.92431402  0.66043642  1
  Co  Co122  1  0.37570208  0.30034571  0.55296439  1
  Co  Co123  1  0.48784940  0.14905920  0.51813612  1
  Co  Co124  1  0.51570515  0.98234613  0.06176369  1
  Co  Co125  1  0.03003880  0.57912479  0.23725251  1
  Co  Co126  1  0.25441444  0.99223438  0.40814818  1
  Co  Co127  1  0.56188370  0.34089213  0.75323507  1
  Co  Co128  1  0.55032869  0.67525273  0.75964689  1
  Co  Co129  1  0.50932151  0.17266868  0.19428669  1
  Co  Co130  1  0.07242387  0.86308343  0.33642729  1
  Co  Co131  1  0.25063428  0.46838959  0.25986173  1
  Co  Co132  1  0.32262020  0.52035472  0.40952572  1
  Co  Co133  1  0.84695414  0.79292014  0.84047153  1
  Co  Co134  1  0.95120775  0.30511293  0.30856509  1
  Co  Co135  1  0.45691446  0.44915373  0.45263512  1
  Co  Co136  1  0.68351887  0.43770933  0.76364483  1
  Co  Co137  1  0.43203252  0.83996564  0.76249524  1
  Co  Co138  1  0.22891532  0.73674090  0.61390566  1
  Co  Co139  1  0.75560787  0.91747226  0.82074335  1
  Co  Co140  1  1.01454981  0.63041455  0.05802285  1
  Co  Co141  1  0.57696063  0.44460951  0.88296341  1
  Co  Co142  1  0.70583613  0.35690683  0.46116637  1
  Co  Co143  1  0.28368229  0.86325983  0.69215576  1
  Co  Co144  1  0.39746585  0.06037309  0.41019128  1
  Co  Co145  1  0.25412813  0.59024635  0.13689823  1
  Co  Co146  1  0.61151936  0.28877701  0.91207396  1
  Co  Co147  1  0.12219685  0.62709086  0.54155030  1
  Co  Co148  1  0.47362047  0.88765194  0.91834434  1
  Co  Co149  1  0.71883851  0.73427377  0.74254564  1
  Co  Co150  1  0.94379364  0.77614242  0.37712470  1
  Co  Co151  1  0.86450394  0.36446469  1.00156347  1
  Co  Co152  1  0.96712728  0.49701368  0.35684000  1
  Co  Co153  1  0.97434675  0.73017984  0.21397872  1
  Co  Co154  1  0.22197722  0.00168995  0.60101020  1
  Co  Co155  1  0.64673803  0.13078964  0.93926795  1
  Co  Co156  1  0.19528435  0.44851685  0.51866134  1
  Co  Co157  1  0.41613041  0.97728390  0.54238820  1
  Co  Co158  1  0.49207609  0.17632438  0.83101391  1
  Co  Co159  1  0.92724327  0.92529450  0.88628821  1
  Co  Co160  1  0.39196689  0.37499990  0.70887479  1
  Co  Co161  1  0.37510350  0.90389253  0.32290283  1
  Ni  Ni162  1  0.33924840  0.58635852  0.89956014  1
  Ni  Ni163  1  0.39278234  0.09932991  0.10518379  1
  Ni  Ni164  1  0.47894351  0.61924942  0.62061250  1
  Ni  Ni165  1  0.52623073  0.95055131  0.39877422  1
  Ni  Ni166  1  0.18319771  0.28789855  0.28795877  1
  Ni  Ni167  1  0.13958668  0.78551832  0.47222336  1
  Ni  Ni168  1  0.84338191  0.23283346  0.47201088  1
  Ni  Ni169  1  0.11912017  0.12865646  0.53333715  1
  Ni  Ni170  1  0.10160733  0.85463872  0.90240514  1
  Ni  Ni171  1  0.86286693  0.60491132  0.26271808  1
  Ni  Ni172  1  -0.02330886  0.17592935  0.62004824  1
  Ni  Ni173  1  0.93770663  0.07292511  0.16003162  1
  Ni  Ni174  1  0.34962864  0.18003098  0.70625344  1
  Ni  Ni175  1  0.79792198  0.49690192  0.54655545  1
  Ni  Ni176  1  0.59359190  0.75921894  0.19335588  1
  Ni  Ni177  1  0.95207912  0.19950061  0.05666421  1
  Ni  Ni178  1  0.60339984  0.74483103  0.61636828  1
  Ni  Ni179  1  0.07726534  0.36719869  0.41169842  1
  Ni  Ni180  1  0.42896907  0.75072059  0.19967090  1
  Ni  Ni181  1  0.77605770  0.68596410  0.95106019  1
  Ni  Ni182  1  0.72977499  0.04966738  0.72507266  1
  Ni  Ni183  1  0.19928306  -0.01145879  0.93900088  1
  Ni  Ni184  1  0.48481371  0.38165963  0.01424724  1
  Ni  Ni185  1  0.04605131  0.33215385  0.72663230  1
  Ni  Ni186  1  -0.03265328  0.90885007  0.59409161  1
  Ni  Ni187  1  0.99132258  0.51992468  0.78657018  1
  Ni  Ni188  1  0.07190834  0.22119042  0.94028287  1
  Ni  Ni189  1  0.92342307  0.95580122  0.05098592  1
  Ni  Ni190  1  0.26948315  0.76886968  0.16869453  1
  Ni  Ni191  1  0.29241893  0.28599544  0.81612569  1
  Ni  Ni192  1  0.82581275  0.07118377  0.42321934  1
  Ni  Ni193  1  0.05935127  0.03329480  0.65651567  1
  Ni  Ni194  1  0.20611348  0.60347013  0.69140906  1
  Ni  Ni195  1  0.32270285  0.41814179  0.95334260  1
  Ni  Ni196  1  0.01601623  0.80523291  0.05316028  1
  Ni  Ni197  1  0.45583898  0.29179799  0.31910443  1
  Ni  Ni198  1  0.80047710  0.78768281  0.48156905  1
  Ni  Ni199  1  0.77095994  0.04426110  0.05614309  1
  Ni  Ni200  1  0.67267270  0.85874261  0.30034865  1
  Ni  Ni201  1  0.03555582  0.50918188  0.94843141  1
  Ni  Ni202  1  0.68733411  0.64389945  0.49067903  1
  Ni  Ni203  1  0.17036028  0.25990004  0.12220057  1
  Ni  Ni204  1  0.11006083  0.50549395  0.11919534  1
  Ni  Ni205  1  0.80308800  0.95659357  0.56224995  1
  Ni  Ni206  1  0.82725426  0.65723658  0.59934831  1
  Ni  Ni207  1  0.25539775  1.00620292  0.10539923  1
  Ni  Ni208  1  0.73721981  0.77920606  0.13026667  1
  Ni  Ni209  1  0.95652584  0.44344124  0.62853609  1
  Ni  Ni210  1  0.24217846  0.72215698  0.93550641  1
  Ni  Ni211  1  0.18341401  0.12025274  0.20995468  1
  Ni  Ni212  1  0.63719921  0.15645535  0.61638100  1
  Ni  Ni213  1  0.21016049  0.26684609  0.49334916  1
  Ni  Ni214  1  0.96140878  0.05398219  0.51164186  1
  Ni  Ni215  1  0.78911376  0.31064208  0.32789772  1
