# generated using pymatgen
data_Ti2CoNi
_symmetry_space_group_name_H-M   'P 1'
_cell_length_a   14.62608943
_cell_length_b   14.56743623
_cell_length_c   14.63278367
_cell_angle_alpha   89.90824290
_cell_angle_beta   89.83804528
_cell_angle_gamma   90.02747473
_symmetry_Int_Tables_number   1
_chemical_formula_structural   Ti2CoNi
_chemical_formula_sum   'Ti108 Co54 Ni54'
_cell_volume   3117.71174691
_cell_formula_units_Z   54
loop_
 _symmetry_equiv_pos_site_id
 _symmetry_equiv_pos_as_xyz
  1  'x, y, z'
loop_
 _atom_site_type_symbol
 _atom_site_label
 _atom_site_symmetry_multiplicity
 _atom_site_fract_x
 _atom_site_fract_y
 _atom_site_fract_z
 _atom_site_occupancy
  Ti  Ti0  1  -0.09417627  -0.00009641  0.00051721  1
  Ti  Ti1  1  0.06072915  -0.01729661  0.36496249  1
  Ti  Ti2  1  -0.02164572  0.01008777  0.70920909  1
  Ti  Ti3  1  -0.01169007  0.41242248  -0.03546647  1
  Ti  Ti4  1  -0.00974268  0.30896438  0.33863209  1
  Ti  Ti5  1  -0.04854867  0.32440680  0.66187990  1
  Ti  Ti6  1  -0.07305082  0.69547175  0.05442094  1
  Ti  Ti7  1  0.06184450  0.64263463  0.30831703  1
  Ti  Ti8  1  0.09421760  0.71860119  0.66111463  1
  Ti  Ti9  1  0.37963607  0.01245885  0.02643619  1
  Ti  Ti10  1  0.30695198  0.03333436  0.25579959  1
  Ti  Ti11  1  0.40958087  -0.03302866  0.65991641  1
  Ti  Ti12  1  0.38499092  0.23677842  -0.01550247  1
  Ti  Ti13  1  0.33406365  0.38227738  0.38373032  1
  Ti  Ti14  1  0.32667966  0.40560452  0.58983578  1
  Ti  Ti15  1  0.31520573  0.67906234  0.02177056  1
  Ti  Ti16  1  0.34857400  0.69985773  0.27979037  1
  Ti  Ti17  1  0.25734449  0.59029171  0.65213791  1
  Ti  Ti18  1  0.70923377  0.03184892  -0.04333855  1
  Ti  Ti19  1  0.60414977  0.03025469  0.29982727  1
  Ti  Ti20  1  0.64426792  -0.07410759  0.70678557  1
  Ti  Ti21  1  0.77355221  0.30649624  0.00272747  1
  Ti  Ti22  1  0.64038835  0.42058349  0.39950117  1
  Ti  Ti23  1  0.72211357  0.32266297  0.68420495  1
  Ti  Ti24  1  0.71923005  0.64677741  0.00089542  1
  Ti  Ti25  1  0.73492715  0.64319902  0.33127401  1
  Ti  Ti26  1  0.69627113  0.72934908  0.64562362  1
  Ti  Ti27  1  0.00260303  0.03075343  0.17003664  1
  Ti  Ti28  1  -0.00460223  0.20142267  0.52461902  1
  Ti  Ti29  1  -0.01918073  0.13653206  0.84227247  1
  Ti  Ti30  1  0.06333515  0.49465896  0.13708439  1
  Ti  Ti31  1  -0.07237090  0.50802941  0.48560726  1
  Ti  Ti32  1  0.03206589  0.55894188  0.82026661  1
  Ti  Ti33  1  0.05226096  0.83625201  0.19136214  1
  Ti  Ti34  1  -0.01556375  0.88092982  0.52335665  1
  Ti  Ti35  1  -0.01044370  0.74781827  0.86927313  1
  Ti  Ti36  1  0.31757573  0.19415907  0.16144398  1
  Ti  Ti37  1  0.35742236  0.12547106  0.51414497  1
  Ti  Ti38  1  0.30199716  0.10927701  0.85540296  1
  Ti  Ti39  1  0.40888642  0.49220700  0.16862654  1
  Ti  Ti40  1  0.32957654  0.60552319  0.48480359  1
  Ti  Ti41  1  0.35946947  0.51218748  0.89414125  1
  Ti  Ti42  1  0.33883752  0.86388431  0.16019216  1
  Ti  Ti43  1  0.29854334  0.88815501  0.49952985  1
  Ti  Ti44  1  0.29570909  0.80402789  0.69954687  1
  Ti  Ti45  1  0.66053424  0.18971797  0.10698630  1
  Ti  Ti46  1  0.69887721  0.17544061  0.51021158  1
  Ti  Ti47  1  0.70997545  0.20835319  0.85932160  1
  Ti  Ti48  1  0.60872006  0.49729462  0.22403800  1
  Ti  Ti49  1  0.65262640  0.52756423  0.59140558  1
  Ti  Ti50  1  0.58485465  0.52621450  0.82500558  1
  Ti  Ti51  1  0.65245359  0.85448746  0.25348971  1
  Ti  Ti52  1  0.71303716  0.86637026  0.46061295  1
  Ti  Ti53  1  0.65437911  0.73844490  0.82936588  1
  Ti  Ti54  1  0.17266955  -0.04781619  0.09980160  1
  Ti  Ti55  1  0.16264226  0.11912498  0.49671614  1
  Ti  Ti56  1  0.17930172  -0.07184866  0.89071169  1
  Ti  Ti57  1  0.15229433  0.31359389  0.19622054  1
  Ti  Ti58  1  0.17397998  0.30221818  0.45877838  1
  Ti  Ti59  1  0.18910388  0.33093955  0.80685021  1
  Ti  Ti60  1  0.21434860  0.60907274  0.17112779  1
  Ti  Ti61  1  0.12803755  0.59965210  0.48639907  1
  Ti  Ti62  1  0.21361438  0.66470262  0.83727097  1
  Ti  Ti63  1  0.48637886  0.00592841  0.17285576  1
  Ti  Ti64  1  0.50818027  -0.00456449  0.50428308  1
  Ti  Ti65  1  0.48330150  0.01161585  0.81821001  1
  Ti  Ti66  1  0.51560621  0.32287244  0.15471581  1
  Ti  Ti67  1  0.49310574  0.27297190  0.49280328  1
  Ti  Ti68  1  0.46332238  0.35472947  0.84719407  1
  Ti  Ti69  1  0.48683439  0.74447505  0.12730472  1
  Ti  Ti70  1  0.50611722  0.68165631  0.54563614  1
  Ti  Ti71  1  0.45886261  0.68227747  0.88120861  1
  Ti  Ti72  1  0.79939531  -0.01341497  0.17522891  1
  Ti  Ti73  1  0.87298112  0.03760693  0.43145433  1
  Ti  Ti74  1  0.86430006  -0.10316994  0.84560087  1
  Ti  Ti75  1  0.85017256  0.26835826  0.18976036  1
  Ti  Ti76  1  0.80640968  0.34553852  0.45013576  1
  Ti  Ti77  1  0.83241784  0.40620855  0.83337004  1
  Ti  Ti78  1  0.78525793  0.73327427  0.16550957  1
  Ti  Ti79  1  0.84941256  0.71269168  0.49049468  1
  Ti  Ti80  1  0.79819414  0.60819459  0.81026381  1
  Ti  Ti81  1  0.18029269  0.22249614  0.00963753  1
  Ti  Ti82  1  0.15600968  0.15009357  0.30288582  1
  Ti  Ti83  1  0.19668191  0.15247310  0.68754960  1
  Ti  Ti84  1  0.17160410  0.50827869  -0.05400217  1
  Ti  Ti85  1  0.13223171  0.45348101  0.34006102  1
  Ti  Ti86  1  0.10465278  0.45997601  0.63763625  1
  Ti  Ti87  1  0.13613399  0.75951068  0.00793542  1
  Ti  Ti88  1  0.18831360  0.77450903  0.37436479  1
  Ti  Ti89  1  0.14054693  0.92121137  0.65923483  1
  Ti  Ti90  1  0.54345832  0.11162101  -0.02748810  1
  Ti  Ti91  1  0.44170503  0.18912534  0.31857013  1
  Ti  Ti92  1  0.51203551  0.16931524  0.66647611  1
  Ti  Ti93  1  0.59011303  0.45100698  0.01280781  1
  Ti  Ti94  1  0.44532389  0.53526786  0.35943294  1
  Ti  Ti95  1  0.51909392  0.39493655  0.66121429  1
  Ti  Ti96  1  0.55251610  0.91041429  0.00302719  1
  Ti  Ti97  1  0.54924214  0.72732049  0.36197556  1
  Ti  Ti98  1  0.49393336  0.79196463  0.70663178  1
  Ti  Ti99  1  0.96370099  0.18398948  0.03753115  1
  Ti  Ti100  1  0.74413673  0.15662948  0.30856915  1
  Ti  Ti101  1  0.76462190  0.11161140  0.68978978  1
  Ti  Ti102  1  0.84561345  0.47488852  0.07855468  1
  Ti  Ti103  1  0.80897451  0.45847174  0.28250197  1
  Ti  Ti104  1  0.90662880  0.50083151  0.68779280  1
  Ti  Ti105  1  0.76024801  0.85622855  0.01287421  1
  Ti  Ti106  1  0.85809181  0.83739033  0.32705250  1
  Ti  Ti107  1  0.83381183  0.89309340  0.64927603  1
  Co  Co108  1  0.21096642  0.46437966  0.49685781  1
  Co  Co109  1  0.77320879  0.01011576  0.80484801  1
  Co  Co110  1  0.62355882  0.25218125  0.39524481  1
  Co  Co111  1  0.49170172  0.61988821  0.23030152  1
  Co  Co112  1  -0.01872624  0.49000186  0.33205693  1
  Co  Co113  1  0.35801518  0.11533868  0.70273774  1
  Co  Co114  1  0.71744778  0.48604772  0.73678660  1
  Co  Co115  1  0.66381454  0.89566781  0.86702811  1
  Co  Co116  1  0.27011709  0.98243261  0.75080755  1
  Co  Co117  1  0.79909668  0.43162959  0.58855540  1
  Co  Co118  1  0.94698657  0.40325031  0.20458085  1
  Co  Co119  1  0.82040529  0.74396406  0.91048577  1
  Co  Co120  1  0.85560069  0.22752769  0.75261351  1
  Co  Co121  1  0.98999201  0.84530481  0.72963456  1
  Co  Co122  1  0.82616051  0.76356351  0.74919735  1
  Co  Co123  1  0.64419310  0.80469660  0.10239768  1
  Co  Co124  1  0.70438417  0.39588420  0.11973504  1
  Co  Co125  1  0.44315219  0.57528330  1.02442024  1
  Co  Co126  1  0.01392597  0.13739680  0.37669765  1
  Co  Co127  1  0.06527569  0.67106721  0.14303857  1
  Co  Co128  1  0.66313297  0.03474437  0.44031212  1
  Co  Co129  1  0.31822716  0.77906207  0.86455751  1
  Co  Co130  1  0.36458203  0.33705786  0.23283228  1
  Co  Co131  1  0.26968316  0.85302172  0.01244128  1
  Co  Co132  1  0.29373660  0.36157876  0.92886087  1
  Co  Co133  1  0.81035106  0.60808428  0.61295796  1
  Co  Co134  1  0.35483720  0.93574694  0.88763142  1
  Co  Co135  1  0.25790858  0.01921388  0.58859158  1
  Co  Co136  1  0.04465577  1.02947151  0.54881046  1
  Co  Co137  1  0.14473105  0.37709095  0.01996405  1
  Co  Co138  1  0.92963384  0.75533124  0.61241422  1
  Co  Co139  1  0.43143129  0.40169800  0.01807596  1
  Co  Co140  1  0.28815437  0.34110965  0.09209581  1
  Co  Co141  1  -0.00584577  0.60556544  0.59221488  1
  Co  Co142  1  0.76835770  0.97381179  0.32869385  1
  Co  Co143  1  0.46874133  0.17723138  0.84124876  1
  Co  Co144  1  0.83542793  0.12823619  0.91415086  1
  Co  Co145  1  0.55894722  0.89060713  0.39906790  1
  Co  Co146  1  0.43721568  0.83744945  0.55991856  1
  Co  Co147  1  0.01900927  0.19458959  0.20859509  1
  Co  Co148  1  0.94564747  0.66098567  0.73567524  1
  Co  Co149  1  0.89440654  0.10302268  0.26641408  1
  Co  Co150  1  0.61898483  0.09194302  0.78894772  1
  Co  Co151  1  0.63882281  0.34614813  0.54274637  1
  Co  Co152  1  0.86624179  0.20911523  0.39899121  1
  Co  Co153  1  0.63520825  0.68923729  0.21805584  1
  Co  Co154  1  0.59339027  0.82974236  0.55728817  1
  Co  Co155  1  0.41928146  0.81552331  -0.00611185  1
  Co  Co156  1  0.02313278  0.71806671  0.47579292  1
  Co  Co157  1  0.57708480  0.74443909  0.97159888  1
  Co  Co158  1  0.33571428  0.26260975  0.79409413  1
  Co  Co159  1  0.13911828  0.80286819  0.80149665  1
  Co  Co160  1  0.74284065  0.56745676  0.16270235  1
  Co  Co161  1  1.01907664  0.31590503  0.09785150  1
  Ni  Ni162  1  0.43747957  0.01608708  0.35544657  1
  Ni  Ni163  1  0.91493765  0.57511642  0.19772802  1
  Ni  Ni164  1  0.67539209  0.69287299  0.48610121  1
  Ni  Ni165  1  0.15403019  0.11663530  0.14116598  1
  Ni  Ni166  1  0.83942988  0.23454853  0.57838623  1
  Ni  Ni167  1  1.02146489  0.82179728  0.35741091  1
  Ni  Ni168  1  0.58554297  0.26826627  0.77007654  1
  Ni  Ni169  1  0.23737959  1.00825706  0.40419304  1
  Ni  Ni170  1  0.36741368  0.47039462  0.73907122  1
  Ni  Ni171  1  0.58768100  0.57013718  0.43469392  1
  Ni  Ni172  1  0.50244532  0.84844323  0.85614178  1
  Ni  Ni173  1  0.03902014  0.38666052  0.49885295  1
  Ni  Ni174  1  0.43885500  0.54358173  0.61215707  1
  Ni  Ni175  1  0.37465109  0.25824731  0.62790509  1
  Ni  Ni176  1  0.02634333  0.39261760  0.79552160  1
  Ni  Ni177  1  0.24628075  0.45291454  0.21731031  1
  Ni  Ni178  1  0.23626086  0.07035228  1.00433883  1
  Ni  Ni179  1  0.47599708  0.16332895  0.11760109  1
  Ni  Ni180  1  0.25181050  0.57079052  0.34141428  1
  Ni  Ni181  1  0.74189828  0.49266520  0.94177005  1
  Ni  Ni182  1  0.68641391  0.32349599  0.25867384  1
  Ni  Ni183  1  0.76380046  0.54081288  0.45850805  1
  Ni  Ni184  1  0.05084870  0.61214554  0.98309232  1
  Ni  Ni185  1  0.18434957  0.91958687  0.27120893  1
  Ni  Ni186  1  0.20509334  0.77267335  0.18557516  1
  Ni  Ni187  1  0.89766381  0.62648779  0.36105314  1
  Ni  Ni188  1  0.65918494  0.37746615  0.86274991  1
  Ni  Ni189  1  0.81140035  0.12685125  0.08480458  1
  Ni  Ni190  1  0.46669446  0.85947810  0.27037544  1
  Ni  Ni191  1  0.55236200  0.63347325  0.70995406  1
  Ni  Ni192  1  0.58491552  0.19040722  0.24899365  1
  Ni  Ni193  1  0.58514427  0.60950062  0.08694988  1
  Ni  Ni194  1  0.90194769  0.27747910  0.89828484  1
  Ni  Ni195  1  0.29132402  0.20377897  0.38100021  1
  Ni  Ni196  1  0.07021220  0.05726252  -0.02092887  1
  Ni  Ni197  1  0.93629643  0.73061009  0.23418768  1
  Ni  Ni198  1  0.12376056  0.05853462  0.80356704  1
  Ni  Ni199  1  0.38251424  0.65422319  0.73757643  1
  Ni  Ni200  1  0.89963884  0.56909350  0.94113554  1
  Ni  Ni201  1  0.89322299  0.07361052  0.58761905  1
  Ni  Ni202  1  0.11873536  0.28542099  0.62199760  1
  Ni  Ni203  1  0.21746572  0.74091560  0.54483958  1
  Ni  Ni204  1  0.61376317  0.05711746  0.61404141  1
  Ni  Ni205  1  0.50181170  0.36194696  0.32405443  1
  Ni  Ni206  1  0.90105464  0.86502691  0.12848338  1
  Ni  Ni207  1  0.38848648  0.75599652  0.42740223  1
  Ni  Ni208  1  0.75570314  0.99790466  0.55807487  1
  Ni  Ni209  1  0.48517915  0.43777405  0.49195872  1
  Ni  Ni210  1  0.06283663  0.26950109  0.90782408  1
  Ni  Ni211  1  0.64853959  0.99554506  0.11561631  1
  Ni  Ni212  1  0.29025956  0.50102328  0.05536503  1
  Ni  Ni213  1  0.03033994  0.89238593  1.02267565  1
  Ni  Ni214  1  0.56532901  0.28124379  -0.02622901  1
  Ni  Ni215  1  0.19561062  0.49808342  0.77627449  1
