# generated using pymatgen
data_Ti2CoNi
_symmetry_space_group_name_H-M   'P 1'
_cell_length_a   14.65709228
_cell_length_b   14.68329176
_cell_length_c   14.67531709
_cell_angle_alpha   90.00493926
_cell_angle_beta   90.19143343
_cell_angle_gamma   89.77527620
_symmetry_Int_Tables_number   1
_chemical_formula_structural   Ti2CoNi
_chemical_formula_sum   'Ti108 Co54 Ni54'
_cell_volume   3158.29707714
_cell_formula_units_Z   54
loop_
 _symmetry_equiv_pos_site_id
 _symmetry_equiv_pos_as_xyz
  1  'x, y, z'
loop_
 _atom_site_type_symbol
 _atom_site_label
 _atom_site_symmetry_multiplicity
 _atom_site_fract_x
 _atom_site_fract_y
 _atom_site_fract_z
 _atom_site_occupancy
  Ti  Ti0  1  0.01503899  -0.01908712  0.02585760  1
  Ti  Ti1  1  -0.03282834  -0.05424902  0.35769676  1
  Ti  Ti2  1  0.06258669  0.02526259  0.67452929  1
  Ti  Ti3  1  -0.00485621  0.19544549  -0.01115253  1
  Ti  Ti4  1  -0.03173903  0.36481092  0.26969768  1
  Ti  Ti5  1  -0.00537175  0.37950519  0.65134055  1
  Ti  Ti6  1  -0.00567249  0.73831563  0.05764110  1
  Ti  Ti7  1  0.01745966  0.62619466  0.36553606  1
  Ti  Ti8  1  0.01970279  0.67972993  0.71959431  1
  Ti  Ti9  1  0.34785315  0.04336922  0.06228735  1
  Ti  Ti10  1  0.36714422  -0.06043914  0.30622630  1
  Ti  Ti11  1  0.29113123  0.09019102  0.70053725  1
  Ti  Ti12  1  0.41984514  0.35862497  0.02454370  1
  Ti  Ti13  1  0.27332873  0.33144549  0.31102620  1
  Ti  Ti14  1  0.33483713  0.28205587  0.67186396  1
  Ti  Ti15  1  0.30730346  0.65318856  0.09797126  1
  Ti  Ti16  1  0.35387757  0.67608690  0.29775622  1
  Ti  Ti17  1  0.31218110  0.63743272  0.73763770  1
  Ti  Ti18  1  0.70623344  0.01997678  -0.03380210  1
  Ti  Ti19  1  0.65265080  -0.04320822  0.31454368  1
  Ti  Ti20  1  0.70815332  0.01664186  0.60965156  1
  Ti  Ti21  1  0.64376628  0.25829429  0.07571070  1
  Ti  Ti22  1  0.63386198  0.38810337  0.41906430  1
  Ti  Ti23  1  0.65406405  0.34845442  0.65188995  1
  Ti  Ti24  1  0.59903097  0.70464422  0.01429987  1
  Ti  Ti25  1  0.68534933  0.67720845  0.42509444  1
  Ti  Ti26  1  0.60517441  0.71174180  0.63174738  1
  Ti  Ti27  1  -0.04327108  0.13287642  0.16135502  1
  Ti  Ti28  1  -0.01649162  0.14127943  0.50343595  1
  Ti  Ti29  1  -0.01398013  0.13184863  0.80986598  1
  Ti  Ti30  1  0.03585000  0.44741988  0.10159024  1
  Ti  Ti31  1  0.04315997  0.44188578  0.46988181  1
  Ti  Ti32  1  -0.04744857  0.51493046  0.85007981  1
  Ti  Ti33  1  0.02215663  0.86817688  0.19437684  1
  Ti  Ti34  1  -0.03943117  0.80842058  0.49453842  1
  Ti  Ti35  1  -0.00522764  0.85569259  0.80714805  1
  Ti  Ti36  1  0.26297546  0.19763339  0.15483889  1
  Ti  Ti37  1  0.36435030  0.21810736  0.48616518  1
  Ti  Ti38  1  0.41163258  0.09286955  0.87459615  1
  Ti  Ti39  1  0.40971832  0.48711614  0.18772214  1
  Ti  Ti40  1  0.28487434  0.50233575  0.45016498  1
  Ti  Ti41  1  0.34873969  0.51617735  0.92839364  1
  Ti  Ti42  1  0.31900990  0.85046261  0.03022813  1
  Ti  Ti43  1  0.30083611  0.77248611  0.55361336  1
  Ti  Ti44  1  0.33854324  0.77191111  0.86039024  1
  Ti  Ti45  1  0.64647627  0.14306208  0.23299408  1
  Ti  Ti46  1  0.71363828  0.20990812  0.50438092  1
  Ti  Ti47  1  0.71420565  0.19408493  0.87563983  1
  Ti  Ti48  1  0.70695207  0.44015407  0.22464462  1
  Ti  Ti49  1  0.68912162  0.52480230  0.55987280  1
  Ti  Ti50  1  0.67610430  0.47217605  0.82702985  1
  Ti  Ti51  1  0.61714182  0.84261862  0.14980112  1
  Ti  Ti52  1  0.65704456  0.87411123  0.49878787  1
  Ti  Ti53  1  0.64542130  0.76367291  0.83291213  1
  Ti  Ti54  1  0.20909113  -0.05514586  0.17081580  1
  Ti  Ti55  1  0.17235094  -0.06487172  0.49407204  1
  Ti  Ti56  1  0.20824575  -0.06510286  0.79212920  1
  Ti  Ti57  1  0.24407240  0.39238015  0.11234877  1
  Ti  Ti58  1  0.20981340  0.33297052  0.51898625  1
  Ti  Ti59  1  0.18062114  0.36045879  0.77008889  1
  Ti  Ti60  1  0.14924569  0.69351258  0.21998883  1
  Ti  Ti61  1  0.13499806  0.70752651  0.49766062  1
  Ti  Ti62  1  0.11941513  0.63437934  0.86399558  1
  Ti  Ti63  1  0.50697438  0.02765438  0.18765309  1
  Ti  Ti64  1  0.44441912  0.04465398  0.54005564  1
  Ti  Ti65  1  0.54708483  -0.07464308  0.80666746  1
  Ti  Ti66  1  0.54949885  0.31251623  0.24253444  1
  Ti  Ti67  1  0.52665113  0.26630147  0.54288359  1
  Ti  Ti68  1  0.50206471  0.40984651  0.84115510  1
  Ti  Ti69  1  0.55207344  0.63687081  0.19435289  1
  Ti  Ti70  1  0.44729826  0.63296389  0.50826137  1
  Ti  Ti71  1  0.51346257  0.61846267  0.82643910  1
  Ti  Ti72  1  0.81793398  0.03250551  0.22715093  1
  Ti  Ti73  1  0.82084686  0.03639365  0.44483075  1
  Ti  Ti74  1  0.85729276  -0.00134593  0.79240413  1
  Ti  Ti75  1  0.80503474  0.27210094  0.18129824  1
  Ti  Ti76  1  0.82764656  0.35669124  0.44430787  1
  Ti  Ti77  1  0.91956409  0.30861775  0.81408010  1
  Ti  Ti78  1  0.78678804  0.72739655  0.13563568  1
  Ti  Ti79  1  0.85984919  0.61206258  0.49245462  1
  Ti  Ti80  1  0.83335461  0.66234142  0.79992622  1
  Ti  Ti81  1  0.18620773  0.16295752  -0.03343521  1
  Ti  Ti82  1  0.10523378  0.17340384  0.28639954  1
  Ti  Ti83  1  0.13427962  0.20676467  0.66562717  1
  Ti  Ti84  1  0.14705118  0.45395684  -0.05839214  1
  Ti  Ti85  1  0.13534813  0.46707533  0.29258763  1
  Ti  Ti86  1  0.13740322  0.53037227  0.62478034  1
  Ti  Ti87  1  0.13151248  0.82525640  -0.05544907  1
  Ti  Ti88  1  0.23111107  0.81228713  0.35502051  1
  Ti  Ti89  1  0.10608416  0.84182502  0.64194692  1
  Ti  Ti90  1  0.52567626  0.22915498  -0.05816772  1
  Ti  Ti91  1  0.41263221  0.17545133  0.29168765  1
  Ti  Ti92  1  0.48841010  0.16886753  0.71677187  1
  Ti  Ti93  1  0.59848002  0.50545022  -0.00118711  1
  Ti  Ti94  1  0.44002283  0.38224857  0.38456086  1
  Ti  Ti95  1  0.41739049  0.50556565  0.66176789  1
  Ti  Ti96  1  0.51545559  0.91756207  0.00360329  1
  Ti  Ti97  1  0.50708024  0.80760771  0.30007777  1
  Ti  Ti98  1  0.46416250  0.85940926  0.60325791  1
  Ti  Ti99  1  0.82970135  0.30302393  -0.00333562  1
  Ti  Ti100  1  0.83312900  0.18988653  0.33970242  1
  Ti  Ti101  1  0.79755314  0.17551295  0.69924766  1
  Ti  Ti102  1  0.82684132  0.53343344  -0.00173927  1
  Ti  Ti103  1  0.84809694  0.56742969  0.25661228  1
  Ti  Ti104  1  0.80986903  0.47048749  0.70343199  1
  Ti  Ti105  1  0.85177230  0.83538376  -0.05708136  1
  Ti  Ti106  1  0.85474707  0.75358521  0.33245535  1
  Ti  Ti107  1  0.78827806  0.82543673  0.69022909  1
  Co  Co108  1  0.16085838  0.77554706  0.79215487  1
  Co  Co109  1  0.59259754  0.27522234  0.78468744  1
  Co  Co110  1  0.83254307  0.91781263  0.55025661  1
  Co  Co111  1  0.05660717  0.28486315  0.53496966  1
  Co  Co112  1  0.18325025  0.97293937  0.00864204  1
  Co  Co113  1  0.11742237  0.31263272  0.02611642  1
  Co  Co114  1  0.54751013  0.41447202  0.11752041  1
  Co  Co115  1  0.49315170  0.78669096  0.90514885  1
  Co  Co116  1  0.34549770  0.41277706  0.79499882  1
  Co  Co117  1  0.81940943  0.42270421  0.88461746  1
  Co  Co118  1  0.69286082  0.61327864  0.27077635  1
  Co  Co119  1  0.78723174  0.88457592  0.39250394  1
  Co  Co120  1  0.07659556  0.48994683  0.76574912  1
  Co  Co121  1  0.63257682  0.87629519  0.68182220  1
  Co  Co122  1  0.23062716  0.52044445  0.80447395  1
  Co  Co123  1  0.51920827  0.06036371  0.35423547  1
  Co  Co124  1  0.96431010  0.09906356  0.32970084  1
  Co  Co125  1  0.96544998  0.29710155  0.11684424  1
  Co  Co126  1  0.05850751  0.98952214  0.87230087  1
  Co  Co127  1  0.12232173  0.31292672  0.19432884  1
  Co  Co128  1  0.65282025  0.34497089  0.92747306  1
  Co  Co129  1  0.30185468  0.94542785  0.62740310  1
  Co  Co130  1  0.71298494  0.58622907  0.10522837  1
  Co  Co131  1  0.28422123  0.51890697  0.27614334  1
  Co  Co132  1  0.45856174  0.73519681  0.72672085  1
  Co  Co133  1  0.12171852  0.32011693  0.37427911  1
  Co  Co134  1  0.74443270  0.51368099  0.39762406  1
  Co  Co135  1  0.50107288  0.91873378  0.43066825  1
  Co  Co136  1  0.69858348  0.27734167  0.32309439  1
  Co  Co137  1  0.26629248  0.04331655  0.89337848  1
  Co  Co138  1  0.26271282  0.33654816  0.93934692  1
  Co  Co139  1  0.33855248  0.92750069  0.47576334  1
  Co  Co140  1  0.36005047  0.07070423  0.40219185  1
  Co  Co141  1  0.97223003  0.38630520  0.96070373  1
  Co  Co142  1  0.30309825  0.79493310  0.19543736  1
  Co  Co143  1  0.14695615  0.10717901  0.80310379  1
  Co  Co144  1  0.87884289  0.46446276  0.54829137  1
  Co  Co145  1  0.94346511  0.90113038  0.66433792  1
  Co  Co146  1  0.09200764  0.26550622  0.86520134  1
  Co  Co147  1  0.91903463  0.74188018  0.62802802  1
  Co  Co148  1  0.47969037  0.35471003  0.68672098  1
  Co  Co149  1  0.28820223  0.60445405  0.57119633  1
  Co  Co150  1  0.26218426  0.21275702  0.81990015  1
  Co  Co151  1  0.71678831  0.40961481  0.06612512  1
  Co  Co152  1  0.29636072  0.81196758  0.70720584  1
  Co  Co153  1  0.68021136  0.10880048  0.38644158  1
  Co  Co154  1  0.40864322  0.27253924  0.83882969  1
  Co  Co155  1  0.96244756  0.71667158  0.22571042  1
  Co  Co156  1  0.54559182  0.22290486  0.38813204  1
  Co  Co157  1  0.39423064  0.78812108  0.41973559  1
  Co  Co158  1  0.75434229  0.32143518  0.78186508  1
  Co  Co159  1  0.16040226  0.80486498  0.09912459  1
  Co  Co160  1  0.38113320  0.38045023  0.53682841  1
  Co  Co161  1  0.38917918  0.32262866  0.19241827  1
  Ni  Ni162  1  0.03671198  0.57240367  0.20719167  1
  Ni  Ni163  1  0.88502056  0.88694311  0.09523450  1
  Ni  Ni164  1  0.97022353  0.26681739  0.39683085  1
  Ni  Ni165  1  0.17863250  0.69164578  0.65801090  1
  Ni  Ni166  1  0.79088617  0.76676360  0.51689555  1
  Ni  Ni167  1  0.67222742  1.00122789  0.12975135  1
  Ni  Ni168  1  0.05756462  0.79221929  0.34952177  1
  Ni  Ni169  1  0.26942418  0.44443120  0.64433657  1
  Ni  Ni170  1  0.18753270  0.54396617  0.13315166  1
  Ni  Ni171  1  0.55862186  0.48652936  0.27672535  1
  Ni  Ni172  1  0.86496145  0.43322661  0.13964607  1
  Ni  Ni173  1  0.11156361  0.07038317  0.42634062  1
  Ni  Ni174  1  0.94525070  0.54815947  0.67322576  1
  Ni  Ni175  1  0.43563942  0.00223888  0.71230862  1
  Ni  Ni176  1  0.45461545  0.74614110  0.08986212  1
  Ni  Ni177  1  0.91267255  0.48500154  0.38090500  1
  Ni  Ni178  1  0.85625983  0.12421344  0.92431653  1
  Ni  Ni179  1  0.25443089  0.07355118  0.27114021  1
  Ni  Ni180  1  0.35454411  0.20218792  -0.00513189  1
  Ni  Ni181  1  0.63481584  0.16388683  0.64827796  1
  Ni  Ni182  1  0.45900277  0.57706016  1.05069881  1
  Ni  Ni183  1  -0.00052028  0.97162560  0.52453833  1
  Ni  Ni184  1  0.25714175  0.65402038  0.93896519  1
  Ni  Ni185  1  0.77514119  0.13728092  0.08066082  1
  Ni  Ni186  1  0.57952735  0.50566375  0.69116528  1
  Ni  Ni187  1  0.57781413  0.08641053  0.86825538  1
  Ni  Ni188  1  0.25643228  0.08462205  0.53351110  1
  Ni  Ni189  1  0.54227402  0.08179563  0.02937241  1
  Ni  Ni190  1  0.57952503  0.55319506  0.42474837  1
  Ni  Ni191  1  0.01887960  0.57580821  0.99154466  1
  Ni  Ni192  1  0.53290935  0.44460938  0.54552494  1
  Ni  Ni193  1  0.13225456  0.94545944  0.31844759  1
  Ni  Ni194  1  0.19926904  0.63159054  0.36968836  1
  Ni  Ni195  1  0.67742649  0.77921390  0.29524178  1
  Ni  Ni196  1  0.12120703  0.09362795  0.11807422  1
  Ni  Ni197  1  0.91013729  0.60554063  0.11294801  1
  Ni  Ni198  1  0.69495755  0.04680784  0.77062864  1
  Ni  Ni199  1  0.47258434  0.19361424  0.12693012  1
  Ni  Ni200  1  0.38705810  0.92747165  0.88944483  1
  Ni  Ni201  1  0.96566393  0.70791742  0.89470957  1
  Ni  Ni202  1  0.78183886  0.65211254  0.63532018  1
  Ni  Ni203  1  0.43078114  0.54676176  0.35959279  1
  Ni  Ni204  1  0.72895713  0.90242707  0.84137483  1
  Ni  Ni205  1  0.82733127  0.32057502  0.62044639  1
  Ni  Ni206  1  0.43074669  0.89044069  0.15402279  1
  Ni  Ni207  1  0.89066322  0.05708088  0.62553759  1
  Ni  Ni208  1  0.96085648  0.21020378  0.65826205  1
  Ni  Ni209  1  0.79103590  0.87370192  0.22633900  1
  Ni  Ni210  1  0.01255903  0.61304431  0.54089597  1
  Ni  Ni211  1  0.67735643  0.61977744  0.75040344  1
  Ni  Ni212  1  0.70480762  0.62209218  0.91698553  1
  Ni  Ni213  1  0.23317060  0.18646427  0.39487582  1
  Ni  Ni214  1  0.54520940  0.75759377  0.46822062  1
  Ni  Ni215  1  0.69553276  0.84842489  0.00118581  1
