# generated using pymatgen
data_Ti2CoNi
_symmetry_space_group_name_H-M   'P 1'
_cell_length_a   14.64252973
_cell_length_b   14.58054596
_cell_length_c   14.54732839
_cell_angle_alpha   90.17398311
_cell_angle_beta   89.93538381
_cell_angle_gamma   89.75811040
_symmetry_Int_Tables_number   1
_chemical_formula_structural   Ti2CoNi
_chemical_formula_sum   'Ti108 Co54 Ni54'
_cell_volume   3105.75353496
_cell_formula_units_Z   54
loop_
 _symmetry_equiv_pos_site_id
 _symmetry_equiv_pos_as_xyz
  1  'x, y, z'
loop_
 _atom_site_type_symbol
 _atom_site_label
 _atom_site_symmetry_multiplicity
 _atom_site_fract_x
 _atom_site_fract_y
 _atom_site_fract_z
 _atom_site_occupancy
  Ti  Ti0  1  -0.01369147  -0.08851228  -0.09002005  1
  Ti  Ti1  1  0.04318095  0.00915038  0.34820318  1
  Ti  Ti2  1  -0.06275551  -0.03457007  0.66480925  1
  Ti  Ti3  1  0.06038532  0.32188020  -0.04715971  1
  Ti  Ti4  1  -0.06834565  0.30135860  0.36619329  1
  Ti  Ti5  1  -0.09086062  0.32316370  0.65668933  1
  Ti  Ti6  1  -0.05953724  0.61348404  -0.02277195  1
  Ti  Ti7  1  -0.02175161  0.67127286  0.30010670  1
  Ti  Ti8  1  0.12644865  0.70691607  0.64521605  1
  Ti  Ti9  1  0.29481466  -0.01118806  -0.03692745  1
  Ti  Ti10  1  0.33539165  -0.02521977  0.29238455  1
  Ti  Ti11  1  0.36776822  -0.00999320  0.69807612  1
  Ti  Ti12  1  0.36431872  0.35928946  0.02012913  1
  Ti  Ti13  1  0.29163422  0.34089044  0.28857303  1
  Ti  Ti14  1  0.25875568  0.30692244  0.60801826  1
  Ti  Ti15  1  0.36251402  0.67291427  -0.01639543  1
  Ti  Ti16  1  0.40668550  0.72417059  0.30894711  1
  Ti  Ti17  1  0.32781994  0.66172956  0.64678277  1
  Ti  Ti18  1  0.62393315  0.06118148  -0.00327370  1
  Ti  Ti19  1  0.62233703  0.00215338  0.33746190  1
  Ti  Ti20  1  0.58114743  0.00930111  0.66236894  1
  Ti  Ti21  1  0.68369850  0.40794034  -0.05028547  1
  Ti  Ti22  1  0.66218265  0.30125739  0.38803801  1
  Ti  Ti23  1  0.68895207  0.31658091  0.69881944  1
  Ti  Ti24  1  0.71479636  0.64879266  -0.05523376  1
  Ti  Ti25  1  0.63055708  0.72494322  0.33812557  1
  Ti  Ti26  1  0.59078668  0.63153561  0.62655965  1
  Ti  Ti27  1  0.00938506  0.19700105  0.19642042  1
  Ti  Ti28  1  -0.01332597  0.08777574  0.52238427  1
  Ti  Ti29  1  -0.03027112  0.12872217  0.92314633  1
  Ti  Ti30  1  0.02079007  0.51738918  0.12240239  1
  Ti  Ti31  1  0.04367354  0.54680061  0.49198443  1
  Ti  Ti32  1  -0.01460549  0.44339356  0.80997074  1
  Ti  Ti33  1  0.03598778  0.71490813  0.11755011  1
  Ti  Ti34  1  -0.00065482  0.75896904  0.48478696  1
  Ti  Ti35  1  0.07227144  0.83587552  0.77088697  1
  Ti  Ti36  1  0.32941093  0.17118242  0.03958043  1
  Ti  Ti37  1  0.34119627  0.15655967  0.38753142  1
  Ti  Ti38  1  0.34697572  0.24829432  0.81908978  1
  Ti  Ti39  1  0.30191022  0.52113838  0.16157922  1
  Ti  Ti40  1  0.30566377  0.49514685  0.52958456  1
  Ti  Ti41  1  0.38124565  0.51138362  0.82156597  1
  Ti  Ti42  1  0.41940442  0.82580539  0.12617961  1
  Ti  Ti43  1  0.31357164  0.95530867  0.50107279  1
  Ti  Ti44  1  0.35414649  0.84427591  0.84968156  1
  Ti  Ti45  1  0.68765226  0.20522383  0.16087537  1
  Ti  Ti46  1  0.63383336  0.14249926  0.50213255  1
  Ti  Ti47  1  0.68634775  0.11382031  0.82240582  1
  Ti  Ti48  1  0.68282145  0.41090570  0.18856825  1
  Ti  Ti49  1  0.66129731  0.52848089  0.46709276  1
  Ti  Ti50  1  0.70078683  0.54543860  0.78390827  1
  Ti  Ti51  1  0.66556381  0.88081982  0.19155098  1
  Ti  Ti52  1  0.69662230  0.82075110  0.48764646  1
  Ti  Ti53  1  0.68330214  0.89766205  0.78228969  1
  Ti  Ti54  1  0.07702636  0.01412711  0.16626993  1
  Ti  Ti55  1  0.17858740  0.09935108  0.48223716  1
  Ti  Ti56  1  0.13806122  0.02979078  0.85062392  1
  Ti  Ti57  1  0.20624581  0.27427480  0.13564136  1
  Ti  Ti58  1  0.07207247  0.28683457  0.53594551  1
  Ti  Ti59  1  0.19319489  0.46199265  0.85772978  1
  Ti  Ti60  1  0.24177577  0.70218683  0.11994348  1
  Ti  Ti61  1  0.21297004  0.78053665  0.48584831  1
  Ti  Ti62  1  0.10554997  0.64694438  0.86006774  1
  Ti  Ti63  1  0.45592829  0.02150629  0.09933834  1
  Ti  Ti64  1  0.45649205  0.09375961  0.54503175  1
  Ti  Ti65  1  0.50055520  0.05032783  0.84007655  1
  Ti  Ti66  1  0.51273684  0.32195172  0.26839727  1
  Ti  Ti67  1  0.48839051  0.40779439  0.48437190  1
  Ti  Ti68  1  0.50625511  0.34814618  0.88226236  1
  Ti  Ti69  1  0.55802122  0.56223694  0.20696072  1
  Ti  Ti70  1  0.44857648  0.61883515  0.49956458  1
  Ti  Ti71  1  0.58094260  0.72638448  0.80366800  1
  Ti  Ti72  1  0.89534762  -0.03832259  0.19827087  1
  Ti  Ti73  1  0.87859295  -0.06982709  0.47413083  1
  Ti  Ti74  1  0.83551844  0.00210476  0.86396264  1
  Ti  Ti75  1  0.88904420  0.37835249  0.19182679  1
  Ti  Ti76  1  0.78862611  0.38579650  0.51002171  1
  Ti  Ti77  1  0.86060510  0.31421522  0.90040836  1
  Ti  Ti78  1  0.72954884  0.66324999  0.17360482  1
  Ti  Ti79  1  0.76875101  0.64474220  0.60819584  1
  Ti  Ti80  1  0.87984464  0.64316984  0.78648799  1
  Ti  Ti81  1  0.12078487  0.16108329  0.01967368  1
  Ti  Ti82  1  0.19241682  0.14244967  0.28103714  1
  Ti  Ti83  1  0.16640995  0.14812411  0.69795650  1
  Ti  Ti84  1  0.17854942  0.44177529  0.04690950  1
  Ti  Ti85  1  0.19780057  0.51289972  0.35573514  1
  Ti  Ti86  1  0.13963785  0.47142133  0.66199053  1
  Ti  Ti87  1  0.17229892  0.86460420  0.07290546  1
  Ti  Ti88  1  0.13702418  0.77857776  0.30089560  1
  Ti  Ti89  1  0.14842436  0.94820456  0.62468829  1
  Ti  Ti90  1  0.51048486  0.20716159  0.09405863  1
  Ti  Ti91  1  0.49594836  0.12569132  0.27902938  1
  Ti  Ti92  1  0.49071671  0.26781127  0.64067560  1
  Ti  Ti93  1  0.47662834  0.50885066  0.02694521  1
  Ti  Ti94  1  0.39949048  0.51112500  0.33186610  1
  Ti  Ti95  1  0.55389231  0.44675946  0.70246519  1
  Ti  Ti96  1  0.53442882  0.78505199  -0.02471294  1
  Ti  Ti97  1  0.49530422  0.85635336  0.40795792  1
  Ti  Ti98  1  0.46008705  0.78813398  0.66310330  1
  Ti  Ti99  1  0.79010450  0.15809736  -0.00121991  1
  Ti  Ti100  1  0.80590634  0.14602078  0.41153322  1
  Ti  Ti101  1  0.84448011  0.16036829  0.71145550  1
  Ti  Ti102  1  0.80188198  0.51234344  0.06518235  1
  Ti  Ti103  1  0.86648683  0.52351398  0.37048276  1
  Ti  Ti104  1  0.89797341  0.51113362  0.63681829  1
  Ti  Ti105  1  0.83734166  0.80203441  0.01608952  1
  Ti  Ti106  1  0.81814580  0.77901315  0.32733088  1
  Ti  Ti107  1  0.83489042  0.81549521  0.64193906  1
  Co  Co108  1  0.22422706  0.59825632  0.75092282  1
  Co  Co109  1  0.30891966  0.51869316  0.98142209  1
  Co  Co110  1  0.77561201  0.01161621  0.71030157  1
  Co  Co111  1  0.90757814  0.23108861  0.51927656  1
  Co  Co112  1  0.29499839  0.84427387  0.62861368  1
  Co  Co113  1  0.74777887  0.95204570  0.98843635  1
  Co  Co114  1  0.36909677  0.68894123  0.81217173  1
  Co  Co115  1  0.22798702  0.29240680  -0.04845564  1
  Co  Co116  1  0.00778537  0.17415578  0.65304971  1
  Co  Co117  1  0.69469473  0.81610962  0.91736759  1
  Co  Co118  1  0.44172275  0.43597416  0.18270997  1
  Co  Co119  1  0.94079772  0.24048964  0.04772945  1
  Co  Co120  1  0.33023702  0.37198370  0.43305463  1
  Co  Co121  1  0.22206905  0.33564115  0.76917969  1
  Co  Co122  1  0.13206559  0.60540487  0.20948487  1
  Co  Co123  1  0.18753767  0.60371050  0.54329611  1
  Co  Co124  1  0.16858668  0.42413166  0.50630803  1
  Co  Co125  1  0.58576394  0.97265545  0.50109254  1
  Co  Co126  1  0.67224508  0.77218446  0.06934905  1
  Co  Co127  1  0.11688084  0.29242151  0.28019662  1
  Co  Co128  1  0.34818146  0.12818588  0.20695894  1
  Co  Co129  1  0.30103826  0.64569626  0.43276459  1
  Co  Co130  1  0.27286524  0.65194392  0.27522758  1
  Co  Co131  1  0.23396347  0.72834441  0.91958544  1
  Co  Co132  1  0.98746368  0.87180953  0.06822062  1
  Co  Co133  1  0.04387375  0.34121588  0.12709564  1
  Co  Co134  1  0.12788594  0.65218008  0.39695282  1
  Co  Co135  1  0.81816627  0.07985632  0.56904719  1
  Co  Co136  1  0.58778809  0.44631746  0.33508769  1
  Co  Co137  1  0.56860702  0.49851099  0.87099530  1
  Co  Co138  1  0.62048074  0.34006178  0.55111754  1
  Co  Co139  1  0.18078534  0.87584671  0.90256230  1
  Co  Co140  1  0.23506621  0.94453404  0.76432471  1
  Co  Co141  1  0.45487362  0.91305267  0.56331449  1
  Co  Co142  1  0.49655976  0.93007461  0.24670194  1
  Co  Co143  1  0.04541549  0.86260495  0.21298918  1
  Co  Co144  1  0.72058419  0.93035342  0.59534936  1
  Co  Co145  1  0.08588496  0.76456979  -0.02735866  1
  Co  Co146  1  0.70753180  0.56116401  0.30294813  1
  Co  Co147  1  0.94708456  0.40979514  0.50537496  1
  Co  Co148  1  0.05386782  0.49903457  0.94784616  1
  Co  Co149  1  0.15897971  0.60733978  0.02240762  1
  Co  Co150  1  0.38144143  0.77521817  0.50229964  1
  Co  Co151  1  0.22644869  0.77416219  0.76079206  1
  Co  Co152  1  0.65021574  0.16099594  0.66447720  1
  Co  Co153  1  0.20104966  0.26752512  0.42578846  1
  Co  Co154  1  0.42398331  0.14087881  0.72100546  1
  Co  Co155  1  0.45692582  0.01374621  0.40268814  1
  Co  Co156  1  0.55199919  0.74184531  0.50885099  1
  Co  Co157  1  0.71091220  0.48537059  0.63067265  1
  Co  Co158  1  0.77141203  0.40472497  0.33170709  1
  Co  Co159  1  0.49074505  0.60728712  0.74578784  1
  Co  Co160  1  0.59265090  0.91360768  0.05326939  1
  Co  Co161  1  0.75447138  0.23601974  0.56436837  1
  Ni  Ni162  1  0.92864369  0.41167093  1.01722919  1
  Ni  Ni163  1  0.08122345  0.31524137  0.70503919  1
  Ni  Ni164  1  0.95909993  0.69507714  0.64016310  1
  Ni  Ni165  1  0.76331059  0.66265361  0.43108050  1
  Ni  Ni166  1  0.73909842  0.72533638  0.76501459  1
  Ni  Ni167  1  0.22147283  0.07732496  0.12139902  1
  Ni  Ni168  1  0.55978246  0.36427631  0.07308493  1
  Ni  Ni169  1  0.55367512  0.21792247  0.79466455  1
  Ni  Ni170  1  0.77804090  0.93712283  0.30988836  1
  Ni  Ni171  1  0.89737491  0.62453214  0.50450600  1
  Ni  Ni172  1  0.90195132  0.01095676  1.03185011  1
  Ni  Ni173  1  0.45750640  0.93530663  0.95738478  1
  Ni  Ni174  1  0.15473475  0.43382683  0.21318438  1
  Ni  Ni175  1  0.05302716  0.18370133  0.38932883  1
  Ni  Ni176  1  0.26032745  0.13465179  0.88928199  1
  Ni  Ni177  1  0.91703796  0.11119971  0.30009193  1
  Ni  Ni178  1  0.06720006  0.39424409  0.39097716  1
  Ni  Ni179  1  0.00469209  0.06133363  0.77003342  1
  Ni  Ni180  1  0.85631162  0.84648869  0.80288761  1
  Ni  Ni181  1  0.73539226  0.00051131  0.45136186  1
  Ni  Ni182  1  0.50190053  0.63247330  0.91021703  1
  Ni  Ni183  1  0.29691149  0.12009608  0.59704415  1
  Ni  Ni184  1  0.60580892  0.05067401  0.17100486  1
  Ni  Ni185  1  0.19297324  0.92791825  0.38261638  1
  Ni  Ni186  1  0.27041446  0.83120928  0.23546658  1
  Ni  Ni187  1  0.80838110  0.41141452  0.76453514  1
  Ni  Ni188  1  0.63752398  0.54170558  0.05446952  1
  Ni  Ni189  1  0.12392055  0.20896942  0.84214845  1
  Ni  Ni190  1  0.54149333  0.59755960  0.37163249  1
  Ni  Ni191  1  0.38076611  0.37687072  0.71658959  1
  Ni  Ni192  1  0.09227125  -0.00501915  0.00535967  1
  Ni  Ni193  1  0.79391885  0.25156830  0.27353900  1
  Ni  Ni194  1  0.41932575  0.65023671  0.14987960  1
  Ni  Ni195  1  0.95436109  0.74853177  0.88506409  1
  Ni  Ni196  1  1.03467925  0.57846877  0.72434186  1
  Ni  Ni197  1  0.51246161  0.88748500  0.79436566  1
  Ni  Ni198  1  0.83789608  0.50510511  0.89546321  1
  Ni  Ni199  1  0.71567675  0.27272923  0.85081679  1
  Ni  Ni200  1  0.76232389  0.04783050  0.12796783  1
  Ni  Ni201  1  0.45992880  0.17167674  0.93838684  1
  Ni  Ni202  1  0.50787143  0.23135455  0.42162367  1
  Ni  Ni203  1  0.89186245  0.78785165  0.18081372  1
  Ni  Ni204  1  0.55035421  0.75090968  0.19415548  1
  Ni  Ni205  1  0.78816403  0.32008392  0.06810324  1
  Ni  Ni206  1  0.61509218  0.23406470  0.96708450  1
  Ni  Ni207  1  0.38229347  0.27742450  0.16974843  1
  Ni  Ni208  1  0.37612217  0.24595984  0.51739772  1
  Ni  Ni209  1  0.96454791  0.85589007  0.34834250  1
  Ni  Ni210  1  0.05427476  0.92061053  0.49109893  1
  Ni  Ni211  1  1.01499647  0.50680019  0.28851364  1
  Ni  Ni212  1  0.96998706  0.24671767  0.79995705  1
  Ni  Ni213  1  0.88951237  0.62571988  0.15402187  1
  Ni  Ni214  1  0.30968637  0.94800650  0.12731650  1
  Ni  Ni215  1  0.42363808  0.51422662  0.63675092  1
