# generated using pymatgen
data_Ti2CoNi
_symmetry_space_group_name_H-M   'P 1'
_cell_length_a   14.53001647
_cell_length_b   14.61135075
_cell_length_c   14.54481452
_cell_angle_alpha   90.05303146
_cell_angle_beta   89.94939041
_cell_angle_gamma   89.64295727
_symmetry_Int_Tables_number   1
_chemical_formula_structural   Ti2CoNi
_chemical_formula_sum   'Ti108 Co54 Ni54'
_cell_volume   3087.84768928
_cell_formula_units_Z   54
loop_
 _symmetry_equiv_pos_site_id
 _symmetry_equiv_pos_as_xyz
  1  'x, y, z'
loop_
 _atom_site_type_symbol
 _atom_site_label
 _atom_site_symmetry_multiplicity
 _atom_site_fract_x
 _atom_site_fract_y
 _atom_site_fract_z
 _atom_site_occupancy
  Ti  Ti0  1  -0.03496305  -0.01212147  -0.00657853  1
  Ti  Ti1  1  0.03950514  0.08543732  0.39966691  1
  Ti  Ti2  1  -0.02845963  -0.01200447  0.61627588  1
  Ti  Ti3  1  0.01256190  0.41014721  -0.04582829  1
  Ti  Ti4  1  0.04069022  0.27340149  0.39274420  1
  Ti  Ti5  1  0.09404184  0.32793004  0.66414383  1
  Ti  Ti6  1  0.04683374  0.69799427  0.02535054  1
  Ti  Ti7  1  -0.02903604  0.72306975  0.28845233  1
  Ti  Ti8  1  0.03039018  0.68631074  0.59906096  1
  Ti  Ti9  1  0.29974310  -0.01966747  -0.06014657  1
  Ti  Ti10  1  0.39443699  -0.03151303  0.27831989  1
  Ti  Ti11  1  0.30312907  0.05829804  0.66229084  1
  Ti  Ti12  1  0.33570747  0.26585796  0.02611386  1
  Ti  Ti13  1  0.36635227  0.30659251  0.35014012  1
  Ti  Ti14  1  0.31023701  0.35956358  0.65985360  1
  Ti  Ti15  1  0.26199145  0.65632724  0.03982209  1
  Ti  Ti16  1  0.26266604  0.67334752  0.36576038  1
  Ti  Ti17  1  0.42510086  0.67439808  0.80208113  1
  Ti  Ti18  1  0.62866471  -0.08253980  -0.02763614  1
  Ti  Ti19  1  0.65971020  0.07777527  0.38798776  1
  Ti  Ti20  1  0.68754407  -0.00265709  0.58768017  1
  Ti  Ti21  1  0.62842400  0.31928866  0.04116645  1
  Ti  Ti22  1  0.59085575  0.29399919  0.35672353  1
  Ti  Ti23  1  0.65592612  0.40211212  0.74055278  1
  Ti  Ti24  1  0.56909003  0.67385060  0.06379965  1
  Ti  Ti25  1  0.73313561  0.65417409  0.33902627  1
  Ti  Ti26  1  0.71014863  0.71903719  0.63605094  1
  Ti  Ti27  1  0.00795789  0.20507995  0.11749486  1
  Ti  Ti28  1  -0.08015002  0.22289229  0.58152556  1
  Ti  Ti29  1  0.01005983  0.13071198  0.87073677  1
  Ti  Ti30  1  -0.01061680  0.47465315  0.21867547  1
  Ti  Ti31  1  -0.05012561  0.48092096  0.52715343  1
  Ti  Ti32  1  -0.06034647  0.53834970  0.77313701  1
  Ti  Ti33  1  0.00731209  0.87317447  0.14778257  1
  Ti  Ti34  1  -0.02501986  0.81442214  0.44956834  1
  Ti  Ti35  1  0.01851815  0.84100811  0.85993905  1
  Ti  Ti36  1  0.31563065  0.06937873  0.11854015  1
  Ti  Ti37  1  0.35653169  0.11585384  0.45392129  1
  Ti  Ti38  1  0.35171840  0.16533475  0.82950074  1
  Ti  Ti39  1  0.33693185  0.49770847  0.27789149  1
  Ti  Ti40  1  0.35577451  0.48474663  0.49741712  1
  Ti  Ti41  1  0.32648417  0.51068829  0.80928284  1
  Ti  Ti42  1  0.29492256  0.79931376  0.19806957  1
  Ti  Ti43  1  0.34755318  0.85132342  0.50885146  1
  Ti  Ti44  1  0.37053438  0.86982472  0.79853368  1
  Ti  Ti45  1  0.65791132  0.15880179  0.17167676  1
  Ti  Ti46  1  0.70242007  0.20907982  0.54186587  1
  Ti  Ti47  1  0.62046510  0.21787577  0.84084981  1
  Ti  Ti48  1  0.69724202  0.51039452  0.12603705  1
  Ti  Ti49  1  0.57630012  0.57129850  0.47020671  1
  Ti  Ti50  1  0.69959897  0.48681888  0.93401955  1
  Ti  Ti51  1  0.69029397  0.85121737  0.26888131  1
  Ti  Ti52  1  0.69300268  0.81135408  0.46566644  1
  Ti  Ti53  1  0.69411519  0.90776719  0.77991104  1
  Ti  Ti54  1  0.18379308  -0.03568059  0.26063284  1
  Ti  Ti55  1  0.16886156  0.01232370  0.54693046  1
  Ti  Ti56  1  0.19533121  -0.05432631  0.77728824  1
  Ti  Ti57  1  0.14062801  0.36318832  0.08212781  1
  Ti  Ti58  1  0.16573630  0.38365367  0.49401666  1
  Ti  Ti59  1  0.19409978  0.29105360  0.87441927  1
  Ti  Ti60  1  0.15003767  0.63156921  0.21053125  1
  Ti  Ti61  1  0.22030378  0.65983901  0.55601190  1
  Ti  Ti62  1  0.14689982  0.64504476  0.86456136  1
  Ti  Ti63  1  0.52377189  0.00899590  0.12916660  1
  Ti  Ti64  1  0.50275514  -0.03386108  0.53664809  1
  Ti  Ti65  1  0.50516701  0.02523631  0.82790252  1
  Ti  Ti66  1  0.46206266  0.35465428  0.18462163  1
  Ti  Ti67  1  0.51723217  0.36311003  0.55581728  1
  Ti  Ti68  1  0.47483027  0.32126991  0.77149424  1
  Ti  Ti69  1  0.46241165  0.62995550  0.22915788  1
  Ti  Ti70  1  0.41495500  0.68039360  0.51194349  1
  Ti  Ti71  1  0.57645815  0.62041082  0.88522036  1
  Ti  Ti72  1  0.85567353  0.10052856  0.12169979  1
  Ti  Ti73  1  0.84037372  -0.04848983  0.47216541  1
  Ti  Ti74  1  0.88554211  -0.02482069  0.78915633  1
  Ti  Ti75  1  0.81269166  0.29260661  0.17104385  1
  Ti  Ti76  1  0.77287839  0.37492674  0.56974590  1
  Ti  Ti77  1  0.91306968  0.30654137  0.80945311  1
  Ti  Ti78  1  0.80712802  0.69715432  0.16905275  1
  Ti  Ti79  1  0.86972935  0.65530136  0.48027102  1
  Ti  Ti80  1  0.78032910  0.63288431  0.86181629  1
  Ti  Ti81  1  0.16784669  0.12392931  -0.00725225  1
  Ti  Ti82  1  0.16018348  0.15621288  0.24871706  1
  Ti  Ti83  1  0.11009327  0.13239891  0.67894096  1
  Ti  Ti84  1  0.21819546  0.48203542  -0.03918250  1
  Ti  Ti85  1  0.17980742  0.39645442  0.28886016  1
  Ti  Ti86  1  0.11031595  0.53592441  0.69941764  1
  Ti  Ti87  1  0.18648569  0.82609133  -0.05112688  1
  Ti  Ti88  1  0.16342613  0.87090908  0.42471308  1
  Ti  Ti89  1  0.16469482  0.76741142  0.72631926  1
  Ti  Ti90  1  0.57198630  0.11753560  -0.01037848  1
  Ti  Ti91  1  0.48675633  0.15461581  0.27067005  1
  Ti  Ti92  1  0.42343304  0.21183220  0.61126116  1
  Ti  Ti93  1  0.45697363  0.44227594  -0.01645752  1
  Ti  Ti94  1  0.60677151  0.50052119  0.30032219  1
  Ti  Ti95  1  0.53610250  0.60348966  0.66636192  1
  Ti  Ti96  1  0.42295305  0.78344788  -0.04101578  1
  Ti  Ti97  1  0.50652456  0.82388365  0.23843731  1
  Ti  Ti98  1  0.52210998  0.79923524  0.67627637  1
  Ti  Ti99  1  0.77188053  0.20243165  -0.01884681  1
  Ti  Ti100  1  0.88691292  0.16953061  0.31959729  1
  Ti  Ti101  1  0.78719145  0.13990785  0.77646598  1
  Ti  Ti102  1  0.89237370  0.55628602  0.03921551  1
  Ti  Ti103  1  0.79945906  0.44461961  0.35336272  1
  Ti  Ti104  1  0.79627764  0.54579612  0.64251372  1
  Ti  Ti105  1  0.85096443  0.78240804  0.00420408  1
  Ti  Ti106  1  0.85829437  0.98326739  0.28836787  1
  Ti  Ti107  1  0.84691204  0.78037719  0.78594438  1
  Co  Co108  1  0.85346760  0.84086257  0.21450736  1
  Co  Co109  1  0.74890182  0.32457951  0.88068754  1
  Co  Co110  1  0.78112690  0.38681061  0.04741760  1
  Co  Co111  1  0.20400426  0.23899966  0.39964175  1
  Co  Co112  1  0.53546900  0.83707215  0.84247810  1
  Co  Co113  1  0.90380896  0.29074016  0.00928289  1
  Co  Co114  1  0.77742099  0.28227695  0.70791545  1
  Co  Co115  1  0.81019063  0.91152734  0.65600957  1
  Co  Co116  1  0.68519362  0.05075524  0.87258315  1
  Co  Co117  1  0.01653018  0.68871296  0.76524929  1
  Co  Co118  1  0.63425698  0.10331135  0.72062496  1
  Co  Co119  1  0.25229211  0.63176622  0.73430277  1
  Co  Co120  1  0.23203318  0.49080845  0.62415439  1
  Co  Co121  1  0.33225287  0.30388885  0.50196175  1
  Co  Co122  1  0.65075178  0.73692685  0.78192976  1
  Co  Co123  1  0.40190955  0.91829588  0.65236240  1
  Co  Co124  1  0.50597295  0.19493017  0.44412104  1
  Co  Co125  1  0.10147795  0.71083432  0.44017700  1
  Co  Co126  1  0.84640439  0.07180533  0.92861117  1
  Co  Co127  1  0.08273228  0.19313244  0.52907075  1
  Co  Co128  1  0.80621497  0.44601445  0.76994513  1
  Co  Co129  1  0.31289560  0.10089884  0.29494503  1
  Co  Co130  1  0.21760299  0.51847959  0.40559111  1
  Co  Co131  1  0.58846806  -0.01159172  0.27094808  1
  Co  Co132  1  0.03891374  0.55519401  0.91312103  1
  Co  Co133  1  0.67336229  0.57497698  0.75153617  1
  Co  Co134  1  0.24202355  0.18392874  0.55842023  1
  Co  Co135  1  0.71744482  0.04376740  0.03508842  1
  Co  Co136  1  1.02498043  0.96045727  0.47272780  1
  Co  Co137  1  0.53565775  0.83678910  0.07961004  1
  Co  Co138  1  0.56587133  0.95084584  0.69506846  1
  Co  Co139  1  0.04643697  -0.00708399  0.76874861  1
  Co  Co140  1  0.63528072  0.69976828  0.20300142  1
  Co  Co141  1  0.98272957  0.63612433  0.15614414  1
  Co  Co142  1  0.07206824  0.52337416  0.07107265  1
  Co  Co143  1  0.01620997  0.43562958  0.38481043  1
  Co  Co144  1  0.19964608  0.22396604  0.11293991  1
  Co  Co145  1  0.91170594  0.57015560  0.35378381  1
  Co  Co146  1  0.70235003  0.82195965  0.09560455  1
  Co  Co147  1  0.20332774  0.07571582  0.40569488  1
  Co  Co148  1  0.29028090  0.72516610  0.87548841  1
  Co  Co149  1  0.67896402  0.76972830  0.93303861  1
  Co  Co150  1  0.84472872  0.92976978  0.08690141  1
  Co  Co151  1  0.29603612  0.36509293  0.16834343  1
  Co  Co152  1  0.88047238  0.67950359  0.66180509  1
  Co  Co153  1  0.58113715  0.71341640  0.35831400  1
  Co  Co154  1  0.08884108  0.55723930  0.50142060  1
  Co  Co155  1  0.38997029  0.90889364  0.11268217  1
  Co  Co156  1  0.13346001  0.79119897  0.28405721  1
  Co  Co157  1  0.07562765  0.57746814  0.33562765  1
  Co  Co158  1  0.82882168  0.79992233  0.37051290  1
  Co  Co159  1  0.44189242  0.58227967  0.37700832  1
  Co  Co160  1  0.60523176  0.26024619  0.66812293  1
  Co  Co161  1  0.92316022  0.38086418  0.65516929  1
  Ni  Ni162  1  0.85992549  0.44677734  0.91790637  1
  Ni  Ni163  1  0.74363335  0.54383020  0.47854157  1
  Ni  Ni164  1  0.09641671  0.41401346  0.81107968  1
  Ni  Ni165  1  0.24366956  0.22421367  0.71958539  1
  Ni  Ni166  1  0.15368331  0.78309955  0.11379941  1
  Ni  Ni167  1  0.97409762  0.83426284  0.68516598  1
  Ni  Ni168  1  0.44806738  0.45990978  0.69312410  1
  Ni  Ni169  1  0.65103750  0.40769859  0.45343238  1
  Ni  Ni170  1  0.37420752  0.50998627  0.10875894  1
  Ni  Ni171  1  0.81559982  0.11290978  0.45966300  1
  Ni  Ni172  1  0.48630042  0.42511426  0.39365572  1
  Ni  Ni173  1  0.34621976  0.35410746  0.87259916  1
  Ni  Ni174  1  0.73483847  0.22714391  0.31700727  1
  Ni  Ni175  1  0.48485874  0.20310225  0.10259386  1
  Ni  Ni176  1  0.01729437  0.91603751  0.31136786  1
  Ni  Ni177  1  0.99862157  0.06453354  0.22748606  1
  Ni  Ni178  1  0.40073186  0.60027802  0.96173618  1
  Ni  Ni179  1  0.49662984  0.03449926  0.39090973  1
  Ni  Ni180  1  0.82490585  0.07703204  0.62256125  1
  Ni  Ni181  1  0.41921518  0.74290822  0.35798211  1
  Ni  Ni182  1  0.18950870  0.10287138  0.82718956  1
  Ni  Ni183  1  0.56879029  0.73105810  0.53213593  1
  Ni  Ni184  1  0.21788289  0.50307497  0.13741131  1
  Ni  Ni185  1  0.63571034  0.48691700  0.60075884  1
  Ni  Ni186  1  0.84241808  0.80095970  0.55468991  1
  Ni  Ni187  1  0.11664483  0.98419180  0.92708487  1
  Ni  Ni188  1  0.22960607  0.92493458  0.08652820  1
  Ni  Ni189  1  0.53320597  0.49589598  0.14491520  1
  Ni  Ni190  1  0.40292034  0.10633015  -0.02205985  1
  Ni  Ni191  1  0.10120016  0.84140634  0.57677860  1
  Ni  Ni192  1  0.72381737  0.99738872  0.18476871  1
  Ni  Ni193  1  0.55793776  0.87827080  0.39857295  1
  Ni  Ni194  1  0.10387251  0.02432824  0.11242787  1
  Ni  Ni195  1  0.34436091  0.21832163  0.19809960  1
  Ni  Ni196  1  0.05671614  0.31268237  0.22925622  1
  Ni  Ni197  1  0.56594573  0.12237474  0.56779726  1
  Ni  Ni198  1  0.46005420  0.07133775  0.68259730  1
  Ni  Ni199  1  0.93712869  0.68074430  0.90217459  1
  Ni  Ni200  1  0.24795876  0.88170335  0.63394319  1
  Ni  Ni201  1  0.72977753  0.64918399  1.02896525  1
  Ni  Ni202  1  0.89162890  0.33105636  0.46052418  1
  Ni  Ni203  1  0.05634398  0.25459742  0.96269899  1
  Ni  Ni204  1  0.36658965  0.58691762  0.63902771  1
  Ni  Ni205  1  0.45865108  0.94439787  0.96417622  1
  Ni  Ni206  1  0.30510451  0.85258704  0.34843660  1
  Ni  Ni207  1  0.40704818  0.72384129  0.10671063  1
  Ni  Ni208  1  0.90809443  0.33537015  0.29691147  1
  Ni  Ni209  1  0.79967629  0.91542644  0.92319750  1
  Ni  Ni210  1  0.63930565  0.35095372  0.20575525  1
  Ni  Ni211  1  0.34989762  0.75318712  0.66427579  1
  Ni  Ni212  1  0.83099953  0.54125939  0.21381134  1
  Ni  Ni213  1  0.48325193  0.27071164  0.94542451  1
  Ni  Ni214  1  0.94968732  0.13334247  0.71985203  1
  Ni  Ni215  1  0.58317188  0.38802599  0.88720839  1
