# generated using pymatgen
data_Ti2CoNi
_symmetry_space_group_name_H-M   'P 1'
_cell_length_a   14.55720208
_cell_length_b   14.61878150
_cell_length_c   14.64770109
_cell_angle_alpha   90.18896293
_cell_angle_beta   89.84767421
_cell_angle_gamma   89.97615149
_symmetry_Int_Tables_number   1
_chemical_formula_structural   Ti2CoNi
_chemical_formula_sum   'Ti108 Co54 Ni54'
_cell_volume   3117.12787294
_cell_formula_units_Z   54
loop_
 _symmetry_equiv_pos_site_id
 _symmetry_equiv_pos_as_xyz
  1  'x, y, z'
loop_
 _atom_site_type_symbol
 _atom_site_label
 _atom_site_symmetry_multiplicity
 _atom_site_fract_x
 _atom_site_fract_y
 _atom_site_fract_z
 _atom_site_occupancy
  Ti  Ti0  1  -0.04144015  -0.01143184  0.01065114  1
  Ti  Ti1  1  -0.00709650  0.06765245  0.31689944  1
  Ti  Ti2  1  -0.03504242  0.01731915  0.72509197  1
  Ti  Ti3  1  -0.03678603  0.35925112  -0.01281741  1
  Ti  Ti4  1  -0.03711335  0.36104830  0.39541347  1
  Ti  Ti5  1  0.02584418  0.24872361  0.67511675  1
  Ti  Ti6  1  0.06474647  0.61871744  0.03921720  1
  Ti  Ti7  1  -0.00804442  0.74926746  0.35143709  1
  Ti  Ti8  1  -0.04681782  0.61665178  0.61766017  1
  Ti  Ti9  1  0.39898974  0.02307437  0.01719556  1
  Ti  Ti10  1  0.29824651  -0.02980599  0.32903197  1
  Ti  Ti11  1  0.33488940  -0.01548000  0.60237358  1
  Ti  Ti12  1  0.29246545  0.32117211  -0.02496531  1
  Ti  Ti13  1  0.29721230  0.37951256  0.30760075  1
  Ti  Ti14  1  0.25288157  0.38767923  0.69741404  1
  Ti  Ti15  1  0.36989158  0.67427507  0.04489181  1
  Ti  Ti16  1  0.27947590  0.64777169  0.39279289  1
  Ti  Ti17  1  0.34847398  0.55946600  0.69202126  1
  Ti  Ti18  1  0.63336191  0.00226918  0.00299505  1
  Ti  Ti19  1  0.68251480  0.05502552  0.35721370  1
  Ti  Ti20  1  0.65890720  0.04486273  0.67227549  1
  Ti  Ti21  1  0.59361201  0.32121135  0.01221737  1
  Ti  Ti22  1  0.68205873  0.34879240  0.25962939  1
  Ti  Ti23  1  0.69719737  0.25360882  0.70704594  1
  Ti  Ti24  1  0.59651120  0.66358362  -0.02602134  1
  Ti  Ti25  1  0.67511945  0.67621799  0.31131082  1
  Ti  Ti26  1  0.67333630  0.65686808  0.77730970  1
  Ti  Ti27  1  -0.02145620  0.22468532  0.13617085  1
  Ti  Ti28  1  -0.04089516  0.06941511  0.52095319  1
  Ti  Ti29  1  0.02226773  0.15935801  0.83806467  1
  Ti  Ti30  1  -0.00190086  0.56435911  0.23497340  1
  Ti  Ti31  1  -0.01573561  0.56246802  0.43090788  1
  Ti  Ti32  1  -0.01749894  0.53161519  0.88291815  1
  Ti  Ti33  1  0.02553235  0.87666783  0.17794159  1
  Ti  Ti34  1  0.06805831  0.90126993  0.43523535  1
  Ti  Ti35  1  0.06181468  0.72893727  0.86006510  1
  Ti  Ti36  1  0.28639466  0.22939241  0.17407541  1
  Ti  Ti37  1  0.40374757  0.16689960  0.51642216  1
  Ti  Ti38  1  0.35936507  0.26067924  0.80371384  1
  Ti  Ti39  1  0.37465857  0.51430674  0.15598751  1
  Ti  Ti40  1  0.38460772  0.51134909  0.50225073  1
  Ti  Ti41  1  0.40109219  0.48420848  0.84568619  1
  Ti  Ti42  1  0.32552229  0.84055506  0.15658563  1
  Ti  Ti43  1  0.34837290  0.80297370  0.48382841  1
  Ti  Ti44  1  0.29731763  0.81051065  0.90078595  1
  Ti  Ti45  1  0.69729741  0.14406582  0.17126054  1
  Ti  Ti46  1  0.65519992  0.18920617  0.53467674  1
  Ti  Ti47  1  0.72457259  0.11330483  0.85821138  1
  Ti  Ti48  1  0.67404697  0.50078903  0.08235141  1
  Ti  Ti49  1  0.66186488  0.47585341  0.46906135  1
  Ti  Ti50  1  0.76119850  0.48111844  0.75067886  1
  Ti  Ti51  1  0.72998739  0.79954346  0.13150048  1
  Ti  Ti52  1  0.61011109  0.91786887  0.53245269  1
  Ti  Ti53  1  0.69489695  0.85145604  0.74142471  1
  Ti  Ti54  1  0.17162755  0.05014155  0.15775737  1
  Ti  Ti55  1  0.13343795  0.00793463  0.58751190  1
  Ti  Ti56  1  0.22612084  -0.02261273  0.78653992  1
  Ti  Ti57  1  0.11188467  0.35959521  0.19975874  1
  Ti  Ti58  1  0.21436680  0.39096338  0.49129346  1
  Ti  Ti59  1  0.13168803  0.31356319  0.85783120  1
  Ti  Ti60  1  0.16691328  0.74189909  0.12618887  1
  Ti  Ti61  1  0.13281520  0.64799808  0.57266197  1
  Ti  Ti62  1  0.20213344  0.66238936  0.76560628  1
  Ti  Ti63  1  0.49433765  -0.05122763  0.17025886  1
  Ti  Ti64  1  0.46193021  -0.01045049  0.42950021  1
  Ti  Ti65  1  0.49384578  0.09265321  0.83135993  1
  Ti  Ti66  1  0.52502259  0.25459003  0.18837975  1
  Ti  Ti67  1  0.50744980  0.35218629  0.54803044  1
  Ti  Ti68  1  0.57951576  0.39981335  0.81766417  1
  Ti  Ti69  1  0.44707937  0.68139819  0.25749113  1
  Ti  Ti70  1  0.60490549  0.64878796  0.50147292  1
  Ti  Ti71  1  0.50351040  0.72705359  0.72793895  1
  Ti  Ti72  1  0.83951052  -0.03050313  0.17933610  1
  Ti  Ti73  1  0.86836968  -0.11502017  0.47204457  1
  Ti  Ti74  1  0.93317898  -0.13068370  0.86762362  1
  Ti  Ti75  1  0.84248589  0.41600332  0.13606734  1
  Ti  Ti76  1  0.87830714  0.27651819  0.54316756  1
  Ti  Ti77  1  0.76607528  0.31757768  0.86489616  1
  Ti  Ti78  1  0.81306740  0.62941001  0.18995637  1
  Ti  Ti79  1  0.81372549  0.68810761  0.49758068  1
  Ti  Ti80  1  0.87951710  0.67052184  0.78461213  1
  Ti  Ti81  1  0.18146999  0.10502816  -0.02686557  1
  Ti  Ti82  1  0.13658105  0.24400314  0.35264351  1
  Ti  Ti83  1  0.17847292  0.19590872  0.55783733  1
  Ti  Ti84  1  0.14874595  0.44201297  0.00435009  1
  Ti  Ti85  1  0.19078159  0.52670618  0.25342241  1
  Ti  Ti86  1  0.10306173  0.49201268  0.73522440  1
  Ti  Ti87  1  0.13876710  0.89582022  -0.03262840  1
  Ti  Ti88  1  0.19816470  0.81555855  0.30648253  1
  Ti  Ti89  1  0.17471840  0.82911419  0.62531672  1
  Ti  Ti90  1  0.42227028  0.20150184  0.02495390  1
  Ti  Ti91  1  0.53699089  0.19949590  0.38159018  1
  Ti  Ti92  1  0.51127997  0.22648777  0.68665787  1
  Ti  Ti93  1  0.49365602  0.49845226  0.00413153  1
  Ti  Ti94  1  0.50366061  0.39741322  0.34401288  1
  Ti  Ti95  1  0.54079356  0.53161573  0.66436381  1
  Ti  Ti96  1  0.46536908  0.85201777  -0.03646966  1
  Ti  Ti97  1  0.53566555  0.79330154  0.40378521  1
  Ti  Ti98  1  0.49370507  0.92175214  0.74559289  1
  Ti  Ti99  1  0.87179558  0.19151358  -0.03174851  1
  Ti  Ti100  1  0.83509988  0.18365319  0.37527861  1
  Ti  Ti101  1  0.83382120  0.14324720  0.65660722  1
  Ti  Ti102  1  0.87512946  0.57506545  0.03010169  1
  Ti  Ti103  1  0.82618022  0.49003180  0.32160571  1
  Ti  Ti104  1  0.84665397  0.47413871  0.55444040  1
  Ti  Ti105  1  0.75529101  0.77908136  -0.07659649  1
  Ti  Ti106  1  0.73616092  0.86702888  0.31987726  1
  Ti  Ti107  1  0.89642757  0.83142711  0.68136490  1
  Co  Co108  1  0.28303448  0.06713374  0.46982066  1
  Co  Co109  1  0.55304587  0.56501079  0.83621005  1
  Co  Co110  1  0.73213891  0.65747111  0.04802193  1
  Co  Co111  1  0.78027735  0.60446066  0.89350539  1
  Co  Co112  1  0.98218610  0.39975506  0.63053849  1
  Co  Co113  1  0.23588100  0.11699152  0.29320254  1
  Co  Co114  1  0.88998238  0.05018897  0.87789882  1
  Co  Co115  1  0.19048088  0.71074847  0.96467239  1
  Co  Co116  1  0.24317403  0.44180417  0.85352403  1
  Co  Co117  1  0.23192170  0.57527941  0.06688009  1
  Co  Co118  1  0.28112133  0.22066476  0.40800409  1
  Co  Co119  1  0.43251376  0.38495791  0.70223566  1
  Co  Co120  1  0.87270014  0.20177829  0.79229345  1
  Co  Co121  1  -0.01264163  0.23210253  0.28812372  1
  Co  Co122  1  0.86179672  0.12949490  0.21573597  1
  Co  Co123  1  0.80070126  0.06918528  0.04866183  1
  Co  Co124  1  0.59206304  0.79172016  0.22837003  1
  Co  Co125  1  0.45754378  0.33525323  0.91500185  1
  Co  Co126  1  0.40522607  0.25819144  0.29493719  1
  Co  Co127  1  0.67618220  0.48330498  0.92243841  1
  Co  Co128  1  0.07008563  0.49250816  0.54626022  1
  Co  Co129  1  0.31003534  0.60551377  0.90799614  1
  Co  Co130  1  0.62832783  0.97723264  0.83344996  1
  Co  Co131  1  0.12443455  0.67275153  0.29217599  1
  Co  Co132  1  0.00257905  0.90771512  0.59028636  1
  Co  Co133  1  0.91609123  0.70221040  0.94010861  1
  Co  Co134  1  0.06792853  0.32268460  0.52157620  1
  Co  Co135  1  0.12808388  0.96929781  0.28991725  1
  Co  Co136  1  0.55927699  0.14201990  0.96251495  1
  Co  Co137  1  1.00471161  0.19680092  0.44778547  1
  Co  Co138  1  0.70188692  0.19517780  1.00168960  1
  Co  Co139  1  0.81316753  0.24684260  0.11158489  1
  Co  Co140  1  0.84123018  0.45026778  0.91876560  1
  Co  Co141  1  1.07677358  0.89317274  0.74818894  1
  Co  Co142  1  0.59862318  0.23960125  0.84562709  1
  Co  Co143  1  0.23188498  0.52319264  0.58598939  1
  Co  Co144  1  0.15828853  0.75245303  0.45126526  1
  Co  Co145  1  0.96810116  0.39999561  0.23837487  1
  Co  Co146  1  0.92393982  0.50304550  0.73254801  1
  Co  Co147  1  0.61782903  0.75922184  0.61485858  1
  Co  Co148  1  0.98496955  0.75635830  0.51868994  1
  Co  Co149  1  0.69881867  0.79233495  0.45233694  1
  Co  Co150  1  0.14919871  0.56822628  0.42462410  1
  Co  Co151  1  0.75129810  0.35700951  0.01907547  1
  Co  Co152  1  0.22703821  0.91495988  0.47327224  1
  Co  Co153  1  0.15107595  0.56883616  0.89150934  1
  Co  Co154  1  0.61212456  0.38770478  0.66032112  1
  Co  Co155  1  0.39806056  0.11085904  0.18253609  1
  Co  Co156  1  0.47467868  0.78231244  0.12104418  1
  Co  Co157  1  0.73403123  0.35445975  0.57189940  1
  Co  Co158  1  0.54005481  0.08533430  0.27187150  1
  Co  Co159  1  0.54633849  0.10055192  0.11159021  1
  Co  Co160  1  0.38964705  0.10776199  0.34696200  1
  Co  Co161  1  0.10849960  0.42485098  0.36695427  1
  Ni  Ni162  1  0.26259508  0.94841759  0.05492644  1
  Ni  Ni163  1  0.29616396  0.69913307  0.60861200  1
  Ni  Ni164  1  0.60766699  0.84252632  0.04358388  1
  Ni  Ni165  1  0.84250278  -0.01649681  0.61152512  1
  Ni  Ni166  1  0.20317197  0.22309142  0.73631391  1
  Ni  Ni167  1  0.16131828  0.27176915  0.06552767  1
  Ni  Ni168  1  0.79334470  -0.02045396  0.77031134  1
  Ni  Ni169  1  0.00040198  0.05594675  0.14965000  1
  Ni  Ni170  1  0.38005008  0.33649116  0.45020582  1
  Ni  Ni171  1  0.79238399  0.36510232  0.42041303  1
  Ni  Ni172  1  0.45784277  0.66115220  0.58229227  1
  Ni  Ni173  1  0.46098550  0.86341871  0.59059696  1
  Ni  Ni174  1  0.92818484  0.91426650  0.32289133  1
  Ni  Ni175  1  0.03182807  0.78988098  0.01902639  1
  Ni  Ni176  1  0.77923535  0.07771273  0.49589770  1
  Ni  Ni177  1  0.32897653  0.26566966  0.62133172  1
  Ni  Ni178  1  0.59129786  0.80627794  0.86533461  1
  Ni  Ni179  1  0.70149975  0.57220256  0.61903322  1
  Ni  Ni180  1  0.25943653  0.39903573  0.12816548  1
  Ni  Ni181  1  0.55554001  0.55553660  0.34156277  1
  Ni  Ni182  1  0.11970577  0.08877509  0.72200532  1
  Ni  Ni183  1  0.85924372  0.65478262  0.34376053  1
  Ni  Ni184  1  0.75175697  0.85682484  0.58708853  1
  Ni  Ni185  1  0.00812042  0.47376869  0.09666665  1
  Ni  Ni186  1  0.32377252  0.11900999  0.89403584  1
  Ni  Ni187  1  0.38134140  0.11519956  0.69488611  1
  Ni  Ni188  1  0.45587664  0.68615135  0.89973181  1
  Ni  Ni189  1  0.63877984  0.31763405  0.43109970  1
  Ni  Ni190  1  0.42262205  0.85058940  0.29711884  1
  Ni  Ni191  1  0.44778431  0.64817284  0.42251760  1
  Ni  Ni192  1  0.87729625  0.83467835  0.05255895  1
  Ni  Ni193  1  0.53979070  0.61921571  0.13128626  1
  Ni  Ni194  1  0.68003745  0.51632935  0.24681235  1
  Ni  Ni195  1  0.77774599  0.71258531  0.65675456  1
  Ni  Ni196  1  0.78096308  0.94166957  0.94043876  1
  Ni  Ni197  1  -0.03598715  0.35636696  0.81828933  1
  Ni  Ni198  1  0.98673516  0.71290105  0.15788229  1
  Ni  Ni199  1  0.83979936  0.30240336  0.26135932  1
  Ni  Ni200  1  0.38388181  0.52893221  0.32238534  1
  Ni  Ni201  1  0.28412656  0.66043903  0.21383713  1
  Ni  Ni202  1  0.12719869  0.07747027  0.42561963  1
  Ni  Ni203  1  0.84863874  0.33975308  0.70064063  1
  Ni  Ni204  1  0.53459371  0.45700083  0.18633916  1
  Ni  Ni205  1  0.57565286  0.93269816  0.31875953  1
  Ni  Ni206  1  0.04686514  0.20581403  0.98618555  1
  Ni  Ni207  1  0.37345990  0.96127817  0.85555612  1
  Ni  Ni208  1  0.32410032  0.84940499  0.70661546  1
  Ni  Ni209  1  0.86643076  0.79553715  0.23145545  1
  Ni  Ni210  1  0.35401444  0.70738906  0.78154173  1
  Ni  Ni211  1  0.66201064  0.96537146  0.17487560  1
  Ni  Ni212  1  0.51426410  0.06028423  0.58465726  1
  Ni  Ni213  1  0.06489046  1.00235899  0.86855688  1
  Ni  Ni214  1  0.42197300  0.35842185  0.09641476  1
  Ni  Ni215  1  0.04227186  0.73918540  0.69428894  1
