# generated using pymatgen
data_Ti2CoNi
_symmetry_space_group_name_H-M   'P 1'
_cell_length_a   14.60186414
_cell_length_b   14.61841415
_cell_length_c   14.60818829
_cell_angle_alpha   90.17669437
_cell_angle_beta   89.97244027
_cell_angle_gamma   89.90683225
_symmetry_Int_Tables_number   1
_chemical_formula_structural   Ti2CoNi
_chemical_formula_sum   'Ti108 Co54 Ni54'
_cell_volume   3118.18754384
_cell_formula_units_Z   54
loop_
 _symmetry_equiv_pos_site_id
 _symmetry_equiv_pos_as_xyz
  1  'x, y, z'
loop_
 _atom_site_type_symbol
 _atom_site_label
 _atom_site_symmetry_multiplicity
 _atom_site_fract_x
 _atom_site_fract_y
 _atom_site_fract_z
 _atom_site_occupancy
  Ti  Ti0  1  0.04934572  0.01670338  -0.06849774  1
  Ti  Ti1  1  -0.03159065  -0.02873350  0.29265370  1
  Ti  Ti2  1  0.04053423  0.04483724  0.63991143  1
  Ti  Ti3  1  -0.06251428  0.32287894  -0.07404931  1
  Ti  Ti4  1  -0.00448620  0.37902999  0.27069662  1
  Ti  Ti5  1  -0.02815773  0.33916305  0.63111313  1
  Ti  Ti6  1  -0.05727545  0.67357769  0.00885629  1
  Ti  Ti7  1  0.01922062  0.71670568  0.35880907  1
  Ti  Ti8  1  0.05777357  0.69934378  0.69172109  1
  Ti  Ti9  1  0.30954459  0.02983517  -0.03178927  1
  Ti  Ti10  1  0.36795700  0.03808684  0.37014875  1
  Ti  Ti11  1  0.39592089  -0.00152119  0.67526977  1
  Ti  Ti12  1  0.31814971  0.36710984  0.03897998  1
  Ti  Ti13  1  0.35618349  0.26989618  0.28672273  1
  Ti  Ti14  1  0.41946782  0.24869667  0.68714695  1
  Ti  Ti15  1  0.29204693  0.66806329  -0.05620610  1
  Ti  Ti16  1  0.34487981  0.67516731  0.42163626  1
  Ti  Ti17  1  0.33203914  0.64574078  0.73991619  1
  Ti  Ti18  1  0.61519813  0.02102999  0.10239547  1
  Ti  Ti19  1  0.65742586  0.05442269  0.33745222  1
  Ti  Ti20  1  0.68066791  -0.03931148  0.55703956  1
  Ti  Ti21  1  0.65279091  0.36346827  -0.04762994  1
  Ti  Ti22  1  0.69238288  0.38473204  0.26992706  1
  Ti  Ti23  1  0.67546123  0.28674267  0.60212463  1
  Ti  Ti24  1  0.74754035  0.66948912  -0.01453216  1
  Ti  Ti25  1  0.61305483  0.60578778  0.37375494  1
  Ti  Ti26  1  0.65268746  0.75936163  0.63936302  1
  Ti  Ti27  1  0.04727889  0.19395934  0.27012463  1
  Ti  Ti28  1  0.04008941  0.19404955  0.48668994  1
  Ti  Ti29  1  -0.09409960  0.15124608  0.86537245  1
  Ti  Ti30  1  -0.00921031  0.53085334  0.13695824  1
  Ti  Ti31  1  0.02975365  0.47719489  0.45845427  1
  Ti  Ti32  1  0.00210469  0.49924006  0.88171851  1
  Ti  Ti33  1  -0.02891575  0.82022176  0.14315439  1
  Ti  Ti34  1  -0.04083662  0.76170893  0.53725300  1
  Ti  Ti35  1  0.01655118  0.80329383  0.86700816  1
  Ti  Ti36  1  0.42251694  0.17757890  0.11757604  1
  Ti  Ti37  1  0.32914777  0.22474820  0.51911253  1
  Ti  Ti38  1  0.25946537  0.26473209  0.88089112  1
  Ti  Ti39  1  0.26254023  0.56432338  0.19561911  1
  Ti  Ti40  1  0.29752917  0.49797210  0.49766882  1
  Ti  Ti41  1  0.31717009  0.47940954  0.88431560  1
  Ti  Ti42  1  0.31960716  0.82222147  0.12247151  1
  Ti  Ti43  1  0.37271325  0.79869266  0.58711849  1
  Ti  Ti44  1  0.30162833  0.84048934  0.79280208  1
  Ti  Ti45  1  0.63290724  0.20509091  0.18524429  1
  Ti  Ti46  1  0.75977556  0.13595026  0.49570091  1
  Ti  Ti47  1  0.67092261  0.17646253  0.83723670  1
  Ti  Ti48  1  0.66939960  0.50546145  0.10156970  1
  Ti  Ti49  1  0.68289661  0.48114272  0.55909108  1
  Ti  Ti50  1  0.66966962  0.44898390  0.75661468  1
  Ti  Ti51  1  0.68155459  0.88961451  0.20675459  1
  Ti  Ti52  1  0.64170178  0.83365165  0.42596422  1
  Ti  Ti53  1  0.65193914  0.91942229  0.81670116  1
  Ti  Ti54  1  0.16080366  0.01968605  0.25907395  1
  Ti  Ti55  1  0.17907592  -0.01560965  0.47809808  1
  Ti  Ti56  1  0.22795551  0.01951365  0.79515424  1
  Ti  Ti57  1  0.14168511  0.31786267  0.10600005  1
  Ti  Ti58  1  0.16133496  0.34790909  0.55536603  1
  Ti  Ti59  1  0.07664979  0.26185042  0.79649817  1
  Ti  Ti60  1  0.10703550  0.69239290  0.18756835  1
  Ti  Ti61  1  0.17709364  0.76966639  0.51811059  1
  Ti  Ti62  1  0.16060672  0.57513896  0.81449182  1
  Ti  Ti63  1  0.43359657  -0.02061561  0.16534294  1
  Ti  Ti64  1  0.49897884  -0.02736902  0.48455306  1
  Ti  Ti65  1  0.48449860  0.05404653  0.84360837  1
  Ti  Ti66  1  0.53432388  0.37801567  0.15257183  1
  Ti  Ti67  1  0.57556909  0.38288370  0.42488430  1
  Ti  Ti68  1  0.46521200  0.31972786  0.86090115  1
  Ti  Ti69  1  0.53702122  0.63495139  0.19080002  1
  Ti  Ti70  1  0.52328539  0.66984082  0.53111152  1
  Ti  Ti71  1  0.59212607  0.63736011  0.82200053  1
  Ti  Ti72  1  0.84560762  -0.02074831  0.12119315  1
  Ti  Ti73  1  0.88232924  -0.04202396  0.56934318  1
  Ti  Ti74  1  0.91044912  -0.02746071  0.79077322  1
  Ti  Ti75  1  0.88486991  0.27029272  0.12250063  1
  Ti  Ti76  1  0.78809377  0.33399723  0.43478575  1
  Ti  Ti77  1  0.80797334  0.29737331  0.76310447  1
  Ti  Ti78  1  0.72819371  0.69427022  0.18328720  1
  Ti  Ti79  1  0.77342320  0.64583116  0.51999856  1
  Ti  Ti80  1  0.81818900  0.60470297  0.81169302  1
  Ti  Ti81  1  0.10953894  0.12171762  0.09391764  1
  Ti  Ti82  1  0.21178936  0.17054021  0.38102209  1
  Ti  Ti83  1  0.22997204  0.13137839  0.65259114  1
  Ti  Ti84  1  0.16775898  0.51219094  0.02172043  1
  Ti  Ti85  1  0.18265019  0.45088521  0.33113545  1
  Ti  Ti86  1  0.14921308  0.53478331  0.62341138  1
  Ti  Ti87  1  0.15008095  0.91328822  0.07662463  1
  Ti  Ti88  1  0.21516179  0.81289788  0.33566205  1
  Ti  Ti89  1  0.12575065  0.88423155  0.72714952  1
  Ti  Ti90  1  0.57159105  0.18728176  -0.00522909  1
  Ti  Ti91  1  0.49039032  0.18437034  0.41282921  1
  Ti  Ti92  1  0.58337662  0.12590995  0.66698401  1
  Ti  Ti93  1  0.47313649  0.52886953  0.01755988  1
  Ti  Ti94  1  0.39417228  0.44589195  0.32533193  1
  Ti  Ti95  1  0.46117993  0.48206258  0.73815151  1
  Ti  Ti96  1  0.47371032  0.77531692  0.00438370  1
  Ti  Ti97  1  0.42818078  0.79878126  0.28680318  1
  Ti  Ti98  1  0.49775322  0.83931375  0.75207653  1
  Ti  Ti99  1  0.76352994  0.12242244  0.01299789  1
  Ti  Ti100  1  0.87365942  0.14672735  0.35154535  1
  Ti  Ti101  1  0.79431211  0.11548994  0.68632713  1
  Ti  Ti102  1  0.83479017  0.46005349  0.01238407  1
  Ti  Ti103  1  0.86696941  0.54682897  0.31747858  1
  Ti  Ti104  1  0.94229359  0.52625911  0.66201053  1
  Ti  Ti105  1  0.76097576  0.89680906  -0.03364297  1
  Ti  Ti106  1  0.82883247  0.82780171  0.30117414  1
  Ti  Ti107  1  0.82357247  0.80427982  0.71129183  1
  Co  Co108  1  0.47402133  0.79896248  0.43879463  1
  Co  Co109  1  0.09462935  0.78153871  0.01600335  1
  Co  Co110  1  0.09382799  0.63724025  0.95402597  1
  Co  Co111  1  0.22412371  0.69038105  0.08337449  1
  Co  Co112  1  0.54885924  0.48916470  0.27655354  1
  Co  Co113  1  0.73854268  0.60061900  0.67527159  1
  Co  Co114  1  0.21428526  0.29590384  0.70071316  1
  Co  Co115  1  0.26815372  0.34149377  0.42020676  1
  Co  Co116  1  0.83731844  0.26459378  0.58672267  1
  Co  Co117  1  0.41200797  0.60614412  0.29440218  1
  Co  Co118  1  0.94142720  0.18566457  0.70634786  1
  Co  Co119  1  0.88793386  0.01222458  0.95960302  1
  Co  Co120  1  0.52244086  0.25885546  0.55846081  1
  Co  Co121  1  0.87056831  0.45960747  0.51292900  1
  Co  Co122  1  0.88862605  0.67080457  0.65331209  1
  Co  Co123  1  0.27935188  0.82904352  0.96684574  1
  Co  Co124  1  0.71455556  0.54815539  0.25352679  1
  Co  Co125  1  0.79247257  -0.01974001  0.43042304  1
  Co  Co126  1  0.08891608  0.20649699  0.63982258  1
  Co  Co127  1  0.62794803  0.03412008  0.93760517  1
  Co  Co128  1  0.97571957  0.64862943  0.82072809  1
  Co  Co129  1  0.00960103  -0.00685361  0.11314761  1
  Co  Co130  1  0.47658926  0.04479459  0.00987207  1
  Co  Co131  1  0.48067613  0.68581472  0.69509836  1
  Co  Co132  1  0.80227843  1.00310180  0.27696742  1
  Co  Co133  1  0.91574719  0.12323622  0.54754634  1
  Co  Co134  1  0.60410886  0.11730073  0.50546491  1
  Co  Co135  1  0.52940075  0.84925233  0.58429233  1
  Co  Co136  1  0.75469858  -0.04179033  0.69906497  1
  Co  Co137  1  0.79471120  0.25615151  0.25973217  1
  Co  Co138  1  0.58392083  0.57233091  0.65669785  1
  Co  Co139  1  0.33333487  0.36765987  0.77275590  1
  Co  Co140  1  0.80892250  0.42762463  0.66114969  1
  Co  Co141  1  0.15889002  0.90201400  0.89757919  1
  Co  Co142  1  0.73944675  0.49672775  0.40819254  1
  Co  Co143  1  0.70783444  0.52122421  0.91656234  1
  Co  Co144  1  0.71326135  0.33044893  0.10540642  1
  Co  Co145  1  0.82952620  0.57758762  0.12658855  1
  Co  Co146  1  0.17367787  0.74227543  0.84099566  1
  Co  Co147  1  0.32483004  0.37438184  0.60852656  1
  Co  Co148  1  0.28466263  0.50009895  0.69488745  1
  Co  Co149  1  0.09904675  0.32290217  0.39391448  1
  Co  Co150  1  0.06780258  0.09644005  0.78635521  1
  Co  Co151  1  0.42459697  0.75035939  0.85537914  1
  Co  Co152  1  0.75945171  0.11575710  0.17734039  1
  Co  Co153  1  0.44869205  0.11743911  0.56536018  1
  Co  Co154  1  0.16358715  0.40324078  0.89584510  1
  Co  Co155  1  0.18092309  0.29079362  0.26327563  1
  Co  Co156  1  0.93673216  0.86597004  -0.00951218  1
  Co  Co157  1  0.56991560  0.97121786  0.68376260  1
  Co  Co158  1  0.76814067  1.03974195  0.84924698  1
  Co  Co159  1  0.94206383  0.14247792  0.03578475  1
  Co  Co160  1  0.28754143  0.70972031  0.24773080  1
  Co  Co161  1  0.92525700  0.11406236  0.19693265  1
  Ni  Ni162  1  0.83984092  0.42271128  0.18997158  1
  Ni  Ni163  1  0.06241989  0.06412774  0.39160180  1
  Ni  Ni164  1  0.59782547  0.76440324  0.28711540  1
  Ni  Ni165  1  0.24951249  0.91768496  0.62329741  1
  Ni  Ni166  1  0.21996263  0.74183538  0.67465844  1
  Ni  Ni167  1  0.70453996  0.74950582  0.80411849  1
  Ni  Ni168  1  0.43911582  0.59677977  0.87109399  1
  Ni  Ni169  1  0.06631711  0.89304105  0.56094485  1
  Ni  Ni170  1  0.34599694  0.13727174  0.79620097  1
  Ni  Ni171  1  0.65958059  0.23126659  0.38261128  1
  Ni  Ni172  1  0.42180734  0.36909831  0.48159597  1
  Ni  Ni173  1  0.17862072  0.12585247  0.91706622  1
  Ni  Ni174  1  0.18191977  0.63478292  0.37395958  1
  Ni  Ni175  1  0.41222794  0.49700753  0.16386519  1
  Ni  Ni176  1  0.47375099  0.32771493  0.01939116  1
  Ni  Ni177  1  0.30125807  0.93189742  0.26172200  1
  Ni  Ni178  1  0.78476166  0.81927695  0.51116466  1
  Ni  Ni179  1  0.40039657  0.18730197  0.94924729  1
  Ni  Ni180  1  0.31087040  0.11899671  0.24042026  1
  Ni  Ni181  1  0.06883750  0.23282848  0.97068457  1
  Ni  Ni182  1  0.52785735  0.29049518  0.28893213  1
  Ni  Ni183  1  0.02614794  0.40822306  0.03314086  1
  Ni  Ni184  1  0.05003860  0.55688589  0.29282721  1
  Ni  Ni185  1  0.84903470  0.76355190  0.88699640  1
  Ni  Ni186  1  0.91894614  0.87264102  0.42620054  1
  Ni  Ni187  1  0.32460957  0.88136348  0.44649128  1
  Ni  Ni188  1  0.09595775  0.86732001  0.23471445  1
  Ni  Ni189  1  0.07507606  0.88073403  0.39893526  1
  Ni  Ni190  1  0.94939262  0.32666370  0.45183084  1
  Ni  Ni191  1  0.41976212  0.55068672  0.59664245  1
  Ni  Ni192  1  0.58554748  0.29666990  0.74584743  1
  Ni  Ni193  1  0.92572157  0.67841787  0.21659434  1
  Ni  Ni194  1  0.27906284  0.39723270  0.19304477  1
  Ni  Ni195  1  0.41252776  0.90980544  0.90662116  1
  Ni  Ni196  1  0.49824564  0.10633735  0.25543047  1
  Ni  Ni197  1  0.52777828  0.83977193  0.15470263  1
  Ni  Ni198  1  0.81185042  0.80690402  0.09998766  1
  Ni  Ni199  1  0.39102902  0.66560778  0.12067598  1
  Ni  Ni200  1  0.97209840  0.85805250  0.68625189  1
  Ni  Ni201  1  0.08356389  0.42832691  0.73936704  1
  Ni  Ni202  1  0.26164685  0.19484612  0.04937933  1
  Ni  Ni203  1  0.92677186  0.60826273  0.47392149  1
  Ni  Ni204  1  0.75076332  0.69814324  0.35991223  1
  Ni  Ni205  1  0.47669759  0.52916088  0.44215873  1
  Ni  Ni206  1  0.84768463  0.44139546  0.83210865  1
  Ni  Ni207  1  0.59166685  0.65120423  0.03112576  1
  Ni  Ni208  1  0.32126313  0.03607817  0.53067620  1
  Ni  Ni209  1  0.08177538  0.63682434  0.51285557  1
  Ni  Ni210  1  0.78580164  0.27248859  0.95768046  1
  Ni  Ni211  1  0.62699352  0.78717870  0.93869653  1
  Ni  Ni212  1  0.53679002  0.41069162  0.61137418  1
  Ni  Ni213  1  0.55041516  0.47414818  0.88456008  1
  Ni  Ni214  1  0.53953721  0.93709981  0.30147614  1
  Ni  Ni215  1  0.27040927  1.02210335  0.12186572  1
