# generated using pymatgen
data_Ti2CoNi
_symmetry_space_group_name_H-M   'P 1'
_cell_length_a   14.69029212
_cell_length_b   14.68109734
_cell_length_c   14.69784108
_cell_angle_alpha   90.00492120
_cell_angle_beta   89.88126250
_cell_angle_gamma   90.20695525
_symmetry_Int_Tables_number   1
_chemical_formula_structural   Ti2CoNi
_chemical_formula_sum   'Ti108 Co54 Ni54'
_cell_volume   3169.85013823
_cell_formula_units_Z   54
loop_
 _symmetry_equiv_pos_site_id
 _symmetry_equiv_pos_as_xyz
  1  'x, y, z'
loop_
 _atom_site_type_symbol
 _atom_site_label
 _atom_site_symmetry_multiplicity
 _atom_site_fract_x
 _atom_site_fract_y
 _atom_site_fract_z
 _atom_site_occupancy
  Ti  Ti0  1  -0.03914376  0.03660413  0.02025847  1
  Ti  Ti1  1  -0.04262088  -0.02627487  0.36263832  1
  Ti  Ti2  1  -0.04920590  0.00794603  0.65678189  1
  Ti  Ti3  1  -0.00912407  0.27808998  -0.02553230  1
  Ti  Ti4  1  0.01996076  0.37133085  0.24642978  1
  Ti  Ti5  1  -0.03874355  0.34142039  0.62109748  1
  Ti  Ti6  1  0.01815428  0.69426212  0.03804429  1
  Ti  Ti7  1  -0.01752544  0.58930871  0.33266720  1
  Ti  Ti8  1  -0.03422490  0.70105234  0.59439958  1
  Ti  Ti9  1  0.31290608  0.01936702  -0.02808712  1
  Ti  Ti10  1  0.36679893  0.02516120  0.34143185  1
  Ti  Ti11  1  0.37124011  -0.00043931  0.54968510  1
  Ti  Ti12  1  0.40716056  0.36716433  -0.04136707  1
  Ti  Ti13  1  0.28194481  0.30713840  0.36904145  1
  Ti  Ti14  1  0.36912033  0.31430521  0.65444471  1
  Ti  Ti15  1  0.26688212  0.71689901  -0.02192513  1
  Ti  Ti16  1  0.30935810  0.70711984  0.30573239  1
  Ti  Ti17  1  0.38274701  0.66583533  0.70152163  1
  Ti  Ti18  1  0.63727159  -0.01034119  0.03169032  1
  Ti  Ti19  1  0.75989970  -0.07323878  0.43945188  1
  Ti  Ti20  1  0.66395538  0.04059066  0.60833819  1
  Ti  Ti21  1  0.60555792  0.38843975  -0.00018751  1
  Ti  Ti22  1  0.62151394  0.28692591  0.31190894  1
  Ti  Ti23  1  0.68312626  0.34439449  0.63624638  1
  Ti  Ti24  1  0.73180505  0.69351374  -0.04113309  1
  Ti  Ti25  1  0.65570329  0.64671822  0.30020069  1
  Ti  Ti26  1  0.65692307  0.58144571  0.65850602  1
  Ti  Ti27  1  -0.04624557  0.19162146  0.13019922  1
  Ti  Ti28  1  0.02487430  0.22567211  0.46689913  1
  Ti  Ti29  1  -0.01910367  0.24593222  0.77523338  1
  Ti  Ti30  1  0.09081866  0.53784573  0.18688688  1
  Ti  Ti31  1  0.02156761  0.44319991  0.46550379  1
  Ti  Ti32  1  -0.00179512  0.45825775  0.77747535  1
  Ti  Ti33  1  -0.00933061  0.86852366  0.16429105  1
  Ti  Ti34  1  0.05842003  0.85627941  0.51202514  1
  Ti  Ti35  1  -0.00904353  0.86696078  0.91743285  1
  Ti  Ti36  1  0.25695139  0.17092281  0.19831944  1
  Ti  Ti37  1  0.23517739  0.17063283  0.53847756  1
  Ti  Ti38  1  0.39426564  0.18637492  0.83446719  1
  Ti  Ti39  1  0.33901740  0.48940492  0.28703663  1
  Ti  Ti40  1  0.36356903  0.45038884  0.49147130  1
  Ti  Ti41  1  0.33961465  0.47818400  0.81087728  1
  Ti  Ti42  1  0.37650488  0.84353883  0.18292423  1
  Ti  Ti43  1  0.32289648  0.78375367  0.48359788  1
  Ti  Ti44  1  0.31591291  0.88341112  0.70577802  1
  Ti  Ti45  1  0.62465831  0.17323032  0.12657519  1
  Ti  Ti46  1  0.67984709  0.11653796  0.41953808  1
  Ti  Ti47  1  0.68242300  0.18501808  0.91850691  1
  Ti  Ti48  1  0.71660134  0.49329803  0.15591495  1
  Ti  Ti49  1  0.72630057  0.49587211  0.51679362  1
  Ti  Ti50  1  0.67131986  0.54019135  0.86408516  1
  Ti  Ti51  1  0.71168466  0.80542017  0.14279029  1
  Ti  Ti52  1  0.66815184  0.78165384  0.56712707  1
  Ti  Ti53  1  0.60285606  0.79455483  0.83764287  1
  Ti  Ti54  1  0.16928991  -0.03057896  0.10099092  1
  Ti  Ti55  1  0.18190024  -0.01011469  0.44000477  1
  Ti  Ti56  1  0.14809581  0.01194968  0.78624755  1
  Ti  Ti57  1  0.24776552  0.35630614  0.07990039  1
  Ti  Ti58  1  0.17843585  0.36664698  0.53640150  1
  Ti  Ti59  1  0.15685501  0.33935737  0.89886444  1
  Ti  Ti60  1  0.19457525  0.70467620  0.15411891  1
  Ti  Ti61  1  0.16112050  0.61083776  0.51591932  1
  Ti  Ti62  1  0.10497291  0.69147595  0.85998641  1
  Ti  Ti63  1  0.50301522  0.01151542  0.20319135  1
  Ti  Ti64  1  0.52800651  0.01381791  0.45091799  1
  Ti  Ti65  1  0.47969778  -0.04728190  0.84750428  1
  Ti  Ti66  1  0.51893433  0.40464745  0.19507823  1
  Ti  Ti67  1  0.50564605  0.30537861  0.51175028  1
  Ti  Ti68  1  0.63192521  0.35728617  0.81709872  1
  Ti  Ti69  1  0.52441304  0.71158109  0.18457560  1
  Ti  Ti70  1  0.46589697  0.63902313  0.52675020  1
  Ti  Ti71  1  0.42908981  0.64563502  0.89739942  1
  Ti  Ti72  1  0.74601125  0.03628068  0.19989557  1
  Ti  Ti73  1  0.85280742  0.08961896  0.51007337  1
  Ti  Ti74  1  0.82322930  -0.02553105  0.80373347  1
  Ti  Ti75  1  0.81485313  0.33957410  0.24075730  1
  Ti  Ti76  1  0.79972377  0.26615554  0.44166044  1
  Ti  Ti77  1  0.84425068  0.40861786  0.87730783  1
  Ti  Ti78  1  0.84217506  0.62957608  0.10853326  1
  Ti  Ti79  1  0.78533812  0.66019672  0.45180279  1
  Ti  Ti80  1  0.85420344  0.61823675  0.79794881  1
  Ti  Ti81  1  0.15586857  0.17377480  0.03001620  1
  Ti  Ti82  1  0.09652211  0.13201593  0.30951312  1
  Ti  Ti83  1  0.21049936  0.20247572  0.73453134  1
  Ti  Ti84  1  0.15729426  0.53652802  -0.00918661  1
  Ti  Ti85  1  0.17334509  0.47949994  0.36679530  1
  Ti  Ti86  1  0.19690956  0.58623270  0.70538772  1
  Ti  Ti87  1  0.18014131  0.87364924  -0.10348343  1
  Ti  Ti88  1  0.13139486  0.80905528  0.33578511  1
  Ti  Ti89  1  0.11910679  0.80189184  0.69473730  1
  Ti  Ti90  1  0.47750692  0.10783536  0.00578663  1
  Ti  Ti91  1  0.44063943  0.20224218  0.29820486  1
  Ti  Ti92  1  0.51521206  0.08557574  0.72051911  1
  Ti  Ti93  1  0.50302297  0.55388624  0.04849750  1
  Ti  Ti94  1  0.52407520  0.50948116  0.37537270  1
  Ti  Ti95  1  0.50550777  0.47470322  0.69861583  1
  Ti  Ti96  1  0.46827307  0.84041592  0.00220745  1
  Ti  Ti97  1  0.47393546  0.83954339  0.35169072  1
  Ti  Ti98  1  0.51437397  0.89576849  0.64584849  1
  Ti  Ti99  1  0.86242240  0.16148625  -0.09491037  1
  Ti  Ti100  1  0.91144412  0.18057105  0.30384849  1
  Ti  Ti101  1  0.80773403  0.15971569  0.68950459  1
  Ti  Ti102  1  0.88500882  0.40600600  0.07315430  1
  Ti  Ti103  1  0.82043946  0.48310397  0.35091289  1
  Ti  Ti104  1  0.89021104  0.52400456  0.63663851  1
  Ti  Ti105  1  0.80317640  0.86951444  -0.04070874  1
  Ti  Ti106  1  0.91036488  0.78733231  0.35962021  1
  Ti  Ti107  1  0.83967270  0.80418370  0.70676826  1
  Co  Co108  1  0.60813725  0.87329043  0.44644628  1
  Co  Co109  1  0.22822862  0.88567486  0.56691477  1
  Co  Co110  1  0.91714179  0.92405527  0.51420647  1
  Co  Co111  1  0.26089746  0.60751204  0.85889040  1
  Co  Co112  1  0.19417118  0.39532239  0.22622323  1
  Co  Co113  1  0.70772236  0.07861027  0.79402847  1
  Co  Co114  1  0.29611365  0.88019289  0.35160130  1
  Co  Co115  1  0.69557894  0.19922340  0.56138837  1
  Co  Co116  1  0.63386214  0.94487016  0.73987711  1
  Co  Co117  1  0.33408311  0.53041415  0.98330146  1
  Co  Co118  1  0.59255889  0.10962196  0.28327233  1
  Co  Co119  1  0.74366382  0.78590810  0.36425862  1
  Co  Co120  1  0.36677007  0.51874526  0.63415089  1
  Co  Co121  1  0.10347587  0.96448303  0.62535459  1
  Co  Co122  1  0.22197774  0.01933445  0.26622298  1
  Co  Co123  1  0.79747846  0.65892015  0.61761899  1
  Co  Co124  1  0.57054920  0.07676850  0.87828482  1
  Co  Co125  1  0.29305967  0.86102532  0.04914773  1
  Co  Co126  1  0.53472323  0.18444154  0.41791734  1
  Co  Co127  1  0.09976386  0.24957035  0.61393490  1
  Co  Co128  1  0.08278465  0.08793936  0.15642025  1
  Co  Co129  1  0.46108480  0.66875840  0.35604386  1
  Co  Co130  1  0.29129440  0.32124380  0.81395797  1
  Co  Co131  1  0.37094950  0.14984779  0.65114975  1
  Co  Co132  1  -0.00555232  0.58676927  0.89061514  1
  Co  Co133  1  0.66967019  0.93568069  0.89121714  1
  Co  Co134  1  1.01033855  0.43518863  0.93930238  1
  Co  Co135  1  0.21479988  0.85604347  0.20559698  1
  Co  Co136  1  0.74461601  0.19293547  0.26716158  1
  Co  Co137  1  0.08538855  0.48410252  0.61939001  1
  Co  Co138  1  0.82297664  0.89538570  0.25979854  1
  Co  Co139  1  0.38702091  0.14935812  0.47593888  1
  Co  Co140  1  0.52627335  0.14163299  0.57206744  1
  Co  Co141  1  0.89940545  0.50699406  0.20617393  1
  Co  Co142  1  0.40230935  0.69883571  0.05913689  1
  Co  Co143  1  0.50940673  0.48786048  0.88550886  1
  Co  Co144  1  0.89626729  0.71930598  0.93410884  1
  Co  Co145  1  0.93505810  0.33449239  0.37745921  1
  Co  Co146  1  0.08215187  0.95348321  0.27163576  1
  Co  Co147  1  0.06958829  0.12047445  0.70098251  1
  Co  Co148  1  0.62041563  0.82555447  0.28003917  1
  Co  Co149  1  0.95229245  0.17604844  0.60661436  1
  Co  Co150  1  0.47973036  0.80725007  0.51998816  1
  Co  Co151  1  1.03474945  0.61323176  0.71830721  1
  Co  Co152  1  -0.03114027  0.74303447  0.78706781  1
  Co  Co153  1  0.82983317  0.79704077  0.52832123  1
  Co  Co154  1  0.14180886  0.49873364  0.83433132  1
  Co  Co155  1  0.63892463  0.20475074  0.72122938  1
  Co  Co156  1  0.93680765  0.03241286  0.20841965  1
  Co  Co157  1  1.00484497  0.89683402  0.75975120  1
  Co  Co158  1  0.87257921  0.78576323  0.08739233  1
  Co  Co159  1  0.12315372  0.30435408  0.36131202  1
  Co  Co160  1  0.98965752  0.53699046  0.06266238  1
  Co  Co161  1  0.11462278  0.25146326  0.16993448  1
  Ni  Ni162  1  0.65944237  0.63971646  0.10941577  1
  Ni  Ni163  1  0.82624577  0.64685994  0.27670741  1
  Ni  Ni164  1  0.75635294  0.32076978  0.98140311  1
  Ni  Ni165  1  0.08083526  0.38785430  0.08059476  1
  Ni  Ni166  1  0.11313872  1.02356017  0.94967030  1
  Ni  Ni167  1  0.15237437  0.63918404  0.32241960  1
  Ni  Ni168  1  0.41233432  0.15040683  0.14858118  1
  Ni  Ni169  1  0.24567565  0.42484685  0.67186834  1
  Ni  Ni170  1  0.55707091  0.47385662  0.54097388  1
  Ni  Ni171  1  0.76947769  0.45227553  0.73245745  1
  Ni  Ni172  1  0.33726825  1.00459975  0.14391121  1
  Ni  Ni173  1  0.65855991  0.35598847  0.46147117  1
  Ni  Ni174  1  0.34091829  0.87052710  0.88763548  1
  Ni  Ni175  1  0.44316259  0.36423958  0.34853456  1
  Ni  Ni176  1  0.84561658  0.55413449  0.95857138  1
  Ni  Ni177  1  0.52999347  0.24578430  0.91055027  1
  Ni  Ni178  1  0.97569583  0.04689235  0.83535427  1
  Ni  Ni179  1  0.55544052  0.87412137  0.13907475  1
  Ni  Ni180  1  0.26037955  0.75359555  0.79389539  1
  Ni  Ni181  1  0.39233759  0.61170072  0.19465160  1
  Ni  Ni182  1  0.04215996  0.69697795  0.44198833  1
  Ni  Ni183  1  0.61858781  0.61905998  0.46918463  1
  Ni  Ni184  1  0.12056539  0.35593646  0.73372737  1
  Ni  Ni185  1  0.38558829  0.45378126  0.11715248  1
  Ni  Ni186  1  0.86005677  0.40176015  0.50862512  1
  Ni  Ni187  1  0.24976804  0.54051809  0.13783972  1
  Ni  Ni188  1  0.03013106  0.05335481  0.49598004  1
  Ni  Ni189  1  0.81575234  0.05685826  0.34263117  1
  Ni  Ni190  1  0.33234485  0.21348051  0.01477520  1
  Ni  Ni191  1  0.44369248  0.79072415  0.79060447  1
  Ni  Ni192  1  0.12745940  0.81507964  0.04355665  1
  Ni  Ni193  1  0.54937040  0.62466796  0.78984485  1
  Ni  Ni194  1  0.33338776  0.03392335  0.78748931  1
  Ni  Ni195  1  0.24942044  0.72658022  0.62025472  1
  Ni  Ni196  1  0.70834819  0.69974091  0.75970013  1
  Ni  Ni197  1  0.25623143  0.14469800  0.37338243  1
  Ni  Ni198  1  0.35788359  0.31877328  0.20594376  1
  Ni  Ni199  1  0.91020187  0.56640040  0.48266705  1
  Ni  Ni200  1  0.84109983  0.94402877  0.10003365  1
  Ni  Ni201  1  0.78154760  0.28103757  0.79225622  1
  Ni  Ni202  1  0.67123145  0.32926856  0.14541093  1
  Ni  Ni203  1  0.56383728  0.70252822  0.99057145  1
  Ni  Ni204  1  0.78130440  0.08360603  0.03442535  1
  Ni  Ni205  1  0.31160087  0.59820187  0.43297520  1
  Ni  Ni206  1  0.08035162  0.16806675  0.87495914  1
  Ni  Ni207  1  0.66341186  0.44945536  0.30796789  1
  Ni  Ni208  1  0.46020521  0.34702168  0.79775639  1
  Ni  Ni209  1  0.24235919  0.04097157  0.64604270  1
  Ni  Ni210  1  0.54192807  0.72843160  0.66470494  1
  Ni  Ni211  1  0.24100449  0.14566737  0.88856184  1
  Ni  Ni212  1  0.97858612  0.69429764  0.20345665  1
  Ni  Ni213  1  0.79120963  0.94104317  0.62170477  1
  Ni  Ni214  1  0.49049411  0.27839860  0.07911277  1
  Ni  Ni215  1  0.79680209  0.23016738  0.11065787  1
