# generated using pymatgen
data_Ti2CoNi
_symmetry_space_group_name_H-M   'P 1'
_cell_length_a   14.57970430
_cell_length_b   14.63063018
_cell_length_c   14.61183870
_cell_angle_alpha   89.42558897
_cell_angle_beta   90.04090509
_cell_angle_gamma   90.08072131
_symmetry_Int_Tables_number   1
_chemical_formula_structural   Ti2CoNi
_chemical_formula_sum   'Ti108 Co54 Ni54'
_cell_volume   3116.69464801
_cell_formula_units_Z   54
loop_
 _symmetry_equiv_pos_site_id
 _symmetry_equiv_pos_as_xyz
  1  'x, y, z'
loop_
 _atom_site_type_symbol
 _atom_site_label
 _atom_site_symmetry_multiplicity
 _atom_site_fract_x
 _atom_site_fract_y
 _atom_site_fract_z
 _atom_site_occupancy
  Ti  Ti0  1  0.05313405  0.03033919  0.06684750  1
  Ti  Ti1  1  -0.02709705  -0.06978997  0.34585358  1
  Ti  Ti2  1  -0.01597623  -0.05607917  0.77008842  1
  Ti  Ti3  1  0.03118890  0.38822598  -0.01898278  1
  Ti  Ti4  1  0.00276461  0.41417414  0.26043668  1
  Ti  Ti5  1  0.00117373  0.38912076  0.67876125  1
  Ti  Ti6  1  -0.07332292  0.66700105  -0.00330465  1
  Ti  Ti7  1  0.01166011  0.65607072  0.24876391  1
  Ti  Ti8  1  0.01177779  0.63243926  0.63973898  1
  Ti  Ti9  1  0.28589531  -0.05548097  -0.04501120  1
  Ti  Ti10  1  0.30850194  -0.03662706  0.37388768  1
  Ti  Ti11  1  0.28621755  -0.04300904  0.70545190  1
  Ti  Ti12  1  0.39284300  0.31234087  -0.00256637  1
  Ti  Ti13  1  0.27914482  0.30728241  0.35703775  1
  Ti  Ti14  1  0.29629313  0.29184974  0.68073753  1
  Ti  Ti15  1  0.33558035  0.67607553  0.01537515  1
  Ti  Ti16  1  0.32486466  0.66987423  0.30161485  1
  Ti  Ti17  1  0.41766049  0.74461680  0.64439220  1
  Ti  Ti18  1  0.65089340  0.05269829  -0.03194725  1
  Ti  Ti19  1  0.71319545  0.07297010  0.38715306  1
  Ti  Ti20  1  0.75880385  -0.03834172  0.55935058  1
  Ti  Ti21  1  0.68633285  0.25178751  -0.03859864  1
  Ti  Ti22  1  0.70807734  0.37895085  0.33597799  1
  Ti  Ti23  1  0.61138405  0.40572971  0.69050335  1
  Ti  Ti24  1  0.62210796  0.71051631  -0.04980731  1
  Ti  Ti25  1  0.61823418  0.68494704  0.25922234  1
  Ti  Ti26  1  0.63556338  0.73270650  0.67855639  1
  Ti  Ti27  1  -0.01494559  0.15391460  0.21183373  1
  Ti  Ti28  1  0.00220486  0.24154490  0.50647424  1
  Ti  Ti29  1  -0.08121297  0.11971766  0.84079424  1
  Ti  Ti30  1  -0.00656869  0.53186454  0.10779933  1
  Ti  Ti31  1  0.00958604  0.58093444  0.43802509  1
  Ti  Ti32  1  0.08145873  0.47829921  0.82811433  1
  Ti  Ti33  1  -0.04546767  0.84685844  0.12727519  1
  Ti  Ti34  1  0.08045406  0.81795423  0.56634921  1
  Ti  Ti35  1  0.05904542  0.76461080  0.89581486  1
  Ti  Ti36  1  0.35215665  0.20122247  0.20647367  1
  Ti  Ti37  1  0.36709216  0.17616347  0.46094576  1
  Ti  Ti38  1  0.37477983  0.11728975  0.89169763  1
  Ti  Ti39  1  0.29275162  0.39950921  0.16222788  1
  Ti  Ti40  1  0.41393726  0.46971153  0.49758858  1
  Ti  Ti41  1  0.36563463  0.51297004  0.85398794  1
  Ti  Ti42  1  0.35136639  0.82120786  0.11950085  1
  Ti  Ti43  1  0.38739215  0.91044057  0.53954147  1
  Ti  Ti44  1  0.33830123  0.80231077  0.82813094  1
  Ti  Ti45  1  0.67696683  0.13041005  0.13546157  1
  Ti  Ti46  1  0.68628737  0.15190119  0.56125448  1
  Ti  Ti47  1  0.68634186  0.12670753  0.78544912  1
  Ti  Ti48  1  0.67744462  0.49505111  0.16470544  1
  Ti  Ti49  1  0.68733543  0.56845246  0.60281714  1
  Ti  Ti50  1  0.72762518  0.42713318  0.85747954  1
  Ti  Ti51  1  0.68626561  0.84252880  0.16191797  1
  Ti  Ti52  1  0.64739055  0.73617901  0.46293963  1
  Ti  Ti53  1  0.61187393  0.88634054  0.85760309  1
  Ti  Ti54  1  0.11628052  -0.01368853  0.24347480  1
  Ti  Ti55  1  0.12649509  -0.00836399  0.46393575  1
  Ti  Ti56  1  0.12684864  0.05122277  0.84192439  1
  Ti  Ti57  1  0.13936323  0.27091987  0.19148643  1
  Ti  Ti58  1  0.16656075  0.35285117  0.51333655  1
  Ti  Ti59  1  0.12378815  0.28104411  0.81064508  1
  Ti  Ti60  1  0.19931371  0.68332440  0.16955125  1
  Ti  Ti61  1  0.17276722  0.64478223  0.51126550  1
  Ti  Ti62  1  0.22168826  0.63869458  0.87101427  1
  Ti  Ti63  1  0.41573723  -0.01636058  0.19763103  1
  Ti  Ti64  1  0.53064288  0.05191466  0.45889037  1
  Ti  Ti65  1  0.48289270  0.01805791  0.72957359  1
  Ti  Ti66  1  0.50068234  0.43540317  0.09943133  1
  Ti  Ti67  1  0.56676861  0.34436402  0.49531144  1
  Ti  Ti68  1  0.46289437  0.33945518  0.79667703  1
  Ti  Ti69  1  0.46934945  0.61215180  0.17053191  1
  Ti  Ti70  1  0.47387062  0.64772312  0.40765733  1
  Ti  Ti71  1  0.50311878  0.68391439  0.81219202  1
  Ti  Ti72  1  0.84418026  0.00947549  0.10982193  1
  Ti  Ti73  1  0.94227615  -0.05789591  0.54792592  1
  Ti  Ti74  1  0.81143010  -0.05789613  0.88501156  1
  Ti  Ti75  1  0.76293505  0.29450010  0.14604964  1
  Ti  Ti76  1  0.81648647  0.30851508  0.54352139  1
  Ti  Ti77  1  0.82307317  0.27932305  0.78399752  1
  Ti  Ti78  1  0.83194802  0.69822543  0.18117103  1
  Ti  Ti79  1  0.82788033  0.67017287  0.48922381  1
  Ti  Ti80  1  0.83074075  0.61579099  0.83871236  1
  Ti  Ti81  1  0.09488557  0.20970828  0.00080039  1
  Ti  Ti82  1  0.16237816  0.14252258  0.34962673  1
  Ti  Ti83  1  0.19897666  0.10880588  0.63877296  1
  Ti  Ti84  1  0.20686019  0.51239969  0.01993392  1
  Ti  Ti85  1  0.24250932  0.51168929  0.39357922  1
  Ti  Ti86  1  0.20933968  0.56941957  0.68474638  1
  Ti  Ti87  1  0.14456632  0.84671765  0.08135817  1
  Ti  Ti88  1  0.17740958  0.80922013  0.38805306  1
  Ti  Ti89  1  0.19201841  0.75733895  0.71631043  1
  Ti  Ti90  1  0.49593395  0.11626276  0.06079282  1
  Ti  Ti91  1  0.53704467  0.22651631  0.33019170  1
  Ti  Ti92  1  0.49708405  0.21347712  0.61606886  1
  Ti  Ti93  1  0.56263618  0.50898939  -0.11403082  1
  Ti  Ti94  1  0.54423666  0.47962225  0.32066310  1
  Ti  Ti95  1  0.49194982  0.55753299  0.67066453  1
  Ti  Ti96  1  0.50843323  0.90770162  0.02183946  1
  Ti  Ti97  1  0.50927181  0.86838547  0.35793299  1
  Ti  Ti98  1  0.57075540  0.90102877  0.59373821  1
  Ti  Ti99  1  0.89960032  0.21839385  0.01015182  1
  Ti  Ti100  1  0.84204759  0.21859898  0.33520451  1
  Ti  Ti101  1  0.87820030  0.11366657  0.64595596  1
  Ti  Ti102  1  0.84544865  0.41924168  0.01729829  1
  Ti  Ti103  1  0.84786352  0.48588820  0.38830857  1
  Ti  Ti104  1  0.86774400  0.51106589  0.58491372  1
  Ti  Ti105  1  0.79087409  0.78344793  -0.00772779  1
  Ti  Ti106  1  0.76617515  0.88839539  0.34749352  1
  Ti  Ti107  1  0.83987739  0.82474730  0.70728933  1
  Co  Co108  1  0.58253105  0.56701388  0.04772735  1
  Co  Co109  1  0.81086252  0.65782122  0.67510952  1
  Co  Co110  1  0.79449466  0.10628603  -0.01810528  1
  Co  Co111  1  0.72734194  0.75267948  0.81905842  1
  Co  Co112  1  0.54942879  0.36520787  0.93611412  1
  Co  Co113  1  0.42805812  1.06022441  0.57996714  1
  Co  Co114  1  0.01550612  0.74871509  0.41198439  1
  Co  Co115  1  0.62800092  0.04283187  0.65534287  1
  Co  Co116  1  0.42563394  0.94255485  0.87652735  1
  Co  Co117  1  0.21986657  0.79244473  0.94456485  1
  Co  Co118  1  0.45842578  0.78846199  0.93552064  1
  Co  Co119  1  0.07143913  0.63435091  0.79366237  1
  Co  Co120  1  0.07007193  0.27264464  0.35229014  1
  Co  Co121  1  0.63720240  0.91591415  0.44876109  1
  Co  Co122  1  -0.02322463  0.27483058  0.86548469  1
  Co  Co123  1  0.35280152  0.60666607  0.56345592  1
  Co  Co124  1  0.69788701  0.91503817  1.01715023  1
  Co  Co125  1  0.43367704  0.34426473  0.38945282  1
  Co  Co126  1  0.87275630  0.82465410  0.44842007  1
  Co  Co127  1  0.94064324  0.02979259  0.96336681  1
  Co  Co128  1  0.51670538  0.21243082  0.92787394  1
  Co  Co129  1  0.94353253  0.86895133  -0.02646404  1
  Co  Co130  1  0.31349446  0.56164098  0.15377441  1
  Co  Co131  1  0.92653220  0.75942952  0.58387988  1
  Co  Co132  1  0.68790579  0.24744161  0.43275313  1
  Co  Co133  1  0.10379209  0.96657559  0.65518672  1
  Co  Co134  1  0.17082747  0.39633029  0.29234565  1
  Co  Co135  1  0.68821034  0.19724146  0.27632668  1
  Co  Co136  1  0.34290324  0.63900793  0.74375856  1
  Co  Co137  1  0.27833049  0.04429141  0.51321435  1
  Co  Co138  1  0.90188437  0.79879808  0.28663718  1
  Co  Co139  1  0.12099832  0.25542804  0.64556407  1
  Co  Co140  1  0.75327131  0.73067290  0.33079780  1
  Co  Co141  1  0.89515392  0.77785777  0.85309322  1
  Co  Co142  1  0.35388217  0.32279013  0.53619567  1
  Co  Co143  1  0.37330033  0.82279834  0.28774398  1
  Co  Co144  1  0.68340368  0.88666897  0.71308531  1
  Co  Co145  1  0.91768155  0.33963896  0.38211950  1
  Co  Co146  1  0.74962035  0.80026220  0.57087344  1
  Co  Co147  1  0.67744821  0.40799553  0.02623233  1
  Co  Co148  1  0.95627358  0.24051433  0.69527830  1
  Co  Co149  1  0.88566716  0.64562984  0.34241677  1
  Co  Co150  1  0.25749093  0.47790680  0.55721158  1
  Co  Co151  1  0.19542433  0.19455861  0.49626905  1
  Co  Co152  1  0.46544476  0.62293301  0.95967181  1
  Co  Co153  1  0.52099614  0.73068474  0.07830711  1
  Co  Co154  1  0.96168458  0.40476636  0.52191682  1
  Co  Co155  1  0.77331049  0.56317292  0.26105773  1
  Co  Co156  1  0.63028626  0.28958846  0.81484518  1
  Co  Co157  1  0.27463662  0.06735773  0.25533712  1
  Co  Co158  1  0.38000919  0.48961615  0.01406376  1
  Co  Co159  1  0.22473407  0.89770938  0.55199234  1
  Co  Co160  1  0.51279965  0.18535446  0.76963638  1
  Co  Co161  1  0.53051888  0.06161781  0.87787921  1
  Ni  Ni162  1  0.78726387  0.41711646  0.68835694  1
  Ni  Ni163  1  0.49183389  0.85235716  0.74816969  1
  Ni  Ni164  1  0.06864727  0.42999207  0.40991553  1
  Ni  Ni165  1  0.37876244  0.48153503  0.28877847  1
  Ni  Ni166  1  0.05788868  0.70249196  0.08502963  1
  Ni  Ni167  1  0.20034053  0.35585563  0.96897742  1
  Ni  Ni168  1  0.15445367  0.88743220  0.79985273  1
  Ni  Ni169  1  0.60577665  0.34125252  0.21324155  1
  Ni  Ni170  1  0.92227274  0.52909807  0.74129612  1
  Ni  Ni171  1  0.72195644  0.56285109  0.95781900  1
  Ni  Ni172  1  0.89917306  0.41712687  0.85456741  1
  Ni  Ni173  1  0.44124597  0.33720415  0.22306605  1
  Ni  Ni174  1  -0.00934330  0.11563132  0.38083103  1
  Ni  Ni175  1  0.09451639  0.92441899  0.94362122  1
  Ni  Ni176  1  0.85292863  0.12079223  0.48429396  1
  Ni  Ni177  1  0.36091631  0.13653549  0.71102903  1
  Ni  Ni178  1  0.15195447  0.65370318  0.34368307  1
  Ni  Ni179  1  0.21070491  0.09524639  0.97981277  1
  Ni  Ni180  1  0.71451780  0.43876958  0.50070830  1
  Ni  Ni181  1  0.49719687  0.77416367  0.50926491  1
  Ni  Ni182  1  0.82145092  0.56577967  0.08834593  1
  Ni  Ni183  1  0.04746110  0.11457087  0.71685102  1
  Ni  Ni184  1  0.72209232  1.00020443  0.23080105  1
  Ni  Ni185  1  0.69601432  0.26836209  0.66979551  1
  Ni  Ni186  1  0.34754595  0.77613889  0.43915266  1
  Ni  Ni187  1  0.26876563  0.75009539  0.57614399  1
  Ni  Ni188  1  0.26038440  0.23958265  0.06663147  1
  Ni  Ni189  1  0.06901129  0.58554292  0.95791550  1
  Ni  Ni190  1  0.55852900  0.27054069  0.07950003  1
  Ni  Ni191  1  0.79554377  0.00342632  0.72937999  1
  Ni  Ni192  1  0.42242485  0.09125559  0.32594317  1
  Ni  Ni193  1  0.11696717  0.41236765  0.12213806  1
  Ni  Ni194  1  0.23652010  0.16411578  0.80956143  1
  Ni  Ni195  1  0.17061821  0.12174242  0.14492474  1
  Ni  Ni196  1  1.01911791  0.78533742  0.72836226  1
  Ni  Ni197  1  0.24483430  0.97327946  0.12008675  1
  Ni  Ni198  1  0.17411448  0.40726126  0.69729078  1
  Ni  Ni199  1  0.22826636  0.86008984  0.23684913  1
  Ni  Ni200  1  0.66952419  0.58828907  0.77887933  1
  Ni  Ni201  1  0.68732668  0.67444457  0.10293631  1
  Ni  Ni202  1  0.57503122  0.06115641  0.28217749  1
  Ni  Ni203  1  0.84135553  0.41063749  0.22388840  1
  Ni  Ni204  1  1.03257132  0.08952103  0.55212703  1
  Ni  Ni205  1  0.09246343  0.49938181  0.56490003  1
  Ni  Ni206  1  0.51196338  0.83090502  0.19721847  1
  Ni  Ni207  1  0.35586322  0.46106634  0.68805734  1
  Ni  Ni208  1  0.58614607  0.98246458  0.13995091  1
  Ni  Ni209  1  0.95978365  0.31843521  0.12807896  1
  Ni  Ni210  1  0.33993681  0.09297837  0.07390209  1
  Ni  Ni211  1  0.07040758  0.81140961  0.24795131  1
  Ni  Ni212  1  0.86450947  0.05116150  0.29303162  1
  Ni  Ni213  1  0.13747203  0.53829647  0.22638043  1
  Ni  Ni214  1  0.68532746  0.58188730  0.39329469  1
  Ni  Ni215  1  0.56956169  0.52461492  0.49687566  1
