# generated using pymatgen
data_Ti2CoNi
_symmetry_space_group_name_H-M   'P 1'
_cell_length_a   14.55020466
_cell_length_b   14.60627135
_cell_length_c   14.53182737
_cell_angle_alpha   90.07796328
_cell_angle_beta   89.68067011
_cell_angle_gamma   89.71136885
_symmetry_Int_Tables_number   1
_chemical_formula_structural   Ti2CoNi
_chemical_formula_sum   'Ti108 Co54 Ni54'
_cell_volume   3088.27540045
_cell_formula_units_Z   54
loop_
 _symmetry_equiv_pos_site_id
 _symmetry_equiv_pos_as_xyz
  1  'x, y, z'
loop_
 _atom_site_type_symbol
 _atom_site_label
 _atom_site_symmetry_multiplicity
 _atom_site_fract_x
 _atom_site_fract_y
 _atom_site_fract_z
 _atom_site_occupancy
  Ti  Ti0  1  -0.03719745  0.01679209  -0.05436551  1
  Ti  Ti1  1  0.09128889  -0.05016251  0.38818892  1
  Ti  Ti2  1  -0.00145872  -0.08354350  0.61905976  1
  Ti  Ti3  1  -0.00510262  0.38999827  -0.02161264  1
  Ti  Ti4  1  0.02203793  0.30722025  0.39346344  1
  Ti  Ti5  1  0.02437824  0.31489893  0.65535822  1
  Ti  Ti6  1  0.01495057  0.62101340  0.04658443  1
  Ti  Ti7  1  -0.10766778  0.69324468  0.31849051  1
  Ti  Ti8  1  0.06139308  0.64936527  0.73641314  1
  Ti  Ti9  1  0.35299286  0.00776117  -0.03628114  1
  Ti  Ti10  1  0.31827756  0.00745643  0.37737052  1
  Ti  Ti11  1  0.34550487  0.05137977  0.64471491  1
  Ti  Ti12  1  0.31848356  0.38525295  0.02133841  1
  Ti  Ti13  1  0.29550237  0.32053736  0.30320196  1
  Ti  Ti14  1  0.25244665  0.30039146  0.59288344  1
  Ti  Ti15  1  0.30650798  0.70621086  -0.04742771  1
  Ti  Ti16  1  0.33365912  0.65126071  0.39056140  1
  Ti  Ti17  1  0.29677413  0.65755645  0.65661843  1
  Ti  Ti18  1  0.65414270  0.01524546  0.00472852  1
  Ti  Ti19  1  0.73414503  -0.04266697  0.38639748  1
  Ti  Ti20  1  0.63054557  -0.01730299  0.67756926  1
  Ti  Ti21  1  0.68487855  0.31254623  -0.00811093  1
  Ti  Ti22  1  0.61245666  0.39264760  0.28148975  1
  Ti  Ti23  1  0.75195804  0.33967631  0.68096914  1
  Ti  Ti24  1  0.58558837  0.64363126  0.02548324  1
  Ti  Ti25  1  0.71103537  0.64037944  0.36851238  1
  Ti  Ti26  1  0.61372626  0.66162524  0.69513150  1
  Ti  Ti27  1  0.01115980  0.09595238  0.11769582  1
  Ti  Ti28  1  -0.03646464  0.15485216  0.49342896  1
  Ti  Ti29  1  0.02221638  0.16415462  0.81928308  1
  Ti  Ti30  1  -0.01526926  0.44323264  0.20308902  1
  Ti  Ti31  1  0.01944986  0.51143427  0.55323747  1
  Ti  Ti32  1  -0.10224702  0.53963399  0.85427264  1
  Ti  Ti33  1  -0.00392576  0.86873039  0.23396763  1
  Ti  Ti34  1  -0.02357307  0.79937319  0.44839327  1
  Ti  Ti35  1  0.02812270  0.83468405  0.78987615  1
  Ti  Ti36  1  0.37936965  0.14652792  0.26074394  1
  Ti  Ti37  1  0.35736596  0.17478810  0.46533409  1
  Ti  Ti38  1  0.33407585  0.22754209  0.93199801  1
  Ti  Ti39  1  0.28649561  0.55146729  0.10532097  1
  Ti  Ti40  1  0.34299950  0.43506844  0.50706491  1
  Ti  Ti41  1  0.32025010  0.47349180  0.76924210  1
  Ti  Ti42  1  0.39153376  0.91747260  0.15194513  1
  Ti  Ti43  1  0.31883485  0.86108905  0.57553292  1
  Ti  Ti44  1  0.36136262  0.82418439  0.75660981  1
  Ti  Ti45  1  0.75516334  0.19802456  0.25803915  1
  Ti  Ti46  1  0.70616774  0.20483824  0.46609672  1
  Ti  Ti47  1  0.63757395  0.26793827  0.81410943  1
  Ti  Ti48  1  0.67367533  0.48356921  0.11101554  1
  Ti  Ti49  1  0.69797611  0.44237631  0.50069547  1
  Ti  Ti50  1  0.67080316  0.52151157  0.81324806  1
  Ti  Ti51  1  0.58737347  0.79460034  0.16287132  1
  Ti  Ti52  1  0.61399309  0.79905998  0.36878228  1
  Ti  Ti53  1  0.70173348  0.83979938  0.76381113  1
  Ti  Ti54  1  0.17193488  -0.03340148  0.06561617  1
  Ti  Ti55  1  0.19982444  -0.00325603  0.52082036  1
  Ti  Ti56  1  0.15527862  -0.03537462  0.87504150  1
  Ti  Ti57  1  0.18088397  0.41753113  0.19735115  1
  Ti  Ti58  1  0.16468770  0.41036342  0.41309333  1
  Ti  Ti59  1  0.20850833  0.24514962  0.76532227  1
  Ti  Ti60  1  0.22279931  0.68611447  0.21727565  1
  Ti  Ti61  1  0.16589285  0.70801767  0.50261516  1
  Ti  Ti62  1  0.12747311  0.73178068  0.91446690  1
  Ti  Ti63  1  0.54479490  0.07696349  0.18687563  1
  Ti  Ti64  1  0.49762810  0.02365428  0.52828654  1
  Ti  Ti65  1  0.51711331  0.04336681  0.83615021  1
  Ti  Ti66  1  0.54928475  0.32295520  0.11487266  1
  Ti  Ti67  1  0.47657964  0.28657421  0.55567199  1
  Ti  Ti68  1  0.49138296  0.41948171  0.83656443  1
  Ti  Ti69  1  0.42189138  0.70555166  0.11742365  1
  Ti  Ti70  1  0.53702577  0.63832603  0.48389080  1
  Ti  Ti71  1  0.46791100  0.69933966  0.86227244  1
  Ti  Ti72  1  0.84663354  0.01260144  0.21492683  1
  Ti  Ti73  1  0.88300277  -0.00506159  0.50069060  1
  Ti  Ti74  1  0.85619760  -0.04222928  0.78011207  1
  Ti  Ti75  1  0.92425267  0.27254145  0.13076878  1
  Ti  Ti76  1  0.88328816  0.36096805  0.53872097  1
  Ti  Ti77  1  0.84877886  0.27779771  0.88614270  1
  Ti  Ti78  1  0.75801872  0.65614290  0.15496710  1
  Ti  Ti79  1  0.83366571  0.66188171  0.52410050  1
  Ti  Ti80  1  0.79144512  0.69233442  0.84319716  1
  Ti  Ti81  1  0.15150088  0.25797088  0.06747498  1
  Ti  Ti82  1  0.16633142  0.14865972  0.28649887  1
  Ti  Ti83  1  0.08113040  0.11372996  0.63126064  1
  Ti  Ti84  1  0.21005991  0.52657843  -0.06710193  1
  Ti  Ti85  1  0.10397325  0.58961852  0.33994125  1
  Ti  Ti86  1  0.13519244  0.45551951  0.74604205  1
  Ti  Ti87  1  0.09371504  0.79446230  0.10068993  1
  Ti  Ti88  1  0.21922395  0.88810674  0.24975281  1
  Ti  Ti89  1  0.17937976  0.92331781  0.69478653  1
  Ti  Ti90  1  0.51422094  0.16428692  -0.01099161  1
  Ti  Ti91  1  0.55983899  0.22116329  0.33406912  1
  Ti  Ti92  1  0.53596290  0.15408967  0.67735065  1
  Ti  Ti93  1  0.46986405  0.49874949  0.04351468  1
  Ti  Ti94  1  0.43404404  0.47524479  0.34207288  1
  Ti  Ti95  1  0.53294520  0.48175954  0.62384901  1
  Ti  Ti96  1  0.57757921  0.84585294  -0.03657717  1
  Ti  Ti97  1  0.42841964  0.84802612  0.39582305  1
  Ti  Ti98  1  0.52925569  0.82612866  0.58286949  1
  Ti  Ti99  1  0.80889494  0.14140562  0.05198063  1
  Ti  Ti100  1  0.94976403  0.17787828  0.28520976  1
  Ti  Ti101  1  0.75328825  0.13552549  0.71147867  1
  Ti  Ti102  1  0.85586050  0.53430336  0.04927704  1
  Ti  Ti103  1  0.85029637  0.49474381  0.39518255  1
  Ti  Ti104  1  0.79990375  0.52061582  0.65814305  1
  Ti  Ti105  1  0.87567017  0.80736686  -0.01510309  1
  Ti  Ti106  1  0.77713254  0.82664547  0.22903115  1
  Ti  Ti107  1  0.80712288  0.84582303  0.58901749  1
  Co  Co108  1  0.41905724  0.82647233  0.01260304  1
  Co  Co109  1  0.64796590  0.18090187  0.08921172  1
  Co  Co110  1  0.40227047  0.57213978  0.55291302  1
  Co  Co111  1  0.67061294  0.74203753  0.52705654  1
  Co  Co112  1  0.92038101  0.58703683  0.20503502  1
  Co  Co113  1  0.17843091  0.65740047  0.05214884  1
  Co  Co114  1  0.76130720  0.69904277  0.66764564  1
  Co  Co115  1  0.72142899  0.75223354  0.03136473  1
  Co  Co116  1  0.70643190  0.05098226  0.16788434  1
  Co  Co117  1  0.87625654  0.35028060  0.28002713  1
  Co  Co118  1  0.31411794  0.97589462  0.80114155  1
  Co  Co119  1  -0.00055897  0.46695371  0.37746315  1
  Co  Co120  1  0.11555457  0.85733754  0.52390660  1
  Co  Co121  1  0.54063319  0.33518964  0.70623711  1
  Co  Co122  1  0.56848804  0.95085205  0.40401010  1
  Co  Co123  1  0.73910062  0.35071239  0.36858534  1
  Co  Co124  1  0.37169734  0.12009270  0.80351214  1
  Co  Co125  1  0.21339451  0.24434815  0.41870089  1
  Co  Co126  1  0.63272548  0.92829962  0.24148879  1
  Co  Co127  1  0.64957995  0.08242202  0.32932993  1
  Co  Co128  1  0.81749132  0.10067324  0.38934492  1
  Co  Co129  1  0.99363310  0.74290746  0.59793980  1
  Co  Co130  1  0.44797576  0.89873625  0.87205504  1
  Co  Co131  1  0.38675702  0.37246266  0.67281586  1
  Co  Co132  1  0.20668761  0.08753805  0.72853133  1
  Co  Co133  1  0.46455132  0.96286693  0.28254894  1
  Co  Co134  1  0.03786997  0.70430300  0.23103642  1
  Co  Co135  1  0.15990260  0.58279676  0.62976097  1
  Co  Co136  1  0.78352490  0.79189798  0.42014012  1
  Co  Co137  1  0.89696629  0.24379368  0.72470167  1
  Co  Co138  1  0.72847062  0.59668915  0.96666755  1
  Co  Co139  1  0.11486081  0.11481256  0.43665831  1
  Co  Co140  1  0.90707203  0.74840087  0.13655552  1
  Co  Co141  1  0.51720683  0.49694485  0.19497494  1
  Co  Co142  1  0.23002922  0.14567740  0.56699536  1
  Co  Co143  1  0.26425303  0.80908049  0.09587383  1
  Co  Co144  1  0.09998448  0.25877744  0.53165437  1
  Co  Co145  1  0.84759113  0.40366154  0.78440419  1
  Co  Co146  1  0.21439982  0.78829720  0.79346071  1
  Co  Co147  1  0.74085341  0.87505484  0.91886748  1
  Co  Co148  1  0.10916549  0.57087315  0.17191808  1
  Co  Co149  1  0.67793610  0.58808525  0.55948026  1
  Co  Co150  1  0.10281347  0.10714101  -0.01699358  1
  Co  Co151  1  0.26407531  0.50968527  0.30952715  1
  Co  Co152  1  0.96135288  0.19372647  -0.01814182  1
  Co  Co153  1  0.10487513  0.25982403  0.91523837  1
  Co  Co154  1  0.36996986  0.20834048  0.66507109  1
  Co  Co155  1  0.27760648  0.86678893  0.92854228  1
  Co  Co156  1  0.14444071  0.76651460  0.65426465  1
  Co  Co157  1  0.73531841  0.90204365  0.09206118  1
  Co  Co158  1  0.85906604  0.25709982  0.41139666  1
  Co  Co159  1  0.82786941  0.19806076  0.57680362  1
  Co  Co160  1  0.60705142  0.63123621  0.20925992  1
  Co  Co161  1  0.48475324  0.08806015  0.38238948  1
  Ni  Ni162  1  0.21775838  0.36564941  0.88646494  1
  Ni  Ni163  1  0.43177532  0.31656305  0.39707414  1
  Ni  Ni164  1  0.70043493  0.01203198  0.83338493  1
  Ni  Ni165  1  0.38336020  0.55417642  0.91195126  1
  Ni  Ni166  1  0.38363140  0.59459074  0.23355724  1
  Ni  Ni167  1  0.46239575  0.95231426  0.69895274  1
  Ni  Ni168  1  0.66391798  0.90559875  0.53145169  1
  Ni  Ni169  1  0.47042902  0.23821222  0.82266595  1
  Ni  Ni170  1  0.75414096  0.50216542  0.26076911  1
  Ni  Ni171  1  0.53973731  0.81610154  0.75951298  1
  Ni  Ni172  1  0.88527740  0.89458131  0.34909664  1
  Ni  Ni173  1  0.88204449  0.79425228  0.73235151  1
  Ni  Ni174  1  0.96787315  0.03302309  0.33931270  1
  Ni  Ni175  1  0.60812214  0.45816141  0.95831419  1
  Ni  Ni176  1  0.02622118  0.00544487  0.76552813  1
  Ni  Ni177  1  0.12354755  0.45843483  0.04845597  1
  Ni  Ni178  1  0.72858915  0.32503598  0.16627231  1
  Ni  Ni179  1  0.08227278  0.28108590  0.22781581  1
  Ni  Ni180  1  0.91352528  0.07994606  0.66707811  1
  Ni  Ni181  1  0.45710806  0.69882340  0.66559554  1
  Ni  Ni182  1  0.35072692  0.77585023  0.26582503  1
  Ni  Ni183  1  0.49447231  0.69097165  0.31466249  1
  Ni  Ni184  1  0.26398953  0.04276571  0.18552710  1
  Ni  Ni185  1  0.92693018  0.92563945  0.09121876  1
  Ni  Ni186  1  0.21458128  0.61903392  0.79926880  1
  Ni  Ni187  1  0.58508221  0.34815380  0.44599222  1
  Ni  Ni188  1  0.96164811  0.69764783  0.87875859  1
  Ni  Ni189  1  0.10081157  1.00981521  0.22141897  1
  Ni  Ni190  1  0.45142997  0.30209890  0.23604793  1
  Ni  Ni191  1  0.00748502  0.35902364  0.81787178  1
  Ni  Ni192  1  0.98247400  0.62927375  0.44998430  1
  Ni  Ni193  1  0.39544069  0.10030319  0.09782802  1
  Ni  Ni194  1  0.69072009  0.15433622  0.91882079  1
  Ni  Ni195  1  0.03669951  0.86968505  0.96461238  1
  Ni  Ni196  1  0.13363631  0.76951954  0.34472170  1
  Ni  Ni197  1  0.90663548  0.63531871  0.69666494  1
  Ni  Ni198  1  0.36259870  0.42530218  0.18134759  1
  Ni  Ni199  1  0.63905283  0.26829973  0.59717720  1
  Ni  Ni200  1  0.16712851  0.43226149  0.57849038  1
  Ni  Ni201  1  0.05607851  0.54780557  0.88405173  1
  Ni  Ni202  1  0.22690880  0.55442293  0.47861457  1
  Ni  Ni203  1  0.31232751  0.25205927  0.13185401  1
  Ni  Ni204  1  0.83276282  0.37368520  0.05359270  1
  Ni  Ni205  1  0.63406241  0.71320951  0.87159279  1
  Ni  Ni206  1  0.84459203  0.11182527  0.86275739  1
  Ni  Ni207  1  0.47316584  0.56447456  0.75991156  1
  Ni  Ni208  1  0.39058487  0.73312163  0.51815870  1
  Ni  Ni209  1  0.72327170  0.05774802  0.55125348  1
  Ni  Ni210  1  0.97105709  0.48144872  0.70914980  1
  Ni  Ni211  1  0.47938266  0.32612017  0.96768645  1
  Ni  Ni212  1  0.77064181  0.44476881  0.92207186  1
  Ni  Ni213  1  0.22739709  0.11410743  0.88656404  1
  Ni  Ni214  1  0.25811999  0.84394527  0.41818577  1
  Ni  Ni215  1  0.58647660  0.54078134  0.35142420  1
