# generated using pymatgen
data_Ti2CoNi
_symmetry_space_group_name_H-M   'P 1'
_cell_length_a   14.63670750
_cell_length_b   14.60679275
_cell_length_c   14.60406241
_cell_angle_alpha   90.08211974
_cell_angle_beta   90.03322030
_cell_angle_gamma   90.07179690
_symmetry_Int_Tables_number   1
_chemical_formula_structural   Ti2CoNi
_chemical_formula_sum   'Ti108 Co54 Ni54'
_cell_volume   3122.27449003
_cell_formula_units_Z   54
loop_
 _symmetry_equiv_pos_site_id
 _symmetry_equiv_pos_as_xyz
  1  'x, y, z'
loop_
 _atom_site_type_symbol
 _atom_site_label
 _atom_site_symmetry_multiplicity
 _atom_site_fract_x
 _atom_site_fract_y
 _atom_site_fract_z
 _atom_site_occupancy
  Ti  Ti0  1  0.04130816  -0.04808263  0.01275139  1
  Ti  Ti1  1  0.04677879  0.03384690  0.33114576  1
  Ti  Ti2  1  0.08754632  -0.05771532  0.72659163  1
  Ti  Ti3  1  -0.02756048  0.25097930  0.00335126  1
  Ti  Ti4  1  0.00883704  0.30504617  0.30017514  1
  Ti  Ti5  1  -0.03184875  0.36909365  0.59246344  1
  Ti  Ti6  1  -0.06429749  0.74059279  0.03713152  1
  Ti  Ti7  1  0.01496547  0.63040407  0.36289952  1
  Ti  Ti8  1  0.01355058  0.73604284  0.66274301  1
  Ti  Ti9  1  0.37324581  0.03117296  0.04957140  1
  Ti  Ti10  1  0.26649586  -0.07298117  0.28838406  1
  Ti  Ti11  1  0.41182996  0.05473157  0.68103920  1
  Ti  Ti12  1  0.31045232  0.32511265  0.00177655  1
  Ti  Ti13  1  0.34727875  0.35746874  0.37124056  1
  Ti  Ti14  1  0.35253436  0.33822047  0.67723886  1
  Ti  Ti15  1  0.32865786  0.66077365  -0.08165815  1
  Ti  Ti16  1  0.36913554  0.67267488  0.34358536  1
  Ti  Ti17  1  0.34659376  0.56901313  0.64898520  1
  Ti  Ti18  1  0.58188183  0.04830012  0.01419997  1
  Ti  Ti19  1  0.65307272  -0.05460933  0.35410187  1
  Ti  Ti20  1  0.70007938  -0.05154715  0.60043127  1
  Ti  Ti21  1  0.76248996  0.34008402  0.02651476  1
  Ti  Ti22  1  0.67034494  0.33925427  0.28128793  1
  Ti  Ti23  1  0.64319870  0.34933893  0.59396667  1
  Ti  Ti24  1  0.66607416  0.60812516  0.02685561  1
  Ti  Ti25  1  0.60542651  0.65583582  0.33617700  1
  Ti  Ti26  1  0.71631851  0.70934193  0.66575758  1
  Ti  Ti27  1  -0.01117873  0.13948273  0.16554270  1
  Ti  Ti28  1  0.00801599  0.18569674  0.60652263  1
  Ti  Ti29  1  -0.03389197  0.15448967  0.84848980  1
  Ti  Ti30  1  -0.02983979  0.56363283  0.13963425  1
  Ti  Ti31  1  -0.02896278  0.55058781  0.56737477  1
  Ti  Ti32  1  -0.05880783  0.51464248  0.83972533  1
  Ti  Ti33  1  -0.03692990  0.89169049  0.18513351  1
  Ti  Ti34  1  -0.01496550  0.90047518  0.50198272  1
  Ti  Ti35  1  -0.04499788  0.79933639  0.83973137  1
  Ti  Ti36  1  0.28957745  0.18893656  0.25328551  1
  Ti  Ti37  1  0.37675438  0.18467650  0.49446094  1
  Ti  Ti38  1  0.30003668  0.15623331  0.83671807  1
  Ti  Ti39  1  0.31858870  0.46424437  0.17524293  1
  Ti  Ti40  1  0.27392219  0.51395110  0.46617612  1
  Ti  Ti41  1  0.30711468  0.46770064  0.82419873  1
  Ti  Ti42  1  0.34606949  0.75166139  0.12830394  1
  Ti  Ti43  1  0.25013495  0.90133290  0.49403898  1
  Ti  Ti44  1  0.33983961  0.83820846  0.79685458  1
  Ti  Ti45  1  0.61130342  0.22023143  0.13736457  1
  Ti  Ti46  1  0.57940852  0.12791499  0.46634681  1
  Ti  Ti47  1  0.64553831  0.13038178  0.83409781  1
  Ti  Ti48  1  0.62214122  0.50165607  0.19295648  1
  Ti  Ti49  1  0.71494164  0.53843122  0.50843903  1
  Ti  Ti50  1  0.59450249  0.50292605  0.88578201  1
  Ti  Ti51  1  0.77686907  0.80876674  0.18711583  1
  Ti  Ti52  1  0.63835763  0.80485464  0.50998549  1
  Ti  Ti53  1  0.67778914  0.87320852  0.80875370  1
  Ti  Ti54  1  0.17913302  0.05884166  0.15735980  1
  Ti  Ti55  1  0.10813415  0.02875451  0.55101308  1
  Ti  Ti56  1  0.20061937  -0.06467835  0.87725507  1
  Ti  Ti57  1  0.14582485  0.27237299  0.12659411  1
  Ti  Ti58  1  0.12120096  0.32906621  0.46758751  1
  Ti  Ti59  1  0.12232305  0.42815114  0.89138947  1
  Ti  Ti60  1  0.17393404  0.66507961  0.05076969  1
  Ti  Ti61  1  0.14698234  0.64430171  0.55083210  1
  Ti  Ti62  1  0.10017988  0.65053503  0.85487348  1
  Ti  Ti63  1  0.51280109  0.03750862  0.20104318  1
  Ti  Ti64  1  0.45528310  -0.04421546  0.46104206  1
  Ti  Ti65  1  0.39533034  0.00018348  0.86817950  1
  Ti  Ti66  1  0.49405496  0.34443641  0.09191790  1
  Ti  Ti67  1  0.53813303  0.32410482  0.42170352  1
  Ti  Ti68  1  0.55897881  0.31297832  0.84245537  1
  Ti  Ti69  1  0.52197020  0.69755541  0.14514775  1
  Ti  Ti70  1  0.44222230  0.76163380  0.53227349  1
  Ti  Ti71  1  0.49802599  0.67741410  0.81149695  1
  Ti  Ti72  1  0.81181794  -0.00534536  0.12442550  1
  Ti  Ti73  1  0.86764854  0.04065067  0.57271879  1
  Ti  Ti74  1  0.87927730  -0.02506537  0.85609435  1
  Ti  Ti75  1  0.83055106  0.40897950  0.20903240  1
  Ti  Ti76  1  0.79716103  0.24013703  0.53335461  1
  Ti  Ti77  1  0.81132829  0.34796341  0.82177557  1
  Ti  Ti78  1  0.81910974  0.61650912  0.25007196  1
  Ti  Ti79  1  0.79066559  0.69238142  0.43291428  1
  Ti  Ti80  1  0.78832010  0.66111294  0.86643733  1
  Ti  Ti81  1  0.15456506  0.23546514  -0.07595629  1
  Ti  Ti82  1  0.23517958  0.07669102  0.39826673  1
  Ti  Ti83  1  0.18867689  0.14268928  0.68850603  1
  Ti  Ti84  1  0.14917966  0.47341614  0.08426584  1
  Ti  Ti85  1  0.13813279  0.49018848  0.29530397  1
  Ti  Ti86  1  0.17699277  0.46240821  0.64902052  1
  Ti  Ti87  1  0.20188027  0.87359938  0.06886011  1
  Ti  Ti88  1  0.15153818  0.76520602  0.27666559  1
  Ti  Ti89  1  0.24321256  0.79149875  0.64100230  1
  Ti  Ti90  1  0.45903278  0.19285408  -0.03701691  1
  Ti  Ti91  1  0.48992367  0.20781088  0.29064567  1
  Ti  Ti92  1  0.54317396  0.18729031  0.66018802  1
  Ti  Ti93  1  0.47894903  0.52359450  0.05220629  1
  Ti  Ti94  1  0.47478556  0.50839460  0.37091600  1
  Ti  Ti95  1  0.54026816  0.53099294  0.64409025  1
  Ti  Ti96  1  0.50395689  0.84201090  -0.06124415  1
  Ti  Ti97  1  0.45296959  0.87321327  0.26108032  1
  Ti  Ti98  1  0.51793215  0.87554334  0.70329474  1
  Ti  Ti99  1  0.78956794  0.15733368  0.04345101  1
  Ti  Ti100  1  0.84155032  0.16701350  0.35110641  1
  Ti  Ti101  1  0.82251175  0.16353518  0.71915578  1
  Ti  Ti102  1  0.92971152  0.43175930  0.01364711  1
  Ti  Ti103  1  0.86311594  0.39198792  0.40907742  1
  Ti  Ti104  1  0.78655487  0.51435856  0.70816010  1
  Ti  Ti105  1  0.68226823  0.87478642  0.01619887  1
  Ti  Ti106  1  0.92091478  0.81106534  0.35568590  1
  Ti  Ti107  1  0.84595134  0.80724814  0.58124467  1
  Co  Co108  1  0.69070558  0.22870352  0.40208741  1
  Co  Co109  1  0.47475832  0.14590991  0.80660776  1
  Co  Co110  1  0.22525961  0.32204547  0.78598089  1
  Co  Co111  1  0.83413247  0.62720528  0.58193693  1
  Co  Co112  1  0.10337418  0.62870709  0.19802877  1
  Co  Co113  1  0.48191009  0.68494718  -0.01242387  1
  Co  Co114  1  0.76884295  0.73128328  0.04082851  1
  Co  Co115  1  0.07625945  0.78068539  0.11723644  1
  Co  Co116  1  0.07241635  0.80744279  0.94829459  1
  Co  Co117  1  0.93291609  0.28938372  0.72562737  1
  Co  Co118  1  0.78002249  0.00564487  0.73163738  1
  Co  Co119  1  0.19694654  0.63338272  0.37348446  1
  Co  Co120  1  0.88191905  0.89631591  0.01665205  1
  Co  Co121  1  0.43316115  0.59961481  0.50153366  1
  Co  Co122  1  0.54516126  0.01259587  0.57930447  1
  Co  Co123  1  0.35034913  0.05113978  0.22219776  1
  Co  Co124  1  0.45182389  0.39479129  -0.05914539  1
  Co  Co125  1  0.87408748  0.59438603  -0.01072913  1
  Co  Co126  1  0.27784036  0.18242081  0.06798413  1
  Co  Co127  1  0.29545333  0.69017351  0.50161106  1
  Co  Co128  1  0.55267990  -0.01681166  0.86527610  1
  Co  Co129  1  0.98078193  0.34155547  0.87177333  1
  Co  Co130  1  0.87881436  0.55594229  0.42487072  1
  Co  Co131  1  0.81635257  0.42692243  0.57261345  1
  Co  Co132  1  0.10382945  0.84498518  0.58167633  1
  Co  Co133  1  0.34197856  0.91267645  0.14413559  1
  Co  Co134  1  0.34402554  0.60477158  0.07789948  1
  Co  Co135  1  0.62530164  0.41539551  1.02383114  1
  Co  Co136  1  0.79665364  0.81946118  0.90950046  1
  Co  Co137  1  0.56415700  0.47062944  0.49635335  1
  Co  Co138  1  0.71648066  0.79085356  0.34000257  1
  Co  Co139  1  0.09877964  0.75373611  0.44079027  1
  Co  Co140  1  0.61006059  1.01839644  0.72396056  1
  Co  Co141  1  0.14445740  0.30310745  0.63542388  1
  Co  Co142  1  0.11651831  0.91816807  0.21070141  1
  Co  Co143  1  0.74053949  0.06893063  0.45149596  1
  Co  Co144  1  0.67942601  0.08244069  0.14621745  1
  Co  Co145  1  0.78598555  0.89500842  0.45923855  1
  Co  Co146  1  0.95964181  0.70724838  0.50134437  1
  Co  Co147  1  0.40444891  0.44734724  0.53702877  1
  Co  Co148  1  0.68375091  0.67076112  0.18570198  1
  Co  Co149  1  0.06042880  0.39995440  0.74122150  1
  Co  Co150  1  0.08442159  0.24046246  0.77646607  1
  Co  Co151  1  0.81371064  0.92301396  0.29889144  1
  Co  Co152  1  0.72523335  1.00773834  0.90929993  1
  Co  Co153  1  0.98693192  0.06754020  0.71162603  1
  Co  Co154  1  0.81778630  0.81980357  0.74777064  1
  Co  Co155  1  0.23638884  0.24092310  0.40467039  1
  Co  Co156  1  0.90107581  0.04678981  0.25166075  1
  Co  Co157  1  0.49723319  0.88259968  0.09516599  1
  Co  Co158  1  0.26134646  0.98371235  0.72567373  1
  Co  Co159  1  0.38376778  0.29702364  0.83540621  1
  Co  Co160  1  0.43556398  0.54830987  0.89552231  1
  Co  Co161  1  0.59800926  0.80379993  0.23523323  1
  Ni  Ni162  1  0.95566297  0.48118978  0.28913856  1
  Ni  Ni163  1  0.21899180  0.77148285  0.91345613  1
  Ni  Ni164  1  0.26211706  0.61925681  0.22040124  1
  Ni  Ni165  1  0.27629781  0.34375622  0.53030927  1
  Ni  Ni166  1  0.12184263  0.18511071  0.28295808  1
  Ni  Ni167  1  0.02310733  0.39529281  0.16022180  1
  Ni  Ni168  1  0.95705528  0.72008829  0.21694646  1
  Ni  Ni169  1  0.64761877  0.42934944  0.74492524  1
  Ni  Ni170  1  0.04978799  0.56490680  0.71533247  1
  Ni  Ni171  1  0.63425643  0.72810191  0.91209647  1
  Ni  Ni172  1  0.14024899  0.79151062  0.77225163  1
  Ni  Ni173  1  0.08743646  0.16004280  0.44530679  1
  Ni  Ni174  1  0.46754584  0.44562257  0.77079520  1
  Ni  Ni175  1  0.36499818  0.31309793  0.19811955  1
  Ni  Ni176  1  0.08627901  0.12026715  0.02457070  1
  Ni  Ni177  1  0.12162600  0.08200597  0.83788365  1
  Ni  Ni178  1  0.77117592  0.48592391  0.91356421  1
  Ni  Ni179  1  0.02859344  0.46058730  0.43087218  1
  Ni  Ni180  1  0.89681030  1.01162680  0.40979415  1
  Ni  Ni181  1  0.89363341  0.65055802  0.73714997  1
  Ni  Ni182  1  0.35734599  0.82570952  0.39575212  1
  Ni  Ni183  1  0.47462033  0.30668770  0.56739140  1
  Ni  Ni184  1  0.43729472  0.57382325  0.22136352  1
  Ni  Ni185  1  0.64227387  0.93435648  0.16543536  1
  Ni  Ni186  1  0.43424695  0.17530585  0.12844323  1
  Ni  Ni187  1  0.64286380  0.60682907  0.76553584  1
  Ni  Ni188  1  0.77560416  0.50299152  0.08740661  1
  Ni  Ni189  1  0.20416286  0.34563896  0.26753213  1
  Ni  Ni190  1  0.53067684  0.80006192  0.38699032  1
  Ni  Ni191  1  0.28453137  0.05491858  0.56663186  1
  Ni  Ni192  1  0.70311708  0.38202966  0.44456498  1
  Ni  Ni193  1  0.76818625  0.21334475  0.20863882  1
  Ni  Ni194  1  0.22883563  0.06413901  0.97028611  1
  Ni  Ni195  1  0.55062643  0.71089642  0.65513616  1
  Ni  Ni196  1  0.28998552  0.48836388  0.98634190  1
  Ni  Ni197  1  0.03997998  0.56384363  0.98111948  1
  Ni  Ni198  1  0.92585037  0.07146650  1.00125125  1
  Ni  Ni199  1  0.34728759  0.85560217  0.97862034  1
  Ni  Ni200  1  0.69448763  0.12206452  0.61412755  1
  Ni  Ni201  1  0.73009280  0.50689361  0.33399781  1
  Ni  Ni202  1  0.64624007  0.11242314  0.30094238  1
  Ni  Ni203  1  0.95261788  0.25135587  0.45560934  1
  Ni  Ni204  1  0.59076843  0.64627015  0.50733085  1
  Ni  Ni205  1  0.50185835  0.38974675  0.25590784  1
  Ni  Ni206  1  0.90004390  0.28159367  0.14200801  1
  Ni  Ni207  1  0.41427826  0.08101040  0.36589096  1
  Ni  Ni208  1  0.92913412  0.91564637  0.68158443  1
  Ni  Ni209  1  0.20557902  0.63109998  0.72177157  1
  Ni  Ni210  1  0.37615366  0.90534473  0.61759586  1
  Ni  Ni211  1  0.38904451  0.72618632  0.68797910  1
  Ni  Ni212  1  0.12081231  0.90587055  0.39121981  1
  Ni  Ni213  1  0.63511535  0.23700892  -0.02511630  1
  Ni  Ni214  1  0.79020347  0.19889270  0.88906987  1
  Ni  Ni215  1  0.68786418  0.26365612  0.72781832  1
