# generated using pymatgen
data_Ti2CoNi
_symmetry_space_group_name_H-M   'P 1'
_cell_length_a   14.65072463
_cell_length_b   14.60699210
_cell_length_c   14.66863955
_cell_angle_alpha   89.57159339
_cell_angle_beta   90.15665349
_cell_angle_gamma   89.85648687
_symmetry_Int_Tables_number   1
_chemical_formula_structural   Ti2CoNi
_chemical_formula_sum   'Ti108 Co54 Ni54'
_cell_volume   3139.02365662
_cell_formula_units_Z   54
loop_
 _symmetry_equiv_pos_site_id
 _symmetry_equiv_pos_as_xyz
  1  'x, y, z'
loop_
 _atom_site_type_symbol
 _atom_site_label
 _atom_site_symmetry_multiplicity
 _atom_site_fract_x
 _atom_site_fract_y
 _atom_site_fract_z
 _atom_site_occupancy
  Ti  Ti0  1  -0.01283361  -0.08650984  -0.01773033  1
  Ti  Ti1  1  -0.01280337  -0.02486372  0.36934871  1
  Ti  Ti2  1  0.09542110  0.00963311  0.65656867  1
  Ti  Ti3  1  0.05935990  0.38135209  -0.04485639  1
  Ti  Ti4  1  0.04825981  0.31642162  0.30382095  1
  Ti  Ti5  1  -0.00443771  0.36793790  0.62890362  1
  Ti  Ti6  1  -0.00692769  0.70070751  -0.01815554  1
  Ti  Ti7  1  -0.03914717  0.69079258  0.18642645  1
  Ti  Ti8  1  0.08527550  0.68432549  0.63649528  1
  Ti  Ti9  1  0.34903162  -0.06536082  0.01949055  1
  Ti  Ti10  1  0.40142986  -0.07025362  0.37838084  1
  Ti  Ti11  1  0.33722776  0.00903264  0.71452686  1
  Ti  Ti12  1  0.39299095  0.35000435  0.05374153  1
  Ti  Ti13  1  0.34807044  0.39230140  0.26523268  1
  Ti  Ti14  1  0.38096482  0.36016833  0.69175914  1
  Ti  Ti15  1  0.32109897  0.73485352  0.04119395  1
  Ti  Ti16  1  0.27910030  0.65044737  0.38456673  1
  Ti  Ti17  1  0.28500424  0.66082583  0.60840715  1
  Ti  Ti18  1  0.63746858  0.01700295  0.05365990  1
  Ti  Ti19  1  0.71912220  0.06317555  0.34563088  1
  Ti  Ti20  1  0.64168632  0.04514953  0.59140549  1
  Ti  Ti21  1  0.69457231  0.31157693  -0.03204541  1
  Ti  Ti22  1  0.66480860  0.33128571  0.32259560  1
  Ti  Ti23  1  0.67404021  0.32533058  0.69494510  1
  Ti  Ti24  1  0.77464677  0.66141765  -0.03680688  1
  Ti  Ti25  1  0.65837461  0.66091474  0.28328208  1
  Ti  Ti26  1  0.68805254  0.61967137  0.75618221  1
  Ti  Ti27  1  -0.07343385  0.19256354  0.17847119  1
  Ti  Ti28  1  0.01830052  0.18301154  0.54922681  1
  Ti  Ti29  1  0.00317540  0.08782623  0.80586917  1
  Ti  Ti30  1  0.03472724  0.50468172  0.13340976  1
  Ti  Ti31  1  -0.08496895  0.51197393  0.50392580  1
  Ti  Ti32  1  0.01586031  0.53542117  0.80062576  1
  Ti  Ti33  1  -0.00040167  0.91521641  0.19558701  1
  Ti  Ti34  1  0.03370449  0.81276221  0.47083981  1
  Ti  Ti35  1  -0.00500102  0.80477243  0.81467956  1
  Ti  Ti36  1  0.30152868  0.19517582  0.18145940  1
  Ti  Ti37  1  0.35530252  0.13015060  0.49617766  1
  Ti  Ti38  1  0.31801581  0.19184778  0.78673012  1
  Ti  Ti39  1  0.33369138  0.56221523  0.13707137  1
  Ti  Ti40  1  0.32209535  0.41533979  0.48188522  1
  Ti  Ti41  1  0.38956020  0.44991934  0.87186528  1
  Ti  Ti42  1  0.37392682  0.84890544  0.20487501  1
  Ti  Ti43  1  0.31103344  0.86264361  0.54048238  1
  Ti  Ti44  1  0.39761391  0.86782938  0.84085427  1
  Ti  Ti45  1  0.62550381  0.17762655  0.17965172  1
  Ti  Ti46  1  0.68528765  0.22586801  0.49554175  1
  Ti  Ti47  1  0.63775019  0.11223518  0.88529665  1
  Ti  Ti48  1  0.64451745  0.48702567  0.16165668  1
  Ti  Ti49  1  0.65112599  0.45216126  0.48358109  1
  Ti  Ti50  1  0.67292585  0.47579460  0.88174385  1
  Ti  Ti51  1  0.61581965  0.82743859  0.16450769  1
  Ti  Ti52  1  0.72368132  0.88193880  0.51419722  1
  Ti  Ti53  1  0.71941478  0.82844776  0.81156172  1
  Ti  Ti54  1  0.17544003  0.01821534  0.13487803  1
  Ti  Ti55  1  0.11982378  0.04571896  0.47568417  1
  Ti  Ti56  1  0.13024996  0.03609954  0.94774854  1
  Ti  Ti57  1  0.16895084  0.34072683  0.16150861  1
  Ti  Ti58  1  0.16478429  0.28599841  0.46196227  1
  Ti  Ti59  1  0.23997373  0.33350208  0.88387882  1
  Ti  Ti60  1  0.15209298  0.66607960  0.12071519  1
  Ti  Ti61  1  0.09428175  0.61701624  0.45120725  1
  Ti  Ti62  1  0.14553918  0.66975634  0.82436455  1
  Ti  Ti63  1  0.43761808  0.04708160  0.18861716  1
  Ti  Ti64  1  0.47210482  -0.02462589  0.55346009  1
  Ti  Ti65  1  0.53340760  -0.02173278  0.76012463  1
  Ti  Ti66  1  0.52798276  0.34014324  0.20808754  1
  Ti  Ti67  1  0.48875561  0.31917237  0.52314157  1
  Ti  Ti68  1  0.51853314  0.27841146  0.85068829  1
  Ti  Ti69  1  0.51041310  0.64724912  0.15851162  1
  Ti  Ti70  1  0.51970594  0.63029770  0.55163930  1
  Ti  Ti71  1  0.43913816  0.68212939  0.88721529  1
  Ti  Ti72  1  0.79293458  -0.07889364  0.20911704  1
  Ti  Ti73  1  0.91729031  -0.01963199  0.55120390  1
  Ti  Ti74  1  0.83277128  0.00121310  0.84014456  1
  Ti  Ti75  1  0.78148916  0.34064781  0.14255846  1
  Ti  Ti76  1  0.82226862  0.35630046  0.41652402  1
  Ti  Ti77  1  0.92853040  0.25129363  0.86127724  1
  Ti  Ti78  1  0.81710852  0.57270642  0.18059651  1
  Ti  Ti79  1  0.78504982  0.65156424  0.53485849  1
  Ti  Ti80  1  0.86403098  0.68032834  0.78961101  1
  Ti  Ti81  1  0.07645845  0.20462116  0.03415740  1
  Ti  Ti82  1  0.21173903  0.15813603  0.33798251  1
  Ti  Ti83  1  0.20026401  0.17240915  0.62450106  1
  Ti  Ti84  1  0.21519361  0.46907165  0.02421144  1
  Ti  Ti85  1  0.18050523  0.46383191  0.35182849  1
  Ti  Ti86  1  0.21115588  0.48940902  0.70398477  1
  Ti  Ti87  1  0.16250684  0.82888372  -0.04276014  1
  Ti  Ti88  1  0.18703526  0.87604090  0.34994798  1
  Ti  Ti89  1  0.21807220  0.83846393  0.72040691  1
  Ti  Ti90  1  0.46994480  0.11549171  0.01058218  1
  Ti  Ti91  1  0.52780260  0.09340620  0.35495617  1
  Ti  Ti92  1  0.46248206  0.17036175  0.65891116  1
  Ti  Ti93  1  0.52531167  0.55755733  0.00033049  1
  Ti  Ti94  1  0.46959768  0.58695935  0.35366772  1
  Ti  Ti95  1  0.42734216  0.55165642  0.70172951  1
  Ti  Ti96  1  0.57403797  0.82904588  -0.04091983  1
  Ti  Ti97  1  0.55403306  0.79224051  0.42313499  1
  Ti  Ti98  1  0.54763492  0.74592333  0.72389543  1
  Ti  Ti99  1  0.79567748  0.15401225  0.00303258  1
  Ti  Ti100  1  0.87717591  0.16110877  0.39720689  1
  Ti  Ti101  1  0.78046863  0.12868995  0.68294901  1
  Ti  Ti102  1  0.87444157  0.41968536  -0.03480036  1
  Ti  Ti103  1  0.95921029  0.49718007  0.31716866  1
  Ti  Ti104  1  0.81932697  0.48197711  0.69336449  1
  Ti  Ti105  1  0.81748250  0.95782041  0.02700000  1
  Ti  Ti106  1  0.88011766  0.79051869  0.33604578  1
  Ti  Ti107  1  0.89162206  0.79723451  0.63443638  1
  Co  Co108  1  0.53923245  0.40262595  0.95180510  1
  Co  Co109  1  0.66546771  0.56840913  0.60636879  1
  Co  Co110  1  0.17795467  0.38683455  0.58127618  1
  Co  Co111  1  0.25968288  0.01580812  0.57967955  1
  Co  Co112  1  0.90345040  0.27132747  0.02646320  1
  Co  Co113  1  0.34702042  0.56816442  0.97124461  1
  Co  Co114  1  0.31788348  0.27351819  0.57328554  1
  Co  Co115  1  0.87051242  0.27371844  0.70453619  1
  Co  Co116  1  0.93386372  0.39962552  0.79538946  1
  Co  Co117  1  0.12520740  1.02599265  0.29478682  1
  Co  Co118  1  0.17924675  0.50086657  0.86949407  1
  Co  Co119  1  0.61355603  0.87889916  0.65096694  1
  Co  Co120  1  0.09137323  0.38107851  0.78929139  1
  Co  Co121  1  0.68719098  0.00361291  0.75750751  1
  Co  Co122  1  0.64654023  0.61168402  0.43790044  1
  Co  Co123  1  0.06222691  0.55196781  0.97476253  1
  Co  Co124  1  0.23682426  0.27166589  0.03335170  1
  Co  Co125  1  0.23696188  0.15101226  0.93003068  1
  Co  Co126  1  0.78260954  0.93362193  0.65694606  1
  Co  Co127  1  0.78175789  0.74338305  0.21170676  1
  Co  Co128  1  0.30713093  0.09437933  0.05604571  1
  Co  Co129  1  0.59349619  0.49420399  0.31543988  1
  Co  Co130  1  0.50384761  0.93608455  0.09534627  1
  Co  Co131  1  0.83175513  0.53201236  0.85249805  1
  Co  Co132  1  0.47157744  0.40831276  0.37904551  1
  Co  Co133  1  0.52067201  0.91741887  0.27910638  1
  Co  Co134  1  0.68391723  0.95086434  0.91325869  1
  Co  Co135  1  0.19872276  0.74443709  0.50151667  1
  Co  Co136  1  0.21177299  0.53692003  0.52715637  1
  Co  Co137  1  0.73871421  0.75854387  0.67072609  1
  Co  Co138  1  0.96503578  0.65474746  0.36369502  1
  Co  Co139  1  0.44875222  0.21258556  0.23819595  1
  Co  Co140  1  0.06637243  0.52064327  0.61346263  1
  Co  Co141  1  0.28754047  -0.00430779  0.24406809  1
  Co  Co142  1  0.26236863  1.00654355  0.41386452  1
  Co  Co143  1  0.67892742  0.87286824  0.31643427  1
  Co  Co144  1  0.64017412  0.73411095  0.55454269  1
  Co  Co145  1  0.95224648  0.68118225  0.51964461  1
  Co  Co146  1  0.50541690  0.75863362  0.27613027  1
  Co  Co147  1  0.77912222  0.36962901  0.81870551  1
  Co  Co148  1  0.36664606  0.10583142  0.33235442  1
  Co  Co149  1  0.15231161  0.89705662  0.54034656  1
  Co  Co150  1  0.24369521  0.92952701  0.85648036  1
  Co  Co151  1  0.20221583  0.63834125  -0.02949080  1
  Co  Co152  1  0.81564466  0.62058525  0.34630397  1
  Co  Co153  1  0.28083734  0.75774319  0.87144069  1
  Co  Co154  1  0.58445497  0.95924038  0.43566333  1
  Co  Co155  1  0.78455846  0.06776876  0.51259600  1
  Co  Co156  1  0.93451586  0.10814537  0.65844697  1
  Co  Co157  1  0.89659914  0.81933191  0.09941421  1
  Co  Co158  1  0.50950076  -0.01959487  0.92326999  1
  Co  Co159  1  0.35110328  1.04240449  0.89102445  1
  Co  Co160  1  0.38071096  0.22901712  0.93979723  1
  Co  Co161  1  0.46871740  0.77715338  0.06979440  1
  Ni  Ni162  1  0.73622962  0.80700063  0.04746120  1
  Ni  Ni163  1  0.52925857  0.45773326  0.60362456  1
  Ni  Ni164  1  0.18603989  0.07726687  0.78628107  1
  Ni  Ni165  1  0.93848994  0.94891118  0.72157510  1
  Ni  Ni166  1  0.35209195  0.27203644  0.38399551  1
  Ni  Ni167  1  0.10080233  0.17602186  0.20278291  1
  Ni  Ni168  1  0.53130448  0.25376365  0.37782769  1
  Ni  Ni169  1  0.88530172  0.34626446  0.26688645  1
  Ni  Ni170  1  0.61900158  0.67794868  0.90385016  1
  Ni  Ni171  1  0.08590271  0.93739180  0.81333317  1
  Ni  Ni172  1  0.36637136  0.68448660  0.23976221  1
  Ni  Ni173  1  0.47183881  0.47938612  0.15072486  1
  Ni  Ni174  1  0.37829481  0.56358928  0.50689054  1
  Ni  Ni175  1  0.75794398  0.21120545  0.82911226  1
  Ni  Ni176  1  0.92998747  0.60683368  0.65849015  1
  Ni  Ni177  1  0.79315663  0.37321399  0.57605902  1
  Ni  Ni178  1  0.84819154  0.22137071  0.54902278  1
  Ni  Ni179  1  0.06678201  0.43994226  0.46640558  1
  Ni  Ni180  1  0.43331230  0.86281347  0.67058444  1
  Ni  Ni181  1  0.67015511  0.64937555  0.09639231  1
  Ni  Ni182  1  0.73381789  0.75163427  0.40567436  1
  Ni  Ni183  1  0.62959366  0.00763938  0.21513769  1
  Ni  Ni184  1  0.53812299  0.56189128  0.82526962  1
  Ni  Ni185  1  0.06644990  0.80657965  0.09890924  1
  Ni  Ni186  1  0.39762273  0.73225697  0.47244621  1
  Ni  Ni187  1  0.55108178  0.25931373  0.04038475  1
  Ni  Ni188  1  0.88518236  0.05351645  0.26344997  1
  Ni  Ni189  1  0.05299296  0.84778462  0.66182704  1
  Ni  Ni190  1  0.94096876  0.08542101  0.96210336  1
  Ni  Ni191  1  0.22300966  0.85329134  0.12321784  1
  Ni  Ni192  1  0.53430348  0.41388088  0.76143107  1
  Ni  Ni193  1  0.76648015  0.08794488  0.15485112  1
  Ni  Ni194  1  0.74791631  0.50254340  0.03438870  1
  Ni  Ni195  1  0.82498148  0.94474535  0.39177576  1
  Ni  Ni196  1  0.76205462  0.47213889  0.30282797  1
  Ni  Ni197  1  0.53604911  0.14797848  0.51283778  1
  Ni  Ni198  1  0.85845212  0.80952214  0.92382835  1
  Ni  Ni199  1  0.97166324  0.30909492  0.45338741  1
  Ni  Ni200  1  0.37422148  0.72501471  0.73188831  1
  Ni  Ni201  1  0.10122726  0.61034946  0.27800431  1
  Ni  Ni202  1  0.21396586  0.30880670  0.71524986  1
  Ni  Ni203  1  0.03893588  0.15964657  0.36637501  1
  Ni  Ni204  1  0.77668128  0.21274442  0.26940126  1
  Ni  Ni205  1  0.90781809  0.56884166  0.03683196  1
  Ni  Ni206  1  0.11340772  0.22032566  0.86461545  1
  Ni  Ni207  1  0.01049804  0.05677289  0.10621150  1
  Ni  Ni208  1  -0.00257229  0.34500213  0.13634846  1
  Ni  Ni209  1  0.21913865  0.74341986  0.25301037  1
  Ni  Ni210  1  0.30147659  0.59695828  0.80959240  1
  Ni  Ni211  1  0.47394017  0.12107912  0.82455308  1
  Ni  Ni212  1  0.19662153  0.50313907  0.19668576  1
  Ni  Ni213  1  0.61364609  0.16471892  0.72617239  1
  Ni  Ni214  1  0.05870993  0.77867378  0.29648093  1
  Ni  Ni215  1  0.04592058  0.22795371  0.71563069  1
