# generated using pymatgen
data_Ti2CoNi
_symmetry_space_group_name_H-M   'P 1'
_cell_length_a   14.54171824
_cell_length_b   14.51704395
_cell_length_c   14.49283759
_cell_angle_alpha   90.09567791
_cell_angle_beta   90.00592986
_cell_angle_gamma   89.97962160
_symmetry_Int_Tables_number   1
_chemical_formula_structural   Ti2CoNi
_chemical_formula_sum   'Ti108 Co54 Ni54'
_cell_volume   3059.47358134
_cell_formula_units_Z   54
loop_
 _symmetry_equiv_pos_site_id
 _symmetry_equiv_pos_as_xyz
  1  'x, y, z'
loop_
 _atom_site_type_symbol
 _atom_site_label
 _atom_site_symmetry_multiplicity
 _atom_site_fract_x
 _atom_site_fract_y
 _atom_site_fract_z
 _atom_site_occupancy
  Ti  Ti0  1  0.03833348  -0.05218418  0.00683825  1
  Ti  Ti1  1  0.02449420  -0.05090042  0.33888204  1
  Ti  Ti2  1  -0.03996773  0.09257819  0.65833752  1
  Ti  Ti3  1  -0.03517691  0.26912972  -0.02503270  1
  Ti  Ti4  1  -0.02893634  0.33966037  0.32708181  1
  Ti  Ti5  1  0.00001010  0.26916261  0.64346793  1
  Ti  Ti6  1  -0.09333937  0.63532753  -0.00777387  1
  Ti  Ti7  1  0.07010502  0.68828760  0.35565520  1
  Ti  Ti8  1  -0.00026353  0.69461325  0.61203306  1
  Ti  Ti9  1  0.44149198  0.00775674  0.01302572  1
  Ti  Ti10  1  0.33835726  0.00463616  0.30506387  1
  Ti  Ti11  1  0.30866941  -0.03690186  0.65661778  1
  Ti  Ti12  1  0.36668650  0.35854022  0.01397163  1
  Ti  Ti13  1  0.39634964  0.30504138  0.37687765  1
  Ti  Ti14  1  0.39301676  0.30712677  0.65598821  1
  Ti  Ti15  1  0.31079067  0.64951263  -0.01832285  1
  Ti  Ti16  1  0.28672367  0.65968866  0.30201188  1
  Ti  Ti17  1  0.36557104  0.62299871  0.73767879  1
  Ti  Ti18  1  0.65545267  -0.02423020  0.01123799  1
  Ti  Ti19  1  0.71285128  0.02207694  0.31094758  1
  Ti  Ti20  1  0.69105146  0.04281287  0.69898788  1
  Ti  Ti21  1  0.68016312  0.30890867  -0.01560274  1
  Ti  Ti22  1  0.68102846  0.32892112  0.29262773  1
  Ti  Ti23  1  0.69327194  0.38319447  0.61493842  1
  Ti  Ti24  1  0.72611014  0.62943404  0.01269886  1
  Ti  Ti25  1  0.67903862  0.53650337  0.26567309  1
  Ti  Ti26  1  0.57421679  0.60976150  0.71890493  1
  Ti  Ti27  1  0.04098235  0.22052245  0.20381356  1
  Ti  Ti28  1  -0.08009920  0.12346808  0.48081170  1
  Ti  Ti29  1  0.08690239  0.20749601  0.80243509  1
  Ti  Ti30  1  0.04069494  0.43088779  0.16786721  1
  Ti  Ti31  1  -0.05372953  0.44255891  0.48824205  1
  Ti  Ti32  1  -0.06408545  0.57348030  0.77680876  1
  Ti  Ti33  1  -0.04201626  0.85595508  0.14141569  1
  Ti  Ti34  1  0.09486449  0.86502794  0.61350382  1
  Ti  Ti35  1  -0.04051998  0.79662228  0.81990148  1
  Ti  Ti36  1  0.30619408  0.08491068  0.14043655  1
  Ti  Ti37  1  0.26730002  0.24169884  0.52327566  1
  Ti  Ti38  1  0.26826201  0.21631047  0.86599543  1
  Ti  Ti39  1  0.26922858  0.45730287  0.26491525  1
  Ti  Ti40  1  0.26925154  0.51978462  0.54791546  1
  Ti  Ti41  1  0.27426037  0.47485364  0.83831314  1
  Ti  Ti42  1  0.36501491  0.82791422  0.05531368  1
  Ti  Ti43  1  0.34448869  0.82597574  0.53207715  1
  Ti  Ti44  1  0.31777777  0.91401951  0.86513068  1
  Ti  Ti45  1  0.56274437  0.21813722  0.17873769  1
  Ti  Ti46  1  0.65850515  0.02893095  0.50251317  1
  Ti  Ti47  1  0.63131284  0.18927211  0.80675969  1
  Ti  Ti48  1  0.63754220  0.41552067  0.12303470  1
  Ti  Ti49  1  0.70895174  0.48802967  0.45366341  1
  Ti  Ti50  1  0.65797888  0.40721300  0.81113113  1
  Ti  Ti51  1  0.63855024  0.85169187  0.21875057  1
  Ti  Ti52  1  0.68520940  0.81440162  0.40061312  1
  Ti  Ti53  1  0.64100529  0.85126337  0.83131555  1
  Ti  Ti54  1  0.17007747  -0.06691248  0.17234616  1
  Ti  Ti55  1  0.16258901  0.05127948  0.43426150  1
  Ti  Ti56  1  0.17731625  0.04621570  0.87807537  1
  Ti  Ti57  1  0.17852992  0.32223993  0.10820040  1
  Ti  Ti58  1  0.14022858  0.37688355  0.58447035  1
  Ti  Ti59  1  0.10923567  0.40372557  0.80684036  1
  Ti  Ti60  1  0.12458308  0.71444737  0.11778322  1
  Ti  Ti61  1  0.18458638  0.70560184  0.50614866  1
  Ti  Ti62  1  0.08130803  0.65034916  0.91222657  1
  Ti  Ti63  1  0.51378343  0.04040508  0.18928997  1
  Ti  Ti64  1  0.45847483  0.03381883  0.50150227  1
  Ti  Ti65  1  0.47155331  -0.02307421  0.78590598  1
  Ti  Ti66  1  0.45256644  0.37032511  0.21000688  1
  Ti  Ti67  1  0.51517214  0.39128381  0.50291559  1
  Ti  Ti68  1  0.50464070  0.31297977  0.85873015  1
  Ti  Ti69  1  0.45793643  0.73479564  0.20960324  1
  Ti  Ti70  1  0.50650719  0.71776311  0.52522989  1
  Ti  Ti71  1  0.47606179  0.72924114  0.88223053  1
  Ti  Ti72  1  0.82843165  0.05038627  0.16161997  1
  Ti  Ti73  1  0.84494185  -0.06231068  0.45192699  1
  Ti  Ti74  1  0.91467906  -0.00223968  0.84105468  1
  Ti  Ti75  1  0.84339086  0.34165253  0.11657425  1
  Ti  Ti76  1  0.80681533  0.30141280  0.46537764  1
  Ti  Ti77  1  0.94185645  0.35050500  0.79947801  1
  Ti  Ti78  1  0.98061091  0.61140190  0.18435965  1
  Ti  Ti79  1  0.80171988  0.70255046  0.52223141  1
  Ti  Ti80  1  0.73956038  0.58161135  0.81267633  1
  Ti  Ti81  1  0.12500293  0.10870505  0.07622990  1
  Ti  Ti82  1  0.22919536  0.20679986  0.32653528  1
  Ti  Ti83  1  0.21630409  0.11932097  0.69537633  1
  Ti  Ti84  1  0.20352348  0.50859199  0.02835649  1
  Ti  Ti85  1  0.07651260  0.48635189  0.36507857  1
  Ti  Ti86  1  0.13039102  0.56005920  0.69512977  1
  Ti  Ti87  1  0.19209317  0.80187412  -0.03303356  1
  Ti  Ti88  1  0.22582118  0.83526685  0.36947561  1
  Ti  Ti89  1  0.22885992  0.75309420  0.70338660  1
  Ti  Ti90  1  0.57135464  0.14246437  -0.00676681  1
  Ti  Ti91  1  0.56199618  0.17185551  0.36758637  1
  Ti  Ti92  1  0.57417294  0.19602748  0.60958077  1
  Ti  Ti93  1  0.50024652  0.54836532  0.09225955  1
  Ti  Ti94  1  0.51136107  0.58050737  0.38947385  1
  Ti  Ti95  1  0.45340200  0.46471285  0.74415977  1
  Ti  Ti96  1  0.64799011  0.78711384  0.03449146  1
  Ti  Ti97  1  0.46528371  0.86769581  0.36069734  1
  Ti  Ti98  1  0.52456508  0.78571750  0.70168782  1
  Ti  Ti99  1  0.77838077  0.14555132  -0.01635099  1
  Ti  Ti100  1  0.84517873  0.20857388  0.27756738  1
  Ti  Ti101  1  0.81154687  0.21870065  0.70783447  1
  Ti  Ti102  1  0.82962967  0.44742491  -0.07067001  1
  Ti  Ti103  1  0.85191373  0.58252874  0.35273418  1
  Ti  Ti104  1  0.85238582  0.54212316  0.60879694  1
  Ti  Ti105  1  0.84184255  0.83385894  -0.02383748  1
  Ti  Ti106  1  0.83156239  0.86371656  0.27318411  1
  Ti  Ti107  1  0.80372780  0.86750368  0.72049228  1
  Co  Co108  1  0.93262053  0.46802994  0.04382509  1
  Co  Co109  1  0.33625319  0.07104645  0.92446128  1
  Co  Co110  1  0.37317022  0.81799743  0.71108838  1
  Co  Co111  1  0.46419853  0.90449640  0.60868208  1
  Co  Co112  1  0.18067964  0.91886078  0.74997853  1
  Co  Co113  1  0.01077473  0.77936148  -0.00979131  1
  Co  Co114  1  0.81632043  0.61312995  0.17667599  1
  Co  Co115  1  1.00678737  0.50219055  0.89439219  1
  Co  Co116  1  0.57736201  0.49410323  0.60155339  1
  Co  Co117  1  0.42329760  0.20832767  0.93863062  1
  Co  Co118  1  0.27884392  0.08767120  0.54397619  1
  Co  Co119  1  0.76367680  0.90892107  0.12646551  1
  Co  Co120  1  0.40131125  0.17937631  0.26131837  1
  Co  Co121  1  0.66245707  0.49602530  0.94879971  1
  Co  Co122  1  0.38535933  0.52630474  0.93920835  1
  Co  Co123  1  0.42219029  0.54222440  0.25388121  1
  Co  Co124  1  0.92584691  0.17483670  0.83276046  1
  Co  Co125  1  0.64756197  0.74434014  0.57783644  1
  Co  Co126  1  0.60901774  0.03302456  0.85861313  1
  Co  Co127  1  0.77007068  0.49110800  0.08282731  1
  Co  Co128  1  0.12237622  1.02506643  0.61271391  1
  Co  Co129  1  0.06608561  0.82759839  0.44818846  1
  Co  Co130  1  0.63468673  0.69055114  0.88379995  1
  Co  Co131  1  1.02853003  0.09096092  0.92454245  1
  Co  Co132  1  0.92222794  0.73141207  0.26795675  1
  Co  Co133  1  0.51908198  0.43813450  0.95491316  1
  Co  Co134  1  0.27267401  0.20612535  0.03510473  1
  Co  Co135  1  0.53120083  0.04731149  0.65975932  1
  Co  Co136  1  0.62744720  0.90683005  0.64229349  1
  Co  Co137  1  0.08692518  0.87975343  0.87179022  1
  Co  Co138  1  0.27695281  0.43908492  0.68237634  1
  Co  Co139  1  0.80703550  0.75506009  0.11829039  1
  Co  Co140  1  0.69434683  0.73471303  0.72539622  1
  Co  Co141  1  0.09343039  0.55397744  0.52375829  1
  Co  Co142  1  0.88333800  0.47167346  0.20538291  1
  Co  Co143  1  0.12115796  0.22907417  0.96718812  1
  Co  Co144  1  0.06900943  0.39089334  -0.00333314  1
  Co  Co145  1  0.06102425  0.55893015  1.04727625  1
  Co  Co146  1  0.11844105  0.29741083  0.43446824  1
  Co  Co147  1  0.07096887  0.81555049  0.25354611  1
  Co  Co148  1  0.35079935  0.33536684  0.81506673  1
  Co  Co149  1  0.52517449  0.30646093  0.04238719  1
  Co  Co150  1  0.09621562  0.17548150  0.54023421  1
  Co  Co151  1  0.30793000  0.29410627  0.19619947  1
  Co  Co152  1  0.36093529  0.12861854  0.40722772  1
  Co  Co153  1  0.21593752  0.35792689  0.93940504  1
  Co  Co154  1  0.75686065  0.86010159  0.56620025  1
  Co  Co155  1  0.66856927  0.64516280  0.44142767  1
  Co  Co156  1  0.24547607  0.38489287  0.42727602  1
  Co  Co157  1  0.14441212  0.34977922  0.27984057  1
  Co  Co158  1  0.42379558  0.18716953  0.09660246  1
  Co  Co159  1  0.74203971  0.70007630  0.28761398  1
  Co  Co160  1  0.67349639  0.08502875  0.13552488  1
  Co  Co161  1  0.97016565  0.27193259  0.47915124  1
  Ni  Ni162  1  0.81120950  0.43617515  0.75446966  1
  Ni  Ni163  1  0.38812885  0.14305015  0.66960932  1
  Ni  Ni164  1  0.64011934  0.28616584  0.45709849  1
  Ni  Ni165  1  0.37921926  0.47711158  0.40323465  1
  Ni  Ni166  1  0.21195237  0.55872507  0.40034265  1
  Ni  Ni167  1  0.44098000  0.56048963  0.57255854  1
  Ni  Ni168  1  0.92000053  0.82579171  0.55299190  1
  Ni  Ni169  1  1.00324907  0.97351694  0.51363850  1
  Ni  Ni170  1  0.14645568  0.56843951  0.21694431  1
  Ni  Ni171  1  0.55698987  0.33784371  0.69319910  1
  Ni  Ni172  1  0.70255226  0.58934982  0.61946308  1
  Ni  Ni173  1  0.08070999  0.71221053  0.75612897  1
  Ni  Ni174  1  0.34511722  0.48710764  0.11601195  1
  Ni  Ni175  1  0.45101271  0.21825822  0.50968015  1
  Ni  Ni176  1  0.31080514  0.96033988  0.45730646  1
  Ni  Ni177  1  0.85745572  0.36481357  0.61750335  1
  Ni  Ni178  1  0.90683157  0.18159460  0.10304718  1
  Ni  Ni179  1  0.26117467  0.79376680  0.19685264  1
  Ni  Ni180  1  0.31944526  0.75524338  0.85503079  1
  Ni  Ni181  1  0.33291213  0.67306262  0.57836500  1
  Ni  Ni182  1  0.85053509  0.69959397  0.70227111  1
  Ni  Ni183  1  -0.00244507  0.46183356  0.64756137  1
  Ni  Ni184  1  0.03051583  0.14502763  0.35510798  1
  Ni  Ni185  1  -0.00595189  0.03180852  0.18744501  1
  Ni  Ni186  1  0.86806577  0.99635040  0.00830045  1
  Ni  Ni187  1  0.63807679  0.65655200  0.15650857  1
  Ni  Ni188  1  0.14557443  0.07826944  0.25402934  1
  Ni  Ni189  1  0.75592474  0.14762308  0.40974541  1
  Ni  Ni190  1  0.05916227  0.02515491  0.76717300  1
  Ni  Ni191  1  0.52471707  0.56889660  0.87011472  1
  Ni  Ni192  1  0.95543311  0.61967827  0.47428978  1
  Ni  Ni193  1  0.48483735  0.70610192  0.04402832  1
  Ni  Ni194  1  0.56821115  0.88840448  0.48693643  1
  Ni  Ni195  1  0.79977665  0.28762939  0.86955249  1
  Ni  Ni196  1  0.77870079  0.10647190  0.82768572  1
  Ni  Ni197  1  0.55138342  0.42113640  0.34037747  1
  Ni  Ni198  1  0.75770836  0.95468690  0.87775807  1
  Ni  Ni199  1  0.51957286  0.87791671  0.94143669  1
  Ni  Ni200  1  0.73189182  0.18880911  0.56744957  1
  Ni  Ni201  1  0.79424618  0.73354023  0.86011538  1
  Ni  Ni202  1  0.21673128  0.63161009  0.83013605  1
  Ni  Ni203  1  0.39487460  0.72772039  0.39777124  1
  Ni  Ni204  1  0.33386642  0.65038192  0.14073587  1
  Ni  Ni205  1  0.55904255  -0.00386409  0.34314361  1
  Ni  Ni206  1  0.57998619  0.71167467  0.31507523  1
  Ni  Ni207  1  0.22389486  0.28583901  0.70426912  1
  Ni  Ni208  1  0.81152476  0.02636242  0.58897209  1
  Ni  Ni209  1  0.40408803  0.90018180  0.19944318  1
  Ni  Ni210  1  0.95015967  0.92883365  0.67689328  1
  Ni  Ni211  1  0.72361697  0.23832256  0.14669459  1
  Ni  Ni212  1  0.82072980  0.40859018  0.33940891  1
  Ni  Ni213  1  0.88277322  0.04781482  0.32677920  1
  Ni  Ni214  1  0.22611325  0.96210238  0.01341627  1
  Ni  Ni215  1  0.52971810  0.88674473  0.10311620  1
