# generated using pymatgen
data_Ti2CoNi
_symmetry_space_group_name_H-M   'P 1'
_cell_length_a   14.61291157
_cell_length_b   14.60893646
_cell_length_c   14.64072649
_cell_angle_alpha   89.82680196
_cell_angle_beta   89.96019576
_cell_angle_gamma   90.16711434
_symmetry_Int_Tables_number   1
_chemical_formula_structural   Ti2CoNi
_chemical_formula_sum   'Ti108 Co54 Ni54'
_cell_volume   3125.46071744
_cell_formula_units_Z   54
loop_
 _symmetry_equiv_pos_site_id
 _symmetry_equiv_pos_as_xyz
  1  'x, y, z'
loop_
 _atom_site_type_symbol
 _atom_site_label
 _atom_site_symmetry_multiplicity
 _atom_site_fract_x
 _atom_site_fract_y
 _atom_site_fract_z
 _atom_site_occupancy
  Ti  Ti0  1  0.02171808  -0.04893065  -0.01312954  1
  Ti  Ti1  1  -0.04402848  0.04404798  0.25086877  1
  Ti  Ti2  1  0.02321216  -0.03819860  0.70925812  1
  Ti  Ti3  1  0.04163287  0.38551572  -0.03235062  1
  Ti  Ti4  1  -0.04612630  0.30042117  0.40294795  1
  Ti  Ti5  1  -0.01456734  0.26354561  0.64565535  1
  Ti  Ti6  1  0.06271710  0.68121080  -0.00345972  1
  Ti  Ti7  1  0.05334801  0.72966225  0.35133372  1
  Ti  Ti8  1  -0.00531100  0.63015768  0.64579707  1
  Ti  Ti9  1  0.31656310  0.05224548  0.09254455  1
  Ti  Ti10  1  0.33686398  -0.00501071  0.40308521  1
  Ti  Ti11  1  0.32335094  -0.03704535  0.62897651  1
  Ti  Ti12  1  0.37695762  0.35007876  -0.01422923  1
  Ti  Ti13  1  0.24483743  0.36974397  0.34145356  1
  Ti  Ti14  1  0.31764647  0.42618965  0.63102245  1
  Ti  Ti15  1  0.35733510  0.72462494  0.04231698  1
  Ti  Ti16  1  0.27342172  0.69161230  0.36381791  1
  Ti  Ti17  1  0.34244914  0.63156351  0.71037869  1
  Ti  Ti18  1  0.65479156  -0.01264493  -0.05697682  1
  Ti  Ti19  1  0.66486538  0.00201574  0.35167668  1
  Ti  Ti20  1  0.67089734  0.03825654  0.64365454  1
  Ti  Ti21  1  0.64825422  0.37182067  -0.04373182  1
  Ti  Ti22  1  0.63086862  0.31475540  0.37341649  1
  Ti  Ti23  1  0.60446051  0.30599083  0.71247992  1
  Ti  Ti24  1  0.68745970  0.69772065  0.04884192  1
  Ti  Ti25  1  0.69125759  0.65104904  0.36790884  1
  Ti  Ti26  1  0.68756114  0.60759778  0.66565555  1
  Ti  Ti27  1  0.01731237  0.22263130  0.20834666  1
  Ti  Ti28  1  -0.04195160  0.11411278  0.43368299  1
  Ti  Ti29  1  0.05901127  0.22731794  0.85963424  1
  Ti  Ti30  1  -0.05364263  0.52573740  0.15242535  1
  Ti  Ti31  1  -0.07920673  0.51132935  0.47572169  1
  Ti  Ti32  1  -0.00910074  0.52641027  0.81193825  1
  Ti  Ti33  1  0.06409514  0.81954227  0.14418065  1
  Ti  Ti34  1  -0.01753153  0.84526467  0.53986159  1
  Ti  Ti35  1  -0.06375107  0.78306387  0.76899960  1
  Ti  Ti36  1  0.35871008  0.30200115  0.20045783  1
  Ti  Ti37  1  0.34379211  0.19304573  0.39448138  1
  Ti  Ti38  1  0.26220128  0.21164668  0.88120940  1
  Ti  Ti39  1  0.30978484  0.52499048  0.22449448  1
  Ti  Ti40  1  0.35270968  0.52597745  0.43954388  1
  Ti  Ti41  1  0.38827347  0.46550394  0.81335662  1
  Ti  Ti42  1  0.29181081  0.87346627  0.15185462  1
  Ti  Ti43  1  0.35552566  0.73866331  0.53625255  1
  Ti  Ti44  1  0.33747449  0.77144356  0.84202668  1
  Ti  Ti45  1  0.68736423  0.18748179  0.19111652  1
  Ti  Ti46  1  0.69466521  0.14188427  0.47076884  1
  Ti  Ti47  1  0.71891166  0.22992637  0.83454940  1
  Ti  Ti48  1  0.72067731  0.48496371  0.11779166  1
  Ti  Ti49  1  0.69749642  0.49126711  0.48428040  1
  Ti  Ti50  1  0.71336352  0.46366683  0.80531016  1
  Ti  Ti51  1  0.62367705  0.87100640  0.10580833  1
  Ti  Ti52  1  0.65569274  0.77909708  0.52771477  1
  Ti  Ti53  1  0.63899178  0.83798063  0.82750837  1
  Ti  Ti54  1  0.13293086  0.00843272  0.18795579  1
  Ti  Ti55  1  0.17566121  0.04904209  0.50200876  1
  Ti  Ti56  1  0.15482907  0.04205787  0.83759174  1
  Ti  Ti57  1  0.17744566  0.32453480  0.14085197  1
  Ti  Ti58  1  0.08894003  0.36942882  0.48587260  1
  Ti  Ti59  1  0.19772383  0.38506398  0.81929850  1
  Ti  Ti60  1  0.19458827  0.67177010  0.18329611  1
  Ti  Ti61  1  0.14909538  0.72732818  0.51878673  1
  Ti  Ti62  1  0.13471792  0.68460895  0.79948019  1
  Ti  Ti63  1  0.45798058  -0.02168694  0.21950851  1
  Ti  Ti64  1  0.50001325  0.05479021  0.52133987  1
  Ti  Ti65  1  0.45102426  0.01368453  0.87976474  1
  Ti  Ti66  1  0.57259233  0.34393907  0.17043075  1
  Ti  Ti67  1  0.51432754  0.34972916  0.53869392  1
  Ti  Ti68  1  0.47662625  0.23889250  0.85088050  1
  Ti  Ti69  1  0.52047451  0.67781988  0.17998811  1
  Ti  Ti70  1  0.53473654  0.63451928  0.46662873  1
  Ti  Ti71  1  0.50970217  0.69619444  0.77347266  1
  Ti  Ti72  1  0.78948594  0.00777673  0.14395680  1
  Ti  Ti73  1  0.80368911  -0.05185317  0.50118848  1
  Ti  Ti74  1  0.85341639  -0.03651505  0.82901514  1
  Ti  Ti75  1  0.87356691  0.32413403  0.11350257  1
  Ti  Ti76  1  0.72597926  0.30942990  0.55145123  1
  Ti  Ti77  1  0.89783679  0.35010726  0.83136897  1
  Ti  Ti78  1  0.81476146  0.67078114  0.19390526  1
  Ti  Ti79  1  0.85149864  0.74237180  0.41568376  1
  Ti  Ti80  1  0.75999009  0.68057074  0.85901684  1
  Ti  Ti81  1  0.14458049  0.14899203  0.02679120  1
  Ti  Ti82  1  0.14590361  0.19649040  0.35515907  1
  Ti  Ti83  1  0.20987156  0.18294942  0.65810662  1
  Ti  Ti84  1  0.16257192  0.51617189  0.06060086  1
  Ti  Ti85  1  0.15212952  0.54808014  0.36920323  1
  Ti  Ti86  1  0.11419746  0.47271705  0.64521438  1
  Ti  Ti87  1  0.19475420  0.85907704  -0.07791846  1
  Ti  Ti88  1  0.20441619  0.86321907  0.31920102  1
  Ti  Ti89  1  0.19430014  0.86712417  0.73818353  1
  Ti  Ti90  1  0.50377284  0.11857974  0.08234627  1
  Ti  Ti91  1  0.53558747  0.13410111  0.31525241  1
  Ti  Ti92  1  0.43321246  0.15925469  0.67381585  1
  Ti  Ti93  1  0.51108500  0.52834644  -0.01124099  1
  Ti  Ti94  1  0.47263752  0.43729541  0.30144256  1
  Ti  Ti95  1  0.52643408  0.49771330  0.67453618  1
  Ti  Ti96  1  0.49672120  0.82025441  -0.04091865  1
  Ti  Ti97  1  0.56278886  0.82296291  0.33267291  1
  Ti  Ti98  1  0.53156800  0.88833382  0.65970801  1
  Ti  Ti99  1  0.84402580  0.12929184  -0.03038830  1
  Ti  Ti100  1  0.82161839  0.21456859  0.31162011  1
  Ti  Ti101  1  0.87397018  0.09356053  0.65703833  1
  Ti  Ti102  1  0.83777838  0.46857917  -0.03351258  1
  Ti  Ti103  1  0.80747115  0.49217819  0.30537641  1
  Ti  Ti104  1  0.85559872  0.47973572  0.66335642  1
  Ti  Ti105  1  0.89770668  0.78925547  0.00393053  1
  Ti  Ti106  1  0.85901233  0.87132486  0.28160772  1
  Ti  Ti107  1  0.82526119  0.75666294  0.62260717  1
  Co  Co108  1  0.03746502  0.88906844  0.28404247  1
  Co  Co109  1  0.72032244  0.32284338  0.08920810  1
  Co  Co110  1  0.37906233  0.35451516  0.44028912  1
  Co  Co111  1  0.94655576  0.74722007  0.22527661  1
  Co  Co112  1  0.84875772  0.62617877  0.73404504  1
  Co  Co113  1  0.59241077  0.98709255  0.78548663  1
  Co  Co114  1  0.58679599  0.14372927  0.75268902  1
  Co  Co115  1  0.22706120  0.25901920  0.49656290  1
  Co  Co116  1  0.33186546  0.11314098  0.54109091  1
  Co  Co117  1  0.81846612  0.29437935  0.95437694  1
  Co  Co118  1  0.20353238  0.34027794  0.98036140  1
  Co  Co119  1  0.14991384  0.91294853  0.59286154  1
  Co  Co120  1  0.80046168  0.36156872  0.40743476  1
  Co  Co121  1  0.53567264  0.47859895  0.44386370  1
  Co  Co122  1  0.38331097  0.81804951  0.69096354  1
  Co  Co123  1  0.02710211  0.38889905  0.13275953  1
  Co  Co124  1  0.00653810  0.47891933  0.34382186  1
  Co  Co125  1  0.62793092  0.93770740  0.50147830  1
  Co  Co126  1  0.05343557  0.61851237  0.22570027  1
  Co  Co127  1  0.49126288  0.96037123  0.04744833  1
  Co  Co128  1  0.23566279  0.73935586  0.65610926  1
  Co  Co129  1  0.49553545  0.20788580  0.46256942  1
  Co  Co130  1  0.73703230  0.18180417  0.66266072  1
  Co  Co131  1  0.26760056  0.86631082  0.48182185  1
  Co  Co132  1  0.17798571  0.96579503  0.04125525  1
  Co  Co133  1  0.06648323  0.77560274  0.66193059  1
  Co  Co134  1  0.73844025  0.34764215  0.24921485  1
  Co  Co135  1  0.79473788  0.82604783  0.12212594  1
  Co  Co136  1  0.87181391  0.92532609  0.65595293  1
  Co  Co137  1  0.59118402  0.18766617  0.58784874  1
  Co  Co138  1  0.59550685  0.13510412  0.91084636  1
  Co  Co139  1  0.32432101  0.93425053  0.81350813  1
  Co  Co140  1  0.36211414  0.27161252  0.57886994  1
  Co  Co141  1  0.27889892  0.03902887  0.93129330  1
  Co  Co142  1  0.71980344  0.83276957  0.38666936  1
  Co  Co143  1  0.22818842  0.43614630  0.49954985  1
  Co  Co144  1  0.31077656  0.28084832  0.74229901  1
  Co  Co145  1  0.73903897  0.07179396  0.80531026  1
  Co  Co146  1  0.98685903  0.53883917  0.98909568  1
  Co  Co147  1  0.08646737  0.34432179  0.29859999  1
  Co  Co148  1  0.65192613  0.75189567  0.69745175  1
  Co  Co149  1  0.34669901  0.89378268  0.98873835  1
  Co  Co150  1  0.70529075  0.90629457  0.24107902  1
  Co  Co151  1  0.46993247  0.27786975  0.31453755  1
  Co  Co152  1  0.32324895  0.09917392  0.77699068  1
  Co  Co153  1  0.10594401  0.89195791  0.44229054  1
  Co  Co154  1  0.91056528  0.37119458  0.26368624  1
  Co  Co155  1  0.56263221  0.55310169  0.82524104  1
  Co  Co156  1  0.08213029  0.55156263  0.50900973  1
  Co  Co157  1  0.44887050  0.34570818  0.70285648  1
  Co  Co158  1  0.97071845  0.67884237  0.49905438  1
  Co  Co159  1  0.64134839  0.46710943  0.30903230  1
  Co  Co160  1  0.71490122  0.88731754  0.64961434  1
  Co  Co161  1  0.67293196  0.75554174  0.22568525  1
  Ni  Ni162  1  0.45701778  0.82709432  0.14333264  1
  Ni  Ni163  1  0.51004976  0.72175348  0.60872448  1
  Ni  Ni164  1  0.24678271  0.59192987  0.56260337  1
  Ni  Ni165  1  0.43492469  0.73155046  0.38204781  1
  Ni  Ni166  1  0.13071869  0.53833808  0.89620660  1
  Ni  Ni167  1  0.82069021  0.04836022  0.35027879  1
  Ni  Ni168  1  0.25633367  0.07179577  0.27999256  1
  Ni  Ni169  1  0.29683308  0.22136401  0.06899005  1
  Ni  Ni170  1  0.91816840  0.61668752  0.32903625  1
  Ni  Ni171  1  0.83856825  0.62471563  0.02499849  1
  Ni  Ni172  1  0.93020658  0.66161944  0.88321278  1
  Ni  Ni173  1  0.39611253  0.15366211  0.96111038  1
  Ni  Ni174  1  0.19365698  0.78226133  0.05591077  1
  Ni  Ni175  1  0.33357792  0.56899548  0.06670231  1
  Ni  Ni176  1  0.40578817  0.62385702  0.90034491  1
  Ni  Ni177  1  0.00435232  0.08000491  0.08908902  1
  Ni  Ni178  1  0.79784545  0.62078144  0.53109382  1
  Ni  Ni179  1  0.98882239  0.23252813  0.02629539  1
  Ni  Ni180  1  0.86939255  0.15757439  0.13974167  1
  Ni  Ni181  1  0.45059237  0.87463894  0.51135203  1
  Ni  Ni182  1  0.22989009  0.66032682  0.95059709  1
  Ni  Ni183  1  0.93410560  0.92414966  0.12718203  1
  Ni  Ni184  1  0.28406264  0.48881178  0.93711996  1
  Ni  Ni185  1  0.04512168  0.37055085  0.75843184  1
  Ni  Ni186  1  0.09960767  0.03082117  0.35185510  1
  Ni  Ni187  1  0.61497908  0.02954900  0.18136019  1
  Ni  Ni188  1  0.50003500  -0.03452932  0.38230739  1
  Ni  Ni189  1  0.39403886  0.14184743  0.22343834  1
  Ni  Ni190  1  0.57827094  0.67917927  0.92701710  1
  Ni  Ni191  1  0.84798967  0.19934693  0.52168250  1
  Ni  Ni192  1  0.03992583  0.12656133  0.72640290  1
  Ni  Ni193  1  0.04383431  0.87625164  0.84653356  1
  Ni  Ni194  1  0.43870151  0.59428180  0.30675414  1
  Ni  Ni195  1  0.89385126  0.36086170  0.55162155  1
  Ni  Ni196  1  1.01357469  0.01647511  0.55382898  1
  Ni  Ni197  1  0.80882555  0.31877595  0.70211361  1
  Ni  Ni198  1  0.58935688  0.24384927  0.03697509  1
  Ni  Ni199  1  0.94906049  0.94895087  0.40752355  1
  Ni  Ni200  1  0.76640358  0.85097744  0.93379520  1
  Ni  Ni201  1  0.37700880  0.85896301  0.30681140  1
  Ni  Ni202  1  0.14373045  0.47720614  0.21968242  1
  Ni  Ni203  1  0.07701847  0.19070288  0.52363803  1
  Ni  Ni204  1  0.68501942  0.54951057  0.95198407  1
  Ni  Ni205  1  0.98472901  0.07717198  0.88444884  1
  Ni  Ni206  1  0.68591735  0.43772623  0.64494803  1
  Ni  Ni207  1  0.55080283  0.51176139  0.15466836  1
  Ni  Ni208  1  0.88245499  0.18100361  0.79836601  1
  Ni  Ni209  1  0.21797566  0.54017023  0.75526305  1
  Ni  Ni210  1  0.35568479  0.71518599  0.21986438  1
  Ni  Ni211  1  0.53298193  0.39577715  0.84355669  1
  Ni  Ni212  1  0.66514456  0.60000883  0.21579451  1
  Ni  Ni213  1  0.68835071  0.10511855  0.04941741  1
  Ni  Ni214  1  0.42155137  0.57352215  0.57835081  1
  Ni  Ni215  1  0.41464235  0.43588320  0.12178069  1
