# generated using pymatgen
data_Ti2CoNi
_symmetry_space_group_name_H-M   'P 1'
_cell_length_a   14.57751765
_cell_length_b   14.64712187
_cell_length_c   14.60177808
_cell_angle_alpha   89.71844818
_cell_angle_beta   90.05402575
_cell_angle_gamma   89.93314408
_symmetry_Int_Tables_number   1
_chemical_formula_structural   Ti2CoNi
_chemical_formula_sum   'Ti108 Co54 Ni54'
_cell_volume   3117.71117785
_cell_formula_units_Z   54
loop_
 _symmetry_equiv_pos_site_id
 _symmetry_equiv_pos_as_xyz
  1  'x, y, z'
loop_
 _atom_site_type_symbol
 _atom_site_label
 _atom_site_symmetry_multiplicity
 _atom_site_fract_x
 _atom_site_fract_y
 _atom_site_fract_z
 _atom_site_occupancy
  Ti  Ti0  1  -0.00526964  -0.01795093  0.03221137  1
  Ti  Ti1  1  0.03090188  0.07048403  0.31274810  1
  Ti  Ti2  1  0.00252378  -0.08912139  0.73005899  1
  Ti  Ti3  1  -0.03731474  0.34784868  -0.04357286  1
  Ti  Ti4  1  0.01311266  0.30572524  0.24607039  1
  Ti  Ti5  1  0.06075879  0.39985726  0.65218788  1
  Ti  Ti6  1  0.00072175  0.66847355  0.07620209  1
  Ti  Ti7  1  0.00868331  0.76281473  0.35821405  1
  Ti  Ti8  1  -0.07028458  0.71993924  0.65593589  1
  Ti  Ti9  1  0.35018024  0.06588894  -0.01258121  1
  Ti  Ti10  1  0.33646818  0.07223011  0.27810751  1
  Ti  Ti11  1  0.28610079  -0.04569641  0.67634036  1
  Ti  Ti12  1  0.31392860  0.25745026  0.00596304  1
  Ti  Ti13  1  0.40214708  0.29944343  0.38842571  1
  Ti  Ti14  1  0.31161479  0.33270099  0.67237285  1
  Ti  Ti15  1  0.33766010  0.73719911  -0.00741674  1
  Ti  Ti16  1  0.38861924  0.67914875  0.33471256  1
  Ti  Ti17  1  0.33401646  0.57643154  0.73581740  1
  Ti  Ti18  1  0.70328068  0.00035699  -0.07877238  1
  Ti  Ti19  1  0.61655094  0.00167971  0.42996673  1
  Ti  Ti20  1  0.66821059  0.01320188  0.62210645  1
  Ti  Ti21  1  0.72263213  0.25561893  0.11842789  1
  Ti  Ti22  1  0.74950688  0.35134615  0.39887185  1
  Ti  Ti23  1  0.66094240  0.36145290  0.61436889  1
  Ti  Ti24  1  0.68277306  0.66840022  -0.06157893  1
  Ti  Ti25  1  0.60027226  0.68598740  0.36293303  1
  Ti  Ti26  1  0.72184447  0.67643117  0.67340385  1
  Ti  Ti27  1  -0.08082101  0.13116463  0.16586164  1
  Ti  Ti28  1  0.04695308  0.07267865  0.52266791  1
  Ti  Ti29  1  0.02990321  0.22598321  0.79859380  1
  Ti  Ti30  1  -0.00975844  0.51486249  0.24107897  1
  Ti  Ti31  1  -0.02063453  0.50907208  0.49617569  1
  Ti  Ti32  1  0.07086845  0.46009083  0.83071885  1
  Ti  Ti33  1  0.08029610  0.83568536  0.16020907  1
  Ti  Ti34  1  -0.04681463  0.88700771  0.54626324  1
  Ti  Ti35  1  0.01943597  0.82223850  0.92128421  1
  Ti  Ti36  1  0.38065095  0.25518480  0.19385857  1
  Ti  Ti37  1  0.34692516  0.12698382  0.45283923  1
  Ti  Ti38  1  0.25250913  0.19138999  0.83491475  1
  Ti  Ti39  1  0.36542638  0.44209170  0.12265890  1
  Ti  Ti40  1  0.31058566  0.48552723  0.44397831  1
  Ti  Ti41  1  0.34871311  0.55207714  0.93685235  1
  Ti  Ti42  1  0.28296346  0.86578579  0.22173352  1
  Ti  Ti43  1  0.31328877  0.76265725  0.49025836  1
  Ti  Ti44  1  0.32097174  0.81558599  0.80783061  1
  Ti  Ti45  1  0.72064630  0.06564552  0.18567144  1
  Ti  Ti46  1  0.66692953  0.19878907  0.48021457  1
  Ti  Ti47  1  0.66992569  0.19922372  0.90443731  1
  Ti  Ti48  1  0.70606874  0.50277558  0.10628904  1
  Ti  Ti49  1  0.62442415  0.49592417  0.43667286  1
  Ti  Ti50  1  0.68611323  0.40636053  0.82198941  1
  Ti  Ti51  1  0.67427709  0.84055801  0.21566202  1
  Ti  Ti52  1  0.62634120  0.82625963  0.53248606  1
  Ti  Ti53  1  0.62735546  0.83604914  0.81273334  1
  Ti  Ti54  1  0.17281614  0.01470937  0.19111455  1
  Ti  Ti55  1  0.21454397  -0.03937604  0.41172204  1
  Ti  Ti56  1  0.12588133  0.05617055  0.77178184  1
  Ti  Ti57  1  0.19111062  0.33408370  0.14496099  1
  Ti  Ti58  1  0.14575165  0.32545681  0.50482505  1
  Ti  Ti59  1  0.25245225  0.39940603  0.84922850  1
  Ti  Ti60  1  0.16066089  0.64208167  0.20801678  1
  Ti  Ti61  1  0.13575156  0.66698308  0.50653664  1
  Ti  Ti62  1  0.11925254  0.65579865  0.90977582  1
  Ti  Ti63  1  0.52560092  -0.01188277  0.08146156  1
  Ti  Ti64  1  0.46520585  0.03596636  0.58296472  1
  Ti  Ti65  1  0.45548671  -0.01203308  0.79530416  1
  Ti  Ti66  1  0.54980963  0.37067772  0.11700102  1
  Ti  Ti67  1  0.48740872  0.31918086  0.56288651  1
  Ti  Ti68  1  0.52818749  0.31392303  0.88879966  1
  Ti  Ti69  1  0.44289259  0.61734170  0.11935662  1
  Ti  Ti70  1  0.46620292  0.62810293  0.60353964  1
  Ti  Ti71  1  0.54989565  0.61790982  0.80026825  1
  Ti  Ti72  1  0.85480296  -0.06698234  0.16629221  1
  Ti  Ti73  1  0.84092859  0.07270293  0.45645796  1
  Ti  Ti74  1  0.87332783  0.02016420  0.80193780  1
  Ti  Ti75  1  0.82968123  0.38968582  0.21414147  1
  Ti  Ti76  1  0.94200087  0.30384039  0.48569843  1
  Ti  Ti77  1  0.84072184  0.19757177  0.81826690  1
  Ti  Ti78  1  0.83618748  0.64714446  0.18585370  1
  Ti  Ti79  1  0.78951255  0.63333528  0.48849385  1
  Ti  Ti80  1  0.91688530  0.62317525  0.81371142  1
  Ti  Ti81  1  0.15260220  0.11846778  -0.01781959  1
  Ti  Ti82  1  0.21916144  0.26664020  0.33259934  1
  Ti  Ti83  1  0.20303727  0.17898764  0.62994711  1
  Ti  Ti84  1  0.12609084  0.51405614  0.04386144  1
  Ti  Ti85  1  0.17996281  0.46789451  0.29404501  1
  Ti  Ti86  1  0.12117286  0.60505658  0.68895691  1
  Ti  Ti87  1  0.22151614  0.90580877  0.02154837  1
  Ti  Ti88  1  0.19358178  0.77086381  0.34315985  1
  Ti  Ti89  1  0.15412451  0.80723000  0.63226792  1
  Ti  Ti90  1  0.51041789  0.19778457  0.02968764  1
  Ti  Ti91  1  0.52675248  0.16579979  0.33635370  1
  Ti  Ti92  1  0.48478098  0.19880831  0.73433300  1
  Ti  Ti93  1  0.55317433  0.49361650  -0.04428086  1
  Ti  Ti94  1  0.50001440  0.51343738  0.27865102  1
  Ti  Ti95  1  0.48299425  0.43299827  0.74103321  1
  Ti  Ti96  1  0.56488664  0.79198552  0.03449702  1
  Ti  Ti97  1  0.47302935  0.80453406  0.22823461  1
  Ti  Ti98  1  0.43122145  0.83733172  0.62207814  1
  Ti  Ti99  1  0.84043938  0.14013721  -0.00118334  1
  Ti  Ti100  1  0.85435630  0.21734841  0.32024402  1
  Ti  Ti101  1  0.78000256  0.16269965  0.64631241  1
  Ti  Ti102  1  0.81941408  0.50810638  -0.06312161  1
  Ti  Ti103  1  0.77673999  0.53130025  0.32870950  1
  Ti  Ti104  1  0.79913513  0.50371635  0.67180259  1
  Ti  Ti105  1  0.78260753  0.82250346  -0.00038360  1
  Ti  Ti106  1  0.85479962  0.86746851  0.35642364  1
  Ti  Ti107  1  0.78484421  0.86443007  0.68244151  1
  Co  Co108  1  0.57553412  0.18323730  0.17882512  1
  Co  Co109  1  0.57352110  0.70146189  0.18975270  1
  Co  Co110  1  0.43113375  0.11113667  0.14608387  1
  Co  Co111  1  0.44786528  0.95893462  0.23114555  1
  Co  Co112  1  0.58269543  0.32781570  0.42095867  1
  Co  Co113  1  0.62621978  0.51266685  0.70131058  1
  Co  Co114  1  0.32564513  0.99617120  0.12587201  1
  Co  Co115  1  0.54149477  0.48408080  0.57491799  1
  Co  Co116  1  0.36869121  0.86089423  0.36155355  1
  Co  Co117  1  0.33180736  0.39686458  0.27820864  1
  Co  Co118  1  0.07688143  0.24792246  0.07689490  1
  Co  Co119  1  0.06586876  0.09485067  0.11871151  1
  Co  Co120  1  0.98469109  0.95039007  0.40548199  1
  Co  Co121  1  0.47446887  0.59380432  0.44406367  1
  Co  Co122  1  0.10538047  0.84796419  0.47352942  1
  Co  Co123  1  0.19041811  0.80309705  0.90374863  1
  Co  Co124  1  0.57943010  0.03059918  0.26285593  1
  Co  Co125  1  0.87692460  0.68510528  0.96504180  1
  Co  Co126  1  0.72323810  0.95635488  0.31923506  1
  Co  Co127  1  0.77287850  0.73216504  0.81198094  1
  Co  Co128  1  0.46377486  0.43728281  0.43816957  1
  Co  Co129  1  0.21293746  0.46476952  0.68973636  1
  Co  Co130  1  0.96854281  0.55032015  0.66989228  1
  Co  Co131  1  0.86292002  0.04059838  0.29749403  1
  Co  Co132  1  -0.01712631  0.09042571  0.68601968  1
  Co  Co133  1  0.59408082  0.60742478  0.06456632  1
  Co  Co134  1  0.79125653  0.32942951  0.72524979  1
  Co  Co135  1  0.10455698  0.96682197  0.90890383  1
  Co  Co136  1  0.90572359  0.40036709  0.62273371  1
  Co  Co137  1  0.56049863  0.91689608  0.68300517  1
  Co  Co138  1  0.68795399  0.93489981  0.08251716  1
  Co  Co139  1  0.26933340  0.58530986  0.07609906  1
  Co  Co140  1  0.91404776  0.79822184  0.80457577  1
  Co  Co141  1  0.66273715  0.58784256  0.23550520  1
  Co  Co142  1  0.20854881  0.55417828  0.83618730  1
  Co  Co143  1  0.05440517  0.22530714  0.60429348  1
  Co  Co144  1  0.90293492  0.41417097  0.35611404  1
  Co  Co145  1  0.11665363  0.96812649  0.62308805  1
  Co  Co146  1  0.15663015  0.30524129  0.74592644  1
  Co  Co147  1  0.10576739  0.90581192  0.30431302  1
  Co  Co148  1  0.54827881  0.86503330  0.36327553  1
  Co  Co149  1  0.48800100  0.64792696  0.94942031  1
  Co  Co150  1  0.24442256  0.41666696  1.01129762  1
  Co  Co151  1  0.78945177  0.88681375  0.84931546  1
  Co  Co152  1  0.48410090  0.75348301  0.47523065  1
  Co  Co153  1  0.25117484  0.16112439  0.13032936  1
  Co  Co154  1  0.12253242  0.18541154  0.23663376  1
  Co  Co155  1  0.45469022  0.00728198  0.38986846  1
  Co  Co156  1  0.71805013  0.70289312  0.10240138  1
  Co  Co157  1  0.80113690  0.31686696  0.91021034  1
  Co  Co158  1  0.91972127  0.25036782  0.67419551  1
  Co  Co159  1  0.16137094  0.89014588  0.77506555  1
  Co  Co160  1  0.35913725  0.93937300  0.50464021  1
  Co  Co161  1  0.65412125  0.42942994  0.25710754  1
  Ni  Ni162  1  1.04053346  0.21781504  0.39032708  1
  Ni  Ni163  1  0.23502199  0.61535986  0.37653654  1
  Ni  Ni164  1  -0.01701613  0.54299268  0.94854142  1
  Ni  Ni165  1  0.07635537  0.59819102  0.36443876  1
  Ni  Ni166  1  0.70728011  0.80746478  0.39329539  1
  Ni  Ni167  1  0.57608134  0.75124380  0.67049641  1
  Ni  Ni168  1  0.54128899  0.05904429  0.92049734  1
  Ni  Ni169  1  0.37914651  0.46862599  0.59753170  1
  Ni  Ni170  1  0.81243501  0.46525442  0.49857948  1
  Ni  Ni171  1  0.50824138  0.34612537  0.27151405  1
  Ni  Ni172  1  0.68805921  0.08725611  0.77444148  1
  Ni  Ni173  1  0.38423192  0.18620781  0.59919100  1
  Ni  Ni174  1  0.43392032  0.71814346  0.74700244  1
  Ni  Ni175  1  0.15220705  0.49768567  0.51937659  1
  Ni  Ni176  1  0.82213748  0.78365858  0.52933741  1
  Ni  Ni177  1  0.92149743  0.78244144  0.21829166  1
  Ni  Ni178  1  0.42288869  0.16426731  0.88198230  1
  Ni  Ni179  1  0.79679171  0.29680495  0.55545814  1
  Ni  Ni180  1  0.31850022  0.55998735  0.24025954  1
  Ni  Ni181  1  0.59335083  0.16322217  0.61857074  1
  Ni  Ni182  1  0.06989336  0.74793903  0.76931603  1
  Ni  Ni183  1  0.40651135  0.39681968  -0.03558019  1
  Ni  Ni184  1  0.93439903  0.82127686  0.06169272  1
  Ni  Ni185  1  0.39898622  0.85304100  0.09109015  1
  Ni  Ni186  1  0.81362112  0.38893135  0.04841243  1
  Ni  Ni187  1  0.41372768  0.92058820  0.94494155  1
  Ni  Ni188  1  0.85338528  0.00742218  0.62492833  1
  Ni  Ni189  1  0.38163945  0.30850839  0.82192279  1
  Ni  Ni190  1  0.76503576  0.93164089  0.49995459  1
  Ni  Ni191  1  0.72802203  0.57153157  0.81217595  1
  Ni  Ni192  1  0.17601534  0.73122577  0.06152248  1
  Ni  Ni193  1  0.65675847  0.10473971  0.04271062  1
  Ni  Ni194  1  0.17630494  0.13895425  0.43199903  1
  Ni  Ni195  1  0.27488368  -0.01425329  0.85503289  1
  Ni  Ni196  1  0.71240958  0.12274469  0.34142002  1
  Ni  Ni197  1  0.91296088  0.61291629  0.36016000  1
  Ni  Ni198  1  0.06324557  0.39676586  0.38239390  1
  Ni  Ni199  1  0.24274485  0.04484868  0.55268928  1
  Ni  Ni200  1  0.90112450  0.52245646  0.09046725  1
  Ni  Ni201  1  0.90605577  0.43003382  0.79860945  1
  Ni  Ni202  1  0.29685305  0.71498609  0.64856928  1
  Ni  Ni203  1  0.65852483  0.35497459  0.99184941  1
  Ni  Ni204  1  0.66586469  0.26830325  0.28164594  1
  Ni  Ni205  1  0.64423494  0.25248060  0.74711539  1
  Ni  Ni206  1  0.48687409  0.79329519  0.88271597  1
  Ni  Ni207  1  0.91050472  0.27694286  0.10366698  1
  Ni  Ni208  1  0.61839502  0.64277947  0.53444066  1
  Ni  Ni209  1  0.01791683  0.40625611  0.10938031  1
  Ni  Ni210  1  0.33662455  0.10024748  0.73195395  1
  Ni  Ni211  1  0.98407723  0.09704942  0.90783582  1
  Ni  Ni212  1  0.30242875  0.29821984  0.51126705  1
  Ni  Ni213  1  0.13103140  0.30646304  0.92514323  1
  Ni  Ni214  1  -0.03241712  0.68259014  0.50246588  1
  Ni  Ni215  1  0.31330678  0.71456163  0.17061100  1
