# generated using pymatgen
data_Ti2CoNi
_symmetry_space_group_name_H-M   'P 1'
_cell_length_a   14.56125555
_cell_length_b   14.50749629
_cell_length_c   14.49570538
_cell_angle_alpha   89.87809970
_cell_angle_beta   89.95833805
_cell_angle_gamma   89.85475361
_symmetry_Int_Tables_number   1
_chemical_formula_structural   Ti2CoNi
_chemical_formula_sum   'Ti108 Co54 Ni54'
_cell_volume   3062.16193769
_cell_formula_units_Z   54
loop_
 _symmetry_equiv_pos_site_id
 _symmetry_equiv_pos_as_xyz
  1  'x, y, z'
loop_
 _atom_site_type_symbol
 _atom_site_label
 _atom_site_symmetry_multiplicity
 _atom_site_fract_x
 _atom_site_fract_y
 _atom_site_fract_z
 _atom_site_occupancy
  Ti  Ti0  1  -0.06240346  -0.04308631  -0.07185826  1
  Ti  Ti1  1  0.00790854  -0.08786698  0.37317805  1
  Ti  Ti2  1  0.00260487  -0.00763384  0.65860251  1
  Ti  Ti3  1  -0.02610279  0.37429348  0.01203572  1
  Ti  Ti4  1  -0.02593722  0.30935044  0.27741520  1
  Ti  Ti5  1  -0.01733183  0.34244373  0.68371832  1
  Ti  Ti6  1  -0.06612380  0.73257663  -0.01635185  1
  Ti  Ti7  1  0.04098825  0.70892108  0.41610842  1
  Ti  Ti8  1  -0.11327382  0.62212513  0.68000756  1
  Ti  Ti9  1  0.38827896  0.00298127  0.02953512  1
  Ti  Ti10  1  0.34977989  0.03733410  0.36970511  1
  Ti  Ti11  1  0.31732739  0.07697393  0.69768791  1
  Ti  Ti12  1  0.43707092  0.31100402  0.00417706  1
  Ti  Ti13  1  0.33941520  0.37309458  0.34126660  1
  Ti  Ti14  1  0.26923092  0.35722656  0.68502124  1
  Ti  Ti15  1  0.30643791  0.68830603  -0.01263431  1
  Ti  Ti16  1  0.38562231  0.66876719  0.29319030  1
  Ti  Ti17  1  0.35721201  0.64998827  0.58744924  1
  Ti  Ti18  1  0.59428022  0.04992906  0.00963622  1
  Ti  Ti19  1  0.62891108  -0.07639804  0.32956564  1
  Ti  Ti20  1  0.75025874  0.00238546  0.67494087  1
  Ti  Ti21  1  0.79775248  0.29908779  -0.01260733  1
  Ti  Ti22  1  0.68222321  0.28286976  0.28937003  1
  Ti  Ti23  1  0.71114365  0.29624977  0.66004541  1
  Ti  Ti24  1  0.60866248  0.72215442  -0.01449753  1
  Ti  Ti25  1  0.59405278  0.74199682  0.34501436  1
  Ti  Ti26  1  0.70849003  0.66880708  0.66206871  1
  Ti  Ti27  1  0.07006397  0.14421915  0.15280758  1
  Ti  Ti28  1  0.02985502  0.15138574  0.37835506  1
  Ti  Ti29  1  0.06569052  0.20788141  0.83151205  1
  Ti  Ti30  1  0.06012894  0.55004222  0.10777310  1
  Ti  Ti31  1  -0.10835239  0.52866868  0.49375279  1
  Ti  Ti32  1  -0.00434868  0.56551278  0.90575483  1
  Ti  Ti33  1  -0.02997062  0.82908660  0.21797773  1
  Ti  Ti34  1  0.09774455  0.83793843  0.55692924  1
  Ti  Ti35  1  -0.04874364  0.76233048  0.80335003  1
  Ti  Ti36  1  0.30736848  0.25675553  0.18423945  1
  Ti  Ti37  1  0.41397281  0.09851791  0.53445037  1
  Ti  Ti38  1  0.39909319  0.23252746  0.81873144  1
  Ti  Ti39  1  0.27905436  0.43419927  0.13007334  1
  Ti  Ti40  1  0.26071533  0.48731200  0.49839270  1
  Ti  Ti41  1  0.37158974  0.42211120  0.84799732  1
  Ti  Ti42  1  0.31708605  0.83541521  0.11584271  1
  Ti  Ti43  1  0.39696404  0.85121890  0.55413975  1
  Ti  Ti44  1  0.32951212  0.79575121  0.76416440  1
  Ti  Ti45  1  0.69280504  0.10750474  0.15621287  1
  Ti  Ti46  1  0.69081055  0.06916908  0.43138906  1
  Ti  Ti47  1  0.59789897  0.08554750  0.81885020  1
  Ti  Ti48  1  0.70339228  0.55911750  0.23792031  1
  Ti  Ti49  1  0.57207656  0.49389645  0.50972777  1
  Ti  Ti50  1  0.69532457  0.48682157  0.80467486  1
  Ti  Ti51  1  0.67903141  0.76535931  0.16904964  1
  Ti  Ti52  1  0.69472736  0.79903533  0.49281583  1
  Ti  Ti53  1  0.64980706  0.85879581  0.83524264  1
  Ti  Ti54  1  0.21426061  0.01171684  0.12322879  1
  Ti  Ti55  1  0.20500012  0.00131555  0.55548019  1
  Ti  Ti56  1  0.18256765  -0.03309620  0.84069331  1
  Ti  Ti57  1  0.13370269  0.39721022  0.21995539  1
  Ti  Ti58  1  0.12610996  0.33500957  0.41964162  1
  Ti  Ti59  1  0.18297041  0.33580840  0.86558623  1
  Ti  Ti60  1  0.18397795  0.67582921  0.23434393  1
  Ti  Ti61  1  0.17291115  0.65919388  0.55493111  1
  Ti  Ti62  1  0.21380696  0.64228657  0.78233111  1
  Ti  Ti63  1  0.48977918  0.01735994  0.21762330  1
  Ti  Ti64  1  0.57392941  0.01056601  0.58792555  1
  Ti  Ti65  1  0.45102484  -0.05931363  0.85110839  1
  Ti  Ti66  1  0.50808615  0.27471333  0.22157866  1
  Ti  Ti67  1  0.42985852  0.36153534  0.52601458  1
  Ti  Ti68  1  0.55836975  0.38158532  0.84009566  1
  Ti  Ti69  1  0.53534987  0.63093748  0.16227146  1
  Ti  Ti70  1  0.54178216  0.68989912  0.55116922  1
  Ti  Ti71  1  0.51985918  0.58179868  0.86874998  1
  Ti  Ti72  1  0.89213333  0.00705557  0.13187606  1
  Ti  Ti73  1  0.87817573  0.03828833  0.44958173  1
  Ti  Ti74  1  0.77615940  0.02253790  0.87036699  1
  Ti  Ti75  1  0.87081740  0.45965650  0.15244578  1
  Ti  Ti76  1  0.73972486  0.39559039  0.47788582  1
  Ti  Ti77  1  0.86280406  0.22222579  0.82069728  1
  Ti  Ti78  1  0.85480718  0.67901525  0.19537759  1
  Ti  Ti79  1  0.85627978  0.72268983  0.50984361  1
  Ti  Ti80  1  0.78849869  0.66945954  0.87177150  1
  Ti  Ti81  1  0.24042213  0.15214784  -0.01671082  1
  Ti  Ti82  1  0.26296334  0.20812191  0.39598417  1
  Ti  Ti83  1  0.12605823  0.20624146  0.62356287  1
  Ti  Ti84  1  0.20646501  0.51345839  -0.06318266  1
  Ti  Ti85  1  0.11213353  0.52938555  0.37816117  1
  Ti  Ti86  1  0.10759922  0.51088172  0.64566314  1
  Ti  Ti87  1  0.13680246  0.80990419  0.07459349  1
  Ti  Ti88  1  0.18821315  0.93043476  0.30737584  1
  Ti  Ti89  1  0.13032824  0.79983347  0.75016320  1
  Ti  Ti90  1  0.48511362  0.16588849  0.08992385  1
  Ti  Ti91  1  0.52119225  0.21768850  0.40345181  1
  Ti  Ti92  1  0.54481365  0.21644014  0.59874966  1
  Ti  Ti93  1  0.42577558  0.50232727  0.02030552  1
  Ti  Ti94  1  0.47316353  0.49689125  0.28220015  1
  Ti  Ti95  1  0.43788522  0.50287654  0.66616569  1
  Ti  Ti96  1  0.52195972  0.87507109  0.04214028  1
  Ti  Ti97  1  0.42892046  0.86251749  0.35573789  1
  Ti  Ti98  1  0.51252323  0.77743211  0.71608395  1
  Ti  Ti99  1  0.93023285  0.14389748  -0.01663338  1
  Ti  Ti100  1  0.84049187  0.17929745  0.28619023  1
  Ti  Ti101  1  0.85832305  0.18089848  0.58502023  1
  Ti  Ti102  1  0.78964955  0.48637350  -0.02969898  1
  Ti  Ti103  1  0.82408735  0.41038579  0.32170652  1
  Ti  Ti104  1  0.76137544  0.48844913  0.63714235  1
  Ti  Ti105  1  0.81514587  0.85079046  0.04499637  1
  Ti  Ti106  1  0.81012840  0.87335485  0.35815844  1
  Ti  Ti107  1  0.79953959  0.81943851  0.68006304  1
  Co  Co108  1  0.01018562  0.70718123  0.11426166  1
  Co  Co109  1  0.72294557  0.40846590  0.10671051  1
  Co  Co110  1  0.28864114  0.35323754  0.98154230  1
  Co  Co111  1  0.12296264  0.67297480  0.97339712  1
  Co  Co112  1  0.97662776  0.07029583  0.82690433  1
  Co  Co113  1  -0.03070374  0.41108229  0.41879896  1
  Co  Co114  1  0.42879999  0.71117802  0.43976304  1
  Co  Co115  1  0.44077353  0.74405655  0.11243115  1
  Co  Co116  1  0.41807773  0.54199703  0.46543466  1
  Co  Co117  1  0.25351092  0.79132501  0.59841105  1
  Co  Co118  1  0.80663897  0.83464644  0.87386300  1
  Co  Co119  1  0.88425727  0.57937696  0.32574301  1
  Co  Co120  1  0.45965472  0.35334735  0.70879512  1
  Co  Co121  1  0.13145784  0.40553620  0.03619147  1
  Co  Co122  1  0.74313150  0.54978205  0.39493396  1
  Co  Co123  1  0.64568648  0.43567998  0.34535990  1
  Co  Co124  1  0.62853783  0.38435048  0.97556831  1
  Co  Co125  1  0.23432415  0.93969025  -0.01504438  1
  Co  Co126  1  0.80647123  0.29451935  0.17506893  1
  Co  Co127  1  0.58805175  0.41027339  0.19709618  1
  Co  Co128  1  0.57336694  0.60029272  0.37543425  1
  Co  Co129  1  0.46139490  0.09831510  0.91313427  1
  Co  Co130  1  0.92314293  0.87273317  0.51209453  1
  Co  Co131  1  0.87048391  0.26571427  0.41638356  1
  Co  Co132  1  0.65953162  0.57079496  0.94449845  1
  Co  Co133  1  0.57347783  0.95536543  0.73725100  1
  Co  Co134  1  0.43054278  0.40003216  0.14931794  1
  Co  Co135  1  0.47290107  0.10830445  0.71499446  1
  Co  Co136  1  0.73589188  0.21824992  0.46675375  1
  Co  Co137  1  0.23552976  0.20929051  0.76141537  1
  Co  Co138  1  0.02959846  0.64897700  0.26353695  1
  Co  Co139  1  0.06179402  0.23422695  0.99444693  1
  Co  Co140  1  0.75427131  0.67301977  0.05304696  1
  Co  Co141  1  0.68470140  0.61383950  0.51786957  1
  Co  Co142  1  0.75092828  0.70260791  0.34633522  1
  Co  Co143  1  0.63506229  0.69472961  0.80145886  1
  Co  Co144  1  0.76971384  0.93948435  0.52897003  1
  Co  Co145  1  0.90734242  0.74488128  0.34332349  1
  Co  Co146  1  0.05335269  0.99054592  0.49097312  1
  Co  Co147  1  0.50966123  0.37362511  0.37924456  1
  Co  Co148  1  0.61276510  0.31602484  0.49705181  1
  Co  Co149  1  -0.00528011  0.28288821  0.51253433  1
  Co  Co150  1  0.59559934  0.40607625  0.64934448  1
  Co  Co151  1  0.69406103  0.13053091  0.58968797  1
  Co  Co152  1  0.17900329  0.26128998  0.09410906  1
  Co  Co153  1  0.97483066  0.80548879  0.65472352  1
  Co  Co154  1  0.37224774  0.23864277  0.64312920  1
  Co  Co155  1  0.97663060  0.16423000  0.69867283  1
  Co  Co156  1  0.87969539  0.93579126  0.76542187  1
  Co  Co157  1  1.00977326  0.12836591  0.54073628  1
  Co  Co158  1  0.57775795  0.23696125  0.75424185  1
  Co  Co159  1  0.36300590  0.59061674  0.15390840  1
  Co  Co160  1  0.28445476  0.91623523  0.45402129  1
  Co  Co161  1  0.34036287  0.95275712  0.22380312  1
  Ni  Ni162  1  0.47758504  0.75396582  0.87836725  1
  Ni  Ni163  1  0.04587735  0.63598402  0.73917168  1
  Ni  Ni164  1  0.76711832  0.03223386  0.28034179  1
  Ni  Ni165  1  0.77541671  0.08078228  0.01783829  1
  Ni  Ni166  1  0.95335436  0.37828348  0.85255090  1
  Ni  Ni167  1  0.27518744  0.51912766  0.28822233  1
  Ni  Ni168  1  0.66015881  0.24887156  0.08308636  1
  Ni  Ni169  1  0.99356489  0.88359725  0.06235068  1
  Ni  Ni170  1  0.35330661  0.58476950  0.87880753  1
  Ni  Ni171  1  0.51999860  0.02686914  0.41791549  1
  Ni  Ni172  1  0.86895227  0.52289295  0.80710226  1
  Ni  Ni173  1  0.90179396  0.58084744  0.04522343  1
  Ni  Ni174  1  0.63326564  0.95112663  0.16619863  1
  Ni  Ni175  1  0.14045969  0.24246680  0.27386138  1
  Ni  Ni176  1  0.55412517  0.22834278  0.93044652  1
  Ni  Ni177  1  0.94238149  0.24167384  0.12047432  1
  Ni  Ni178  1  0.73419561  0.15543642  0.74555828  1
  Ni  Ni179  1  0.25487461  0.64650842  0.40657773  1
  Ni  Ni180  1  0.42120896  0.94597198  0.68432654  1
  Ni  Ni181  1  0.27893480  0.50966180  0.73667926  1
  Ni  Ni182  1  0.35511497  0.10213058  0.16585024  1
  Ni  Ni183  1  0.17390673  0.06467526  0.41248263  1
  Ni  Ni184  1  0.99297452  0.47492693  0.26639187  1
  Ni  Ni185  1  0.21743353  0.58657721  0.09000116  1
  Ni  Ni186  1  0.94969086  0.04149914  0.28088229  1
  Ni  Ni187  1  0.09123832  0.04838642  -0.04365704  1
  Ni  Ni188  1  0.00749514  0.62742972  0.57052395  1
  Ni  Ni189  1  0.12771891  0.07692907  0.72937767  1
  Ni  Ni190  1  0.35957305  0.84267877  0.94765501  1
  Ni  Ni191  1  0.05450009  0.83967265  0.91266029  1
  Ni  Ni192  1  0.58885234  0.50738396  0.07162966  1
  Ni  Ni193  1  0.63518784  0.85029534  0.63336588  1
  Ni  Ni194  1  0.59427945  0.11597079  0.29311990  1
  Ni  Ni195  1  0.78407978  0.88918930  0.20265669  1
  Ni  Ni196  1  0.26363343  0.16290048  0.55186766  1
  Ni  Ni197  1  0.86024810  0.35466874  0.57479073  1
  Ni  Ni198  1  0.58105012  0.56978755  0.69861634  1
  Ni  Ni199  1  0.82368186  0.37530105  0.75056183  1
  Ni  Ni200  1  0.27230176  0.32160811  0.51899914  1
  Ni  Ni201  1  0.52918879  0.82974820  0.21439684  1
  Ni  Ni202  1  0.22228347  0.10233190  0.26328539  1
  Ni  Ni203  1  0.10196177  0.48443833  0.80758536  1
  Ni  Ni204  1  0.54880297  0.87042480  0.47688636  1
  Ni  Ni205  1  0.31695952  0.07753116  0.85909871  1
  Ni  Ni206  1  0.68208960  0.91208032  0.99186619  1
  Ni  Ni207  1  0.40948457  0.64673230  0.74700997  1
  Ni  Ni208  1  0.17848984  0.79885234  0.40788919  1
  Ni  Ni209  1  0.23876544  0.92081854  0.68818837  1
  Ni  Ni210  1  0.28536295  0.80190908  0.27248732  1
  Ni  Ni211  1  0.20650088  0.79372760  0.90216686  1
  Ni  Ni212  1  0.70493118  0.18981553  0.90754981  1
  Ni  Ni213  1  0.13072865  0.37131579  0.58050708  1
  Ni  Ni214  1  0.40048648  0.17640282  0.30608957  1
  Ni  Ni215  1  0.06778249  0.96121504  0.19121060  1
