# generated using pymatgen
data_Ti2CoNi
_symmetry_space_group_name_H-M   'P 1'
_cell_length_a   14.65522077
_cell_length_b   14.63216505
_cell_length_c   14.67346806
_cell_angle_alpha   90.26229598
_cell_angle_beta   90.01668534
_cell_angle_gamma   90.17120210
_symmetry_Int_Tables_number   1
_chemical_formula_structural   Ti2CoNi
_chemical_formula_sum   'Ti108 Co54 Ni54'
_cell_volume   3146.49624394
_cell_formula_units_Z   54
loop_
 _symmetry_equiv_pos_site_id
 _symmetry_equiv_pos_as_xyz
  1  'x, y, z'
loop_
 _atom_site_type_symbol
 _atom_site_label
 _atom_site_symmetry_multiplicity
 _atom_site_fract_x
 _atom_site_fract_y
 _atom_site_fract_z
 _atom_site_occupancy
  Ti  Ti0  1  0.07968042  -0.00956283  0.00443955  1
  Ti  Ti1  1  0.05419768  0.05214810  0.28979685  1
  Ti  Ti2  1  -0.01855427  0.01181202  0.57717552  1
  Ti  Ti3  1  -0.01769309  0.34349020  0.04631431  1
  Ti  Ti4  1  -0.03363102  0.38873310  0.35316353  1
  Ti  Ti5  1  0.00369023  0.39504053  0.71751048  1
  Ti  Ti6  1  0.02680927  0.61604185  -0.04911151  1
  Ti  Ti7  1  0.03163201  0.71954374  0.36082417  1
  Ti  Ti8  1  -0.02412831  0.65892543  0.74906776  1
  Ti  Ti9  1  0.39268640  0.03947586  0.01008083  1
  Ti  Ti10  1  0.33356816  -0.03445011  0.33767578  1
  Ti  Ti11  1  0.29612043  -0.07818468  0.64016948  1
  Ti  Ti12  1  0.27928238  0.34177044  -0.00205803  1
  Ti  Ti13  1  0.31743296  0.44480096  0.32134252  1
  Ti  Ti14  1  0.27508622  0.34231662  0.66607228  1
  Ti  Ti15  1  0.34326484  0.69330093  -0.01632430  1
  Ti  Ti16  1  0.25134728  0.69850100  0.39966923  1
  Ti  Ti17  1  0.35081242  0.65090292  0.55463973  1
  Ti  Ti18  1  0.65663781  -0.01409459  0.05134498  1
  Ti  Ti19  1  0.73510856  0.02164992  0.23087349  1
  Ti  Ti20  1  0.66842872  -0.00197822  0.71814615  1
  Ti  Ti21  1  0.72439736  0.32593105  0.02304392  1
  Ti  Ti22  1  0.65818693  0.32573970  0.25785625  1
  Ti  Ti23  1  0.70236655  0.40383386  0.72872328  1
  Ti  Ti24  1  0.66887513  0.71493459  -0.11275220  1
  Ti  Ti25  1  0.67717141  0.61398858  0.37592427  1
  Ti  Ti26  1  0.70766211  0.65347440  0.69946789  1
  Ti  Ti27  1  0.03860818  0.16755093  0.13536706  1
  Ti  Ti28  1  -0.02520493  0.25271901  0.57201535  1
  Ti  Ti29  1  -0.06823862  0.16617917  0.75535972  1
  Ti  Ti30  1  -0.08846685  0.51643780  0.17854079  1
  Ti  Ti31  1  -0.03949821  0.58853424  0.54492880  1
  Ti  Ti32  1  0.08441251  0.42058024  0.91608627  1
  Ti  Ti33  1  -0.07825196  0.74873469  0.19451297  1
  Ti  Ti34  1  -0.03323223  0.84076396  0.50555255  1
  Ti  Ti35  1  0.03336006  0.88791862  0.83288844  1
  Ti  Ti36  1  0.30956825  0.19835040  0.15218389  1
  Ti  Ti37  1  0.33954079  0.14168726  0.44219321  1
  Ti  Ti38  1  0.34562346  0.16526651  0.86563166  1
  Ti  Ti39  1  0.33519230  0.52931914  0.10687655  1
  Ti  Ti40  1  0.36920386  0.44635601  0.52691116  1
  Ti  Ti41  1  0.31958510  0.52909788  0.80492103  1
  Ti  Ti42  1  0.34955384  0.84480402  0.13227245  1
  Ti  Ti43  1  0.41568685  0.83017497  0.49101050  1
  Ti  Ti44  1  0.33382500  0.85691926  0.83585451  1
  Ti  Ti45  1  0.67126234  0.17348847  0.13390480  1
  Ti  Ti46  1  0.69301493  0.11631849  0.46204964  1
  Ti  Ti47  1  0.65749122  0.20498923  0.75971328  1
  Ti  Ti48  1  0.62556678  0.47288885  0.14461391  1
  Ti  Ti49  1  0.72038860  0.47007774  0.55359898  1
  Ti  Ti50  1  0.52495423  0.49948689  0.79092750  1
  Ti  Ti51  1  0.63465823  0.84353182  0.19832960  1
  Ti  Ti52  1  0.66872210  0.82500589  0.43893435  1
  Ti  Ti53  1  0.69358238  0.89833561  0.89499526  1
  Ti  Ti54  1  0.17198929  -0.06194571  0.17109363  1
  Ti  Ti55  1  0.16825000  0.01832780  0.47223345  1
  Ti  Ti56  1  0.18714556  0.02252090  0.79076746  1
  Ti  Ti57  1  0.15953276  0.33852189  0.25618588  1
  Ti  Ti58  1  0.19570072  0.23088561  0.54151730  1
  Ti  Ti59  1  0.20665902  0.30334351  0.83326591  1
  Ti  Ti60  1  0.20219683  0.68320540  0.18362985  1
  Ti  Ti61  1  0.13823327  0.63043503  0.53472900  1
  Ti  Ti62  1  0.22336832  0.66875715  0.71761566  1
  Ti  Ti63  1  0.52042239  0.05423666  0.21283512  1
  Ti  Ti64  1  0.51731187  0.03824935  0.42739876  1
  Ti  Ti65  1  0.50934364  -0.04404536  0.85359543  1
  Ti  Ti66  1  0.45918547  0.36574441  0.21617738  1
  Ti  Ti67  1  0.51863786  0.23066708  0.56769104  1
  Ti  Ti68  1  0.42502337  0.34120234  0.85049979  1
  Ti  Ti69  1  0.53621949  0.64182490  0.21137979  1
  Ti  Ti70  1  0.55162617  0.66297108  0.54513789  1
  Ti  Ti71  1  0.49814281  0.63410064  0.90719955  1
  Ti  Ti72  1  0.92248721  -0.02028394  0.14232122  1
  Ti  Ti73  1  0.79652788  -0.04045120  0.50702249  1
  Ti  Ti74  1  0.85743829  -0.04404930  0.82597256  1
  Ti  Ti75  1  0.86155403  0.26254854  0.17563755  1
  Ti  Ti76  1  0.79164224  0.31020360  0.48140350  1
  Ti  Ti77  1  0.89957895  0.34153048  0.87300641  1
  Ti  Ti78  1  0.74014737  0.65698714  0.16169333  1
  Ti  Ti79  1  0.84684362  0.71643219  0.43579117  1
  Ti  Ti80  1  0.83223616  0.61774927  0.86611685  1
  Ti  Ti81  1  0.12120156  0.18933738  -0.03022075  1
  Ti  Ti82  1  0.17491788  0.19433510  0.35950165  1
  Ti  Ti83  1  0.10876040  0.11532786  0.65224035  1
  Ti  Ti84  1  0.13289348  0.48844620  0.10820779  1
  Ti  Ti85  1  0.13800393  0.52654097  0.32192950  1
  Ti  Ti86  1  0.13349732  0.42335286  0.57762899  1
  Ti  Ti87  1  0.16297349  0.78946590  0.01642905  1
  Ti  Ti88  1  0.16000712  0.86348094  0.34102254  1
  Ti  Ti89  1  0.07266305  0.77689022  0.65134504  1
  Ti  Ti90  1  0.56842855  0.22923526  -0.06981432  1
  Ti  Ti91  1  0.48818064  0.24420681  0.36923148  1
  Ti  Ti92  1  0.49749679  0.12388595  0.74686353  1
  Ti  Ti93  1  0.55305711  0.46069566  -0.01709689  1
  Ti  Ti94  1  0.44265068  0.57600758  0.39080769  1
  Ti  Ti95  1  0.54123924  0.46971129  0.61436105  1
  Ti  Ti96  1  0.54284643  0.78359752  0.03414375  1
  Ti  Ti97  1  0.48713208  0.87649223  0.29630308  1
  Ti  Ti98  1  0.46974089  0.79775972  0.68900271  1
  Ti  Ti99  1  0.78454761  0.12530596  -0.08219545  1
  Ti  Ti100  1  0.90238122  0.19938259  0.37773849  1
  Ti  Ti101  1  0.78460550  0.16387002  0.63063201  1
  Ti  Ti102  1  0.74948915  0.52915288  0.00554887  1
  Ti  Ti103  1  0.83416626  0.50772824  0.41008945  1
  Ti  Ti104  1  0.85565299  0.51492052  0.68659654  1
  Ti  Ti105  1  0.88543423  0.82673334  0.01452570  1
  Ti  Ti106  1  0.85244681  0.88803600  0.32588938  1
  Ti  Ti107  1  0.76569898  0.84311168  0.64138905  1
  Co  Co108  1  0.75870013  0.19338928  0.29340825  1
  Co  Co109  1  0.07867375  0.55953027  0.67608320  1
  Co  Co110  1  0.57372666  0.51841421  0.46226435  1
  Co  Co111  1  0.18958589  0.08849335  0.10462040  1
  Co  Co112  1  0.79395751  0.41393891  0.13543215  1
  Co  Co113  1  0.89839084  0.10937239  0.23582910  1
  Co  Co114  1  0.22718912  0.35674298  0.42965958  1
  Co  Co115  1  0.66374295  0.55578130  0.85049548  1
  Co  Co116  1  0.68822120  0.42471828  0.38784574  1
  Co  Co117  1  0.19123828  0.61519800  0.02133894  1
  Co  Co118  1  0.12589161  0.92789311  0.61760517  1
  Co  Co119  1  0.09012664  0.73943244  0.83825946  1
  Co  Co120  1  0.55517225  0.66752590  0.73925677  1
  Co  Co121  1  0.42489928  0.58697187  0.67308261  1
  Co  Co122  1  0.12066650  0.79352532  0.48713959  1
  Co  Co123  1  0.23675089  0.71374831  0.87348543  1
  Co  Co124  1  0.67446371  0.28525630  0.60301993  1
  Co  Co125  1  0.36562173  0.28625503  0.51274263  1
  Co  Co126  1  0.26154131  0.52323683  0.63560466  1
  Co  Co127  1  0.50817914  0.79236656  0.86145872  1
  Co  Co128  1  0.58393826  0.36378182  0.49803860  1
  Co  Co129  1  0.13497579  0.57803164  0.83573810  1
  Co  Co130  1  0.60660700  0.13923014  0.30564306  1
  Co  Co131  1  0.85352422  0.63416118  0.29093934  1
  Co  Co132  1  0.38742940  0.69298227  0.79562041  1
  Co  Co133  1  0.18566494  0.89286111  0.89844419  1
  Co  Co134  1  0.46382368  0.40096878  0.39756982  1
  Co  Co135  1  0.87156456  0.11351900  0.50873829  1
  Co  Co136  1  0.18924863  0.84177528  0.74738149  1
  Co  Co137  1  0.02572812  0.23213080  0.28368950  1
  Co  Co138  1  0.65133139  0.25824917  0.40925284  1
  Co  Co139  1  0.25656387  0.87899211  0.47236385  1
  Co  Co140  1  0.16963500  0.44442638  0.75455897  1
  Co  Co141  1  0.79336763  0.45648275  0.85482281  1
  Co  Co142  1  0.61375199  0.79791093  0.60133565  1
  Co  Co143  1  0.97685338  0.57183176  0.37055353  1
  Co  Co144  1  0.63645718  0.95777383  0.53841100  1
  Co  Co145  1  0.73745292  0.51107748  0.25673881  1
  Co  Co146  1  0.54519564  0.32123410  0.72483187  1
  Co  Co147  1  0.63557120  0.82522461  0.75969003  1
  Co  Co148  1  0.81380002  0.36265932  0.30137343  1
  Co  Co149  1  0.40725858  0.42222970  0.70113784  1
  Co  Co150  1  0.32344054  0.27588830  0.30612245  1
  Co  Co151  1  0.06364575  0.47239122  0.45451391  1
  Co  Co152  1  0.24885654  0.77234679  0.58955990  1
  Co  Co153  1  0.25775067  0.93708413  0.03477750  1
  Co  Co154  1  0.61617474  0.10636977  0.60827661  1
  Co  Co155  1  0.15053256  0.30338710  0.09162543  1
  Co  Co156  1  0.22846611  0.48217541  0.93527154  1
  Co  Co157  1  0.65025291  0.96896275  0.36093662  1
  Co  Co158  1  0.00817314  0.01704431  0.73951767  1
  Co  Co159  1  0.39588804  0.12200593  0.28796120  1
  Co  Co160  1  0.58582389  0.74066683  0.32995085  1
  Co  Co161  1  0.96196736  0.50807353  0.82571067  1
  Ni  Ni162  1  0.62211486  0.37441649  0.86692084  1
  Ni  Ni163  1  0.71472231  0.77410152  0.04125895  1
  Ni  Ni164  1  0.43087765  0.73047878  0.36345410  1
  Ni  Ni165  1  0.04671323  0.69098569  0.09084848  1
  Ni  Ni166  1  0.42803675  0.38075601  0.05581019  1
  Ni  Ni167  1  0.62504416  0.07302837  0.88206382  1
  Ni  Ni168  1  0.03812940  0.25245430  0.84657650  1
  Ni  Ni169  1  0.84282802  0.01520164  0.67295291  1
  Ni  Ni170  1  0.80582482  0.77740689  0.78895851  1
  Ni  Ni171  1  0.41715320  0.22273786  1.00874608  1
  Ni  Ni172  1  0.97909956  0.06916673  0.89329605  1
  Ni  Ni173  1  0.81765226  0.04949361  0.36779318  1
  Ni  Ni174  1  0.75298937  0.28128524  0.86417087  1
  Ni  Ni175  1  0.25231569  0.17659112  0.72673921  1
  Ni  Ni176  1  0.61194650  0.62426938  0.04664258  1
  Ni  Ni177  1  0.93264762  0.87042681  0.68566735  1
  Ni  Ni178  1  0.33177750  0.61291480  0.26637175  1
  Ni  Ni179  1  0.01591452  0.37985468  0.19653738  1
  Ni  Ni180  1  0.11386884  0.27711450  0.69197157  1
  Ni  Ni181  1  0.91241934  0.48647215  0.98635105  1
  Ni  Ni182  1  0.04035893  0.61500995  0.22702953  1
  Ni  Ni183  1  1.06967995  0.30200567  0.44255513  1
  Ni  Ni184  1  0.40208255  0.24748255  0.69322400  1
  Ni  Ni185  1  0.93201415  0.19702878  -0.01320373  1
  Ni  Ni186  1  0.56420547  0.29715130  0.09446489  1
  Ni  Ni187  1  0.26980036  0.08171745  0.59843048  1
  Ni  Ni188  1  0.39935672  0.68910376  0.14026446  1
  Ni  Ni189  1  0.81830545  0.97733564  1.00120762  1
  Ni  Ni190  1  0.24362674  0.52898159  0.45798218  1
  Ni  Ni191  1  0.39426827  0.49992480  0.94944674  1
  Ni  Ni192  1  0.87155998  0.65897067  0.03550665  1
  Ni  Ni193  1  0.04295245  0.13623150  0.46463681  1
  Ni  Ni194  1  0.01101106  0.88454581  0.27457084  1
  Ni  Ni195  1  0.88163751  0.72133973  0.62312030  1
  Ni  Ni196  1  1.03556101  0.85107811  0.11144336  1
  Ni  Ni197  1  0.56142306  0.49076123  0.29648880  1
  Ni  Ni198  1  0.49652111  0.92564262  0.11438215  1
  Ni  Ni199  1  0.76163627  0.62969721  0.54387547  1
  Ni  Ni200  1  0.31018739  0.79485544  0.28057899  1
  Ni  Ni201  1  0.93698002  0.75248490  0.88651819  1
  Ni  Ni202  1  0.79183523  0.87006420  0.15687085  1
  Ni  Ni203  1  0.23414008  0.06584414  0.94513453  1
  Ni  Ni204  1  0.36770950  0.02006823  0.76439382  1
  Ni  Ni205  1  0.37229736  0.99289974  0.50537248  1
  Ni  Ni206  1  0.23069498  0.07418756  0.26891490  1
  Ni  Ni207  1  0.91956333  0.41849675  0.54598270  1
  Ni  Ni208  1  0.74988386  0.76123483  0.29325463  1
  Ni  Ni209  1  0.82120077  0.11763608  0.08725047  1
  Ni  Ni210  1  0.34610801  1.01373049  0.16726053  1
  Ni  Ni211  1  0.29190238  0.37596079  0.16462906  1
  Ni  Ni212  1  0.84336131  0.32703149  0.66676558  1
  Ni  Ni213  1  0.54205654  0.10882440  0.04167645  1
  Ni  Ni214  1  0.41190244  0.87098949  0.97824705  1
  Ni  Ni215  1  0.96574042  0.98652308  0.41159421  1
