# generated using pymatgen
data_Ti2CoNi
_symmetry_space_group_name_H-M   'P 1'
_cell_length_a   14.47455945
_cell_length_b   14.49705259
_cell_length_c   14.53440549
_cell_angle_alpha   89.71683029
_cell_angle_beta   89.85355415
_cell_angle_gamma   89.98140401
_symmetry_Int_Tables_number   1
_chemical_formula_structural   Ti2CoNi
_chemical_formula_sum   'Ti108 Co54 Ni54'
_cell_volume   3049.82975502
_cell_formula_units_Z   54
loop_
 _symmetry_equiv_pos_site_id
 _symmetry_equiv_pos_as_xyz
  1  'x, y, z'
loop_
 _atom_site_type_symbol
 _atom_site_label
 _atom_site_symmetry_multiplicity
 _atom_site_fract_x
 _atom_site_fract_y
 _atom_site_fract_z
 _atom_site_occupancy
  Ti  Ti0  1  0.04824059  0.02693077  -0.05277585  1
  Ti  Ti1  1  0.00038219  0.06324675  0.35840586  1
  Ti  Ti2  1  0.02302160  0.02511415  0.60583417  1
  Ti  Ti3  1  -0.06989584  0.36638038  0.05964310  1
  Ti  Ti4  1  -0.01665138  0.37779237  0.27873288  1
  Ti  Ti5  1  0.05135009  0.34854655  0.58524629  1
  Ti  Ti6  1  -0.03587703  0.70605137  -0.03083422  1
  Ti  Ti7  1  -0.00116975  0.63486476  0.32166248  1
  Ti  Ti8  1  -0.02294720  0.67661354  0.70115713  1
  Ti  Ti9  1  0.25876798  0.00858632  -0.06288053  1
  Ti  Ti10  1  0.34609581  -0.01719787  0.34138197  1
  Ti  Ti11  1  0.30034570  -0.07666596  0.64103333  1
  Ti  Ti12  1  0.29569944  0.29456355  -0.00719592  1
  Ti  Ti13  1  0.40457437  0.35996328  0.34950293  1
  Ti  Ti14  1  0.34141415  0.25556614  0.54515506  1
  Ti  Ti15  1  0.25034778  0.70921892  -0.02571858  1
  Ti  Ti16  1  0.30879962  0.74264868  0.30125772  1
  Ti  Ti17  1  0.39700442  0.67562033  0.68923832  1
  Ti  Ti18  1  0.76067781  -0.04282551  0.05304579  1
  Ti  Ti19  1  0.71176711  -0.05700709  0.29510892  1
  Ti  Ti20  1  0.66591723  -0.02149217  0.64097105  1
  Ti  Ti21  1  0.55972628  0.31216411  0.00238308  1
  Ti  Ti22  1  0.66859705  0.40181732  0.39219877  1
  Ti  Ti23  1  0.64055297  0.28570606  0.69503396  1
  Ti  Ti24  1  0.67898279  0.66432922  0.06472248  1
  Ti  Ti25  1  0.67389697  0.60909617  0.33787760  1
  Ti  Ti26  1  0.60851006  0.67199578  0.64149492  1
  Ti  Ti27  1  0.02818776  0.18347434  0.17957148  1
  Ti  Ti28  1  -0.03869915  0.18173424  0.52039978  1
  Ti  Ti29  1  0.01601650  0.21726859  0.85253388  1
  Ti  Ti30  1  -0.00796378  0.53805843  0.05009445  1
  Ti  Ti31  1  0.01573779  0.57126801  0.55516220  1
  Ti  Ti32  1  0.02399284  0.51977363  0.83229399  1
  Ti  Ti33  1  -0.00078827  0.84571999  0.12201563  1
  Ti  Ti34  1  -0.03348745  0.80850975  0.55288632  1
  Ti  Ti35  1  0.05331980  0.85998781  0.75632625  1
  Ti  Ti36  1  0.29583488  0.12881330  0.08698934  1
  Ti  Ti37  1  0.39424247  0.16931681  0.36155728  1
  Ti  Ti38  1  0.31873168  0.14566211  0.84950363  1
  Ti  Ti39  1  0.37514404  0.46294383  0.18437006  1
  Ti  Ti40  1  0.28913783  0.46218671  0.53628617  1
  Ti  Ti41  1  0.33092792  0.46587452  0.85334288  1
  Ti  Ti42  1  0.29363207  0.81076715  0.13277032  1
  Ti  Ti43  1  0.29529870  0.75042831  0.51094195  1
  Ti  Ti44  1  0.34028718  0.81397062  0.82217183  1
  Ti  Ti45  1  0.66683642  0.17831297  0.17606301  1
  Ti  Ti46  1  0.76655943  0.16420228  0.54284348  1
  Ti  Ti47  1  0.70253388  0.11953126  0.89479017  1
  Ti  Ti48  1  0.66121009  0.45169698  0.04819439  1
  Ti  Ti49  1  0.59560793  0.54925274  0.49759823  1
  Ti  Ti50  1  0.66199715  0.51152891  0.75203867  1
  Ti  Ti51  1  0.62239762  0.84887083  0.12823805  1
  Ti  Ti52  1  0.61592477  0.90259913  0.47475303  1
  Ti  Ti53  1  0.56352966  0.88286662  0.83138515  1
  Ti  Ti54  1  0.14833071  -0.01079001  0.22030958  1
  Ti  Ti55  1  0.14515341  0.01520009  0.45388241  1
  Ti  Ti56  1  0.17193405  -0.01994323  0.76566856  1
  Ti  Ti57  1  0.19137607  0.41585084  0.24112090  1
  Ti  Ti58  1  0.21860920  0.32305701  0.43632249  1
  Ti  Ti59  1  0.20682652  0.31111800  0.82017191  1
  Ti  Ti60  1  0.19863080  0.61706723  0.18150906  1
  Ti  Ti61  1  0.12223174  0.70399334  0.51958817  1
  Ti  Ti62  1  0.21011338  0.62587730  0.81191702  1
  Ti  Ti63  1  0.53699447  0.00212103  0.19754112  1
  Ti  Ti64  1  0.46729725  0.06192694  0.53048221  1
  Ti  Ti65  1  0.46468711  0.02920256  0.88927599  1
  Ti  Ti66  1  0.55814576  0.33460001  0.19562155  1
  Ti  Ti67  1  0.51116076  0.37383537  0.50948970  1
  Ti  Ti68  1  0.43996950  0.32288041  0.83647498  1
  Ti  Ti69  1  0.50083924  0.66120267  0.19613493  1
  Ti  Ti70  1  0.49002658  0.73592132  0.51168746  1
  Ti  Ti71  1  0.55583613  0.68026067  0.84376726  1
  Ti  Ti72  1  0.89105861  -0.02956234  0.23386041  1
  Ti  Ti73  1  0.82741113  -0.00419647  0.47828171  1
  Ti  Ti74  1  0.77272397  -0.02676551  0.79031767  1
  Ti  Ti75  1  0.80392492  0.41406918  0.17086284  1
  Ti  Ti76  1  0.88533048  0.33348474  0.44968612  1
  Ti  Ti77  1  0.73187462  0.30229447  0.86054153  1
  Ti  Ti78  1  0.86243759  0.69116638  0.15601825  1
  Ti  Ti79  1  0.85053196  0.60340689  0.47746475  1
  Ti  Ti80  1  0.75272908  0.68650651  0.88520199  1
  Ti  Ti81  1  0.11002072  0.23449663  0.00543167  1
  Ti  Ti82  1  0.22308081  0.13302705  0.27071419  1
  Ti  Ti83  1  0.17802060  0.16045249  0.70543488  1
  Ti  Ti84  1  0.16225482  0.43333906  0.04371866  1
  Ti  Ti85  1  0.12361401  0.51140532  0.39542100  1
  Ti  Ti86  1  0.16881609  0.45076145  0.70362987  1
  Ti  Ti87  1  0.16199451  0.89499086  0.04422524  1
  Ti  Ti88  1  0.15874656  0.85394336  0.39552332  1
  Ti  Ti89  1  0.20877534  0.76745684  0.68088138  1
  Ti  Ti90  1  0.57562781  0.08702015  0.03875787  1
  Ti  Ti91  1  0.58456614  0.23758391  0.38280421  1
  Ti  Ti92  1  0.49184491  0.15232087  0.71951117  1
  Ti  Ti93  1  0.47045843  0.51493194  -0.01604641  1
  Ti  Ti94  1  0.50111373  0.50855791  0.33367344  1
  Ti  Ti95  1  0.47872396  0.45928574  0.67873590  1
  Ti  Ti96  1  0.45097693  0.75742067  -0.00322868  1
  Ti  Ti97  1  0.59259978  0.77935698  0.31972037  1
  Ti  Ti98  1  0.48296106  0.96253267  0.68757431  1
  Ti  Ti99  1  0.88024268  0.19421442  -0.01084985  1
  Ti  Ti100  1  0.79896465  0.16817067  0.35540815  1
  Ti  Ti101  1  0.86768808  0.17062195  0.72608281  1
  Ti  Ti102  1  0.81153572  0.48486906  -0.10073487  1
  Ti  Ti103  1  0.82044113  0.50339592  0.32513971  1
  Ti  Ti104  1  0.87969979  0.51847833  0.70336181  1
  Ti  Ti105  1  0.91083844  0.90255641  -0.05165502  1
  Ti  Ti106  1  0.80269883  0.75023241  0.36572897  1
  Ti  Ti107  1  0.82432341  0.84113234  0.69303444  1
  Co  Co108  1  0.94049351  0.96787012  0.77109644  1
  Co  Co109  1  0.85217223  0.02767044  0.63800853  1
  Co  Co110  1  0.76710766  0.86495552  0.90139816  1
  Co  Co111  1  0.38306966  0.58280046  0.43677603  1
  Co  Co112  1  0.44655221  0.87662140  0.55857201  1
  Co  Co113  1  0.51659995  0.89747298  -0.00431184  1
  Co  Co114  1  0.71512448  0.14188574  0.72824497  1
  Co  Co115  1  0.59814711  1.04974112  0.79333757  1
  Co  Co116  1  0.27119655  0.61305764  0.57263398  1
  Co  Co117  1  0.17197886  0.45892136  0.89031591  1
  Co  Co118  1  0.44789434  0.57609856  0.57568551  1
  Co  Co119  1  0.12016826  0.28002544  0.27509057  1
  Co  Co120  1  0.66067675  0.09462405  0.31669076  1
  Co  Co121  1  0.41753970  0.01328690  0.05516931  1
  Co  Co122  1  0.82265029  0.77957039  0.02987277  1
  Co  Co123  1  0.20074010  0.82918486  0.84733366  1
  Co  Co124  1  0.06399462  0.36769491  0.78206912  1
  Co  Co125  1  0.69035276  0.71577795  0.20639889  1
  Co  Co126  1  0.28757354  0.45831701  0.36067368  1
  Co  Co127  1  0.77896135  0.34673520  0.00706563  1
  Co  Co128  1  0.89805047  0.78608530  0.82386405  1
  Co  Co129  1  0.50010254  0.22276347  0.53293426  1
  Co  Co130  1  0.34627401  0.24381271  0.70893593  1
  Co  Co131  1  0.38728638  0.07822227  0.21669568  1
  Co  Co132  1  0.17511555  0.14011920  0.88245025  1
  Co  Co133  1  0.93249213  0.31332321  0.70935445  1
  Co  Co134  1  0.05763100  0.83638459  0.93001651  1
  Co  Co135  1  0.53828902  0.91706081  0.32377651  1
  Co  Co136  1  0.63583680  0.83646361  0.62978097  1
  Co  Co137  1  0.03445830  0.37111742  0.94845772  1
  Co  Co138  1  0.23654444  0.63032214  0.39963627  1
  Co  Co139  1  0.36819856  0.59354294  0.27626824  1
  Co  Co140  1  0.77285861  0.44921267  0.50699693  1
  Co  Co141  1  0.80528891  0.31781720  0.60062285  1
  Co  Co142  1  0.06962277  0.69768450  0.82877641  1
  Co  Co143  1  0.60271338  0.13725664  0.60649158  1
  Co  Co144  1  0.65511041  -0.02829885  0.95027261  1
  Co  Co145  1  0.71264022  0.32385196  0.26823781  1
  Co  Co146  1  0.91414024  0.42898388  0.59032889  1
  Co  Co147  1  0.90543750  0.62552735  0.84869610  1
  Co  Co148  1  0.34351732  0.88423650  0.97095671  1
  Co  Co149  1  0.50066234  0.06904687  0.37324425  1
  Co  Co150  1  0.34208411  0.38985655  0.69041016  1
  Co  Co151  1  0.65469980  0.42435552  0.60172312  1
  Co  Co152  1  0.70923930  0.21849638  1.02830804  1
  Co  Co153  1  0.06563919  0.35317220  0.14059551  1
  Co  Co154  1  0.58668682  0.38971021  0.82596580  1
  Co  Co155  1  0.89152939  0.34702034  0.86987522  1
  Co  Co156  1  0.79116196  0.39501731  0.73657187  1
  Co  Co157  1  0.30110251  0.55457216  0.71422260  1
  Co  Co158  1  0.28236366  0.97626695  0.13582528  1
  Co  Co159  1  0.50368394  0.67027049  0.37749420  1
  Co  Co160  1  0.88062995  0.13003930  0.23366601  1
  Co  Co161  1  0.66730994  0.28295067  0.51047086  1
  Ni  Ni162  1  0.04214713  0.90662514  0.29124149  1
  Ni  Ni163  1  0.43575129  0.17775496  0.97060523  1
  Ni  Ni164  1  0.29267503  0.09282300  0.47858508  1
  Ni  Ni165  1  0.11941655  0.18165054  0.55691787  1
  Ni  Ni166  1  0.13563176  0.88049872  0.57042941  1
  Ni  Ni167  1  0.82938275  0.25652669  0.15418538  1
  Ni  Ni168  1  0.32854809  0.08321882  0.65500765  1
  Ni  Ni169  1  0.99279194  1.03803704  0.10708056  1
  Ni  Ni170  1  0.92321981  0.53989799  0.20230793  1
  Ni  Ni171  1  0.11927713  0.17845257  0.40318638  1
  Ni  Ni172  1  0.14468871  0.79924257  0.22839446  1
  Ni  Ni173  1  0.82062703  0.10255346  0.09655419  1
  Ni  Ni174  1  0.03079563  0.09116088  0.76790932  1
  Ni  Ni175  1  0.51146390  0.49571731  0.14849093  1
  Ni  Ni176  1  0.08352900  0.53499843  0.20492717  1
  Ni  Ni177  1  0.05573252  0.34189840  0.42191076  1
  Ni  Ni178  1  0.83132609  0.69783175  0.61293133  1
  Ni  Ni179  1  0.10821108  0.71609526  0.09649145  1
  Ni  Ni180  1  0.12577260  0.60968626  0.68472779  1
  Ni  Ni181  1  0.78922390  0.84005370  0.18213050  1
  Ni  Ni182  1  0.65633386  0.05717231  0.47092384  1
  Ni  Ni183  1  0.94660313  0.91253130  0.43613953  1
  Ni  Ni184  1  0.01012169  0.76532268  0.39498603  1
  Ni  Ni185  1  0.92282556  0.79511998  0.27288742  1
  Ni  Ni186  1  0.96987011  0.21920496  0.33802051  1
  Ni  Ni187  1  0.45445364  0.21549859  0.12644403  1
  Ni  Ni188  1  0.19159059  0.25321887  0.14272132  1
  Ni  Ni189  1  0.38521092  0.61963013  0.90239458  1
  Ni  Ni190  1  0.34746346  0.97646534  0.79121254  1
  Ni  Ni191  1  0.63477948  0.79380079  0.95606003  1
  Ni  Ni192  1  0.88767954  0.07692537  0.88737058  1
  Ni  Ni193  1  0.40672735  0.87632618  0.22950398  1
  Ni  Ni194  1  0.14060255  0.07090348  0.07753073  1
  Ni  Ni195  1  0.29940165  0.51876009  0.00862255  1
  Ni  Ni196  1  0.63485898  0.54029722  0.92880147  1
  Ni  Ni197  1  0.81259720  0.59137273  0.00842595  1
  Ni  Ni198  1  0.12508084  0.59613537  0.96235044  1
  Ni  Ni199  1  0.51494479  0.17404457  0.25696065  1
  Ni  Ni200  1  0.68540326  0.79385906  0.77949201  1
  Ni  Ni201  1  0.28416726  0.91867916  0.47927412  1
  Ni  Ni202  1  0.96961190  0.47988267  0.42059756  1
  Ni  Ni203  1  0.27452098  0.28554660  0.28041720  1
  Ni  Ni204  1  0.74627078  0.57112862  0.17753226  1
  Ni  Ni205  1  0.20484606  0.30230889  0.64281120  1
  Ni  Ni206  1  0.74429311  0.56203642  0.62757523  1
  Ni  Ni207  1  0.63812331  0.45910520  0.23345971  1
  Ni  Ni208  1  0.56792406  0.21375732  0.87142658  1
  Ni  Ni209  1  0.79753433  0.83694537  0.50117166  1
  Ni  Ni210  1  0.67654676  0.70939198  0.49226283  1
  Ni  Ni211  1  0.41946182  0.83197828  0.39606692  1
  Ni  Ni212  1  0.48525242  0.53275882  0.80989778  1
  Ni  Ni213  1  0.49598750  0.79992091  0.70567513  1
  Ni  Ni214  1  0.37580527  0.63729380  0.09299881  1
  Ni  Ni215  1  0.42040391  0.36678835  0.04792116  1
