# generated using pymatgen
data_Ti2CoNi
_symmetry_space_group_name_H-M   'P 1'
_cell_length_a   14.46158502
_cell_length_b   14.46662488
_cell_length_c   14.47919175
_cell_angle_alpha   89.83340764
_cell_angle_beta   90.28292019
_cell_angle_gamma   90.33959381
_symmetry_Int_Tables_number   1
_chemical_formula_structural   Ti2CoNi
_chemical_formula_sum   'Ti108 Co54 Ni54'
_cell_volume   3029.09373593
_cell_formula_units_Z   54
loop_
 _symmetry_equiv_pos_site_id
 _symmetry_equiv_pos_as_xyz
  1  'x, y, z'
loop_
 _atom_site_type_symbol
 _atom_site_label
 _atom_site_symmetry_multiplicity
 _atom_site_fract_x
 _atom_site_fract_y
 _atom_site_fract_z
 _atom_site_occupancy
  Ti  Ti0  1  0.01964552  0.07390959  -0.00889634  1
  Ti  Ti1  1  0.01153430  0.06488467  0.31991955  1
  Ti  Ti2  1  0.05990968  -0.05370706  0.61368979  1
  Ti  Ti3  1  -0.03742553  0.41701617  0.06501158  1
  Ti  Ti4  1  0.01457254  0.37580025  0.32140211  1
  Ti  Ti5  1  -0.07135512  0.34674520  0.80461658  1
  Ti  Ti6  1  0.02137128  0.65907731  0.08795761  1
  Ti  Ti7  1  0.08216587  0.66807170  0.29807994  1
  Ti  Ti8  1  -0.02058591  0.66951239  0.70602306  1
  Ti  Ti9  1  0.31208035  0.03037548  -0.04445174  1
  Ti  Ti10  1  0.34627304  0.06049168  0.30411372  1
  Ti  Ti11  1  0.40435243  -0.03247617  0.65102369  1
  Ti  Ti12  1  0.37793518  0.22033251  -0.01644871  1
  Ti  Ti13  1  0.34255845  0.37993250  0.23466551  1
  Ti  Ti14  1  0.29045777  0.35578804  0.55764225  1
  Ti  Ti15  1  0.30786744  0.67328553  -0.07800465  1
  Ti  Ti16  1  0.39421451  0.64788247  0.39571470  1
  Ti  Ti17  1  0.34614014  0.68887613  0.59971949  1
  Ti  Ti18  1  0.58262148  0.01846809  0.01095315  1
  Ti  Ti19  1  0.63150781  0.00064456  0.29804493  1
  Ti  Ti20  1  0.69403724  0.02737591  0.58693143  1
  Ti  Ti21  1  0.64738071  0.32856097  0.05161451  1
  Ti  Ti22  1  0.59712341  0.23473543  0.31673693  1
  Ti  Ti23  1  0.72839035  0.28558101  0.74979176  1
  Ti  Ti24  1  0.69830124  0.66193381  -0.03524924  1
  Ti  Ti25  1  0.66386935  0.75841663  0.31222078  1
  Ti  Ti26  1  0.72690680  0.72780749  0.66408977  1
  Ti  Ti27  1  -0.06420057  0.12126964  0.16715171  1
  Ti  Ti28  1  -0.06171794  0.10754251  0.56200905  1
  Ti  Ti29  1  0.07772047  0.20326381  0.82494606  1
  Ti  Ti30  1  0.07875700  0.51550120  0.19425687  1
  Ti  Ti31  1  0.02110307  0.53967129  0.53062790  1
  Ti  Ti32  1  0.05217881  0.52202438  0.80463505  1
  Ti  Ti33  1  -0.03075714  0.85696463  0.05594354  1
  Ti  Ti34  1  0.01844075  0.88796692  0.41836292  1
  Ti  Ti35  1  0.00938092  0.77279690  0.87571261  1
  Ti  Ti36  1  0.25768832  0.16649704  0.16238110  1
  Ti  Ti37  1  0.35468210  0.18284608  0.62714070  1
  Ti  Ti38  1  0.34803815  0.13628572  0.80329331  1
  Ti  Ti39  1  0.41325851  0.50182323  0.11294554  1
  Ti  Ti40  1  0.40638466  0.51034456  0.52970966  1
  Ti  Ti41  1  0.26797334  0.52341776  0.82068253  1
  Ti  Ti42  1  0.35264056  0.77217424  0.12326678  1
  Ti  Ti43  1  0.26910575  0.78007585  0.45065248  1
  Ti  Ti44  1  0.34126851  0.82923859  0.88707030  1
  Ti  Ti45  1  0.67118867  0.17237699  0.14452033  1
  Ti  Ti46  1  0.77704528  0.20706833  0.47605633  1
  Ti  Ti47  1  0.65205359  0.12044954  0.83020790  1
  Ti  Ti48  1  0.66806716  0.58795402  0.17255604  1
  Ti  Ti49  1  0.59762917  0.43973227  0.47016131  1
  Ti  Ti50  1  0.70428493  0.56616156  0.79303732  1
  Ti  Ti51  1  0.69156980  0.90576403  0.16193508  1
  Ti  Ti52  1  0.72666129  0.85441803  0.47902037  1
  Ti  Ti53  1  0.65877542  0.87780494  0.80065556  1
  Ti  Ti54  1  0.16165868  -0.01739483  0.11482075  1
  Ti  Ti55  1  0.22172768  0.02257251  0.48731800  1
  Ti  Ti56  1  0.14498347  0.01980792  0.81961718  1
  Ti  Ti57  1  0.12566954  0.32727797  0.19500307  1
  Ti  Ti58  1  0.13917715  0.25881895  0.51000112  1
  Ti  Ti59  1  0.24332635  0.32406430  0.88050496  1
  Ti  Ti60  1  0.21569230  0.64151357  0.13227858  1
  Ti  Ti61  1  0.22669907  0.58003478  0.48544166  1
  Ti  Ti62  1  0.18113394  0.67285490  0.76471049  1
  Ti  Ti63  1  0.43746531  -0.07645689  0.17975349  1
  Ti  Ti64  1  0.52219760  -0.05128829  0.51029177  1
  Ti  Ti65  1  0.48750168  -0.05256804  0.84813828  1
  Ti  Ti66  1  0.48043611  0.27530151  0.16241279  1
  Ti  Ti67  1  0.45067885  0.34082233  0.41705312  1
  Ti  Ti68  1  0.46661773  0.37455070  0.85145306  1
  Ti  Ti69  1  0.51271641  0.67476010  0.19326085  1
  Ti  Ti70  1  0.54961790  0.64894098  0.51230011  1
  Ti  Ti71  1  0.49169580  0.61978067  0.83579625  1
  Ti  Ti72  1  0.88001638  -0.07404934  0.21529628  1
  Ti  Ti73  1  0.88351198  -0.07689883  0.54829705  1
  Ti  Ti74  1  0.88374480  0.02136823  0.85550328  1
  Ti  Ti75  1  0.81417442  0.30532504  0.14405873  1
  Ti  Ti76  1  0.87877897  0.42672603  0.45553394  1
  Ti  Ti77  1  0.82221877  0.31594022  0.95262786  1
  Ti  Ti78  1  0.81743345  0.76331494  0.16273805  1
  Ti  Ti79  1  0.84364465  0.64365797  0.55203848  1
  Ti  Ti80  1  0.87146494  0.63090131  0.87226468  1
  Ti  Ti81  1  0.12894636  0.21480713  0.02313573  1
  Ti  Ti82  1  0.16293093  0.19466145  0.34104584  1
  Ti  Ti83  1  0.13584550  0.12399532  0.63226769  1
  Ti  Ti84  1  0.11206792  0.49812199  -0.01116629  1
  Ti  Ti85  1  0.24015728  0.39206142  0.38180820  1
  Ti  Ti86  1  0.14342376  0.39499722  0.65284724  1
  Ti  Ti87  1  0.16496378  0.78110071  0.02222861  1
  Ti  Ti88  1  0.14598911  0.86257556  0.31735343  1
  Ti  Ti89  1  0.25274400  0.84375487  0.65989681  1
  Ti  Ti90  1  0.45122976  0.08379717  0.11211456  1
  Ti  Ti91  1  0.45983571  0.16596318  0.43952703  1
  Ti  Ti92  1  0.58158003  0.17502707  0.62236156  1
  Ti  Ti93  1  0.58529431  0.47893917  -0.05684207  1
  Ti  Ti94  1  0.53363220  0.52274545  0.30472822  1
  Ti  Ti95  1  0.53191575  0.46033891  0.65753766  1
  Ti  Ti96  1  0.52540400  0.76611970  -0.04314836  1
  Ti  Ti97  1  0.41879952  0.81297057  0.33216151  1
  Ti  Ti98  1  0.49687873  0.77170877  0.70414973  1
  Ti  Ti99  1  0.80456953  0.13202213  0.00556051  1
  Ti  Ti100  1  0.83494207  0.27415033  0.30987076  1
  Ti  Ti101  1  0.87671189  0.29850644  0.61843801  1
  Ti  Ti102  1  0.86409583  0.56724619  0.08168012  1
  Ti  Ti103  1  0.76222960  0.47185365  0.28264412  1
  Ti  Ti104  1  0.75330256  0.45867405  0.65150029  1
  Ti  Ti105  1  0.74058690  0.84692279  -0.01962621  1
  Ti  Ti106  1  0.89158799  0.75648083  0.38585063  1
  Ti  Ti107  1  0.89993093  0.82257730  0.68897552  1
  Co  Co108  1  0.37337103  1.03719485  0.48569055  1
  Co  Co109  1  0.95465141  0.23477268  0.44465785  1
  Co  Co110  1  0.87393745  0.18650575  0.74550302  1
  Co  Co111  1  0.42410287  0.52339301  0.94214478  1
  Co  Co112  1  0.24215551  0.56406963  0.30985715  1
  Co  Co113  1  0.57553844  0.59351439  0.04371479  1
  Co  Co114  1  0.78192850  0.41603627  0.83221556  1
  Co  Co115  1  0.50045529  0.09851720  0.73867917  1
  Co  Co116  1  0.27449636  0.88989106  0.21814130  1
  Co  Co117  1  0.23598554  0.47471382  0.14488493  1
  Co  Co118  1  0.17324069  0.71659055  0.59534140  1
  Co  Co119  1  0.63880194  0.34830632  0.63077796  1
  Co  Co120  1  0.73860985  0.36918960  0.50794977  1
  Co  Co121  1  0.15186443  0.86147635  0.51569193  1
  Co  Co122  1  0.24329512  0.72532536  0.29674464  1
  Co  Co123  1  0.47553164  0.36790875  0.03174749  1
  Co  Co124  1  0.67350666  0.73947739  0.11834700  1
  Co  Co125  1  0.28899017  0.92715167  0.38546820  1
  Co  Co126  1  0.49879189  0.21105268  0.85726256  1
  Co  Co127  1  0.50630930  0.29010251  0.72019102  1
  Co  Co128  1  0.61427309  0.26923207  0.48309013  1
  Co  Co129  1  0.74982304  0.87682220  0.32504410  1
  Co  Co130  1  0.30001355  0.30983887  0.09747367  1
  Co  Co131  1  0.61569853  0.42884351  0.77608836  1
  Co  Co132  1  0.76001437  0.50403120  0.95015396  1
  Co  Co133  1  0.57199906  0.83594667  0.40475049  1
  Co  Co134  1  0.47663942  0.31820500  0.57512797  1
  Co  Co135  1  0.55757052  0.84067308  0.23763580  1
  Co  Co136  1  0.31910471  0.02172879  0.12288994  1
  Co  Co137  1  0.36439946  0.64429120  0.23351887  1
  Co  Co138  1  0.08978786  0.51168892  0.37311582  1
  Co  Co139  1  0.87325468  0.53406183  0.76814394  1
  Co  Co140  1  0.83607314  0.11675959  0.32363626  1
  Co  Co141  1  0.59922001  0.80213521  0.57332110  1
  Co  Co142  1  0.31201393  0.40589644  0.98173228  1
  Co  Co143  1  0.92872040  0.48294497  0.92041033  1
  Co  Co144  1  0.42755638  0.66185003  0.04565261  1
  Co  Co145  1  0.15523851  0.36576291  0.05138970  1
  Co  Co146  1  0.46542758  0.08179923  0.92566772  1
  Co  Co147  1  0.10557425  0.13650480  0.18169339  1
  Co  Co148  1  0.88235370  0.96266474  0.36841041  1
  Co  Co149  1  0.27833693  0.87246953  0.02027332  1
  Co  Co150  1  0.03777973  0.25586372  0.68532836  1
  Co  Co151  1  0.54318047  0.19486665  0.02057701  1
  Co  Co152  1  0.00153424  0.22245426  0.28871825  1
  Co  Co153  1  0.13065588  0.77738605  0.17277970  1
  Co  Co154  1  0.64343666  0.29332880  0.88524732  1
  Co  Co155  1  0.09511312  0.80398778  0.68859142  1
  Co  Co156  1  0.92665160  0.19604952  0.90281858  1
  Co  Co157  1  0.47588941  -0.02294930  0.35956976  1
  Co  Co158  1  0.18331848  0.03719131  0.28394325  1
  Co  Co159  1  0.10697676  0.56585681  0.65624632  1
  Co  Co160  1  0.43713649  0.90368530  1.01430672  1
  Co  Co161  1  0.13435259  0.42535524  0.49404919  1
  Ni  Ni162  1  0.62484907  0.72585138  0.81787476  1
  Ni  Ni163  1  0.96970430  0.76790094  0.22763708  1
  Ni  Ni164  1  0.70525732  0.33924409  0.36809911  1
  Ni  Ni165  1  0.96412992  0.23753902  0.06257034  1
  Ni  Ni166  1  0.07907155  0.10446637  0.46650734  1
  Ni  Ni167  1  0.90934098  0.57517738  0.39041005  1
  Ni  Ni168  1  0.72436842  0.99757754  0.92769324  1
  Ni  Ni169  1  0.77506542  0.64570095  0.29147750  1
  Ni  Ni170  1  0.10281248  0.71522997  0.44131910  1
  Ni  Ni171  1  0.97737560  0.77276821  0.54493962  1
  Ni  Ni172  1  0.57382916  0.96425187  0.68798092  1
  Ni  Ni173  1  0.10353089  0.36964718  0.80786872  1
  Ni  Ni174  1  0.56485115  0.85541313  0.07874936  1
  Ni  Ni175  1  0.69687154  0.57424133  0.56614230  1
  Ni  Ni176  1  0.87247813  0.98210140  0.04206598  1
  Ni  Ni177  1  0.71544536  0.70450015  0.47847140  1
  Ni  Ni178  1  0.96309333  0.46589362  0.65037891  1
  Ni  Ni179  1  0.26910613  0.53309374  0.64760557  1
  Ni  Ni180  1  0.91902075  0.60504185  0.23166505  1
  Ni  Ni181  1  0.00963518  0.36005613  0.54784989  1
  Ni  Ni182  1  0.74055318  0.89857855  0.67220442  1
  Ni  Ni183  1  0.51146428  0.09831162  0.25356825  1
  Ni  Ni184  1  0.13275623  0.65090463  0.92535733  1
  Ni  Ni185  1  0.21572383  0.15025510  0.90865635  1
  Ni  Ni186  1  0.99697532  0.91292151  0.80262967  1
  Ni  Ni187  1  0.00378438  0.07606441  0.72698353  1
  Ni  Ni188  1  0.26245820  0.55705874  0.00464100  1
  Ni  Ni189  1  0.44505796  0.79750266  0.51977582  1
  Ni  Ni190  1  0.67536823  0.35975476  0.21928134  1
  Ni  Ni191  1  0.22277263  0.26116120  0.72578536  1
  Ni  Ni192  1  0.91311483  0.43531664  0.21472620  1
  Ni  Ni193  1  0.34003553  0.71767620  0.76278418  1
  Ni  Ni194  1  0.60600988  0.08776105  0.45911524  1
  Ni  Ni195  1  0.66664028  0.57054081  0.38352839  1
  Ni  Ni196  1  0.58207857  0.65276907  0.68329920  1
  Ni  Ni197  1  0.30427008  0.20628715  0.46107767  1
  Ni  Ni198  1  0.74488243  0.15229237  0.66499169  1
  Ni  Ni199  1  0.25814013  0.03017646  0.65729104  1
  Ni  Ni200  1  0.16734577  0.85051202  0.81608313  1
  Ni  Ni201  1  0.37927598  0.48522038  0.36724898  1
  Ni  Ni202  1  0.02623908  0.33123872  0.93976359  1
  Ni  Ni203  1  0.35524507  0.39494572  0.72768540  1
  Ni  Ni204  1  0.30097448  0.95970326  0.80246066  1
  Ni  Ni205  1  0.87136134  0.72280702  0.99231771  1
  Ni  Ni206  1  0.08947934  0.92268490  0.95666947  1
  Ni  Ni207  1  0.85607919  0.02063789  0.68362585  1
  Ni  Ni208  1  0.57050321  0.46086445  0.13941013  1
  Ni  Ni209  1  0.42401796  0.58310701  0.69341545  1
  Ni  Ni210  1  0.73836920  0.46060661  0.10306131  1
  Ni  Ni211  1  0.76330454  0.02921856  0.42707161  1
  Ni  Ni212  1  0.80949549  0.78797144  0.83302574  1
  Ni  Ni213  1  0.78169399  0.05546124  0.14978087  1
  Ni  Ni214  1  0.37877349  0.22888359  0.29421114  1
  Ni  Ni215  1  0.03658583  0.92013685  0.19349385  1
