# generated using pymatgen
data_Ti2CoNi
_symmetry_space_group_name_H-M   'P 1'
_cell_length_a   14.66338769
_cell_length_b   14.61269808
_cell_length_c   14.61475211
_cell_angle_alpha   90.16812656
_cell_angle_beta   89.76869993
_cell_angle_gamma   89.64873033
_symmetry_Int_Tables_number   1
_chemical_formula_structural   Ti2CoNi
_chemical_formula_sum   'Ti108 Co54 Ni54'
_cell_volume   3131.42907411
_cell_formula_units_Z   54
loop_
 _symmetry_equiv_pos_site_id
 _symmetry_equiv_pos_as_xyz
  1  'x, y, z'
loop_
 _atom_site_type_symbol
 _atom_site_label
 _atom_site_symmetry_multiplicity
 _atom_site_fract_x
 _atom_site_fract_y
 _atom_site_fract_z
 _atom_site_occupancy
  Ti  Ti0  1  -0.06824262  0.01788683  0.02862181  1
  Ti  Ti1  1  -0.05065775  0.07480862  0.35112683  1
  Ti  Ti2  1  -0.08188553  0.01328645  0.62549264  1
  Ti  Ti3  1  -0.02288144  0.32378378  -0.04007881  1
  Ti  Ti4  1  0.00302056  0.27610936  0.45869687  1
  Ti  Ti5  1  0.05908250  0.31263825  0.65862550  1
  Ti  Ti6  1  -0.02440799  0.65403651  0.01041395  1
  Ti  Ti7  1  -0.05746468  0.65685478  0.29571683  1
  Ti  Ti8  1  0.03376124  0.69124282  0.75157491  1
  Ti  Ti9  1  0.36872807  -0.04099330  0.00343354  1
  Ti  Ti10  1  0.33492489  0.07052898  0.36070508  1
  Ti  Ti11  1  0.39138223  -0.01986733  0.70075334  1
  Ti  Ti12  1  0.32678221  0.40687883  -0.01023224  1
  Ti  Ti13  1  0.23673936  0.32965592  0.31320492  1
  Ti  Ti14  1  0.28684213  0.36672457  0.63559948  1
  Ti  Ti15  1  0.27525368  0.67615944  0.03787877  1
  Ti  Ti16  1  0.40697195  0.60759807  0.31084795  1
  Ti  Ti17  1  0.30957379  0.67700553  0.60385733  1
  Ti  Ti18  1  0.60185002  -0.02070894  0.01259331  1
  Ti  Ti19  1  0.64520943  0.01411086  0.35816245  1
  Ti  Ti20  1  0.66832381  -0.04358609  0.67619118  1
  Ti  Ti21  1  0.67662442  0.38555823  -0.04840051  1
  Ti  Ti22  1  0.68937256  0.28488899  0.36398332  1
  Ti  Ti23  1  0.71908213  0.34134255  0.65915321  1
  Ti  Ti24  1  0.74158094  0.66164561  0.05946820  1
  Ti  Ti25  1  0.66276313  0.74152625  0.35256389  1
  Ti  Ti26  1  0.59736061  0.67807218  0.70688445  1
  Ti  Ti27  1  0.08373559  0.16711645  0.19315144  1
  Ti  Ti28  1  0.05005069  0.10753707  0.53318655  1
  Ti  Ti29  1  0.01819822  0.13116982  0.90645957  1
  Ti  Ti30  1  0.00265814  0.47728866  0.21696606  1
  Ti  Ti31  1  0.04021274  0.55005191  0.48990577  1
  Ti  Ti32  1  -0.02854301  0.46986862  0.82734977  1
  Ti  Ti33  1  0.05129106  0.87284483  0.09071812  1
  Ti  Ti34  1  0.00097297  0.83044051  0.57495327  1
  Ti  Ti35  1  -0.04977854  0.84782478  0.89990488  1
  Ti  Ti36  1  0.30711016  0.18138558  0.16810795  1
  Ti  Ti37  1  0.30803981  0.14602595  0.59468690  1
  Ti  Ti38  1  0.35876537  0.24672415  0.84961413  1
  Ti  Ti39  1  0.35252475  0.43582238  0.20873441  1
  Ti  Ti40  1  0.38601060  0.50705122  0.51833141  1
  Ti  Ti41  1  0.38922623  0.46102027  0.82411644  1
  Ti  Ti42  1  0.27340529  0.81424462  0.19676889  1
  Ti  Ti43  1  0.35820370  0.86554206  0.38685841  1
  Ti  Ti44  1  0.25226000  0.89468488  0.84959126  1
  Ti  Ti45  1  0.63916401  0.16107208  0.15205651  1
  Ti  Ti46  1  0.61367211  0.17989206  0.50651100  1
  Ti  Ti47  1  0.68870846  0.16309706  0.73276563  1
  Ti  Ti48  1  0.62338504  0.50602790  0.10243113  1
  Ti  Ti49  1  0.64963546  0.59555677  0.50140016  1
  Ti  Ti50  1  0.69578754  0.47998139  0.77880203  1
  Ti  Ti51  1  0.64281506  0.82628413  0.13702189  1
  Ti  Ti52  1  0.69172636  0.79235714  0.55479050  1
  Ti  Ti53  1  0.71451304  0.85363464  0.89076822  1
  Ti  Ti54  1  0.21130023  -0.01776285  0.12524098  1
  Ti  Ti55  1  0.18175592  -0.03332424  0.49948664  1
  Ti  Ti56  1  0.08428052  -0.01989402  0.78996797  1
  Ti  Ti57  1  0.18518388  0.34096212  0.12221317  1
  Ti  Ti58  1  0.17181429  0.38739546  0.49215577  1
  Ti  Ti59  1  0.16404220  0.26765628  0.89009267  1
  Ti  Ti60  1  0.22052826  0.62563945  0.21556634  1
  Ti  Ti61  1  0.13548743  0.70669934  0.46707765  1
  Ti  Ti62  1  0.23707864  0.66498749  0.79329061  1
  Ti  Ti63  1  0.45906737  0.08083311  0.12844768  1
  Ti  Ti64  1  0.48950235  -0.02787188  0.50379206  1
  Ti  Ti65  1  0.55995416  -0.02236287  0.81889639  1
  Ti  Ti66  1  0.53385985  0.32517388  0.21812694  1
  Ti  Ti67  1  0.45100742  0.30335248  0.53303084  1
  Ti  Ti68  1  0.54511814  0.32099599  0.81108806  1
  Ti  Ti69  1  0.46927910  0.73152530  0.17142576  1
  Ti  Ti70  1  0.49406044  0.76870916  0.52455958  1
  Ti  Ti71  1  0.49865992  0.62963667  0.88336687  1
  Ti  Ti72  1  0.76866376  -0.00711245  0.14283194  1
  Ti  Ti73  1  0.81369714  -0.02908021  0.47165028  1
  Ti  Ti74  1  0.83528440  -0.00865140  0.79456089  1
  Ti  Ti75  1  0.92295482  0.26414747  0.20901027  1
  Ti  Ti76  1  0.82960641  0.38790279  0.49008674  1
  Ti  Ti77  1  0.82101996  0.31653272  0.83368399  1
  Ti  Ti78  1  0.75888989  0.58933572  0.27241376  1
  Ti  Ti79  1  0.84657565  0.63287995  0.48297995  1
  Ti  Ti80  1  0.76936734  0.64038890  0.81929080  1
  Ti  Ti81  1  0.21396491  0.08583913  -0.05069293  1
  Ti  Ti82  1  0.16053676  0.18359773  0.38949181  1
  Ti  Ti83  1  0.14366228  0.12912225  0.70947035  1
  Ti  Ti84  1  0.11662763  0.46707521  -0.01840158  1
  Ti  Ti85  1  0.24006800  0.53961461  0.38626713  1
  Ti  Ti86  1  0.12770087  0.50854114  0.68884348  1
  Ti  Ti87  1  0.12892882  0.74292634  -0.05820869  1
  Ti  Ti88  1  0.07082934  0.82781255  0.28720460  1
  Ti  Ti89  1  0.18747115  0.83297388  0.66255416  1
  Ti  Ti90  1  0.55062705  0.15263737  -0.05754171  1
  Ti  Ti91  1  0.51541766  0.13500998  0.30905011  1
  Ti  Ti92  1  0.51688622  0.11101136  0.65040372  1
  Ti  Ti93  1  0.42974032  0.56571025  0.05856375  1
  Ti  Ti94  1  0.53881407  0.44959513  0.39198036  1
  Ti  Ti95  1  0.56582168  0.45953807  0.61061877  1
  Ti  Ti96  1  0.50510148  0.80675124  -0.02935137  1
  Ti  Ti97  1  0.50096729  0.91304986  0.28100633  1
  Ti  Ti98  1  0.40899907  0.78104793  0.75170891  1
  Ti  Ti99  1  0.80512181  0.24438899  0.03573519  1
  Ti  Ti100  1  0.78073069  0.11235925  0.28102869  1
  Ti  Ti101  1  0.87868813  0.21187973  0.65891277  1
  Ti  Ti102  1  0.85660899  0.45710717  0.05675118  1
  Ti  Ti103  1  0.80961415  0.41390180  0.25876834  1
  Ti  Ti104  1  0.89693662  0.54993317  0.66886011  1
  Ti  Ti105  1  0.83920578  0.83443104  0.07231422  1
  Ti  Ti106  1  0.86157755  0.84895154  0.31645294  1
  Ti  Ti107  1  0.85431439  0.74854651  0.68609973  1
  Co  Co108  1  0.56784300  0.66454676  0.04187278  1
  Co  Co109  1  0.55749227  0.81306475  0.81233922  1
  Co  Co110  1  0.09416426  0.61145667  0.32657782  1
  Co  Co111  1  0.60054200  0.58544392  0.32390532  1
  Co  Co112  1  0.09075269  0.58702359  0.87160597  1
  Co  Co113  1  0.23373910  0.98971193  0.67455952  1
  Co  Co114  1  0.70586460  0.88893511  0.27662082  1
  Co  Co115  1  0.70269934  0.80222441  0.73103156  1
  Co  Co116  1  0.07503264  0.97050930  0.62635640  1
  Co  Co117  1  0.08243262  0.06459492  0.06133829  1
  Co  Co118  1  0.06566038  0.99320449  0.21287982  1
  Co  Co119  1  0.33450260  0.59914299  0.90573684  1
  Co  Co120  1  0.76735060  0.08347449  0.61471418  1
  Co  Co121  1  0.72268440  0.37917100  0.11538479  1
  Co  Co122  1  0.28356812  0.07752242  0.80587422  1
  Co  Co123  1  0.33967111  0.77303058  0.91259480  1
  Co  Co124  1  0.81222199  0.89248120  0.63220799  1
  Co  Co125  1  0.07954494  0.31305289  0.27523522  1
  Co  Co126  1  0.84835742  0.23980826  0.38193571  1
  Co  Co127  1  0.48615653  0.75688174  0.34647368  1
  Co  Co128  1  0.59760431  0.87078081  0.42719899  1
  Co  Co129  1  0.41986265  0.91896601  0.85702109  1
  Co  Co130  1  0.44007677  0.38889405  0.68554056  1
  Co  Co131  1  0.22191577  0.54030275  0.54655492  1
  Co  Co132  1  0.52244286  0.28078449  0.39061625  1
  Co  Co133  1  0.40956832  0.22769226  0.69526496  1
  Co  Co134  1  0.22068393  0.84709730  0.02613490  1
  Co  Co135  1  0.64628238  0.43633206  0.25819402  1
  Co  Co136  1  0.11761176  0.22115355  1.03463139  1
  Co  Co137  1  0.10575962  0.82196359  0.80948973  1
  Co  Co138  1  0.29796352  0.52090514  0.68875573  1
  Co  Co139  1  0.92325643  0.92686067  0.19438046  1
  Co  Co140  1  0.33648684  0.00366644  0.52471618  1
  Co  Co141  1  0.90121996  0.52211273  0.37447231  1
  Co  Co142  1  0.56781149  0.27762386  0.65296894  1
  Co  Co143  1  0.50368420  0.62210835  0.44311883  1
  Co  Co144  1  0.07946980  0.44357616  0.37520169  1
  Co  Co145  1  0.53370512  0.85859987  0.65785272  1
  Co  Co146  1  0.75035428  0.11772243  0.44007395  1
  Co  Co147  1  0.62532818  0.66903780  0.19034435  1
  Co  Co148  1  0.35474680  0.98273004  0.22076269  1
  Co  Co149  1  0.76411484  0.24246124  0.53729236  1
  Co  Co150  1  0.63786337  0.35946234  0.50540956  1
  Co  Co151  1  0.89425432  0.13872522  0.50604080  1
  Co  Co152  1  0.78451211  0.74167536  0.21435028  1
  Co  Co153  1  0.40755681  0.62170850  0.74515314  1
  Co  Co154  1  0.48784729  0.90906150  0.11626071  1
  Co  Co155  1  -0.01283251  0.74889661  0.41853870  1
  Co  Co156  1  0.92654139  0.62895621  0.84838221  1
  Co  Co157  1  0.95999242  0.19041536  0.05661637  1
  Co  Co158  1  0.36942966  0.81157036  0.07066543  1
  Co  Co159  1  0.97747543  0.67186249  0.58020202  1
  Co  Co160  1  0.02206578  0.35159014  0.10853591  1
  Co  Co161  1  0.52871781  0.46191301  0.93321763  1
  Ni  Ni162  1  0.74383475  0.62002095  0.63951028  1
  Ni  Ni163  1  0.23600984  0.73713992  0.34120279  1
  Ni  Ni164  1  0.30291940  0.25823492  0.46099637  1
  Ni  Ni165  1  0.75488768  0.26128396  0.21305516  1
  Ni  Ni166  1  0.95537619  0.75791924  0.16408660  1
  Ni  Ni167  1  0.48411569  0.61756362  0.60196051  1
  Ni  Ni168  1  0.21416299  0.91801683  0.31436582  1
  Ni  Ni169  1  0.36159023  0.85366462  0.59932148  1
  Ni  Ni170  1  0.97957796  0.42105732  0.56391730  1
  Ni  Ni171  1  0.79002500  0.97154905  0.96811700  1
  Ni  Ni172  1  0.98283419  0.26945816  0.79985477  1
  Ni  Ni173  1  0.24217334  0.50856155  0.09139345  1
  Ni  Ni174  1  0.16672938  0.23102924  0.55920404  1
  Ni  Ni175  1  0.38525152  0.24423183  0.30837820  1
  Ni  Ni176  1  0.23563134  0.25454089  0.73670327  1
  Ni  Ni177  1  0.88311428  0.60249390  0.14517662  1
  Ni  Ni178  1  0.21017019  0.07748703  0.25874570  1
  Ni  Ni179  1  0.43964146  0.14181737  0.47111385  1
  Ni  Ni180  1  0.69642569  0.05551043  0.86122038  1
  Ni  Ni181  1  0.88506042  0.38500029  0.69524736  1
  Ni  Ni182  1  0.16834181  0.46874935  0.24028099  1
  Ni  Ni183  1  0.67139514  0.55353736  0.94273756  1
  Ni  Ni184  1  0.10555810  0.94042909  0.94901173  1
  Ni  Ni185  1  0.84907525  0.14629931  0.86799587  1
  Ni  Ni186  1  0.50110948  0.51514645  0.21236881  1
  Ni  Ni187  1  -0.02079289  0.11194708  0.74509306  1
  Ni  Ni188  1  0.98997404  0.93222983  0.44539673  1
  Ni  Ni189  1  0.53615035  0.51163837  0.76572846  1
  Ni  Ni190  1  0.72463948  0.48038517  0.40208185  1
  Ni  Ni191  1  0.71663686  0.11037224  0.01277995  1
  Ni  Ni192  1  0.60584967  0.00343908  0.18932622  1
  Ni  Ni193  1  0.83712588  0.73368326  0.93765291  1
  Ni  Ni194  1  0.22393403  0.48900340  0.84431561  1
  Ni  Ni195  1  0.94096151  0.36873691  0.34505215  1
  Ni  Ni196  1  0.82178734  0.48568065  0.89528076  1
  Ni  Ni197  1  0.37303389  0.39824579  0.38780634  1
  Ni  Ni198  1  0.24546888  0.81666008  0.49254582  1
  Ni  Ni199  1  0.44394979  0.10425333  0.81194166  1
  Ni  Ni200  1  0.64766815  0.01151611  0.52658608  1
  Ni  Ni201  1  0.10937653  0.38464835  0.80180213  1
  Ni  Ni202  1  0.13962148  0.66211268  0.62595762  1
  Ni  Ni203  1  0.38492879  0.12167058  -0.02492939  1
  Ni  Ni204  1  0.96119131  0.87716766  0.73408986  1
  Ni  Ni205  1  0.59656666  0.28380458  0.05422751  1
  Ni  Ni206  1  0.44682462  0.27826528  0.98907242  1
  Ni  Ni207  1  0.91960546  0.09116431  0.18100542  1
  Ni  Ni208  1  0.28239582  0.24260967  0.01240189  1
  Ni  Ni209  1  0.10309060  0.02784559  0.36895129  1
  Ni  Ni210  1  0.47715453  0.40610544  0.08290689  1
  Ni  Ni211  1  0.64513492  0.71022020  0.90533481  1
  Ni  Ni212  1  0.69417744  0.22469949  0.89486101  1
  Ni  Ni213  1  0.12417437  0.72770510  0.12158294  1
  Ni  Ni214  1  0.35427643  0.69342648  0.44600494  1
  Ni  Ni215  1  0.84998590  0.80374820  0.49095697  1
