# generated using pymatgen
data_Ti2CoNi
_symmetry_space_group_name_H-M   'P 1'
_cell_length_a   14.62505580
_cell_length_b   14.62950550
_cell_length_c   14.69111888
_cell_angle_alpha   90.26364099
_cell_angle_beta   90.10902534
_cell_angle_gamma   89.98756216
_symmetry_Int_Tables_number   1
_chemical_formula_structural   Ti2CoNi
_chemical_formula_sum   'Ti108 Co54 Ni54'
_cell_volume   3143.23359750
_cell_formula_units_Z   54
loop_
 _symmetry_equiv_pos_site_id
 _symmetry_equiv_pos_as_xyz
  1  'x, y, z'
loop_
 _atom_site_type_symbol
 _atom_site_label
 _atom_site_symmetry_multiplicity
 _atom_site_fract_x
 _atom_site_fract_y
 _atom_site_fract_z
 _atom_site_occupancy
  Ti  Ti0  1  0.04589659  0.03318385  -0.07322576  1
  Ti  Ti1  1  0.02893943  -0.04155251  0.32809670  1
  Ti  Ti2  1  -0.03623813  0.03960248  0.62492687  1
  Ti  Ti3  1  -0.00003252  0.28943564  0.06638236  1
  Ti  Ti4  1  0.03419300  0.30697782  0.34788150  1
  Ti  Ti5  1  -0.01040301  0.39096426  0.68468659  1
  Ti  Ti6  1  -0.03033071  0.61792753  0.02013633  1
  Ti  Ti7  1  -0.02479633  0.62555943  0.34691433  1
  Ti  Ti8  1  0.02321146  0.64988254  0.69677730  1
  Ti  Ti9  1  0.40802090  0.05233057  -0.02916595  1
  Ti  Ti10  1  0.36435049  -0.06596178  0.30725813  1
  Ti  Ti11  1  0.20291847  -0.02356959  0.67147997  1
  Ti  Ti12  1  0.34622507  0.26771737  -0.02683801  1
  Ti  Ti13  1  0.35709994  0.31873695  0.37130035  1
  Ti  Ti14  1  0.42568862  0.35055347  0.61214034  1
  Ti  Ti15  1  0.34843580  0.62723408  -0.01190504  1
  Ti  Ti16  1  0.40017669  0.63653816  0.32065396  1
  Ti  Ti17  1  0.22137010  0.65580864  0.69388921  1
  Ti  Ti18  1  0.63688676  0.07735823  0.06009428  1
  Ti  Ti19  1  0.57127367  0.00819208  0.32337036  1
  Ti  Ti20  1  0.67950217  -0.05959575  0.67438464  1
  Ti  Ti21  1  0.68179711  0.27691683  0.04024543  1
  Ti  Ti22  1  0.68437402  0.28095966  0.27813656  1
  Ti  Ti23  1  0.66229084  0.38068851  0.57874932  1
  Ti  Ti24  1  0.64677655  0.63147806  0.00295107  1
  Ti  Ti25  1  0.71212747  0.69508116  0.31441852  1
  Ti  Ti26  1  0.67773601  0.70622814  0.68725614  1
  Ti  Ti27  1  -0.02195181  0.14055204  0.21307802  1
  Ti  Ti28  1  0.05860515  0.21787509  0.52070607  1
  Ti  Ti29  1  -0.00652221  0.18174041  0.80914930  1
  Ti  Ti30  1  -0.01987159  0.49970246  0.18746562  1
  Ti  Ti31  1  -0.02474815  0.52033887  0.52850684  1
  Ti  Ti32  1  -0.01221096  0.49583965  0.85975473  1
  Ti  Ti33  1  -0.03120918  0.80270959  0.06990330  1
  Ti  Ti34  1  0.03157761  0.79559283  0.45252049  1
  Ti  Ti35  1  -0.04913301  0.89026374  0.80424105  1
  Ti  Ti36  1  0.31044336  0.15052855  0.11757560  1
  Ti  Ti37  1  0.40552644  0.17237152  0.53213501  1
  Ti  Ti38  1  0.31548636  0.14451078  0.79529380  1
  Ti  Ti39  1  0.30647020  0.52792157  0.18595322  1
  Ti  Ti40  1  0.39073014  0.59328410  0.50629044  1
  Ti  Ti41  1  0.31151677  0.43865588  0.90167295  1
  Ti  Ti42  1  0.29301588  0.82204837  0.15892324  1
  Ti  Ti43  1  0.34570707  0.90979631  0.49381547  1
  Ti  Ti44  1  0.37081608  0.80725167  0.87175789  1
  Ti  Ti45  1  0.77883575  0.12434603  0.19629430  1
  Ti  Ti46  1  0.72281899  0.19887113  0.51076351  1
  Ti  Ti47  1  0.73245789  0.16658933  0.88241941  1
  Ti  Ti48  1  0.59747381  0.44749128  0.13845224  1
  Ti  Ti49  1  0.63994122  0.57010461  0.49232994  1
  Ti  Ti50  1  0.66107486  0.50761124  0.85064940  1
  Ti  Ti51  1  0.63817800  0.88576274  0.17361350  1
  Ti  Ti52  1  0.69478331  0.95418713  0.47470700  1
  Ti  Ti53  1  0.61739398  0.78925027  0.86750187  1
  Ti  Ti54  1  0.19768243  -0.00783698  0.20731488  1
  Ti  Ti55  1  0.11827401  0.02440678  0.49348371  1
  Ti  Ti56  1  0.24534172  -0.02140314  0.87741812  1
  Ti  Ti57  1  0.15943294  0.39975181  0.14227680  1
  Ti  Ti58  1  0.22965240  0.30753904  0.52351583  1
  Ti  Ti59  1  0.18585495  0.29582991  0.83580838  1
  Ti  Ti60  1  0.09187411  0.70104774  0.18687517  1
  Ti  Ti61  1  0.16876027  0.59952205  0.51516934  1
  Ti  Ti62  1  0.18383401  0.74700780  0.86672485  1
  Ti  Ti63  1  0.45514992  0.04230392  0.17093712  1
  Ti  Ti64  1  0.50514008  -0.00629356  0.59376266  1
  Ti  Ti65  1  0.42617638  -0.01764133  0.78306340  1
  Ti  Ti66  1  0.40220039  0.34141999  0.15790171  1
  Ti  Ti67  1  0.53818152  0.30195101  0.44514851  1
  Ti  Ti68  1  0.56390152  0.33623656  0.76747658  1
  Ti  Ti69  1  0.56211423  0.66789157  0.18987180  1
  Ti  Ti70  1  0.51239053  0.76180601  0.50720795  1
  Ti  Ti71  1  0.39974160  0.60502763  0.78957913  1
  Ti  Ti72  1  0.88201023  -0.07523066  0.17074682  1
  Ti  Ti73  1  0.86237687  0.04146922  0.43691598  1
  Ti  Ti74  1  0.74392285  -0.03327454  0.88343585  1
  Ti  Ti75  1  0.79909271  0.39381530  0.15769108  1
  Ti  Ti76  1  0.82023946  0.40684263  0.45540471  1
  Ti  Ti77  1  0.84375570  0.31714122  0.78870945  1
  Ti  Ti78  1  0.86064438  0.67545753  0.18517629  1
  Ti  Ti79  1  0.80723425  0.62227930  0.56858231  1
  Ti  Ti80  1  0.90487593  0.69412602  0.86435216  1
  Ti  Ti81  1  0.12319765  0.11398689  0.08295900  1
  Ti  Ti82  1  0.15480773  0.14558706  0.32061558  1
  Ti  Ti83  1  0.13959451  0.16601069  0.68795436  1
  Ti  Ti84  1  0.15742564  0.54517360  -0.00971278  1
  Ti  Ti85  1  0.10037996  0.47864108  0.37555039  1
  Ti  Ti86  1  0.26626363  0.44942642  0.68813524  1
  Ti  Ti87  1  0.13660159  0.88568960  0.02132978  1
  Ti  Ti88  1  0.19110384  0.83111769  0.34352687  1
  Ti  Ti89  1  0.20323034  0.80272648  0.56812792  1
  Ti  Ti90  1  0.53023041  0.19344267  -0.09583746  1
  Ti  Ti91  1  0.47540658  0.18524809  0.29723749  1
  Ti  Ti92  1  0.49949718  0.15779493  0.71193458  1
  Ti  Ti93  1  0.52248220  0.37356898  -0.03016476  1
  Ti  Ti94  1  0.56478072  0.51608811  0.32620576  1
  Ti  Ti95  1  0.53200229  0.50949410  0.66573342  1
  Ti  Ti96  1  0.48504175  0.78631165  0.04695470  1
  Ti  Ti97  1  0.48520286  0.80156597  0.31942135  1
  Ti  Ti98  1  0.50855361  0.81535106  0.69971083  1
  Ti  Ti99  1  0.88198696  0.07853316  0.02547353  1
  Ti  Ti100  1  0.86167655  0.22062923  0.37184336  1
  Ti  Ti101  1  0.80955168  0.13915945  0.70122070  1
  Ti  Ti102  1  0.84684145  0.39435576  -0.03401700  1
  Ti  Ti103  1  0.76382421  0.50812738  0.29668664  1
  Ti  Ti104  1  0.83484667  0.54175104  0.75292024  1
  Ti  Ti105  1  0.78650456  0.79462485  -0.00673547  1
  Ti  Ti106  1  0.84186187  0.85005232  0.34835507  1
  Ti  Ti107  1  0.84429832  0.84231827  0.61059300  1
  Co  Co108  1  0.51666075  0.95775592  0.05444006  1
  Co  Co109  1  0.40210671  0.45675778  0.04019691  1
  Co  Co110  1  0.56504429  0.67028831  0.38169773  1
  Co  Co111  1  0.49471489  0.59553119  0.05528623  1
  Co  Co112  1  0.64121590  0.88422050  0.99453785  1
  Co  Co113  1  0.56488567  0.24006556  0.59166540  1
  Co  Co114  1  0.88995187  0.17232673  0.53849234  1
  Co  Co115  1  0.09425362  0.40408434  0.52312979  1
  Co  Co116  1  0.39433878  0.69072032  0.16164917  1
  Co  Co117  1  0.48907558  0.89317459  0.91162327  1
  Co  Co118  1  0.61419504  0.12444688  0.21403257  1
  Co  Co119  1  0.20371007  0.26776285  0.06030590  1
  Co  Co120  1  0.79316810  0.77239306  0.47236655  1
  Co  Co121  1  0.27805520  0.79303382  1.00421601  1
  Co  Co122  1  0.83909056  0.45393955  0.61535479  1
  Co  Co123  1  0.46364291  0.51709112  0.19475465  1
  Co  Co124  1  0.07155850  0.63234395  0.86699717  1
  Co  Co125  1  0.79600105  1.02777978  0.58099464  1
  Co  Co126  1  0.39834622  0.46872253  0.34089246  1
  Co  Co127  1  0.25416205  0.69206450  0.26610682  1
  Co  Co128  1  0.25067140  0.85489679  0.75444958  1
  Co  Co129  1  0.70070775  0.57394958  0.16723722  1
  Co  Co130  1  0.84095101  0.53395844  0.09530833  1
  Co  Co131  1  0.63520292  0.08949767  0.77468507  1
  Co  Co132  1  0.91993025  0.90772303  0.49021598  1
  Co  Co133  1  0.26066591  0.55983581  0.37814878  1
  Co  Co134  1  0.68485942  0.32630787  0.88268969  1
  Co  Co135  1  0.90302642  0.91751980  -0.03051598  1
  Co  Co136  1  0.81452677  0.29795997  0.61772149  1
  Co  Co137  1  0.58284639  0.93387979  0.78909051  1
  Co  Co138  1  0.48958594  0.69087961  0.91420599  1
  Co  Co139  1  1.01916658  0.79127074  0.91651204  1
  Co  Co140  1  0.35331232  0.74201906  0.56353135  1
  Co  Co141  1  0.89343700  0.28668082  0.23301370  1
  Co  Co142  1  0.69609806  0.45726079  0.01017118  1
  Co  Co143  1  0.46970759  0.18837398  0.05731649  1
  Co  Co144  1  0.31606939  0.75196461  0.41096095  1
  Co  Co145  1  0.13254395  0.66977823  0.37316296  1
  Co  Co146  1  0.13815377  0.44864263  0.80526690  1
  Co  Co147  1  0.57377806  0.63574778  0.78838884  1
  Co  Co148  1  0.88309733  0.03647168  0.28739161  1
  Co  Co149  1  0.94517252  0.33532147  0.52308680  1
  Co  Co150  1  1.00217686  0.34213974  0.88123825  1
  Co  Co151  1  0.11397715  0.71207153  0.01821478  1
  Co  Co152  1  0.96719668  0.23050573  0.66424852  1
  Co  Co153  1  0.36674786  0.89316253  0.65071250  1
  Co  Co154  1  0.68154966  0.23654477  0.71235314  1
  Co  Co155  1  0.89057932  0.05998504  0.85846911  1
  Co  Co156  1  0.11461839  0.89759855  0.83987314  1
  Co  Co157  1  0.01457269  -0.01162294  0.09504367  1
  Co  Co158  1  0.13798171  0.33177589  0.66968457  1
  Co  Co159  1  0.14504401  0.38234500  0.96592401  1
  Co  Co160  1  0.46456996  0.87303514  0.18332768  1
  Co  Co161  1  0.00441362  0.12251251  0.39480618  1
  Ni  Ni162  1  0.73165348  0.96725473  0.29117297  1
  Ni  Ni163  1  0.35584360  0.74424132  0.71777076  1
  Ni  Ni164  1  0.08554404  0.87188445  0.19055363  1
  Ni  Ni165  1  0.29567039  0.26451206  0.67907643  1
  Ni  Ni166  1  0.86356379  0.71014341  0.70638588  1
  Ni  Ni167  1  0.23503605  0.41313156  0.29782526  1
  Ni  Ni168  1  0.51338390  0.92207771  0.44820647  1
  Ni  Ni169  1  0.98169472  0.78749136  0.28089169  1
  Ni  Ni170  1  0.83051149  0.97159560  0.73059064  1
  Ni  Ni171  1  0.65939992  0.81322774  0.56047331  1
  Ni  Ni172  1  0.00723028  0.45143695  0.03202964  1
  Ni  Ni173  1  0.70890336  0.12043115  0.35885823  1
  Ni  Ni174  1  0.23830617  0.57731690  0.84306040  1
  Ni  Ni175  1  0.40233540  0.28488670  0.81509031  1
  Ni  Ni176  1  0.48371577  0.66086279  0.64098305  1
  Ni  Ni177  1  0.81639324  0.55963164  0.93194441  1
  Ni  Ni178  1  0.23379497  0.13300370  0.56357771  1
  Ni  Ni179  1  0.83694957  0.23701862  0.08814669  1
  Ni  Ni180  1  0.76301602  -0.03428020  0.06548533  1
  Ni  Ni181  1  0.23222531  0.13547716  0.94819724  1
  Ni  Ni182  1  0.05585186  0.90138526  0.58839050  1
  Ni  Ni183  1  0.66224680  0.40251434  0.40236586  1
  Ni  Ni184  1  0.35519617  0.06224813  0.64718117  1
  Ni  Ni185  1  0.10170220  0.79835416  0.70797911  1
  Ni  Ni186  1  0.89284684  0.22382610  0.93482496  1
  Ni  Ni187  1  0.92691303  0.43486359  0.32612158  1
  Ni  Ni188  1  0.41924305  0.05809113  0.40915596  1
  Ni  Ni189  1  0.23183373  1.00313920  0.37940031  1
  Ni  Ni190  1  0.32137666  0.44309982  0.49371889  1
  Ni  Ni191  1  0.50024879  0.46017934  0.49300620  1
  Ni  Ni192  1  0.10793136  0.25151179  0.19924320  1
  Ni  Ni193  1  0.49463389  0.52388399  0.90183386  1
  Ni  Ni194  1  0.64488342  0.83342910  0.37340942  1
  Ni  Ni195  1  0.51551927  0.35893489  0.28512063  1
  Ni  Ni196  1  0.08356244  0.21070614  0.94723774  1
  Ni  Ni197  1  0.56428878  0.27328965  0.15533072  1
  Ni  Ni198  1  0.95196784  0.68968933  0.54110368  1
  Ni  Ni199  1  0.82703274  0.61483992  0.40906892  1
  Ni  Ni200  1  0.26920100  0.26264673  0.23466844  1
  Ni  Ni201  1  0.26776206  0.99147858  0.04987564  1
  Ni  Ni202  1  0.42224881  0.43748744  0.76920523  1
  Ni  Ni203  1  0.56388937  0.12215943  0.46028176  1
  Ni  Ni204  1  0.71084173  0.73972759  0.13263909  1
  Ni  Ni205  1  0.64234016  0.09448395  0.61001473  1
  Ni  Ni206  1  0.32313991  0.10028354  0.27627279  1
  Ni  Ni207  1  0.71968944  0.40155207  0.73309646  1
  Ni  Ni208  1  0.14770257  0.55682648  0.23634788  1
  Ni  Ni209  1  0.57627364  0.03393665  0.91411351  1
  Ni  Ni210  1  0.06323496  0.02521369  0.75728233  1
  Ni  Ni211  1  0.10999687  0.50891133  0.65185610  1
  Ni  Ni212  1  0.28571947  0.17055015  0.41647468  1
  Ni  Ni213  1  0.23604585  0.66059789  0.10688586  1
  Ni  Ni214  1  0.69063326  0.53843835  0.65667980  1
  Ni  Ni215  1  0.73596760  0.67403572  0.84777494  1
