# generated using pymatgen
data_Ti2CoNi
_symmetry_space_group_name_H-M   'P 1'
_cell_length_a   14.53081243
_cell_length_b   14.49399132
_cell_length_c   14.48915537
_cell_angle_alpha   90.02020081
_cell_angle_beta   89.59054692
_cell_angle_gamma   90.02291445
_symmetry_Int_Tables_number   1
_chemical_formula_structural   Ti2CoNi
_chemical_formula_sum   'Ti108 Co54 Ni54'
_cell_volume   3051.47496953
_cell_formula_units_Z   54
loop_
 _symmetry_equiv_pos_site_id
 _symmetry_equiv_pos_as_xyz
  1  'x, y, z'
loop_
 _atom_site_type_symbol
 _atom_site_label
 _atom_site_symmetry_multiplicity
 _atom_site_fract_x
 _atom_site_fract_y
 _atom_site_fract_z
 _atom_site_occupancy
  Ti  Ti0  1  0.06229925  -0.00389510  -0.04863707  1
  Ti  Ti1  1  0.01452555  -0.04751480  0.36245171  1
  Ti  Ti2  1  -0.01932100  0.03815550  0.56134103  1
  Ti  Ti3  1  0.04226052  0.39365589  0.04988400  1
  Ti  Ti4  1  -0.04030929  0.37606158  0.34071050  1
  Ti  Ti5  1  -0.06362005  0.29728690  0.76664044  1
  Ti  Ti6  1  0.01670725  0.61832584  0.08798016  1
  Ti  Ti7  1  -0.07230402  0.66926278  0.28775278  1
  Ti  Ti8  1  0.02602066  0.64429490  0.72669276  1
  Ti  Ti9  1  0.24915777  0.07787845  0.01130390  1
  Ti  Ti10  1  0.35051836  0.08556017  0.34071141  1
  Ti  Ti11  1  0.42062565  0.02013783  0.65673535  1
  Ti  Ti12  1  0.32212238  0.28788093  -0.06494012  1
  Ti  Ti13  1  0.42419425  0.29856572  0.33168801  1
  Ti  Ti14  1  0.41176834  0.37128151  0.61764422  1
  Ti  Ti15  1  0.31684016  0.65918720  0.00267788  1
  Ti  Ti16  1  0.30409607  0.68469823  0.38011077  1
  Ti  Ti17  1  0.25388867  0.66240409  0.69421718  1
  Ti  Ti18  1  0.65196683  -0.06160765  -0.06407999  1
  Ti  Ti19  1  0.68223073  0.01805910  0.31528193  1
  Ti  Ti20  1  0.63024464  0.02643922  0.63830210  1
  Ti  Ti21  1  0.61898024  0.24699265  -0.03649024  1
  Ti  Ti22  1  0.61964720  0.32679354  0.30130438  1
  Ti  Ti23  1  0.69440116  0.39877871  0.65358939  1
  Ti  Ti24  1  0.61247992  0.76251719  0.01704592  1
  Ti  Ti25  1  0.70674664  0.67182260  0.39912468  1
  Ti  Ti26  1  0.59625924  0.69542094  0.61771275  1
  Ti  Ti27  1  0.15152043  0.21562100  0.12667683  1
  Ti  Ti28  1  -0.00896613  0.21722947  0.59018840  1
  Ti  Ti29  1  0.02654146  0.15764058  0.83508535  1
  Ti  Ti30  1  0.04783522  0.51095574  0.24037190  1
  Ti  Ti31  1  0.02965476  0.41665287  0.53137422  1
  Ti  Ti32  1  0.05440819  0.46840688  0.83425065  1
  Ti  Ti33  1  0.03651254  0.82131532  0.11933717  1
  Ti  Ti34  1  -0.03370770  0.83481291  0.53261781  1
  Ti  Ti35  1  0.00750496  0.82922663  0.79782011  1
  Ti  Ti36  1  0.33255885  0.24175169  0.14436179  1
  Ti  Ti37  1  0.30384495  0.21595339  0.56171755  1
  Ti  Ti38  1  0.31310281  0.14788181  0.75323303  1
  Ti  Ti39  1  0.37606510  0.53947049  0.13098288  1
  Ti  Ti40  1  0.28691660  0.38073582  0.42063297  1
  Ti  Ti41  1  0.37562615  0.57972907  0.83175472  1
  Ti  Ti42  1  0.27723686  0.80745960  0.17509415  1
  Ti  Ti43  1  0.31337777  0.90745198  0.44355668  1
  Ti  Ti44  1  0.36446697  0.81382897  0.76382668  1
  Ti  Ti45  1  0.71485894  0.15092348  0.12468238  1
  Ti  Ti46  1  0.69548641  0.20589344  0.64966138  1
  Ti  Ti47  1  0.69782104  0.11902324  0.81402376  1
  Ti  Ti48  1  0.65712019  0.47684414  0.13683140  1
  Ti  Ti49  1  0.69188090  0.57171514  0.54820246  1
  Ti  Ti50  1  0.72950156  0.49938373  0.82340096  1
  Ti  Ti51  1  0.67305948  0.81608803  0.21367896  1
  Ti  Ti52  1  0.69261188  0.87324836  0.47254471  1
  Ti  Ti53  1  0.60232975  0.79093155  0.80956770  1
  Ti  Ti54  1  0.10838750  0.00032089  0.15007798  1
  Ti  Ti55  1  0.14999536  0.10164952  0.49231818  1
  Ti  Ti56  1  0.18769539  -0.10384148  0.81384231  1
  Ti  Ti57  1  0.18107944  0.32426211  0.26065531  1
  Ti  Ti58  1  0.10496775  0.26922620  0.43247850  1
  Ti  Ti59  1  0.20155740  0.37642922  0.83664598  1
  Ti  Ti60  1  0.13473780  0.69704306  0.24507869  1
  Ti  Ti61  1  0.06925438  0.60075520  0.51659621  1
  Ti  Ti62  1  0.12820957  0.67877048  0.90057467  1
  Ti  Ti63  1  0.51670839  0.01159126  0.22453241  1
  Ti  Ti64  1  0.49948642  -0.03965834  0.46192205  1
  Ti  Ti65  1  0.50784119  0.07444269  0.82835048  1
  Ti  Ti66  1  0.51997364  0.31825392  0.12457727  1
  Ti  Ti67  1  0.59388992  0.30796682  0.51245507  1
  Ti  Ti68  1  0.50790328  0.37800558  0.83909959  1
  Ti  Ti69  1  0.54066725  0.65128357  0.18216537  1
  Ti  Ti70  1  0.39290986  0.69258079  0.55193624  1
  Ti  Ti71  1  0.58232367  0.62097897  0.85445560  1
  Ti  Ti72  1  0.89057087  0.11119753  0.13116568  1
  Ti  Ti73  1  0.80921647  -0.01447830  0.55311345  1
  Ti  Ti74  1  0.85569242  0.01930948  0.86379775  1
  Ti  Ti75  1  0.83800015  0.29364076  0.20890566  1
  Ti  Ti76  1  0.78110103  0.31384447  0.44848900  1
  Ti  Ti77  1  0.73788423  0.31428903  0.83842315  1
  Ti  Ti78  1  0.75291776  0.66004882  0.09014289  1
  Ti  Ti79  1  0.85786043  0.57914295  0.46619168  1
  Ti  Ti80  1  0.78731914  0.69057409  0.89260181  1
  Ti  Ti81  1  0.15851617  0.22693308  -0.06315806  1
  Ti  Ti82  1  0.12760101  0.10862803  0.30382958  1
  Ti  Ti83  1  0.13385341  0.14401582  0.68522033  1
  Ti  Ti84  1  0.18011470  0.52287055  -0.00194718  1
  Ti  Ti85  1  0.23513441  0.52456342  0.30390368  1
  Ti  Ti86  1  0.15487695  0.51294208  0.66996535  1
  Ti  Ti87  1  0.26335014  0.85647239  -0.01106105  1
  Ti  Ti88  1  0.13267527  0.78622577  0.42315479  1
  Ti  Ti89  1  0.20131145  0.86962947  0.61787671  1
  Ti  Ti90  1  0.44546836  0.16047227  -0.00886063  1
  Ti  Ti91  1  0.53017792  0.13432264  0.39477689  1
  Ti  Ti92  1  0.48079161  0.21014540  0.66207316  1
  Ti  Ti93  1  0.48539690  0.49074688  -0.00747320  1
  Ti  Ti94  1  0.58453578  0.49918660  0.36556424  1
  Ti  Ti95  1  0.46389375  0.54189558  0.67152831  1
  Ti  Ti96  1  0.44349514  0.91847329  0.08641056  1
  Ti  Ti97  1  0.45023256  0.81304475  0.24929585  1
  Ti  Ti98  1  0.53044521  0.85857531  0.64432077  1
  Ti  Ti99  1  0.89276678  0.26241460  -0.00584048  1
  Ti  Ti100  1  0.85007595  0.08086863  0.35976042  1
  Ti  Ti101  1  0.86292191  0.12272261  0.68832291  1
  Ti  Ti102  1  0.82150619  0.46700373  0.02563450  1
  Ti  Ti103  1  0.78333420  0.46960419  0.29297354  1
  Ti  Ti104  1  0.83351983  0.59189382  0.66467807  1
  Ti  Ti105  1  0.90016311  0.85899335  -0.03154026  1
  Ti  Ti106  1  0.86526549  0.86307440  0.24063044  1
  Ti  Ti107  1  0.83946319  0.79265313  0.69787687  1
  Co  Co108  1  0.67845155  0.20030532  0.44290943  1
  Co  Co109  1  0.95255269  0.68832713  0.59228503  1
  Co  Co110  1  0.69579117  0.86009985  0.64405064  1
  Co  Co111  1  0.77432822  0.14708021  0.97417546  1
  Co  Co112  1  0.28502983  0.73614003  0.86730069  1
  Co  Co113  1  0.11774375  0.61411919  0.37407540  1
  Co  Co114  1  0.55176449  0.61287514  0.03966958  1
  Co  Co115  1  0.43316825  0.79588898  0.41971772  1
  Co  Co116  1  0.43915004  0.74981197  0.07953316  1
  Co  Co117  1  0.83319780  0.14923741  0.52196529  1
  Co  Co118  1  0.50044495  0.83355559  0.94383121  1
  Co  Co119  1  0.00724224  0.12512998  0.41630813  1
  Co  Co120  1  0.61544413  0.08181743  0.98694853  1
  Co  Co121  1  0.27619966  0.96101382  0.12419471  1
  Co  Co122  1  0.04932718  0.14619024  0.02643171  1
  Co  Co123  1  0.97424665  0.51524674  0.40157993  1
  Co  Co124  1  0.47119508  0.17458729  0.25109221  1
  Co  Co125  1  0.25047078  0.29924155  0.69874636  1
  Co  Co126  1  0.53406790  0.62239547  0.47805825  1
  Co  Co127  1  0.92642621  0.94960847  0.10434795  1
  Co  Co128  1  0.37939413  0.85115069  0.58984525  1
  Co  Co129  1  0.84401939  0.19123093  0.84555822  1
  Co  Co130  1  0.22764861  0.70853352  0.52761123  1
  Co  Co131  1  0.08066183  0.83586011  0.94629485  1
  Co  Co132  1  -0.01234900  0.70779261  0.42280729  1
  Co  Co133  1  0.56378857  0.78295863  0.48761002  1
  Co  Co134  1  0.44564861  0.25572817  0.48215325  1
  Co  Co135  1  0.55196178  0.13800600  0.56085912  1
  Co  Co136  1  0.76424004  0.20392892  0.30455942  1
  Co  Co137  1  0.12261886  0.43877186  0.39383089  1
  Co  Co138  1  0.76584445  0.82746716  0.08080560  1
  Co  Co139  1  0.15614584  0.76606150  0.73636897  1
  Co  Co140  1  0.08846106  0.35120928  0.70383255  1
  Co  Co141  1  0.24834686  0.09891841  0.20169869  1
  Co  Co142  1  0.15156015  0.26902666  0.57549122  1
  Co  Co143  1  0.92015891  0.07643658  0.98285807  1
  Co  Co144  1  0.02026136  0.23214627  0.28308807  1
  Co  Co145  1  0.62782663  0.15196021  0.25726925  1
  Co  Co146  1  0.22605722  0.40588335  0.57476937  1
  Co  Co147  1  0.69478862  0.57285412  0.97083729  1
  Co  Co148  1  0.21533909  0.55935192  0.83766223  1
  Co  Co149  1  0.45324706  0.69701372  0.90616115  1
  Co  Co150  1  0.97808849  0.07438540  0.24918643  1
  Co  Co151  1  0.38930969  0.07799835  0.13775755  1
  Co  Co152  1  0.61850955  0.96456910  0.77475458  1
  Co  Co153  1  0.54566632  0.15740359  0.10987497  1
  Co  Co154  1  0.22418108  0.53489637  0.47058547  1
  Co  Co155  1  0.21301504  0.60538824  0.13524653  1
  Co  Co156  1  0.36162367  0.93686630  0.25948700  1
  Co  Co157  1  0.78015872  -0.00308294  0.02844694  1
  Co  Co158  1  0.77966915  0.72984679  0.55458118  1
  Co  Co159  1  0.78329676  0.98241602  0.19510995  1
  Co  Co160  1  0.15169123  0.72068271  0.05574085  1
  Co  Co161  1  0.04353011  0.31578140  0.89627635  1
  Ni  Ni162  1  0.86401291  0.57249727  0.17319170  1
  Ni  Ni163  1  0.76912649  -0.02048582  0.72756306  1
  Ni  Ni164  1  0.59198362  0.25066621  0.76363027  1
  Ni  Ni165  1  0.45916026  0.69600658  0.73505999  1
  Ni  Ni166  1  0.10810431  0.85666083  0.26123691  1
  Ni  Ni167  1  0.31894129  0.53178269  0.58912747  1
  Ni  Ni168  1  0.35888332  0.42460802  0.25396626  1
  Ni  Ni169  1  0.21129091  0.45235620  0.16442828  1
  Ni  Ni170  1  0.27252114  0.01960681  0.54617352  1
  Ni  Ni171  1  0.05860888  -0.00892051  0.75810388  1
  Ni  Ni172  1  0.33705631  0.45374674  0.92705449  1
  Ni  Ni173  1  0.71405757  0.67767547  0.72120982  1
  Ni  Ni174  1  -0.02578956  0.48698713  0.67300620  1
  Ni  Ni175  1  0.85201551  0.44782522  0.56306079  1
  Ni  Ni176  1  0.45115046  0.43069323  0.45308420  1
  Ni  Ni177  1  -0.01867622  0.52634053  0.96518406  1
  Ni  Ni178  1  0.43473922  0.23318030  0.82222244  1
  Ni  Ni179  1  0.43128654  0.56436924  0.33374349  1
  Ni  Ni180  1  0.90040933  0.40486086  0.89417392  1
  Ni  Ni181  1  0.17904499  0.05803248  0.85612031  1
  Ni  Ni182  1  0.66254891  0.04711587  0.47533330  1
  Ni  Ni183  1  0.25859377  0.21805278  0.35617169  1
  Ni  Ni184  1  0.83795073  0.41639808  0.73025820  1
  Ni  Ni185  1  0.98312055  0.26031827  0.12942931  1
  Ni  Ni186  1  0.78384569  0.86449602  0.84022654  1
  Ni  Ni187  1  0.92800962  0.42277602  0.16380164  1
  Ni  Ni188  1  0.56040536  0.47466190  0.55267642  1
  Ni  Ni189  1  0.20523637  0.35657431  0.03903090  1
  Ni  Ni190  1  0.50494926  0.47124678  0.19926869  1
  Ni  Ni191  1  0.84239116  0.29051761  0.61445795  1
  Ni  Ni192  1  0.56301993  0.71298990  0.33027625  1
  Ni  Ni193  1  0.40344730  0.09931406  0.50476669  1
  Ni  Ni194  1  0.86250587  0.91449628  0.40765397  1
  Ni  Ni195  1  0.89873739  0.73835922  0.10167635  1
  Ni  Ni196  1  0.20526150  0.96129364  0.34585678  1
  Ni  Ni197  1  0.37028928  0.38043207  0.06863514  1
  Ni  Ni198  1  0.11162920  0.94173040  0.50325200  1
  Ni  Ni199  1  0.92024783  0.94800729  0.68625737  1
  Ni  Ni200  1  0.89150690  0.55942870  0.82511021  1
  Ni  Ni201  1  0.32809853  -0.01469319  0.85844307  1
  Ni  Ni202  1  0.64542694  0.42331385  0.97368079  1
  Ni  Ni203  1  0.72591028  0.46471232  0.44242794  1
  Ni  Ni204  1  0.62318612  0.93880785  0.10977470  1
  Ni  Ni205  1  0.35180980  0.66838035  0.22161694  1
  Ni  Ni206  1  0.95296019  0.69141929  0.90473273  1
  Ni  Ni207  1  0.24070491  1.01514752  0.69934920  1
  Ni  Ni208  1  0.70609714  0.31701524  0.10049648  1
  Ni  Ni209  1  0.31360843  0.44619001  0.73484774  1
  Ni  Ni210  1  0.57864211  0.88063100  0.33538469  1
  Ni  Ni211  1  0.93032335  0.25772692  0.44596177  1
  Ni  Ni212  1  0.47858810  0.91505028  0.82012074  1
  Ni  Ni213  1  0.62235900  0.53517338  0.70774037  1
  Ni  Ni214  1  0.70061491  0.63081154  0.24840097  1
  Ni  Ni215  1  0.83875880  0.76688092  0.40455893  1
