# generated using pymatgen
data_Ti2CoNi
_symmetry_space_group_name_H-M   'P 1'
_cell_length_a   14.69674087
_cell_length_b   14.66664959
_cell_length_c   14.65830393
_cell_angle_alpha   90.15655641
_cell_angle_beta   89.88261260
_cell_angle_gamma   89.65606467
_symmetry_Int_Tables_number   1
_chemical_formula_structural   Ti2CoNi
_chemical_formula_sum   'Ti108 Co54 Ni54'
_cell_volume   3159.55051108
_cell_formula_units_Z   54
loop_
 _symmetry_equiv_pos_site_id
 _symmetry_equiv_pos_as_xyz
  1  'x, y, z'
loop_
 _atom_site_type_symbol
 _atom_site_label
 _atom_site_symmetry_multiplicity
 _atom_site_fract_x
 _atom_site_fract_y
 _atom_site_fract_z
 _atom_site_occupancy
  Ti  Ti0  1  -0.06612376  -0.03005950  -0.02790487  1
  Ti  Ti1  1  -0.13532780  0.03450027  0.30996555  1
  Ti  Ti2  1  -0.05358215  0.03768998  0.73750728  1
  Ti  Ti3  1  0.02493801  0.31683566  0.05033582  1
  Ti  Ti4  1  -0.08392709  0.24779020  0.28949207  1
  Ti  Ti5  1  -0.04505760  0.24336651  0.70440195  1
  Ti  Ti6  1  0.00001137  0.69773414  0.06709967  1
  Ti  Ti7  1  0.04002450  0.64121681  0.36688929  1
  Ti  Ti8  1  -0.01276780  0.65192910  0.62680222  1
  Ti  Ti9  1  0.36289365  0.02546642  -0.03433837  1
  Ti  Ti10  1  0.38846688  -0.05590786  0.30349295  1
  Ti  Ti11  1  0.33906564  0.02062735  0.59960406  1
  Ti  Ti12  1  0.33002567  0.31664384  -0.02511370  1
  Ti  Ti13  1  0.40407298  0.31089846  0.32723017  1
  Ti  Ti14  1  0.36899636  0.35562118  0.74899496  1
  Ti  Ti15  1  0.29795972  0.61897429  0.01902275  1
  Ti  Ti16  1  0.33020967  0.62640093  0.34332661  1
  Ti  Ti17  1  0.26509589  0.64933269  0.63556725  1
  Ti  Ti18  1  0.58806238  -0.03993067  0.00740620  1
  Ti  Ti19  1  0.66686001  0.00076180  0.34956155  1
  Ti  Ti20  1  0.66525927  -0.00902019  0.71833566  1
  Ti  Ti21  1  0.65845661  0.35370535  0.00443022  1
  Ti  Ti22  1  0.69912472  0.37139588  0.35527791  1
  Ti  Ti23  1  0.73317354  0.36553176  0.68176005  1
  Ti  Ti24  1  0.67106018  0.62051539  0.06242167  1
  Ti  Ti25  1  0.72126727  0.59575200  0.33878559  1
  Ti  Ti26  1  0.64646655  0.69781478  0.64387433  1
  Ti  Ti27  1  0.09000479  0.13874441  0.18568932  1
  Ti  Ti28  1  -0.05152861  0.15631668  0.44803010  1
  Ti  Ti29  1  0.04071402  0.24250294  0.87753048  1
  Ti  Ti30  1  -0.05065017  0.51775946  0.07118344  1
  Ti  Ti31  1  -0.00603943  0.49841367  0.48393378  1
  Ti  Ti32  1  0.06897057  0.52360665  0.86680505  1
  Ti  Ti33  1  0.02127905  0.94642647  0.21527815  1
  Ti  Ti34  1  0.06469398  0.81810123  0.53323180  1
  Ti  Ti35  1  0.02638227  0.73097088  0.82694186  1
  Ti  Ti36  1  0.30528926  0.16091925  0.22893060  1
  Ti  Ti37  1  0.30726945  0.22707192  0.57842058  1
  Ti  Ti38  1  0.29962133  0.11372820  0.77072834  1
  Ti  Ti39  1  0.29284619  0.44285915  0.26526245  1
  Ti  Ti40  1  0.33903355  0.46456500  0.53721185  1
  Ti  Ti41  1  0.38662614  0.56329491  0.83919772  1
  Ti  Ti42  1  0.34254363  0.83242056  0.10354445  1
  Ti  Ti43  1  0.24387734  0.85517470  0.56823239  1
  Ti  Ti44  1  0.29812954  0.84418328  0.89541598  1
  Ti  Ti45  1  0.63862694  0.15262648  0.09026985  1
  Ti  Ti46  1  0.63902719  0.19122237  0.45808052  1
  Ti  Ti47  1  0.67731312  0.19595867  0.77553029  1
  Ti  Ti48  1  0.67846401  0.43742660  0.18834277  1
  Ti  Ti49  1  0.66462805  0.51473441  0.50753318  1
  Ti  Ti50  1  0.66562700  0.55572173  0.79130613  1
  Ti  Ti51  1  0.66866022  0.81908072  0.13886425  1
  Ti  Ti52  1  0.71927753  0.84692318  0.54777647  1
  Ti  Ti53  1  0.65289211  0.81935083  0.86011027  1
  Ti  Ti54  1  0.22706618  -0.00930839  0.18679504  1
  Ti  Ti55  1  0.09753360  0.00949684  0.46843491  1
  Ti  Ti56  1  0.16212734  0.02072015  0.89694719  1
  Ti  Ti57  1  0.19940451  0.32092687  0.13518097  1
  Ti  Ti58  1  0.19649940  0.36106059  0.45732578  1
  Ti  Ti59  1  0.17453728  0.36621214  0.80555242  1
  Ti  Ti60  1  0.16636508  0.68415637  0.17129212  1
  Ti  Ti61  1  0.19205959  0.70305104  0.45425914  1
  Ti  Ti62  1  0.22031286  0.67300679  0.83809574  1
  Ti  Ti63  1  0.46367914  0.04692338  0.14661759  1
  Ti  Ti64  1  0.54267151  -0.02459602  0.50420297  1
  Ti  Ti65  1  0.48882687  -0.02794608  0.81582217  1
  Ti  Ti66  1  0.48486850  0.40410062  0.13019886  1
  Ti  Ti67  1  0.53457112  0.37264398  0.46573384  1
  Ti  Ti68  1  0.50827397  0.32747867  0.89152118  1
  Ti  Ti69  1  0.49982597  0.71947958  0.19567992  1
  Ti  Ti70  1  0.46658751  0.63933577  0.55415329  1
  Ti  Ti71  1  0.46591734  0.75879021  0.79387773  1
  Ti  Ti72  1  0.81737518  -0.04952280  0.13367568  1
  Ti  Ti73  1  0.88415175  -0.01347704  0.53414005  1
  Ti  Ti74  1  0.79681119  0.02648139  0.85355201  1
  Ti  Ti75  1  0.78979579  0.28199544  0.12713648  1
  Ti  Ti76  1  0.91038644  0.33200248  0.53068449  1
  Ti  Ti77  1  0.82392029  0.33164983  0.87276545  1
  Ti  Ti78  1  0.88753635  0.65971086  0.24489596  1
  Ti  Ti79  1  0.89891440  0.76283656  0.47506631  1
  Ti  Ti80  1  0.83035080  0.68133430  0.78731844  1
  Ti  Ti81  1  0.21236606  0.15076577  0.02826519  1
  Ti  Ti82  1  0.13416298  0.19581820  0.38384194  1
  Ti  Ti83  1  0.13190900  0.11060034  0.62932986  1
  Ti  Ti84  1  0.15788799  0.49917486  0.04150721  1
  Ti  Ti85  1  0.09802680  0.44797016  0.31492408  1
  Ti  Ti86  1  0.09156431  0.45552099  0.64705557  1
  Ti  Ti87  1  0.09021977  0.84848375  -0.03515764  1
  Ti  Ti88  1  0.23057278  0.81722044  0.30305825  1
  Ti  Ti89  1  0.15645475  0.90332144  0.73569991  1
  Ti  Ti90  1  0.52114485  0.13966020  -0.06533931  1
  Ti  Ti91  1  0.47832509  0.12493435  0.35313944  1
  Ti  Ti92  1  0.48639163  0.18054299  0.71271045  1
  Ti  Ti93  1  0.53738388  0.51465523  -0.02883711  1
  Ti  Ti94  1  0.52954904  0.57223013  0.34697276  1
  Ti  Ti95  1  0.55085001  0.45575914  0.64575595  1
  Ti  Ti96  1  0.54264344  0.74764091  0.00833563  1
  Ti  Ti97  1  0.48705940  0.78274164  0.38274301  1
  Ti  Ti98  1  0.42063217  0.84388635  0.63450584  1
  Ti  Ti99  1  0.87406980  0.17037607  -0.01094402  1
  Ti  Ti100  1  0.72592543  0.18453495  0.28524703  1
  Ti  Ti101  1  0.78607311  0.19890145  0.57937320  1
  Ti  Ti102  1  0.79909269  0.52202575  -0.07241101  1
  Ti  Ti103  1  0.88988490  0.46695652  0.29096488  1
  Ti  Ti104  1  0.81811418  0.55466401  0.61308330  1
  Ti  Ti105  1  0.85593225  0.78093457  -0.03720201  1
  Ti  Ti106  1  0.89400271  0.83671435  0.29751173  1
  Ti  Ti107  1  0.94707131  0.83656456  0.69263480  1
  Co  Co108  1  0.37248176  0.16164774  0.06415497  1
  Co  Co109  1  0.23068105  0.09358711  0.50141741  1
  Co  Co110  1  0.02922739  0.92927536  0.83122152  1
  Co  Co111  1  0.51164223  0.47080953  0.80582445  1
  Co  Co112  1  0.63991168  0.04375367  0.88146278  1
  Co  Co113  1  1.02575118  0.75722973  0.22101733  1
  Co  Co114  1  0.11554759  0.59973763  0.54759281  1
  Co  Co115  1  0.98052569  0.09299330  0.88386695  1
  Co  Co116  1  0.73724943  0.87508180  0.27096408  1
  Co  Co117  1  0.10882964  0.11774804  0.78582702  1
  Co  Co118  1  0.23403618  0.06303057  0.33760541  1
  Co  Co119  1  0.22689407  0.29684738  0.29458122  1
  Co  Co120  1  0.64134883  0.84531747  0.40730159  1
  Co  Co121  1  0.02502383  0.07807529  0.32267064  1
  Co  Co122  1  0.16817460  0.33256540  0.96592268  1
  Co  Co123  1  0.80732575  0.26568577  0.41685977  1
  Co  Co124  1  0.66768722  0.40246938  0.84894786  1
  Co  Co125  1  0.85273419  0.18506600  0.81618989  1
  Co  Co126  1  0.47204605  0.20783496  0.19784612  1
  Co  Co127  1  0.53077247  0.41983332  0.28588946  1
  Co  Co128  1  0.92084291  0.36879019  0.17171637  1
  Co  Co129  1  0.13233630  0.75337063  0.66817014  1
  Co  Co130  1  0.56138583  0.32609993  0.74325716  1
  Co  Co131  1  0.25411936  0.55417966  0.17020851  1
  Co  Co132  1  0.13010345  0.94199778  0.32626208  1
  Co  Co133  1  0.41527539  0.54386320  0.22075896  1
  Co  Co134  1  0.94847221  0.20490776  0.13345739  1
  Co  Co135  1  0.45314174  0.60669521  0.07151106  1
  Co  Co136  1  0.56508937  0.26091948  0.32870266  1
  Co  Co137  1  0.55836185  0.64682732  0.88258749  1
  Co  Co138  1  0.61977568  0.28743096  0.18218324  1
  Co  Co139  1  0.96811302  0.93335541  0.40547925  1
  Co  Co140  1  0.86829468  0.87583923  0.83236754  1
  Co  Co141  1  0.77389962  0.75056067  0.36960418  1
  Co  Co142  1  0.06330824  0.80012052  0.37031565  1
  Co  Co143  1  0.38398057  0.19307730  0.88153815  1
  Co  Co144  1  0.35494149  0.30833530  0.15108844  1
  Co  Co145  1  0.21384510  0.20298351  0.87697929  1
  Co  Co146  1  0.54662413  0.80542592  0.54059378  1
  Co  Co147  1  0.62995428  0.73194091  0.28909275  1
  Co  Co148  1  0.97058597  0.12529810  0.59512696  1
  Co  Co149  1  0.11369891  0.64761846  0.96694462  1
  Co  Co150  1  0.59233995  0.10491396  0.24246251  1
  Co  Co151  1  0.93665718  0.62550332  0.91993734  1
  Co  Co152  1  0.50604628  0.25858177  0.04930682  1
  Co  Co153  1  0.25799656  0.92780631  0.42832962  1
  Co  Co154  1  0.06240520  0.29220648  0.23746172  1
  Co  Co155  1  0.95358610  0.56634713  0.75967595  1
  Co  Co156  1  0.72084057  0.67321386  0.91726455  1
  Co  Co157  1  0.40664364  0.89181696  0.47822893  1
  Co  Co158  1  0.79888854  0.09755915  0.68789877  1
  Co  Co159  1  0.83479170  0.63717098  0.05001135  1
  Co  Co160  1  0.71287563  0.35489556  0.52060542  1
  Co  Co161  1  0.73716714  0.81517229  0.73079086  1
  Ni  Ni162  1  0.62675589  0.11196097  0.61309500  1
  Ni  Ni163  1  0.08558480  0.00189868  0.06515411  1
  Ni  Ni164  1  0.52364300  0.61717449  0.72210921  1
  Ni  Ni165  1  0.49607021  0.88082055  0.12031845  1
  Ni  Ni166  1  0.32544624  0.94887499  0.77392247  1
  Ni  Ni167  1  0.33685724  0.69506428  0.19168919  1
  Ni  Ni168  1  0.71242249  0.20123754  0.93746772  1
  Ni  Ni169  1  0.60601385  0.27208063  0.60246980  1
  Ni  Ni170  1  0.57552793  0.85652542  0.69652104  1
  Ni  Ni171  1  0.19633709  0.23802181  0.71000755  1
  Ni  Ni172  1  0.23343613  0.93695550  0.02716721  1
  Ni  Ni173  1  0.37265370  0.04740121  0.44098247  1
  Ni  Ni174  1  0.81572136  0.93695839  0.67639489  1
  Ni  Ni175  1  0.07900035  0.26679956  0.55303538  1
  Ni  Ni176  1  0.40392059  0.47554848  0.38707233  1
  Ni  Ni177  1  0.74349854  0.90198051  0.97575593  1
  Ni  Ni178  1  0.20329816  0.52987867  0.42045636  1
  Ni  Ni179  1  0.34167749  0.46168449  0.06324802  1
  Ni  Ni180  1  0.03608738  0.58595458  0.20402436  1
  Ni  Ni181  1  0.30771836  0.20323475  0.40938061  1
  Ni  Ni182  1  0.40163898  0.70697745  0.93647514  1
  Ni  Ni183  1  0.25636090  0.47783094  0.90666974  1
  Ni  Ni184  1  0.45374280  0.87108484  0.94654921  1
  Ni  Ni185  1  0.13964047  0.85076398  0.13777507  1
  Ni  Ni186  1  0.97013927  0.85943440  0.08931578  1
  Ni  Ni187  1  0.81575922  0.11552954  0.16184382  1
  Ni  Ni188  1  0.29124626  0.78897604  0.73213133  1
  Ni  Ni189  1  0.87670146  0.60474616  0.41478830  1
  Ni  Ni190  1  0.25167412  0.50680758  0.73972726  1
  Ni  Ni191  1  0.75336587  0.05624725  0.01714025  1
  Ni  Ni192  1  0.82981915  0.73204547  0.62762098  1
  Ni  Ni193  1  0.11759420  0.60321982  0.72521404  1
  Ni  Ni194  1  0.82004248  0.45371814  0.44812812  1
  Ni  Ni195  1  0.23384572  0.37286897  0.62880587  1
  Ni  Ni196  1  0.21687499  0.76286483  1.01752176  1
  Ni  Ni197  1  0.40031968  0.52747309  0.67402408  1
  Ni  Ni198  1  -0.00342766  0.38753218  0.78350656  1
  Ni  Ni199  1  0.60240014  0.67777144  0.45568221  1
  Ni  Ni200  1  0.79973812  0.44282995  0.07183721  1
  Ni  Ni201  1  0.77587940  0.56564603  0.18165147  1
  Ni  Ni202  1  0.49764530  0.01738999  0.65810731  1
  Ni  Ni203  1  0.35139563  0.73826003  0.48383001  1
  Ni  Ni204  1  0.04413104  0.96431120  0.62026685  1
  Ni  Ni205  1  0.07056319  0.43641332  0.15939751  1
  Ni  Ni206  1  0.81895855  0.47414340  0.76966241  1
  Ni  Ni207  1  0.83396347  0.77823750  0.13929265  1
  Ni  Ni208  1  0.75232966  0.66687117  0.50522698  1
  Ni  Ni209  1  0.02196032  0.33105228  0.40576323  1
  Ni  Ni210  1  0.44626507  0.31847066  0.60318300  1
  Ni  Ni211  1  0.57223621  0.55978096  0.18240618  1
  Ni  Ni212  1  0.92713128  0.44064715  0.64786079  1
  Ni  Ni213  1  0.78109203  0.09709434  0.43993407  1
  Ni  Ni214  1  0.95134148  0.41403825  0.93724934  1
  Ni  Ni215  1  0.55571699  0.89861792  0.26875034  1
