# generated using pymatgen
data_Ti2CoNi
_symmetry_space_group_name_H-M   'P 1'
_cell_length_a   14.53616743
_cell_length_b   14.57422287
_cell_length_c   14.69403607
_cell_angle_alpha   89.91233974
_cell_angle_beta   89.93670920
_cell_angle_gamma   89.93608597
_symmetry_Int_Tables_number   1
_chemical_formula_structural   Ti2CoNi
_chemical_formula_sum   'Ti108 Co54 Ni54'
_cell_volume   3112.97320257
_cell_formula_units_Z   54
loop_
 _symmetry_equiv_pos_site_id
 _symmetry_equiv_pos_as_xyz
  1  'x, y, z'
loop_
 _atom_site_type_symbol
 _atom_site_label
 _atom_site_symmetry_multiplicity
 _atom_site_fract_x
 _atom_site_fract_y
 _atom_site_fract_z
 _atom_site_occupancy
  Ti  Ti0  1  0.03376282  0.03502172  -0.05709321  1
  Ti  Ti1  1  -0.00968581  -0.02077347  0.26049892  1
  Ti  Ti2  1  0.04367545  0.01587098  0.63510001  1
  Ti  Ti3  1  0.00353422  0.31856148  0.02516271  1
  Ti  Ti4  1  -0.06743351  0.38788524  0.34509885  1
  Ti  Ti5  1  -0.00570536  0.21569249  0.72470219  1
  Ti  Ti6  1  -0.02213943  0.60998104  -0.04578647  1
  Ti  Ti7  1  0.06458835  0.66303766  0.37860604  1
  Ti  Ti8  1  -0.01035845  0.66071169  0.60424137  1
  Ti  Ti9  1  0.22158353  0.01568016  -0.01760185  1
  Ti  Ti10  1  0.28128562  -0.01742496  0.36412799  1
  Ti  Ti11  1  0.34060844  -0.03625578  0.56008645  1
  Ti  Ti12  1  0.37013548  0.38026198  -0.00081265  1
  Ti  Ti13  1  0.31665324  0.29723583  0.28184593  1
  Ti  Ti14  1  0.29464374  0.29446904  0.59554869  1
  Ti  Ti15  1  0.37217411  0.72487238  -0.04971336  1
  Ti  Ti16  1  0.36486380  0.65250380  0.31255869  1
  Ti  Ti17  1  0.36086474  0.69265923  0.63556009  1
  Ti  Ti18  1  0.60781417  0.04828915  0.07591373  1
  Ti  Ti19  1  0.72524878  0.01723886  0.28018669  1
  Ti  Ti20  1  0.59085918  0.02979391  0.71203908  1
  Ti  Ti21  1  0.66949069  0.39106492  -0.03773655  1
  Ti  Ti22  1  0.58196632  0.35309307  0.29617082  1
  Ti  Ti23  1  0.63918554  0.25872582  0.71884191  1
  Ti  Ti24  1  0.64430976  0.63697744  -0.05470836  1
  Ti  Ti25  1  0.69354432  0.69331370  0.31725789  1
  Ti  Ti26  1  0.69502096  0.63656949  0.71213701  1
  Ti  Ti27  1  0.01080545  0.17776985  0.18326274  1
  Ti  Ti28  1  -0.00576976  0.17841977  0.51666345  1
  Ti  Ti29  1  -0.12310902  0.12367241  0.83966853  1
  Ti  Ti30  1  -0.03064406  0.54537543  0.24538274  1
  Ti  Ti31  1  -0.04355619  0.46250230  0.54096008  1
  Ti  Ti32  1  0.00940486  0.54008536  0.77408615  1
  Ti  Ti33  1  -0.05014196  0.77629915  0.20975012  1
  Ti  Ti34  1  0.05501711  0.83673379  0.55356400  1
  Ti  Ti35  1  -0.03994002  0.89764948  0.81967328  1
  Ti  Ti36  1  0.32185880  0.17619387  0.08478494  1
  Ti  Ti37  1  0.33500293  0.15443084  0.43703926  1
  Ti  Ti38  1  0.34508328  0.11818533  0.86182480  1
  Ti  Ti39  1  0.31566817  0.53796497  0.13170334  1
  Ti  Ti40  1  0.32915181  0.46919131  0.37168931  1
  Ti  Ti41  1  0.31228776  0.56863918  0.79265156  1
  Ti  Ti42  1  0.25768634  0.82029642  0.21471902  1
  Ti  Ti43  1  0.33714264  0.78705476  0.45276529  1
  Ti  Ti44  1  0.42667458  0.89358657  0.82652754  1
  Ti  Ti45  1  0.61128046  0.17056353  0.21710347  1
  Ti  Ti46  1  0.61075877  0.11874142  0.54474880  1
  Ti  Ti47  1  0.68941758  0.13437228  0.90180212  1
  Ti  Ti48  1  0.69529851  0.47765282  0.11679663  1
  Ti  Ti49  1  0.63347740  0.43089103  0.46588096  1
  Ti  Ti50  1  0.80141915  0.52368675  0.86202678  1
  Ti  Ti51  1  0.68481089  0.83321663  0.18849269  1
  Ti  Ti52  1  0.66510860  0.92721144  0.50104327  1
  Ti  Ti53  1  0.71333451  0.83689149  0.92005674  1
  Ti  Ti54  1  0.18654709  0.02295286  0.18926611  1
  Ti  Ti55  1  0.15652344  0.07348162  0.49572110  1
  Ti  Ti56  1  0.23026926  -0.03529549  0.79773065  1
  Ti  Ti57  1  0.11758687  0.35917923  0.19626823  1
  Ti  Ti58  1  0.17429508  0.43106899  0.50628421  1
  Ti  Ti59  1  0.12446310  0.31593382  0.86085621  1
  Ti  Ti60  1  0.14698758  0.62672706  0.08269176  1
  Ti  Ti61  1  0.17955631  0.64944733  0.56658553  1
  Ti  Ti62  1  0.15075806  0.68547735  0.89180891  1
  Ti  Ti63  1  0.45079303  0.06791283  0.16212450  1
  Ti  Ti64  1  0.48472411  -0.03830641  0.42047009  1
  Ti  Ti65  1  0.54463605  0.00981659  0.89834328  1
  Ti  Ti66  1  0.53113976  0.32277543  0.10248256  1
  Ti  Ti67  1  0.50748878  0.30122154  0.56700006  1
  Ti  Ti68  1  0.51094445  0.40305215  0.79573880  1
  Ti  Ti69  1  0.50807221  0.70520829  0.09475195  1
  Ti  Ti70  1  0.54780064  0.62638973  0.56058100  1
  Ti  Ti71  1  0.51101068  0.59040119  0.74518704  1
  Ti  Ti72  1  0.85671776  -0.02982401  0.07712828  1
  Ti  Ti73  1  0.88578606  0.00335474  0.51128920  1
  Ti  Ti74  1  0.77516889  -0.03939454  0.76893694  1
  Ti  Ti75  1  0.80049785  0.25985651  0.20993164  1
  Ti  Ti76  1  0.81081050  0.31884708  0.47505015  1
  Ti  Ti77  1  0.91227280  0.34769041  0.85621353  1
  Ti  Ti78  1  0.79899544  0.62832737  0.17453039  1
  Ti  Ti79  1  0.80608307  0.64530932  0.52869902  1
  Ti  Ti80  1  0.83884120  0.71359984  0.83905514  1
  Ti  Ti81  1  0.13734801  0.18857896  0.03561477  1
  Ti  Ti82  1  0.16704094  0.17500831  0.32015618  1
  Ti  Ti83  1  0.17699017  0.14901961  0.71007323  1
  Ti  Ti84  1  0.17551932  0.44072688  0.00625257  1
  Ti  Ti85  1  0.17331448  0.53451889  0.26236509  1
  Ti  Ti86  1  0.18967337  0.41584482  0.71940030  1
  Ti  Ti87  1  0.21921402  0.82646842  0.03282976  1
  Ti  Ti88  1  0.11273421  0.85077972  0.33252035  1
  Ti  Ti89  1  0.11774391  0.80978879  0.72819306  1
  Ti  Ti90  1  0.49458170  0.19223160  -0.02054037  1
  Ti  Ti91  1  0.51365747  0.20820815  0.39447116  1
  Ti  Ti92  1  0.42446266  0.21551831  0.71285405  1
  Ti  Ti93  1  0.50531414  0.51446856  0.03125817  1
  Ti  Ti94  1  0.52111066  0.54687971  0.34462695  1
  Ti  Ti95  1  0.40474531  0.47463236  0.57517880  1
  Ti  Ti96  1  0.53570182  0.87457853  0.02117417  1
  Ti  Ti97  1  0.46530984  0.82473356  0.29301265  1
  Ti  Ti98  1  0.53870561  0.80023789  0.68864529  1
  Ti  Ti99  1  0.88470070  0.16376931  0.02793557  1
  Ti  Ti100  1  0.87369505  0.15973593  0.35456137  1
  Ti  Ti101  1  0.79697900  0.17652282  0.59739105  1
  Ti  Ti102  1  0.88104905  0.47473213  0.05020119  1
  Ti  Ti103  1  0.79837467  0.51659662  0.38223773  1
  Ti  Ti104  1  0.83167616  0.43516482  0.68807727  1
  Ti  Ti105  1  0.86756797  0.77238423  0.03241615  1
  Ti  Ti106  1  0.85065144  0.86234561  0.37258492  1
  Ti  Ti107  1  0.82517095  0.81887684  0.59990238  1
  Co  Co108  1  0.89434226  0.07905083  0.68485113  1
  Co  Co109  1  0.28341075  0.41036167  0.86455208  1
  Co  Co110  1  0.72145319  0.37308437  0.80796436  1
  Co  Co111  1  0.62880961  0.61783435  0.15987524  1
  Co  Co112  1  0.80426948  0.61680882  1.00099142  1
  Co  Co113  1  0.88177929  0.08439245  0.19990906  1
  Co  Co114  1  0.31101650  0.97490468  0.10438889  1
  Co  Co115  1  0.15696424  0.63252422  0.73274211  1
  Co  Co116  1  0.26469454  0.52459487  0.62767227  1
  Co  Co117  1  0.52855302  0.14693258  0.81294080  1
  Co  Co118  1  0.95303542  0.63571760  0.11174440  1
  Co  Co119  1  0.70413412  0.20123329  0.34072110  1
  Co  Co120  1  0.99287167  0.89500303  0.01574677  1
  Co  Co121  1  0.61987816  0.51239894  0.86201820  1
  Co  Co122  1  0.17620722  0.13700648  0.87536583  1
  Co  Co123  1  0.42147776  0.72037917  0.78514603  1
  Co  Co124  1  0.67188468  0.48498420  0.71619756  1
  Co  Co125  1  0.36469439  0.39284156  0.71604836  1
  Co  Co126  1  0.44432027  0.08245657  0.32414124  1
  Co  Co127  1  0.55136161  0.46677653  0.18735210  1
  Co  Co128  1  0.82115935  0.44936036  0.21925171  1
  Co  Co129  1  0.21588402  0.69610788  0.30537813  1
  Co  Co130  1  0.21961569  0.58224270  0.42048072  1
  Co  Co131  1  0.15436518  0.52192331  0.86485437  1
  Co  Co132  1  0.63208760  0.87233397  0.33898389  1
  Co  Co133  1  0.35649826  0.90140998  0.96120281  1
  Co  Co134  1  0.99306082  0.76879198  0.91006688  1
  Co  Co135  1  0.45382432  0.58679966  0.19324208  1
  Co  Co136  1  0.01629714  0.19982506  0.90186612  1
  Co  Co137  1  0.41131060  0.28871957  0.86595118  1
  Co  Co138  1  0.05611824  0.75310860  0.05145142  1
  Co  Co139  1  1.01614071  0.45359127  0.92733719  1
  Co  Co140  1  0.67276601  0.51025222  0.28832025  1
  Co  Co141  1  0.81981847  0.26107891  0.73839778  1
  Co  Co142  1  0.65518797  0.26204167  0.47550344  1
  Co  Co143  1  0.73741449  0.51055403  0.56841453  1
  Co  Co144  1  0.92003972  0.91747538  0.66484588  1
  Co  Co145  1  0.06799724  0.48528014  0.38455425  1
  Co  Co146  1  0.58733686  0.28233095  0.88242829  1
  Co  Co147  1  0.70767159  0.35074948  0.60572804  1
  Co  Co148  1  0.19347829  0.96024249  0.64450187  1
  Co  Co149  1  0.60562298  0.05921969  0.37588803  1
  Co  Co150  1  0.47005440  0.60130521  0.90339812  1
  Co  Co151  1  0.74407769  0.35731664  0.33429307  1
  Co  Co152  1  0.09286414  0.70650947  0.20929831  1
  Co  Co153  1  0.86297643  -0.02304669  0.91856434  1
  Co  Co154  1  0.54796368  0.70617629  0.26207760  1
  Co  Co155  1  0.30739900  0.12295810  0.24624572  1
  Co  Co156  1  0.75467123  1.00622991  0.61054995  1
  Co  Co157  1  0.72721415  0.12011686  0.73578560  1
  Co  Co158  1  0.04239487  0.06676479  0.78588933  1
  Co  Co159  1  0.18015460  0.75730646  0.44750719  1
  Co  Co160  1  0.23037089  0.80474179  0.60254485  1
  Co  Co161  1  0.26782428  0.26601820  0.77976788  1
  Ni  Ni162  1  0.18991440  0.91376983  0.48329672  1
  Ni  Ni163  1  0.40523985  0.03927533  0.71652528  1
  Ni  Ni164  1  0.50230829  0.70200355  0.41877272  1
  Ni  Ni165  1  0.01684958  0.38717343  0.71384196  1
  Ni  Ni166  1  0.93924420  0.58402233  0.43747308  1
  Ni  Ni167  1  0.78146864  0.26757918  0.91779351  1
  Ni  Ni168  1  0.66051189  0.75460756  0.58878716  1
  Ni  Ni169  1  0.02956419  0.09465264  0.37352374  1
  Ni  Ni170  1  0.68932756  0.74334554  0.05722477  1
  Ni  Ni171  1  0.25047728  0.32247435  0.10755322  1
  Ni  Ni172  1  0.46161971  0.37901565  0.42170474  1
  Ni  Ni173  1  -0.00899550  0.70480976  0.76556786  1
  Ni  Ni174  1  0.02211748  0.25889875  0.32081472  1
  Ni  Ni175  1  1.03705954  0.33093985  0.46892639  1
  Ni  Ni176  1  0.35853357  0.85982357  0.68465661  1
  Ni  Ni177  1  0.17265966  0.35771800  0.35266744  1
  Ni  Ni178  1  0.03933781  0.03293994  0.10492160  1
  Ni  Ni179  1  0.75158124  0.08918064  0.45180540  1
  Ni  Ni180  1  0.53928560  0.76056646  0.89739444  1
  Ni  Ni181  1  0.85908747  0.61474572  0.70078690  1
  Ni  Ni182  1  0.61042098  0.88852056  0.80431883  1
  Ni  Ni183  1  0.55330058  0.93713771  0.20012572  1
  Ni  Ni184  1  0.86596115  0.68816516  0.33269863  1
  Ni  Ni185  1  0.48250194  0.81629172  0.53619599  1
  Ni  Ni186  1  0.50733258  -0.03067994  0.58733497  1
  Ni  Ni187  1  0.95047563  0.35553738  0.17868119  1
  Ni  Ni188  1  0.30294919  0.55598417  -0.03822360  1
  Ni  Ni189  1  0.66356294  0.23429896  0.04347320  1
  Ni  Ni190  1  0.08727150  0.51745034  0.62504439  1
  Ni  Ni191  1  0.44568357  0.13254850  0.56284553  1
  Ni  Ni192  1  0.93927110  0.75697901  0.46391058  1
  Ni  Ni193  1  0.71417363  0.98438927  0.97759489  1
  Ni  Ni194  1  0.39315433  0.83129073  0.11437981  1
  Ni  Ni195  1  0.75016527  0.11283480  0.11339422  1
  Ni  Ni196  1  1.01314539  0.94005177  0.42842839  1
  Ni  Ni197  1  0.45002651  0.23213103  0.21703297  1
  Ni  Ni198  1  0.18757625  0.24358323  0.47621980  1
  Ni  Ni199  1  0.04344227  0.48731386  0.09891946  1
  Ni  Ni200  1  0.41799610  0.04359525  0.00170349  1
  Ni  Ni201  1  0.73218550  0.79888287  0.73931364  1
  Ni  Ni202  1  0.28918000  0.11461829  0.60463634  1
  Ni  Ni203  1  0.37663474  0.60810460  0.48188086  1
  Ni  Ni204  1  0.37658767  0.94907692  0.24533095  1
  Ni  Ni205  1  0.92414313  0.30644852  0.60335639  1
  Ni  Ni206  1  0.26734282  0.76889470  0.80066793  1
  Ni  Ni207  1  0.65860131  0.60449788  0.44499045  1
  Ni  Ni208  1  0.81244599  0.32974842  0.06597449  1
  Ni  Ni209  1  0.11285970  0.28666635  0.61629130  1
  Ni  Ni210  1  0.39848345  0.40627881  0.18219759  1
  Ni  Ni211  1  0.73365144  0.77995833  0.44900750  1
  Ni  Ni212  1  0.83727272  0.90338742  0.21689224  1
  Ni  Ni213  1  0.12737433  0.87208817  0.89981608  1
  Ni  Ni214  1  0.56431587  0.45606233  0.61450472  1
  Ni  Ni215  1  0.09667682  0.87530099  0.15706281  1
