# generated using pymatgen
data_Ti2CoNi
_symmetry_space_group_name_H-M   'P 1'
_cell_length_a   14.64609212
_cell_length_b   14.71235934
_cell_length_c   14.61446536
_cell_angle_alpha   90.42557165
_cell_angle_beta   90.28015409
_cell_angle_gamma   89.97865075
_symmetry_Int_Tables_number   1
_chemical_formula_structural   Ti2CoNi
_chemical_formula_sum   'Ti108 Co54 Ni54'
_cell_volume   3148.97941118
_cell_formula_units_Z   54
loop_
 _symmetry_equiv_pos_site_id
 _symmetry_equiv_pos_as_xyz
  1  'x, y, z'
loop_
 _atom_site_type_symbol
 _atom_site_label
 _atom_site_symmetry_multiplicity
 _atom_site_fract_x
 _atom_site_fract_y
 _atom_site_fract_z
 _atom_site_occupancy
  Ti  Ti0  1  0.01676213  -0.07491341  0.06421962  1
  Ti  Ti1  1  -0.11345707  -0.01060893  0.33721729  1
  Ti  Ti2  1  0.00573515  0.01530466  0.64115734  1
  Ti  Ti3  1  -0.04496280  0.40797316  0.04367785  1
  Ti  Ti4  1  0.00359489  0.24472234  0.31082846  1
  Ti  Ti5  1  -0.00861329  0.31737234  0.63482556  1
  Ti  Ti6  1  0.00081294  0.69628009  0.06173433  1
  Ti  Ti7  1  0.01728673  0.69051652  0.45965674  1
  Ti  Ti8  1  -0.01832540  0.71291649  0.74159959  1
  Ti  Ti9  1  0.26707277  -0.01106165  0.00190522  1
  Ti  Ti10  1  0.32999543  0.03156255  0.26979184  1
  Ti  Ti11  1  0.33146664  0.05931091  0.70588723  1
  Ti  Ti12  1  0.27199573  0.33212917  0.05501483  1
  Ti  Ti13  1  0.33415809  0.34813721  0.39715758  1
  Ti  Ti14  1  0.34906073  0.31141707  0.60131521  1
  Ti  Ti15  1  0.35938290  0.66814922  -0.03258417  1
  Ti  Ti16  1  0.36528784  0.61498283  0.29426452  1
  Ti  Ti17  1  0.31261249  0.76199792  0.67911010  1
  Ti  Ti18  1  0.63143127  -0.02694462  -0.02965351  1
  Ti  Ti19  1  0.68084649  0.00983028  0.37235615  1
  Ti  Ti20  1  0.67168546  -0.01124814  0.73985109  1
  Ti  Ti21  1  0.72033674  0.36023216  -0.06490596  1
  Ti  Ti22  1  0.68505207  0.35231681  0.33227391  1
  Ti  Ti23  1  0.59043361  0.33978143  0.62924881  1
  Ti  Ti24  1  0.68795476  0.72032205  0.00150213  1
  Ti  Ti25  1  0.58409588  0.64921577  0.27080619  1
  Ti  Ti26  1  0.64106443  0.70174294  0.64244138  1
  Ti  Ti27  1  -0.10216368  0.21788280  0.12370839  1
  Ti  Ti28  1  0.06777165  0.16980406  0.50402374  1
  Ti  Ti29  1  0.03860949  0.08416765  0.83527639  1
  Ti  Ti30  1  0.06211238  0.51725199  0.17350646  1
  Ti  Ti31  1  0.05045314  0.50293322  0.48857470  1
  Ti  Ti32  1  0.01578886  0.52237187  0.79210943  1
  Ti  Ti33  1  -0.09491071  0.83759605  0.19587624  1
  Ti  Ti34  1  -0.08505018  0.84417661  0.50846120  1
  Ti  Ti35  1  0.02299839  0.87798540  0.83273136  1
  Ti  Ti36  1  0.35623749  0.15619964  0.12242715  1
  Ti  Ti37  1  0.37243831  0.12416693  0.52715296  1
  Ti  Ti38  1  0.25254951  0.32153788  0.86699388  1
  Ti  Ti39  1  0.30336013  0.46081778  0.18167983  1
  Ti  Ti40  1  0.36256797  0.56322168  0.62027992  1
  Ti  Ti41  1  0.34845364  0.50048121  0.82349739  1
  Ti  Ti42  1  0.33984286  0.79264323  0.19794129  1
  Ti  Ti43  1  0.32723412  0.89942775  0.42700226  1
  Ti  Ti44  1  0.37832690  0.91373820  0.84146593  1
  Ti  Ti45  1  0.62994158  0.08452790  0.17456034  1
  Ti  Ti46  1  0.58982709  0.13707849  0.51424263  1
  Ti  Ti47  1  0.64710356  0.16616050  0.91527947  1
  Ti  Ti48  1  0.75403433  0.53899435  0.20724129  1
  Ti  Ti49  1  0.74946449  0.47753367  0.48082690  1
  Ti  Ti50  1  0.57818532  0.47294366  0.85237260  1
  Ti  Ti51  1  0.70262059  0.76512674  0.18679161  1
  Ti  Ti52  1  0.68554796  0.85001847  0.50507620  1
  Ti  Ti53  1  0.69744217  0.81989040  0.83491439  1
  Ti  Ti54  1  0.20763070  -0.08370537  0.16059131  1
  Ti  Ti55  1  0.17016835  -0.00601609  0.51400389  1
  Ti  Ti56  1  0.20337018  -0.09123692  0.81574826  1
  Ti  Ti57  1  0.09548376  0.32867655  0.14856186  1
  Ti  Ti58  1  0.13338078  0.34197115  0.43863323  1
  Ti  Ti59  1  0.08200623  0.37742806  0.91656307  1
  Ti  Ti60  1  0.17280467  0.66634946  0.24452375  1
  Ti  Ti61  1  0.20489920  0.64728321  0.51210565  1
  Ti  Ti62  1  0.17035981  0.59056360  0.88099818  1
  Ti  Ti63  1  0.46051641  -0.02885681  0.13329087  1
  Ti  Ti64  1  0.51720736  -0.04953815  0.47465343  1
  Ti  Ti65  1  0.49312039  0.08315188  0.83014614  1
  Ti  Ti66  1  0.55194976  0.30338478  0.19092072  1
  Ti  Ti67  1  0.50190464  0.28431223  0.45895750  1
  Ti  Ti68  1  0.44185591  0.31065274  0.78129302  1
  Ti  Ti69  1  0.49692493  0.68813077  0.10807503  1
  Ti  Ti70  1  0.50678867  0.60488817  0.46296821  1
  Ti  Ti71  1  0.49895505  0.62962923  0.77793067  1
  Ti  Ti72  1  0.83838121  0.01702188  0.10956557  1
  Ti  Ti73  1  0.82499538  -0.00096944  0.55402030  1
  Ti  Ti74  1  0.86486773  -0.02838527  0.77992082  1
  Ti  Ti75  1  0.76792738  0.36561942  0.13528592  1
  Ti  Ti76  1  0.85005064  0.27553504  0.48309455  1
  Ti  Ti77  1  0.88673752  0.37078860  0.79962327  1
  Ti  Ti78  1  0.92190104  0.63764472  0.23620051  1
  Ti  Ti79  1  0.79980079  0.67654782  0.47662183  1
  Ti  Ti80  1  0.87152547  0.64514814  0.89929386  1
  Ti  Ti81  1  0.16910812  0.17211148  -0.00833930  1
  Ti  Ti82  1  0.21144745  0.18326347  0.33723048  1
  Ti  Ti83  1  0.15996815  0.20904172  0.74429185  1
  Ti  Ti84  1  0.17996368  0.62607953  0.06068689  1
  Ti  Ti85  1  0.20334327  0.51228963  0.35679104  1
  Ti  Ti86  1  0.16850497  0.49321351  0.66407360  1
  Ti  Ti87  1  0.14747167  0.80542049  -0.02384304  1
  Ti  Ti88  1  0.15612606  0.83153388  0.33423615  1
  Ti  Ti89  1  0.11300756  0.83905876  0.64806960  1
  Ti  Ti90  1  0.45348675  0.23080607  -0.03651685  1
  Ti  Ti91  1  0.46609645  0.17494954  0.30741913  1
  Ti  Ti92  1  0.63915295  0.17613500  0.70864550  1
  Ti  Ti93  1  0.46958859  0.48806638  0.04789587  1
  Ti  Ti94  1  0.48259390  0.44924251  0.33120129  1
  Ti  Ti95  1  0.58070007  0.52306748  0.60977893  1
  Ti  Ti96  1  0.51856692  0.78123365  -0.08074875  1
  Ti  Ti97  1  0.45573085  0.76295938  0.36027830  1
  Ti  Ti98  1  0.54912192  0.86709582  0.65880603  1
  Ti  Ti99  1  0.86253696  0.13851539  -0.06509662  1
  Ti  Ti100  1  0.80348859  0.16829010  0.30219794  1
  Ti  Ti101  1  0.87640033  0.17027496  0.72342459  1
  Ti  Ti102  1  0.74706419  0.53573346  0.00231886  1
  Ti  Ti103  1  0.87450523  0.42334573  0.34031963  1
  Ti  Ti104  1  0.80846628  0.44397335  0.64828461  1
  Ti  Ti105  1  0.87792321  0.83193934  -0.05232944  1
  Ti  Ti106  1  0.77143740  0.83001429  0.34871824  1
  Ti  Ti107  1  0.78247913  0.82886767  0.66239169  1
  Co  Co108  1  0.05187366  0.96172997  0.22709282  1
  Co  Co109  1  0.93906583  0.86700306  0.67480609  1
  Co  Co110  1  0.75822133  0.09273285  0.81165559  1
  Co  Co111  1  0.21662082  0.22067017  0.17191464  1
  Co  Co112  1  0.26958862  0.37722702  0.72335516  1
  Co  Co113  1  0.61970631  0.24996042  0.05712380  1
  Co  Co114  1  0.89923005  0.48120791  0.91584819  1
  Co  Co115  1  1.03265076  0.70568777  0.90277628  1
  Co  Co116  1  0.87701635  0.56962132  0.73175569  1
  Co  Co117  1  0.73295446  0.12531139  0.05047258  1
  Co  Co118  1  0.67015801  0.56015316  0.73140776  1
  Co  Co119  1  0.06738658  0.08164928  0.35114771  1
  Co  Co120  1  0.94480465  -0.00651080  0.93861528  1
  Co  Co121  1  0.29992905  0.83477904  0.00147635  1
  Co  Co122  1  0.89892773  0.57098813  0.39501446  1
  Co  Co123  1  0.52552482  0.81422448  0.20721103  1
  Co  Co124  1  0.90191224  0.73934198  0.35358943  1
  Co  Co125  1  0.65746212  0.65749009  0.85741694  1
  Co  Co126  1  0.43640359  0.82600127  0.06417177  1
  Co  Co127  1  0.92582940  0.13275266  0.40550978  1
  Co  Co128  1  0.06143454  0.17241797  0.15728461  1
  Co  Co129  1  0.76602713  0.65619193  0.31275292  1
  Co  Co130  1  0.09733320  0.37054156  0.75156713  1
  Co  Co131  1  0.59629355  0.84711647  0.06366195  1
  Co  Co132  1  0.76370332  0.59736067  0.60965499  1
  Co  Co133  1  0.19589212  0.98473707  0.34948039  1
  Co  Co134  1  0.63789581  0.42592499  0.06882183  1
  Co  Co135  1  0.54061316  0.09678407  1.03424144  1
  Co  Co136  1  0.17574795  0.07573336  0.22198213  1
  Co  Co137  1  0.53921898  0.02366544  0.29535434  1
  Co  Co138  1  0.61031075  0.45842998  0.22160215  1
  Co  Co139  1  0.88800078  0.70546765  0.61362423  1
  Co  Co140  1  0.25272169  0.23512615  0.48601104  1
  Co  Co141  1  0.59960975  0.85448992  0.35096112  1
  Co  Co142  1  0.12347916  0.04630081  0.08076353  1
  Co  Co143  1  0.26168679  0.92186091  0.65414384  1
  Co  Co144  1  0.27551241  0.72549553  0.37223922  1
  Co  Co145  1  0.59000245  0.28854843  0.82071034  1
  Co  Co146  1  0.42922230  0.33243755  0.09243980  1
  Co  Co147  1  0.76511971  0.51464706  0.84344599  1
  Co  Co148  1  0.42328488  0.05398384  0.40251084  1
  Co  Co149  1  0.54862050  0.35565453  0.96198544  1
  Co  Co150  1  0.05521200  0.58558366  0.33699429  1
  Co  Co151  1  -0.00268235  0.99691196  0.47894736  1
  Co  Co152  1  0.43419963  0.90894238  0.30142308  1
  Co  Co153  1  0.47243164  0.54084174  0.19815405  1
  Co  Co154  1  0.78125567  0.69307480  0.75672338  1
  Co  Co155  1  0.03578584  0.55319198  0.97300386  1
  Co  Co156  1  0.14821655  0.45659136  0.04645443  1
  Co  Co157  1  0.94493204  0.09593101  0.23307512  1
  Co  Co158  1  0.46987950  0.94727907  0.96970605  1
  Co  Co159  1  0.11057527  0.98233408  0.93702626  1
  Co  Co160  1  0.45526478  0.78595272  0.76221983  1
  Co  Co161  1  0.47708245  0.68826312  0.62724176  1
  Ni  Ni162  1  0.26177898  0.62113658  0.74626523  1
  Ni  Ni163  1  0.16402267  0.30937493  0.60574493  1
  Ni  Ni164  1  0.29655558  0.75854953  0.85059061  1
  Ni  Ni165  1  0.15199807  0.02993595  0.70863332  1
  Ni  Ni166  1  0.47699011  0.20059557  0.64187138  1
  Ni  Ni167  1  0.76338892  0.86911889  0.06370371  1
  Ni  Ni168  1  0.58773930  0.42843277  0.46613614  1
  Ni  Ni169  1  0.23695784  0.81336907  0.52891947  1
  Ni  Ni170  1  0.35826151  0.29490233  0.23520437  1
  Ni  Ni171  1  0.91306559  0.42488983  0.51091575  1
  Ni  Ni172  1  0.76152236  0.12871488  0.46558215  1
  Ni  Ni173  1  0.34125445  0.18253921  0.82033114  1
  Ni  Ni174  1  0.52916236  0.61197092  0.94991696  1
  Ni  Ni175  1  0.14589424  0.74445161  0.78896136  1
  Ni  Ni176  1  0.65925778  1.00021769  0.57270955  1
  Ni  Ni177  1  0.76703715  0.27644047  0.64288657  1
  Ni  Ni178  1  0.40032473  0.87142916  0.58430338  1
  Ni  Ni179  1  0.69788368  0.39149399  0.75613277  1
  Ni  Ni180  1  0.99332465  0.86797106  0.34998966  1
  Ni  Ni181  1  0.01602666  0.23531796  1.00008562  1
  Ni  Ni182  1  0.54593868  0.91805327  0.82080805  1
  Ni  Ni183  1  0.87405288  0.30020971  -0.05102843  1
  Ni  Ni184  1  0.45707237  0.45203124  0.69996321  1
  Ni  Ni185  1  0.62114496  0.58433891  0.10583843  1
  Ni  Ni186  1  0.25164938  0.44039278  0.52811248  1
  Ni  Ni187  1  0.68281746  0.28740986  0.49178203  1
  Ni  Ni188  1  0.04907226  0.41783330  0.31289688  1
  Ni  Ni189  1  0.71509200  0.22486285  0.18560376  1
  Ni  Ni190  1  0.78561259  0.97902528  0.93198576  1
  Ni  Ni191  1  0.33319117  0.61773632  0.12810288  1
  Ni  Ni192  1  0.52867377  0.78298246  0.50653998  1
  Ni  Ni193  1  0.38598775  0.08468188  -0.03719301  1
  Ni  Ni194  1  0.64177884  0.70080919  0.42181741  1
  Ni  Ni195  1  0.39103275  0.38783502  0.93657061  1
  Ni  Ni196  1  0.34157036  0.55473283  0.44736494  1
  Ni  Ni197  1  0.91126682  0.14284131  0.56574800  1
  Ni  Ni198  1  0.22277370  0.08005476  0.85413302  1
  Ni  Ni199  1  0.83620562  0.71303563  0.08229532  1
  Ni  Ni200  1  0.65730786  0.53595861  0.36228886  1
  Ni  Ni201  1  0.63288998  0.18928528  0.34724373  1
  Ni  Ni202  1  0.76079445  0.25215119  0.81337531  1
  Ni  Ni203  1  0.08731038  0.79869710  0.16599731  1
  Ni  Ni204  1  0.21324289  0.13497519  0.60065466  1
  Ni  Ni205  1  0.93275858  0.37505235  0.20011605  1
  Ni  Ni206  1  1.00237213  0.24707190  0.82489971  1
  Ni  Ni207  1  0.43275387  0.43750041  0.52320942  1
  Ni  Ni208  1  0.50710517  0.03744010  0.65134253  1
  Ni  Ni209  1  0.20563430  0.35663560  0.27725159  1
  Ni  Ni210  1  0.36821369  0.71292565  0.50868004  1
  Ni  Ni211  1  0.29418860  0.51031275  0.99259308  1
  Ni  Ni212  1  0.04971272  0.61725232  0.61494672  1
  Ni  Ni213  1  0.74275473  0.93898306  0.22212052  1
  Ni  Ni214  1  0.08253963  0.84616574  0.48584440  1
  Ni  Ni215  1  0.89654211  0.55738155  0.08214968  1
