# generated using pymatgen
data_Ti2CoNi
_symmetry_space_group_name_H-M   'P 1'
_cell_length_a   14.56622370
_cell_length_b   14.55197396
_cell_length_c   14.59613046
_cell_angle_alpha   90.06131566
_cell_angle_beta   89.81548315
_cell_angle_gamma   89.99353273
_symmetry_Int_Tables_number   1
_chemical_formula_structural   Ti2CoNi
_chemical_formula_sum   'Ti108 Co54 Ni54'
_cell_volume   3093.88464560
_cell_formula_units_Z   54
loop_
 _symmetry_equiv_pos_site_id
 _symmetry_equiv_pos_as_xyz
  1  'x, y, z'
loop_
 _atom_site_type_symbol
 _atom_site_label
 _atom_site_symmetry_multiplicity
 _atom_site_fract_x
 _atom_site_fract_y
 _atom_site_fract_z
 _atom_site_occupancy
  Ti  Ti0  1  0.02601322  0.00804724  0.06179699  1
  Ti  Ti1  1  -0.03516146  0.04432584  0.26025726  1
  Ti  Ti2  1  -0.02896611  -0.00575153  0.62608950  1
  Ti  Ti3  1  0.04520238  0.28829680  -0.00471386  1
  Ti  Ti4  1  -0.08703875  0.31151122  0.32506128  1
  Ti  Ti5  1  0.04351185  0.37540784  0.64335990  1
  Ti  Ti6  1  -0.01502133  0.66292039  -0.05866621  1
  Ti  Ti7  1  0.06267318  0.68818993  0.32009185  1
  Ti  Ti8  1  -0.02930823  0.69380291  0.59576320  1
  Ti  Ti9  1  0.27507099  -0.07314588  -0.03963643  1
  Ti  Ti10  1  0.33389399  -0.01440590  0.38957362  1
  Ti  Ti11  1  0.33340879  0.00036538  0.69040582  1
  Ti  Ti12  1  0.24483640  0.37208680  0.00112427  1
  Ti  Ti13  1  0.39883669  0.33510274  0.34864468  1
  Ti  Ti14  1  0.35928498  0.27500199  0.66458440  1
  Ti  Ti15  1  0.30196075  0.57913398  -0.03764597  1
  Ti  Ti16  1  0.26899977  0.71310458  0.35349421  1
  Ti  Ti17  1  0.29782920  0.68604258  0.66593237  1
  Ti  Ti18  1  0.72696938  -0.05634687  -0.02375108  1
  Ti  Ti19  1  0.65346665  -0.03168128  0.34155150  1
  Ti  Ti20  1  0.57228830  0.00407493  0.72800642  1
  Ti  Ti21  1  0.69346410  0.39502715  -0.01711775  1
  Ti  Ti22  1  0.59893450  0.35806232  0.31531831  1
  Ti  Ti23  1  0.65971109  0.28487007  0.69468903  1
  Ti  Ti24  1  0.72375807  0.63038258  0.04562502  1
  Ti  Ti25  1  0.69902585  0.64008950  0.25583757  1
  Ti  Ti26  1  0.65765605  0.64997227  0.71794583  1
  Ti  Ti27  1  0.03452788  0.20514572  0.16493520  1
  Ti  Ti28  1  -0.00378678  0.23988570  0.48758966  1
  Ti  Ti29  1  0.01189646  0.12432877  0.91164867  1
  Ti  Ti30  1  0.04696620  0.56964339  0.13928913  1
  Ti  Ti31  1  -0.00463464  0.56665726  0.45562131  1
  Ti  Ti32  1  0.00503520  0.52198116  0.80744239  1
  Ti  Ti33  1  -0.04248090  0.79547643  0.20999216  1
  Ti  Ti34  1  0.03680030  0.86760209  0.50839739  1
  Ti  Ti35  1  0.05661363  0.85959391  0.73996373  1
  Ti  Ti36  1  0.35036882  0.08383604  0.14048649  1
  Ti  Ti37  1  0.27568965  0.17991855  0.48499707  1
  Ti  Ti38  1  0.31506505  0.21123237  0.84877155  1
  Ti  Ti39  1  0.32267151  0.54495991  0.24041374  1
  Ti  Ti40  1  0.33703267  0.53794302  0.46133132  1
  Ti  Ti41  1  0.38330198  0.43835841  0.82642337  1
  Ti  Ti42  1  0.34596319  0.79295639  0.12188615  1
  Ti  Ti43  1  0.39770600  0.83136136  0.51617982  1
  Ti  Ti44  1  0.31343243  0.75662694  0.84918427  1
  Ti  Ti45  1  0.65019435  0.23092952  0.13742281  1
  Ti  Ti46  1  0.65083850  0.21031631  0.48471324  1
  Ti  Ti47  1  0.63885253  0.10292436  0.89849062  1
  Ti  Ti48  1  0.61971412  0.45901864  0.15937877  1
  Ti  Ti49  1  0.65685197  0.46235415  0.47048900  1
  Ti  Ti50  1  0.70338177  0.44398940  0.80019413  1
  Ti  Ti51  1  0.69277597  0.92628617  0.15911779  1
  Ti  Ti52  1  0.61752647  0.90400181  0.51791772  1
  Ti  Ti53  1  0.66274102  0.76384707  0.88762185  1
  Ti  Ti54  1  0.25730846  -0.05890792  0.20133348  1
  Ti  Ti55  1  0.17286154  0.02436062  0.51295917  1
  Ti  Ti56  1  0.18697589  0.05365250  0.82815420  1
  Ti  Ti57  1  0.19930588  0.29975941  0.18736974  1
  Ti  Ti58  1  0.18289687  0.38801313  0.45868515  1
  Ti  Ti59  1  0.13334757  0.37377876  0.83060399  1
  Ti  Ti60  1  0.12489835  0.74208288  0.10656156  1
  Ti  Ti61  1  0.15347283  0.57354129  0.55825725  1
  Ti  Ti62  1  0.15858851  0.65037509  0.81137794  1
  Ti  Ti63  1  0.48227606  -0.09213751  0.20965755  1
  Ti  Ti64  1  0.50408436  0.07141139  0.46363524  1
  Ti  Ti65  1  0.44743457  -0.06659593  0.85380954  1
  Ti  Ti66  1  0.46850914  0.29238983  0.15266859  1
  Ti  Ti67  1  0.53697839  0.34426848  0.55465324  1
  Ti  Ti68  1  0.50065323  0.27703639  0.82725376  1
  Ti  Ti69  1  0.51772609  0.64196182  0.14578994  1
  Ti  Ti70  1  0.58029493  0.69691342  0.51727188  1
  Ti  Ti71  1  0.48028116  0.69401665  0.81781676  1
  Ti  Ti72  1  0.81765683  0.07429422  0.11320781  1
  Ti  Ti73  1  0.85598457  0.00208793  0.44732212  1
  Ti  Ti74  1  0.76163200  0.00481303  0.75078137  1
  Ti  Ti75  1  0.89158021  0.34879937  0.09720918  1
  Ti  Ti76  1  0.79303018  0.32887670  0.55878978  1
  Ti  Ti77  1  0.84177620  0.29104029  0.88089631  1
  Ti  Ti78  1  0.86180180  0.56931317  0.18708202  1
  Ti  Ti79  1  0.80565574  0.67773811  0.49394299  1
  Ti  Ti80  1  0.82758299  0.68014124  0.82206175  1
  Ti  Ti81  1  0.18711617  0.13624552  0.03753767  1
  Ti  Ti82  1  0.11161202  0.15026027  0.34311023  1
  Ti  Ti83  1  0.08434420  0.16305686  0.64427698  1
  Ti  Ti84  1  0.06882083  0.46840558  -0.00653693  1
  Ti  Ti85  1  0.11920545  0.48264273  0.28523339  1
  Ti  Ti86  1  0.26222244  0.43370054  0.66980075  1
  Ti  Ti87  1  0.12272512  0.80375300  -0.08573482  1
  Ti  Ti88  1  0.12761464  0.94727018  0.33960321  1
  Ti  Ti89  1  0.21592387  0.85462382  0.60029940  1
  Ti  Ti90  1  0.47796001  0.14314698  -0.00135060  1
  Ti  Ti91  1  0.49403099  0.09518505  0.26458191  1
  Ti  Ti92  1  0.48905830  0.15279076  0.63593647  1
  Ti  Ti93  1  0.44005455  0.45803876  0.04508364  1
  Ti  Ti94  1  0.53265231  0.56154599  0.33646462  1
  Ti  Ti95  1  0.49418343  0.53680888  0.60888363  1
  Ti  Ti96  1  0.55471676  0.83304133  0.04318318  1
  Ti  Ti97  1  0.55154999  0.76711247  0.33337840  1
  Ti  Ti98  1  0.55100373  0.82565206  0.68501401  1
  Ti  Ti99  1  0.83466073  0.08932800  -0.08698204  1
  Ti  Ti100  1  0.75945369  0.16192512  0.31394464  1
  Ti  Ti101  1  0.89308229  0.16670857  0.72055154  1
  Ti  Ti102  1  0.85814328  0.50443725  -0.04620409  1
  Ti  Ti103  1  0.83304007  0.48226200  0.40723705  1
  Ti  Ti104  1  0.83669628  0.52832814  0.66906393  1
  Ti  Ti105  1  0.83955838  0.79544331  0.00467683  1
  Ti  Ti106  1  0.80564328  0.81309031  0.32416790  1
  Ti  Ti107  1  0.86205507  0.83333702  0.67841168  1
  Co  Co108  1  0.68553132  0.78784609  0.42016853  1
  Co  Co109  1  0.25542871  0.08974656  0.29818033  1
  Co  Co110  1  0.55460549  -0.01722610  0.97661532  1
  Co  Co111  1  0.13662669  0.06857737  0.18524763  1
  Co  Co112  1  0.91594894  0.96172704  0.79309534  1
  Co  Co113  1  0.61813220  0.06072683  0.58854135  1
  Co  Co114  1  0.38267591  0.15870181  0.36312875  1
  Co  Co115  1  0.65829462  0.08241172  0.22033012  1
  Co  Co116  1  0.27039689  0.69722346  0.51535166  1
  Co  Co117  1  0.13518063  0.61524614  0.97415544  1
  Co  Co118  1  0.25479326  0.73997113  0.99916854  1
  Co  Co119  1  0.17893988  0.80624119  0.24881480  1
  Co  Co120  1  0.00263981  0.83957371  0.03318387  1
  Co  Co121  1  0.34382720  0.22443541  0.22620816  1
  Co  Co122  1  0.58421373  0.16209361  0.76693017  1
  Co  Co123  1  0.56621410  0.68200271  0.98116800  1
  Co  Co124  1  0.18508859  0.63584434  0.22401181  1
  Co  Co125  1  0.41943118  0.81168470  0.95855745  1
  Co  Co126  1  0.96251100  0.38638689  0.88423162  1
  Co  Co127  1  0.54533445  0.54337986  0.76767091  1
  Co  Co128  1  0.26057058  0.41708320  0.31979355  1
  Co  Co129  1  0.32688386  0.39221062  0.16030190  1
  Co  Co130  1  0.18693868  0.57496588  0.39882417  1
  Co  Co131  1  0.23045299  0.85921121  0.43646492  1
  Co  Co132  1  0.80348621  0.86359302  0.85446473  1
  Co  Co133  1  0.21071277  0.49879984  0.85857385  1
  Co  Co134  1  0.62402125  0.91492973  0.85024193  1
  Co  Co135  1  0.91597614  0.42612805  0.55892671  1
  Co  Co136  1  0.71328823  0.05982230  0.46421220  1
  Co  Co137  1  0.71779880  0.47850181  0.29557738  1
  Co  Co138  1  0.55512464  0.43110611  0.88737540  1
  Co  Co139  1  0.40814329  -0.04894825  0.05203824  1
  Co  Co140  1  -0.00246412  0.53992832  0.64171027  1
  Co  Co141  1  0.74667364  0.95089731  0.60215493  1
  Co  Co142  1  0.32728389  0.57987514  0.77487748  1
  Co  Co143  1  0.70611752  0.77515926  0.58570572  1
  Co  Co144  1  0.53186918  1.03934958  0.12266459  1
  Co  Co145  1  0.06192482  0.91320974  0.19221442  1
  Co  Co146  1  0.41444337  0.67146278  0.02867455  1
  Co  Co147  1  0.14315840  0.52495315  0.71180934  1
  Co  Co148  1  0.82720977  0.20355193  0.45489783  1
  Co  Co149  1  0.66765390  0.08447311  0.05620948  1
  Co  Co150  1  0.46732087  0.56635902  0.91057558  1
  Co  Co151  1  0.08567802  0.31183001  0.31504336  1
  Co  Co152  1  0.90865526  0.12339472  0.56253546  1
  Co  Co153  1  0.23921900  0.25779818  0.34821126  1
  Co  Co154  1  0.74382125  0.32827989  0.38969279  1
  Co  Co155  1  0.58616020  0.52907152  0.01959872  1
  Co  Co156  1  0.06738953  0.95394686  0.90387363  1
  Co  Co157  1  0.68080797  0.61332428  0.40718367  1
  Co  Co158  1  0.95425723  0.81169404  0.86263992  1
  Co  Co159  1  0.90600523  -0.04622159  0.96082300  1
  Co  Co160  1  0.02965723  0.06310402  0.76578314  1
  Co  Co161  1  0.16426336  0.89772647  0.06477565  1
  Ni  Ni162  1  0.36934044  0.83670088  0.31251342  1
  Ni  Ni163  1  0.81483294  0.97750422  0.27018708  1
  Ni  Ni164  1  0.33337832  0.08211111  0.95545594  1
  Ni  Ni165  1  0.76159745  0.32773558  0.22287404  1
  Ni  Ni166  1  0.46677256  0.45533110  0.22234602  1
  Ni  Ni167  1  0.42675522  0.67898827  0.45412644  1
  Ni  Ni168  1  0.01922902  0.04743236  0.44591286  1
  Ni  Ni169  1  0.55768231  0.30144571  0.00143362  1
  Ni  Ni170  1  0.94986848  0.74831740  0.43115088  1
  Ni  Ni171  1  0.98662255  0.68354275  0.75883271  1
  Ni  Ni172  1  0.45708283  0.69836931  0.63268430  1
  Ni  Ni173  1  0.65857668  0.44943064  0.64261991  1
  Ni  Ni174  1  0.77426320  0.46105293  0.11066766  1
  Ni  Ni175  1  0.15081824  0.99690021  0.67331175  1
  Ni  Ni176  1  0.01962435  0.40430518  0.43466643  1
  Ni  Ni177  1  0.21774750  0.52061809  0.10201248  1
  Ni  Ni178  1  0.96213573  0.89651953  0.35462637  1
  Ni  Ni179  1  0.15622015  0.21719418  0.89286261  1
  Ni  Ni180  1  0.35451359  0.38064947  0.53354144  1
  Ni  Ni181  1  0.04545090  0.38658459  0.15696886  1
  Ni  Ni182  1  0.87430630  0.20353540  0.19946532  1
  Ni  Ni183  1  0.41958575  0.67831492  0.28262391  1
  Ni  Ni184  1  0.87349657  0.91668119  0.12516226  1
  Ni  Ni185  1  0.87929885  0.63875521  0.33551904  1
  Ni  Ni186  1  0.12429059  0.72421675  0.65266124  1
  Ni  Ni187  1  0.46751562  0.96539154  0.59583131  1
  Ni  Ni188  1  0.42653982  0.09825598  0.79634919  1
  Ni  Ni189  1  0.25374492  0.13627166  0.64788714  1
  Ni  Ni190  1  0.67691073  0.58252931  0.88856298  1
  Ni  Ni191  1  0.69760654  0.58853117  0.57438941  1
  Ni  Ni192  1  0.38177157  0.83727933  0.70541137  1
  Ni  Ni193  1  0.74348558  0.18317539  0.79035868  1
  Ni  Ni194  1  1.01855486  0.25357907  0.78552861  1
  Ni  Ni195  1  0.19613489  0.26101338  0.73829371  1
  Ni  Ni196  1  0.48317576  0.45106043  0.44393453  1
  Ni  Ni197  1  0.90147540  0.19446643  0.03060728  1
  Ni  Ni198  1  0.79443572  0.75175473  0.16565513  1
  Ni  Ni199  1  0.43920826  0.23148841  0.49787122  1
  Ni  Ni200  1  0.32378261  0.23475688  0.06237283  1
  Ni  Ni201  1  0.83694473  0.84722171  0.50673871  1
  Ni  Ni202  1  0.19127041  0.28700144  0.58296499  1
  Ni  Ni203  1  0.51030685  0.39528525  0.71114090  1
  Ni  Ni204  1  0.40189558  0.32168919  0.95263189  1
  Ni  Ni205  1  0.72790314  0.22332980  0.98730513  1
  Ni  Ni206  1  0.70687442  0.82680655  0.73418534  1
  Ni  Ni207  1  0.95805626  0.48112798  0.28970682  1
  Ni  Ni208  1  0.49350261  0.92406268  0.38366560  1
  Ni  Ni209  1  0.22749517  0.88623222  0.78238836  1
  Ni  Ni210  1  0.11480709  0.72207147  0.47989367  1
  Ni  Ni211  1  0.75143656  0.15296863  0.61697620  1
  Ni  Ni212  1  0.62676714  0.77761850  0.18545722  1
  Ni  Ni213  1  0.54022776  0.21670811  0.36018541  1
  Ni  Ni214  1  0.93037371  0.68285987  0.08922045  1
  Ni  Ni215  1  0.84992043  0.35923279  0.72074384  1
