# generated using pymatgen
data_Ti2CoNi
_symmetry_space_group_name_H-M   'P 1'
_cell_length_a   14.51343728
_cell_length_b   14.51097814
_cell_length_c   14.53895561
_cell_angle_alpha   89.81478851
_cell_angle_beta   90.49164450
_cell_angle_gamma   90.01144141
_symmetry_Int_Tables_number   1
_chemical_formula_structural   Ti2CoNi
_chemical_formula_sum   'Ti108 Co54 Ni54'
_cell_volume   3061.83592579
_cell_formula_units_Z   54
loop_
 _symmetry_equiv_pos_site_id
 _symmetry_equiv_pos_as_xyz
  1  'x, y, z'
loop_
 _atom_site_type_symbol
 _atom_site_label
 _atom_site_symmetry_multiplicity
 _atom_site_fract_x
 _atom_site_fract_y
 _atom_site_fract_z
 _atom_site_occupancy
  Ti  Ti0  1  0.04118348  0.00100053  -0.02653368  1
  Ti  Ti1  1  0.04127093  0.00252988  0.43335581  1
  Ti  Ti2  1  -0.03638930  -0.02191873  0.61902774  1
  Ti  Ti3  1  -0.00165036  0.32668283  0.04939459  1
  Ti  Ti4  1  0.07478072  0.30667816  0.31719635  1
  Ti  Ti5  1  -0.00748067  0.28298832  0.68457469  1
  Ti  Ti6  1  -0.04152448  0.67070968  0.04068075  1
  Ti  Ti7  1  0.02147365  0.68911386  0.34982796  1
  Ti  Ti8  1  -0.06200268  0.72469495  0.64935683  1
  Ti  Ti9  1  0.38930018  0.01768299  -0.06064853  1
  Ti  Ti10  1  0.29282738  -0.03684264  0.30630948  1
  Ti  Ti11  1  0.38678215  -0.01564732  0.76369484  1
  Ti  Ti12  1  0.33740310  0.29076052  -0.00160471  1
  Ti  Ti13  1  0.28727910  0.30609686  0.28614683  1
  Ti  Ti14  1  0.26465445  0.35494685  0.68473495  1
  Ti  Ti15  1  0.38582902  0.65356912  -0.05230046  1
  Ti  Ti16  1  0.30182724  0.69080261  0.37514077  1
  Ti  Ti17  1  0.31777178  0.72393200  0.63217610  1
  Ti  Ti18  1  0.64237018  0.01622657  0.01026178  1
  Ti  Ti19  1  0.60893866  -0.01417906  0.28884059  1
  Ti  Ti20  1  0.60428647  -0.04943940  0.67506383  1
  Ti  Ti21  1  0.65814583  0.30231957  0.05253579  1
  Ti  Ti22  1  0.70639195  0.35934647  0.32501046  1
  Ti  Ti23  1  0.64792480  0.39104341  0.72019791  1
  Ti  Ti24  1  0.74169912  0.63874099  0.02378021  1
  Ti  Ti25  1  0.71943259  0.70552757  0.35105339  1
  Ti  Ti26  1  0.66930746  0.63910606  0.71525938  1
  Ti  Ti27  1  0.04852969  0.20143733  0.17173317  1
  Ti  Ti28  1  0.03775548  0.17424614  0.51948905  1
  Ti  Ti29  1  0.05337331  0.11516401  0.76732602  1
  Ti  Ti30  1  -0.00285070  0.56600253  0.22304385  1
  Ti  Ti31  1  -0.03736347  0.49023894  0.53558293  1
  Ti  Ti32  1  -0.05244946  0.52912816  0.77223565  1
  Ti  Ti33  1  0.11067157  0.82548391  0.13240336  1
  Ti  Ti34  1  -0.01201809  0.81887620  0.47996595  1
  Ti  Ti35  1  -0.02458906  0.82615612  0.86784793  1
  Ti  Ti36  1  0.39212213  0.18281363  0.18960808  1
  Ti  Ti37  1  0.36307741  0.17718679  0.59637863  1
  Ti  Ti38  1  0.26620171  0.15065005  0.83508308  1
  Ti  Ti39  1  0.29514482  0.55313374  0.21533595  1
  Ti  Ti40  1  0.38045075  0.48319134  0.52137226  1
  Ti  Ti41  1  0.27672667  0.40853496  0.84951006  1
  Ti  Ti42  1  0.29155475  0.76944542  0.18662660  1
  Ti  Ti43  1  0.43702810  0.79105032  0.48415353  1
  Ti  Ti44  1  0.27849491  0.85361599  0.85913407  1
  Ti  Ti45  1  0.71304493  0.10882128  0.15074258  1
  Ti  Ti46  1  0.54631633  0.20789651  0.57801399  1
  Ti  Ti47  1  0.68974917  0.17383211  0.74236410  1
  Ti  Ti48  1  0.66010265  0.51215106  0.14639032  1
  Ti  Ti49  1  0.67552989  0.41939459  0.49595143  1
  Ti  Ti50  1  0.75603810  0.51222805  0.81871034  1
  Ti  Ti51  1  0.69784535  0.86189536  0.18255697  1
  Ti  Ti52  1  0.60003934  0.85504745  0.44288831  1
  Ti  Ti53  1  0.69770676  0.87901414  0.85530437  1
  Ti  Ti54  1  0.09994603  0.01332125  0.23838521  1
  Ti  Ti55  1  0.20526738  0.00200191  0.51700209  1
  Ti  Ti56  1  0.13382625  -0.06289321  0.74448462  1
  Ti  Ti57  1  0.17465530  0.34812813  0.12509429  1
  Ti  Ti58  1  0.23280599  0.35302930  0.46714273  1
  Ti  Ti59  1  0.07959285  0.38350192  0.83534933  1
  Ti  Ti60  1  0.13899027  0.62977625  0.12786885  1
  Ti  Ti61  1  0.16129356  0.63844701  0.47256566  1
  Ti  Ti62  1  0.18626565  0.66584243  0.84721417  1
  Ti  Ti63  1  0.50965052  -0.07219280  0.09524468  1
  Ti  Ti64  1  0.45831724  -0.00544063  0.55698311  1
  Ti  Ti65  1  0.56658372  0.05856561  0.83517845  1
  Ti  Ti66  1  0.42083318  0.39937782  0.17594636  1
  Ti  Ti67  1  0.52452826  0.33431763  0.44505609  1
  Ti  Ti68  1  0.51858910  0.38618992  0.87129544  1
  Ti  Ti69  1  0.47214245  0.64031761  0.16330791  1
  Ti  Ti70  1  0.56090126  0.60839285  0.46655116  1
  Ti  Ti71  1  0.52402540  0.72139699  0.83318118  1
  Ti  Ti72  1  0.92447171  0.02424436  0.14200671  1
  Ti  Ti73  1  0.74109382  0.02934629  0.48940201  1
  Ti  Ti74  1  0.77982927  0.05483802  0.84983359  1
  Ti  Ti75  1  0.85802114  0.25050766  0.19622745  1
  Ti  Ti76  1  0.80024743  0.26890853  0.48349883  1
  Ti  Ti77  1  0.86968586  0.35871677  0.79838082  1
  Ti  Ti78  1  0.80628094  0.62677549  0.21426795  1
  Ti  Ti79  1  0.79942837  0.63047646  0.50758134  1
  Ti  Ti80  1  0.82984876  0.70864333  0.79635597  1
  Ti  Ti81  1  0.12467569  0.19213136  -0.04284577  1
  Ti  Ti82  1  0.22907386  0.15543940  0.40322721  1
  Ti  Ti83  1  0.19308974  0.20072334  0.60749854  1
  Ti  Ti84  1  0.21300448  0.54383714  -0.01394974  1
  Ti  Ti85  1  0.06773171  0.48196601  0.37296353  1
  Ti  Ti86  1  0.24160405  0.56174105  0.64997299  1
  Ti  Ti87  1  0.22434956  0.96473780  0.07528600  1
  Ti  Ti88  1  0.16196223  0.85603945  0.39671022  1
  Ti  Ti89  1  0.12192529  0.74021266  0.64895006  1
  Ti  Ti90  1  0.51806875  0.17511650  -0.01163128  1
  Ti  Ti91  1  0.50348388  0.14628111  0.35485076  1
  Ti  Ti92  1  0.45426989  0.33360990  0.71658743  1
  Ti  Ti93  1  0.50210478  0.47144206  0.02253200  1
  Ti  Ti94  1  0.54575206  0.48081674  0.32234080  1
  Ti  Ti95  1  0.49171326  0.56620564  0.71578678  1
  Ti  Ti96  1  0.59205723  0.79769888  -0.00755956  1
  Ti  Ti97  1  0.43762352  0.85423120  0.28735033  1
  Ti  Ti98  1  0.52703884  0.75368811  0.64197384  1
  Ti  Ti99  1  0.83822725  0.23086557  -0.05051222  1
  Ti  Ti100  1  0.77503571  0.14814640  0.33549891  1
  Ti  Ti101  1  0.86971232  0.13809785  0.61900743  1
  Ti  Ti102  1  0.80951320  0.42695235  -0.00817143  1
  Ti  Ti103  1  0.86626481  0.43927306  0.28886451  1
  Ti  Ti104  1  0.79660513  0.44862219  0.62647882  1
  Ti  Ti105  1  0.87264637  0.84541621  0.13001247  1
  Ti  Ti106  1  0.88087668  0.87552847  0.32095707  1
  Ti  Ti107  1  0.83204529  0.90375847  0.72800968  1
  Co  Co108  1  0.78759424  0.29597741  0.65767716  1
  Co  Co109  1  -0.03220925  0.65959192  0.50245645  1
  Co  Co110  1  0.76608686  0.82223745  0.43622191  1
  Co  Co111  1  0.76538774  0.38181488  0.15654959  1
  Co  Co112  1  0.82600201  0.44994916  0.44926677  1
  Co  Co113  1  0.59886172  0.62337078  0.27233868  1
  Co  Co114  1  0.31072741  0.64814386  0.08562546  1
  Co  Co115  1  0.99409802  0.86128626  0.03884712  1
  Co  Co116  1  0.42077016  0.87067957  0.65115517  1
  Co  Co117  1  0.37959367  0.40249419  0.37401458  1
  Co  Co118  1  0.55479956  0.09232807  0.14087704  1
  Co  Co119  1  0.68624312  0.23977513  0.22599381  1
  Co  Co120  1  0.36227136  0.92074353  0.13983001  1
  Co  Co121  1  0.58682641  0.03660683  0.46352380  1
  Co  Co122  1  0.72373148  0.52576018  0.33351651  1
  Co  Co123  1  -0.00898606  0.25138408  0.87811850  1
  Co  Co124  1  0.36623335  0.47513009  0.70028478  1
  Co  Co125  1  0.69309282  0.70331036  0.88428536  1
  Co  Co126  1  0.28276543  0.06658322  0.20261289  1
  Co  Co127  1  0.76575037  0.03163141  0.66953785  1
  Co  Co128  1  0.52828575  0.88686856  0.79816846  1
  Co  Co129  1  0.35471647  0.08305637  0.46726184  1
  Co  Co130  1  0.68727948  0.79537868  0.71798631  1
  Co  Co131  1  0.96478357  0.96901626  0.79945743  1
  Co  Co132  1  0.06356187  0.34482238  0.47681168  1
  Co  Co133  1  0.65751776  0.72853177  0.54431977  1
  Co  Co134  1  0.40294374  0.55439149  0.32548201  1
  Co  Co135  1  0.39828450  0.50710345  0.87090489  1
  Co  Co136  1  0.10562197  0.05787249  0.62311611  1
  Co  Co137  1  0.19100592  0.19114027  0.23044486  1
  Co  Co138  1  0.44917677  1.02504313  0.22807644  1
  Co  Co139  1  0.29005685  0.04562641  0.64716924  1
  Co  Co140  1  0.15044339  0.47931504  0.52603363  1
  Co  Co141  1  0.92565892  0.32529879  0.55573770  1
  Co  Co142  1  0.88941652  0.58053821  0.36954910  1
  Co  Co143  1  0.23351720  0.79091064  0.52202314  1
  Co  Co144  1  0.39817298  0.15453650  0.75572690  1
  Co  Co145  1  0.52190846  0.09051385  0.68395666  1
  Co  Co146  1  0.54892961  0.22189580  0.80326442  1
  Co  Co147  1  0.47821012  0.29871382  0.29209950  1
  Co  Co148  1  0.10056667  0.88607092  0.58679666  1
  Co  Co149  1  0.58965182  0.80154767  0.28033956  1
  Co  Co150  1  0.12133153  0.36517723  0.63007099  1
  Co  Co151  1  0.41057587  0.23963784  0.88153031  1
  Co  Co152  1  0.82381817  0.59017862  0.67204523  1
  Co  Co153  1  0.53046448  0.24192433  0.14934226  1
  Co  Co154  1  0.65836216  0.70242233  0.14684782  1
  Co  Co155  1  0.59201102  0.37547649  0.18772772  1
  Co  Co156  1  0.38771882  0.08469019  0.06982739  1
  Co  Co157  1  0.13247205  0.08614805  0.09316366  1
  Co  Co158  1  0.87847181  0.95908629  0.47154056  1
  Co  Co159  1  0.71070715  0.89733620  0.56853710  1
  Co  Co160  1  0.09534428  0.73192330  -0.00832153  1
  Co  Co161  1  0.38970853  0.78323381  0.78190008  1
  Ni  Ni162  1  0.65396474  0.54952174  0.59329546  1
  Ni  Ni163  1  0.83593810  0.76883450  0.96130441  1
  Ni  Ni164  1  0.55791980  0.63525704  0.00773634  1
  Ni  Ni165  1  0.26510390  0.89024593  0.66093639  1
  Ni  Ni166  1  0.03606887  0.86620070  0.28867129  1
  Ni  Ni167  1  0.03181696  0.67310640  0.78042326  1
  Ni  Ni168  1  0.97122075  0.44220995  0.93299342  1
  Ni  Ni169  1  0.14620999  0.24671508  0.78287769  1
  Ni  Ni170  1  0.26343581  0.50874668  0.40731610  1
  Ni  Ni171  1  0.93427824  0.10143729  0.89343775  1
  Ni  Ni172  1  0.70456987  0.17351627  0.58346026  1
  Ni  Ni173  1  0.96172531  0.73135206  0.20664830  1
  Ni  Ni174  1  0.07306298  0.14427854  0.34129896  1
  Ni  Ni175  1  0.47182877  0.69676464  0.34581070  1
  Ni  Ni176  1  0.41686610  0.78265999  0.07676336  1
  Ni  Ni177  1  0.65369850  0.46015264  0.96086502  1
  Ni  Ni178  1  0.89422074  0.12116879  0.43408532  1
  Ni  Ni179  1  0.69394185  0.32279612  0.86784193  1
  Ni  Ni180  1  0.25617568  0.78437754  1.01347983  1
  Ni  Ni181  1  0.92438871  0.26862592  0.37644745  1
  Ni  Ni182  1  0.04262844  0.49803987  0.07160103  1
  Ni  Ni183  1  0.21026708  0.01192855  0.90094322  1
  Ni  Ni184  1  0.84424336  0.81721411  0.57117534  1
  Ni  Ni185  1  0.93803584  0.16606620  0.05559627  1
  Ni  Ni186  1  0.93547239  0.09477489  0.28169383  1
  Ni  Ni187  1  0.05391981  0.59142027  0.62974148  1
  Ni  Ni188  1  0.64520043  0.19516068  0.42705962  1
  Ni  Ni189  1  0.87631267  0.57986804  0.92286975  1
  Ni  Ni190  1  0.19254851  0.43427219  0.26317575  1
  Ni  Ni191  1  0.13366644  0.86828126  0.92798078  1
  Ni  Ni192  1  0.05823325  0.57608838  0.92364795  1
  Ni  Ni193  1  0.33691992  0.45558541  0.03244629  1
  Ni  Ni194  1  0.58005465  0.55981766  0.85624266  1
  Ni  Ni195  1  0.86443333  0.94055846  0.95330200  1
  Ni  Ni196  1  0.37962638  0.24483678  0.41755245  1
  Ni  Ni197  1  0.34001388  0.63478784  0.77657989  1
  Ni  Ni198  1  0.85965362  0.18957426  0.77248110  1
  Ni  Ni199  1  0.13078351  0.52071034  0.76875886  1
  Ni  Ni200  1  0.43504875  0.85258929  0.93102410  1
  Ni  Ni201  1  0.32731063  0.91471553  0.46789303  1
  Ni  Ni202  1  0.16630353  0.59557028  0.30613551  1
  Ni  Ni203  1  0.24856138  0.19261183  0.08451581  1
  Ni  Ni204  1  0.41457067  0.62440551  0.57473207  1
  Ni  Ni205  1  0.45620984  0.97956423  0.38694781  1
  Ni  Ni206  1  0.79022124  0.99218295  0.24805450  1
  Ni  Ni207  1  0.67001096  0.16565630  0.91791878  1
  Ni  Ni208  1  0.73879648  0.87749109  0.02396929  1
  Ni  Ni209  1  0.53967003  0.43822097  0.59717638  1
  Ni  Ni210  1  0.98976904  0.39131577  0.19460657  1
  Ni  Ni211  1  0.39385136  0.33149149  0.55563976  1
  Ni  Ni212  1  0.86055308  0.52165282  0.10792963  1
  Ni  Ni213  1  0.16103229  0.38507855  0.97590540  1
  Ni  Ni214  1  0.80459406  0.07694853  0.01648751  1
  Ni  Ni215  1  0.14706780  0.74910173  0.27296925  1
