# generated using pymatgen
data_Ti2CoNi
_symmetry_space_group_name_H-M   'P 1'
_cell_length_a   14.67438905
_cell_length_b   14.60781445
_cell_length_c   14.57556966
_cell_angle_alpha   89.98442653
_cell_angle_beta   89.79127014
_cell_angle_gamma   90.32745976
_symmetry_Int_Tables_number   1
_chemical_formula_structural   Ti2CoNi
_chemical_formula_sum   'Ti108 Co54 Ni54'
_cell_volume   3124.35818464
_cell_formula_units_Z   54
loop_
 _symmetry_equiv_pos_site_id
 _symmetry_equiv_pos_as_xyz
  1  'x, y, z'
loop_
 _atom_site_type_symbol
 _atom_site_label
 _atom_site_symmetry_multiplicity
 _atom_site_fract_x
 _atom_site_fract_y
 _atom_site_fract_z
 _atom_site_occupancy
  Ti  Ti0  1  -0.01042164  -0.00279389  0.08693955  1
  Ti  Ti1  1  0.01102895  0.00823917  0.28832053  1
  Ti  Ti2  1  0.02858887  0.01590140  0.63568740  1
  Ti  Ti3  1  -0.00688468  0.30856048  0.02527169  1
  Ti  Ti4  1  0.11149177  0.32991732  0.39494689  1
  Ti  Ti5  1  -0.04735342  0.33506192  0.58075787  1
  Ti  Ti6  1  -0.02999183  0.61752858  0.01635687  1
  Ti  Ti7  1  0.01299259  0.69023053  0.38511766  1
  Ti  Ti8  1  0.02076833  0.71304292  0.61554010  1
  Ti  Ti9  1  0.33477922  -0.00982754  0.00268098  1
  Ti  Ti10  1  0.29080379  -0.06884986  0.22483458  1
  Ti  Ti11  1  0.27282369  -0.01925671  0.67009207  1
  Ti  Ti12  1  0.34677681  0.34991844  0.01651731  1
  Ti  Ti13  1  0.30748015  0.38863291  0.34701407  1
  Ti  Ti14  1  0.38485298  0.31695662  0.67616002  1
  Ti  Ti15  1  0.47082058  0.75861699  -0.07803438  1
  Ti  Ti16  1  0.30625655  0.66012846  0.25511454  1
  Ti  Ti17  1  0.33819177  0.63771323  0.60072798  1
  Ti  Ti18  1  0.69864367  0.04394620  0.03181318  1
  Ti  Ti19  1  0.68549336  0.00964263  0.34305596  1
  Ti  Ti20  1  0.71262257  -0.01327512  0.68485219  1
  Ti  Ti21  1  0.62974682  0.38057978  0.02007346  1
  Ti  Ti22  1  0.66522193  0.34373708  0.39095526  1
  Ti  Ti23  1  0.62097500  0.28548759  0.68097740  1
  Ti  Ti24  1  0.74721659  0.68346078  -0.00140801  1
  Ti  Ti25  1  0.67895652  0.69491386  0.42308296  1
  Ti  Ti26  1  0.70814093  0.66864655  0.63947708  1
  Ti  Ti27  1  0.09256892  0.18131590  0.19045320  1
  Ti  Ti28  1  -0.06595083  0.14070874  0.49822946  1
  Ti  Ti29  1  0.07841403  0.27586054  0.85549300  1
  Ti  Ti30  1  -0.04044924  0.49014891  0.16791523  1
  Ti  Ti31  1  0.00699171  0.49566796  0.47376468  1
  Ti  Ti32  1  -0.01341038  0.51149643  0.84053008  1
  Ti  Ti33  1  0.01240166  0.80058433  0.10149875  1
  Ti  Ti34  1  -0.01736837  0.84604425  0.49278822  1
  Ti  Ti35  1  0.02187705  0.78481286  0.81797979  1
  Ti  Ti36  1  0.32211294  0.12254025  0.21021227  1
  Ti  Ti37  1  0.30609849  0.06861993  0.44380256  1
  Ti  Ti38  1  0.32175766  0.15796060  0.73167133  1
  Ti  Ti39  1  0.25531447  0.52264849  0.10687294  1
  Ti  Ti40  1  0.26070391  0.45409746  0.57907950  1
  Ti  Ti41  1  0.35660048  0.51509040  0.79103108  1
  Ti  Ti42  1  0.38153330  0.79900376  0.11208877  1
  Ti  Ti43  1  0.29693112  0.76803251  0.44502597  1
  Ti  Ti44  1  0.34256289  0.88151796  0.82889649  1
  Ti  Ti45  1  0.63966123  0.21086006  0.20445546  1
  Ti  Ti46  1  0.60427607  0.19753346  0.49612204  1
  Ti  Ti47  1  0.64772288  0.19855187  0.86909579  1
  Ti  Ti48  1  0.65101450  0.54434290  0.12225769  1
  Ti  Ti49  1  0.66219581  0.50752392  0.51018297  1
  Ti  Ti50  1  0.69460139  0.42101497  0.82344929  1
  Ti  Ti51  1  0.68315949  0.75328573  0.17310132  1
  Ti  Ti52  1  0.66059267  0.88945534  0.48626147  1
  Ti  Ti53  1  0.63453345  0.81334719  0.76526802  1
  Ti  Ti54  1  0.17361835  0.03643042  0.09416762  1
  Ti  Ti55  1  0.16871655  -0.07819359  0.52355242  1
  Ti  Ti56  1  0.10861745  0.04858969  0.89450517  1
  Ti  Ti57  1  0.15077297  0.37152420  0.18524060  1
  Ti  Ti58  1  0.24277305  0.25043194  0.54717537  1
  Ti  Ti59  1  0.27004775  0.34017934  0.84183824  1
  Ti  Ti60  1  0.19084249  0.69726834  0.08094887  1
  Ti  Ti61  1  0.14942756  0.59918786  0.55851228  1
  Ti  Ti62  1  0.27852462  0.65880934  0.90649846  1
  Ti  Ti63  1  0.48816422  -0.01809380  0.13692944  1
  Ti  Ti64  1  0.49662303  0.01063115  0.44545476  1
  Ti  Ti65  1  0.56998526  -0.00706883  0.85167872  1
  Ti  Ti66  1  0.48421769  0.33535690  0.15669761  1
  Ti  Ti67  1  0.41423487  0.37083488  0.50124980  1
  Ti  Ti68  1  0.48786479  0.34181823  0.81829662  1
  Ti  Ti69  1  0.49951459  0.66131491  0.20726074  1
  Ti  Ti70  1  0.50747370  0.66886934  0.53116252  1
  Ti  Ti71  1  0.51297717  0.65644480  0.73023897  1
  Ti  Ti72  1  0.81612422  0.02830193  0.19403907  1
  Ti  Ti73  1  0.84511807  -0.03879307  0.53664513  1
  Ti  Ti74  1  0.83400328  0.02889051  0.85237934  1
  Ti  Ti75  1  0.91908212  0.29569133  0.19419563  1
  Ti  Ti76  1  0.85386442  0.36027911  0.40985542  1
  Ti  Ti77  1  0.87160374  0.23315268  0.79648181  1
  Ti  Ti78  1  0.83410889  0.69514339  0.27975492  1
  Ti  Ti79  1  0.85158161  0.62013207  0.47822457  1
  Ti  Ti80  1  0.80570238  0.58735098  0.85647251  1
  Ti  Ti81  1  0.24095906  0.18114838  -0.02593397  1
  Ti  Ti82  1  0.11765751  0.12945965  0.40866759  1
  Ti  Ti83  1  0.13220420  0.16213399  0.70934136  1
  Ti  Ti84  1  0.17297917  0.48468840  -0.06627777  1
  Ti  Ti85  1  0.09519737  0.54281369  0.29985328  1
  Ti  Ti86  1  0.14461220  0.46140019  0.73937054  1
  Ti  Ti87  1  0.16429435  0.87063320  -0.06255003  1
  Ti  Ti88  1  0.13298722  0.87006151  0.35412838  1
  Ti  Ti89  1  0.19594192  0.75746981  0.75132179  1
  Ti  Ti90  1  0.50272284  0.23693925  -0.01984303  1
  Ti  Ti91  1  0.47480029  0.16257977  0.34685731  1
  Ti  Ti92  1  0.47504313  0.08898075  0.62898883  1
  Ti  Ti93  1  0.46139208  0.52053636  0.08273683  1
  Ti  Ti94  1  0.54508378  0.47111757  0.31017424  1
  Ti  Ti95  1  0.56386429  0.47837631  0.68156317  1
  Ti  Ti96  1  0.62937522  0.85584354  0.00664261  1
  Ti  Ti97  1  0.48024779  0.83268524  0.43275835  1
  Ti  Ti98  1  0.42529859  0.82996132  0.64928307  1
  Ti  Ti99  1  0.83206058  0.18964780  -0.00918033  1
  Ti  Ti100  1  0.78405983  0.17545049  0.35529165  1
  Ti  Ti101  1  0.78856076  0.19980512  0.61192522  1
  Ti  Ti102  1  0.83005749  0.46164746  0.01462165  1
  Ti  Ti103  1  0.78206399  0.46606902  0.24177500  1
  Ti  Ti104  1  0.88414798  0.55714712  0.67199346  1
  Ti  Ti105  1  0.83570500  0.88033544  0.00102475  1
  Ti  Ti106  1  0.86158151  0.88804643  0.34115596  1
  Ti  Ti107  1  0.87261948  0.86005172  0.72047653  1
  Co  Co108  1  0.98818355  0.95723237  0.79403419  1
  Co  Co109  1  0.07828533  0.22371103  0.53873557  1
  Co  Co110  1  0.53753380  0.82328946  0.14433055  1
  Co  Co111  1  0.90514529  0.68730806  0.76588986  1
  Co  Co112  1  0.12247819  0.62117005  0.87119055  1
  Co  Co113  1  0.23427621  0.60105579  0.72559322  1
  Co  Co114  1  0.76997346  0.74719831  0.82822351  1
  Co  Co115  1  0.26670966  0.25547783  0.12862620  1
  Co  Co116  1  0.20050057  0.30929854  0.69937155  1
  Co  Co117  1  0.56804537  0.75307244  0.31566608  1
  Co  Co118  1  0.47101855  0.91084414  0.97617816  1
  Co  Co119  1  -0.00269333  0.11978051  0.79897880  1
  Co  Co120  1  0.70986086  0.83843698  0.31626448  1
  Co  Co121  1  0.86407670  0.73722438  0.10147089  1
  Co  Co122  1  0.01021944  -0.00276508  0.45535985  1
  Co  Co123  1  0.01891765  0.49080038  0.63823601  1
  Co  Co124  1  0.08437784  0.16311839  0.01367910  1
  Co  Co125  1  0.00036662  0.36033469  0.74409451  1
  Co  Co126  1  0.24374815  0.51079244  0.27595255  1
  Co  Co127  1  0.94676400  0.14936371  0.09690744  1
  Co  Co128  1  0.55704954  0.91011766  0.29731315  1
  Co  Co129  1  0.40672145  0.81815786  0.28035740  1
  Co  Co130  1  0.74329949  0.83631425  0.61760100  1
  Co  Co131  1  0.23563100  0.61933804  0.41839722  1
  Co  Co132  1  0.36735604  0.53393905  0.41829769  1
  Co  Co133  1  0.57163378  0.36149152  0.54177462  1
  Co  Co134  1  0.31348932  0.80171895  0.96564372  1
  Co  Co135  1  0.20863523  0.23619684  0.28682394  1
  Co  Co136  1  0.73197607  0.33488679  0.55208664  1
  Co  Co137  1  0.07823342  0.73699051  -0.03424600  1
  Co  Co138  1  0.90482175  0.74231331  0.93335178  1
  Co  Co139  1  0.79051710  0.17671492  0.14962820  1
  Co  Co140  1  0.11657630  0.38320701  0.56419065  1
  Co  Co141  1  0.13088528  0.74898182  0.47913667  1
  Co  Co142  1  0.77619874  0.34036470  0.10214633  1
  Co  Co143  1  -0.01021742  0.89949534  0.94702504  1
  Co  Co144  1  0.40878382  0.52321143  0.24636730  1
  Co  Co145  1  0.97050614  0.19941676  0.66399328  1
  Co  Co146  1  0.42106729  -0.00045510  0.30149879  1
  Co  Co147  1  0.06370685  0.61774621  0.72922545  1
  Co  Co148  1  0.30364097  0.91840817  0.38561590  1
  Co  Co149  1  0.37083828  0.65028122  0.04929821  1
  Co  Co150  1  0.33258232  0.40206192  0.17758194  1
  Co  Co151  1  0.66246375  0.94366037  0.16475938  1
  Co  Co152  1  0.18086803  0.47061935  0.43483246  1
  Co  Co153  1  0.41656473  0.68162865  0.37343838  1
  Co  Co154  1  0.66620111  0.59258579  0.77560635  1
  Co  Co155  1  0.86913142  1.04052564  0.37530270  1
  Co  Co156  1  0.66378397  0.21019420  0.04073110  1
  Co  Co157  1  0.67604972  0.61247789  0.26896173  1
  Co  Co158  1  0.95069831  0.07247847  0.94791605  1
  Co  Co159  1  0.55093486  0.60362944  0.38299582  1
  Co  Co160  1  0.06865819  0.86006749  0.66135349  1
  Co  Co161  1  0.75626938  0.52090368  0.38734078  1
  Ni  Ni162  1  0.42487583  0.01453948  0.76896295  1
  Ni  Ni163  1  0.76906614  0.30296140  0.26046812  1
  Ni  Ni164  1  0.22452829  0.86612938  0.08642878  1
  Ni  Ni165  1  0.61998512  0.69540831  0.88811683  1
  Ni  Ni166  1  0.18324221  0.08957101  0.56589712  1
  Ni  Ni167  1  0.49709427  0.43792728  0.94268252  1
  Ni  Ni168  1  0.16316677  0.32682232  1.01222368  1
  Ni  Ni169  1  0.87487550  0.05872965  0.68683685  1
  Ni  Ni170  1  0.83612395  0.46234520  0.54182655  1
  Ni  Ni171  1  0.37381777  0.21551984  0.87868834  1
  Ni  Ni172  1  0.75718115  0.08936401  0.49278949  1
  Ni  Ni173  1  0.49910615  0.51037793  0.51125688  1
  Ni  Ni174  1  0.64578526  0.53943041  0.94589834  1
  Ni  Ni175  1  0.72841619  0.48511760  0.66564091  1
  Ni  Ni176  1  0.63971813  0.38102171  0.19894215  1
  Ni  Ni177  1  0.91339354  0.36847005  0.88768176  1
  Ni  Ni178  1  0.47494592  0.59511354  0.89549105  1
  Ni  Ni179  1  0.73414151  0.13509667  0.75513891  1
  Ni  Ni180  1  0.76088894  0.32107493  0.93401037  1
  Ni  Ni181  1  0.72192275  0.90999014  0.87425415  1
  Ni  Ni182  1  0.27515301  0.04024621  0.84657436  1
  Ni  Ni183  1  0.81365338  0.59172644  0.13671808  1
  Ni  Ni184  1  0.53900451  0.07366480  0.99398224  1
  Ni  Ni185  1  0.50126740  0.31765062  0.37665254  1
  Ni  Ni186  1  0.10927675  0.91269476  0.19015773  1
  Ni  Ni187  1  0.34422797  0.50491016  0.95568429  1
  Ni  Ni188  1  0.62147599  0.04140242  0.55785279  1
  Ni  Ni189  1  0.98595261  0.40166722  0.30941299  1
  Ni  Ni190  1  0.99262684  0.81579764  0.27271919  1
  Ni  Ni191  1  0.81222366  0.86592032  0.17400635  1
  Ni  Ni192  1  0.15879587  0.93194654  0.77875851  1
  Ni  Ni193  1  -0.01787390  0.65542687  0.20131963  1
  Ni  Ni194  1  0.92673830  0.14260579  0.25567402  1
  Ni  Ni195  1  0.56224881  0.67332374  0.04530203  1
  Ni  Ni196  1  0.36034431  0.92746955  0.53577373  1
  Ni  Ni197  1  0.18274216  0.04752113  0.28008372  1
  Ni  Ni198  1  0.97120784  0.24374504  0.37445256  1
  Ni  Ni199  1  0.37849866  0.26780834  0.25674403  1
  Ni  Ni200  1  0.49923134  0.17558072  0.77253655  1
  Ni  Ni201  1  0.83419527  0.37145198  0.70166571  1
  Ni  Ni202  1  0.41017581  0.48623725  0.64437798  1
  Ni  Ni203  1  0.58407835  0.79401857  0.59977235  1
  Ni  Ni204  1  0.20402644  0.78260995  0.23140185  1
  Ni  Ni205  1  0.38657314  0.14366097  0.05433240  1
  Ni  Ni206  1  0.32080498  0.22993292  0.40315056  1
  Ni  Ni207  1  0.05468111  0.46044543  0.04056478  1
  Ni  Ni208  1  0.36448811  0.71183422  0.77165475  1
  Ni  Ni209  1  0.54930463  0.94305305  0.67566682  1
  Ni  Ni210  1  0.91747317  0.55267614  0.33107992  1
  Ni  Ni211  1  0.81080452  0.79056294  0.46209841  1
  Ni  Ni212  1  0.56715549  0.06802808  0.24952125  1
  Ni  Ni213  1  0.24100388  0.79411807  0.60336159  1
  Ni  Ni214  1  0.42273784  0.20044220  0.52384247  1
  Ni  Ni215  1  0.86251053  0.72995406  0.60466235  1
