# generated using pymatgen
data_Ti2CoNi
_symmetry_space_group_name_H-M   'P 1'
_cell_length_a   14.63872220
_cell_length_b   14.66591859
_cell_length_c   14.62044133
_cell_angle_alpha   90.10599228
_cell_angle_beta   90.16492395
_cell_angle_gamma   90.09153613
_symmetry_Int_Tables_number   1
_chemical_formula_structural   Ti2CoNi
_chemical_formula_sum   'Ti108 Co54 Ni54'
_cell_volume   3138.84464704
_cell_formula_units_Z   54
loop_
 _symmetry_equiv_pos_site_id
 _symmetry_equiv_pos_as_xyz
  1  'x, y, z'
loop_
 _atom_site_type_symbol
 _atom_site_label
 _atom_site_symmetry_multiplicity
 _atom_site_fract_x
 _atom_site_fract_y
 _atom_site_fract_z
 _atom_site_occupancy
  Ti  Ti0  1  0.02562042  -0.01376317  0.03826960  1
  Ti  Ti1  1  -0.03210494  0.05987913  0.30823572  1
  Ti  Ti2  1  -0.03292319  0.11365814  0.65880297  1
  Ti  Ti3  1  0.04019279  0.29798179  -0.01599751  1
  Ti  Ti4  1  0.04497821  0.31568358  0.36419737  1
  Ti  Ti5  1  -0.09227080  0.32451058  0.72984935  1
  Ti  Ti6  1  0.01476001  0.73389105  -0.00412915  1
  Ti  Ti7  1  -0.00366160  0.62773039  0.40605889  1
  Ti  Ti8  1  -0.00143098  0.60280696  0.66312033  1
  Ti  Ti9  1  0.40213618  -0.01631386  -0.05680526  1
  Ti  Ti10  1  0.33606980  -0.05376812  0.30082132  1
  Ti  Ti11  1  0.42562388  -0.02462702  0.71764992  1
  Ti  Ti12  1  0.37344750  0.35693567  -0.01512236  1
  Ti  Ti13  1  0.27386125  0.33632414  0.34541277  1
  Ti  Ti14  1  0.34190814  0.30277025  0.62143807  1
  Ti  Ti15  1  0.32569090  0.60350729  0.01541575  1
  Ti  Ti16  1  0.32515014  0.53208314  0.34603584  1
  Ti  Ti17  1  0.38573234  0.64590706  0.72502094  1
  Ti  Ti18  1  0.62802393  -0.06433643  -0.00061403  1
  Ti  Ti19  1  0.72132146  -0.02413065  0.29430607  1
  Ti  Ti20  1  0.59169010  0.02837294  0.60343335  1
  Ti  Ti21  1  0.56027598  0.34196964  0.07028816  1
  Ti  Ti22  1  0.65847014  0.37076451  0.28219523  1
  Ti  Ti23  1  0.70062093  0.34706871  0.67988262  1
  Ti  Ti24  1  0.70241937  0.65923633  -0.05709331  1
  Ti  Ti25  1  0.69606356  0.64560551  0.38511928  1
  Ti  Ti26  1  0.68625531  0.75794162  0.64388642  1
  Ti  Ti27  1  -0.04823908  0.16883478  0.09732636  1
  Ti  Ti28  1  0.04200882  0.12639256  0.47122480  1
  Ti  Ti29  1  0.03258392  0.21188330  0.81105395  1
  Ti  Ti30  1  0.02094940  0.54838326  0.13552849  1
  Ti  Ti31  1  -0.05048889  0.45744180  0.45496388  1
  Ti  Ti32  1  0.06966337  0.44750135  0.87022477  1
  Ti  Ti33  1  -0.00741467  0.75315407  0.22970368  1
  Ti  Ti34  1  0.00799074  0.81482546  0.48486964  1
  Ti  Ti35  1  -0.05274466  0.76519551  0.80343533  1
  Ti  Ti36  1  0.34646358  0.23764975  0.14543026  1
  Ti  Ti37  1  0.34422590  0.11533258  0.53571565  1
  Ti  Ti38  1  0.32307743  0.16900808  0.92029871  1
  Ti  Ti39  1  0.38679999  0.55815737  0.17688565  1
  Ti  Ti40  1  0.28320779  0.46220671  0.51516309  1
  Ti  Ti41  1  0.40932881  0.50328526  0.85878504  1
  Ti  Ti42  1  0.31249868  0.77940812  0.19212188  1
  Ti  Ti43  1  0.29534778  0.82714966  0.54474265  1
  Ti  Ti44  1  0.32271360  0.82925733  0.81679244  1
  Ti  Ti45  1  0.67558288  0.19227089  0.15882385  1
  Ti  Ti46  1  0.70991328  0.14837678  0.49654585  1
  Ti  Ti47  1  0.68493873  0.18354597  0.82028945  1
  Ti  Ti48  1  0.76401989  0.52092443  0.12116339  1
  Ti  Ti49  1  0.70803734  0.46507508  0.47307696  1
  Ti  Ti50  1  0.64512184  0.49315528  0.82860187  1
  Ti  Ti51  1  0.61660334  0.83627170  0.17908537  1
  Ti  Ti52  1  0.62461508  0.85952020  0.47159684  1
  Ti  Ti53  1  0.66305265  0.86917493  0.81042038  1
  Ti  Ti54  1  0.19903354  -0.01827224  0.15879000  1
  Ti  Ti55  1  0.16721615  -0.00107683  0.51137778  1
  Ti  Ti56  1  0.11496551  0.04011598  0.86600902  1
  Ti  Ti57  1  0.09109700  0.33977595  0.16192911  1
  Ti  Ti58  1  0.18123622  0.25830835  0.50107573  1
  Ti  Ti59  1  0.20508416  0.32421813  0.77955069  1
  Ti  Ti60  1  0.16559195  0.69851369  0.12048947  1
  Ti  Ti61  1  0.14368456  0.68810158  0.55818477  1
  Ti  Ti62  1  0.13389955  0.72161471  0.80663105  1
  Ti  Ti63  1  0.46887051  0.05897221  0.21763187  1
  Ti  Ti64  1  0.52899819  0.02958871  0.42473362  1
  Ti  Ti65  1  0.48860847  0.12306740  0.83172785  1
  Ti  Ti66  1  0.44831416  0.38660335  0.24853046  1
  Ti  Ti67  1  0.53540952  0.34838050  0.53841758  1
  Ti  Ti68  1  0.51677830  0.34628475  0.75355996  1
  Ti  Ti69  1  0.60515845  0.63321734  0.13883869  1
  Ti  Ti70  1  0.42845976  0.63584594  0.47533848  1
  Ti  Ti71  1  0.57329963  0.67114213  0.78750640  1
  Ti  Ti72  1  0.86275425  -0.01817718  0.14622005  1
  Ti  Ti73  1  0.88524077  -0.01876095  0.50096505  1
  Ti  Ti74  1  0.91945389  -0.00364134  0.84218835  1
  Ti  Ti75  1  0.83781957  0.31669214  0.21878970  1
  Ti  Ti76  1  0.82995196  0.31636134  0.54027983  1
  Ti  Ti77  1  0.83169880  0.28276051  0.91378845  1
  Ti  Ti78  1  0.84970653  0.69364528  0.10000579  1
  Ti  Ti79  1  0.81029701  0.76950611  0.48902714  1
  Ti  Ti80  1  0.81940224  0.59569331  0.79229152  1
  Ti  Ti81  1  0.16291639  0.14831855  0.06363817  1
  Ti  Ti82  1  0.15878781  0.18794285  0.26484333  1
  Ti  Ti83  1  0.18578091  0.16033657  0.66656195  1
  Ti  Ti84  1  0.14014808  0.58976609  -0.03644807  1
  Ti  Ti85  1  0.13802465  0.47785558  0.29442803  1
  Ti  Ti86  1  0.20506243  0.54013185  0.70005145  1
  Ti  Ti87  1  0.18614159  0.87151771  -0.02455433  1
  Ti  Ti88  1  0.15668936  0.85842891  0.31042323  1
  Ti  Ti89  1  0.15729089  0.87719882  0.67932859  1
  Ti  Ti90  1  0.51362796  0.14249905  0.03973306  1
  Ti  Ti91  1  0.54007121  0.22945084  0.35794969  1
  Ti  Ti92  1  0.46499780  0.17580128  0.66188718  1
  Ti  Ti93  1  0.51765063  0.60629006  -0.02500381  1
  Ti  Ti94  1  0.53388624  0.55870882  0.32524826  1
  Ti  Ti95  1  0.44010725  0.49628901  0.62582819  1
  Ti  Ti96  1  0.43457177  0.80509040  0.01817072  1
  Ti  Ti97  1  0.44596779  0.81671038  0.39602662  1
  Ti  Ti98  1  0.46882836  0.77895656  0.61485294  1
  Ti  Ti99  1  0.78037004  0.09331676  -0.00427471  1
  Ti  Ti100  1  0.87619740  0.22323531  0.38327371  1
  Ti  Ti101  1  0.77122157  0.04337202  0.68996725  1
  Ti  Ti102  1  0.90577891  0.40444856  0.06703815  1
  Ti  Ti103  1  0.83761068  0.53604400  0.30055770  1
  Ti  Ti104  1  0.81759693  0.50377249  0.62617054  1
  Ti  Ti105  1  0.83225678  0.85503001  -0.03418700  1
  Ti  Ti106  1  0.88650217  0.87613698  0.32678315  1
  Ti  Ti107  1  0.87296931  0.86775198  0.66487659  1
  Co  Co108  1  0.50515177  0.25281207  0.92085571  1
  Co  Co109  1  0.56630634  0.73328213  0.30648083  1
  Co  Co110  1  0.72108817  0.21614108  0.32560681  1
  Co  Co111  1  1.01948650  0.90748481  0.75487300  1
  Co  Co112  1  0.61014801  0.03560027  0.76232855  1
  Co  Co113  1  0.13888319  0.41860060  0.44800083  1
  Co  Co114  1  0.51767131  0.93220892  0.85403018  1
  Co  Co115  1  0.32732742  0.13419769  0.73403573  1
  Co  Co116  1  0.01945672  0.77815779  0.64665733  1
  Co  Co117  1  0.84222444  0.59602150  0.46784076  1
  Co  Co118  1  0.08023619  0.42998689  0.71263201  1
  Co  Co119  1  0.78808100  0.42433002  0.80204792  1
  Co  Co120  1  0.19284627  0.37410548  0.61709895  1
  Co  Co121  1  0.49903199  0.96532708  0.08780309  1
  Co  Co122  1  0.78912754  0.51614343  0.95494774  1
  Co  Co123  1  0.47801080  0.80087634  0.77896749  1
  Co  Co124  1  0.25008540  0.16208595  0.39779872  1
  Co  Co125  1  0.93631631  0.48668949  0.75719126  1
  Co  Co126  1  0.06390175  0.27128037  0.65727085  1
  Co  Co127  1  0.67232258  0.30391995  0.45645423  1
  Co  Co128  1  0.40979943  0.67965104  0.30261392  1
  Co  Co129  1  0.61362960  0.07779824  0.92727269  1
  Co  Co130  1  0.46103299  0.47811668  0.05860316  1
  Co  Co131  1  0.11065302  0.03492601  0.70286468  1
  Co  Co132  1  0.67181397  0.22988766  0.98470657  1
  Co  Co133  1  0.63707385  0.49949441  0.01494700  1
  Co  Co134  1  0.29199242  0.10103033  0.23663377  1
  Co  Co135  1  0.96534081  0.41825279  0.60663582  1
  Co  Co136  1  0.51631745  0.23433343  0.19569762  1
  Co  Co137  1  0.45175880  0.86234152  0.20865193  1
  Co  Co138  1  0.39195302  0.26224011  0.46920563  1
  Co  Co139  1  0.61191493  0.09189672  0.28315033  1
  Co  Co140  1  0.94251238  0.84520413  0.10096887  1
  Co  Co141  1  0.02566847  0.87619455  0.91619296  1
  Co  Co142  1  0.11055802  0.84579165  0.12420986  1
  Co  Co143  1  0.02641723  0.92704067  0.23459252  1
  Co  Co144  1  0.91679737  0.41906544  0.90307476  1
  Co  Co145  1  0.02186650  0.95694048  0.58667564  1
  Co  Co146  1  0.94447545  0.55764865  -0.00316561  1
  Co  Co147  1  1.04088664  0.95260018  0.41067082  1
  Co  Co148  1  0.40610645  0.68687475  0.88423499  1
  Co  Co149  1  0.06381304  0.07763827  0.18003159  1
  Co  Co150  1  0.08558669  0.62673507  0.26424455  1
  Co  Co151  1  0.38096018  0.23033549  0.30066118  1
  Co  Co152  1  0.87170354  0.14206957  0.53037122  1
  Co  Co153  1  0.71801400  0.36800817  0.10746070  1
  Co  Co154  1  0.98577422  0.27306914  0.51595485  1
  Co  Co155  1  0.58213028  0.88338390  0.66926300  1
  Co  Co156  1  0.71644886  0.81324667  0.33619551  1
  Co  Co157  1  0.10179105  0.52419464  0.56087910  1
  Co  Co158  1  0.86156030  0.68295211  0.92717871  1
  Co  Co159  1  0.18547037  0.57922766  0.42343637  1
  Co  Co160  1  0.79741950  0.83702895  0.18366293  1
  Co  Co161  1  0.81479575  0.24401834  0.07012177  1
  Ni  Ni162  1  0.56797649  0.77747504  0.92621313  1
  Ni  Ni163  1  0.85618451  0.70763570  0.33470450  1
  Ni  Ni164  1  0.23969644  0.65646512  0.27739526  1
  Ni  Ni165  1  0.56430455  0.91244867  0.31582706  1
  Ni  Ni166  1  0.46197728  0.93312454  0.55351612  1
  Ni  Ni167  1  0.68362871  0.02232886  0.13499540  1
  Ni  Ni168  1  0.95885598  0.13069568  0.94015540  1
  Ni  Ni169  1  0.58377016  0.47522911  0.17768075  1
  Ni  Ni170  1  0.39347644  0.09147389  0.37263055  1
  Ni  Ni171  1  0.82500349  0.13250055  0.21981116  1
  Ni  Ni172  1  0.32830685  0.96529208  0.46237165  1
  Ni  Ni173  1  0.26735018  0.59767665  0.84843842  1
  Ni  Ni174  1  0.00430493  0.61276375  0.85266291  1
  Ni  Ni175  1  0.73077822  0.68837604  0.22183486  1
  Ni  Ni176  1  0.27982482  -0.00919566  0.64092476  1
  Ni  Ni177  1  -0.01593537  0.21894543  0.24629153  1
  Ni  Ni178  1  0.24645097  0.43841480  0.90221769  1
  Ni  Ni179  1  0.53141696  0.41327030  0.91669231  1
  Ni  Ni180  1  0.33061504  0.43035479  0.73547418  1
  Ni  Ni181  1  0.23913506  0.02350920  0.98311076  1
  Ni  Ni182  1  0.54560872  0.63127838  0.62789554  1
  Ni  Ni183  1  0.69948244  0.78115593  0.04797435  1
  Ni  Ni184  1  0.46278444  0.70697198  0.14614482  1
  Ni  Ni185  1  0.43541947  0.43013081  0.42587221  1
  Ni  Ni186  1  0.78234319  0.76013659  0.79163501  1
  Ni  Ni187  1  0.60883377  0.47879483  0.65173613  1
  Ni  Ni188  1  0.13902457  0.44212072  0.03963385  1
  Ni  Ni189  1  0.73565259  0.92294650  0.57615621  1
  Ni  Ni190  1  0.25367292  0.73247133  0.68608428  1
  Ni  Ni191  1  0.37767731  0.27869590  0.80276431  1
  Ni  Ni192  1  0.85543708  0.69411705  0.63764491  1
  Ni  Ni193  1  0.24831080  0.73020419  0.94364665  1
  Ni  Ni194  1  0.70480513  0.61582568  0.56206049  1
  Ni  Ni195  1  0.85900093  0.15030982  0.80580951  1
  Ni  Ni196  1  0.57950227  0.70495299  0.48458818  1
  Ni  Ni197  1  0.96429953  0.43313945  0.25620275  1
  Ni  Ni198  1  0.54037101  0.17731887  0.51497588  1
  Ni  Ni199  1  0.16577245  0.03270218  0.33797423  1
  Ni  Ni200  1  0.16755171  0.21722944  0.90713336  1
  Ni  Ni201  1  0.20892996  0.54341876  0.15448757  1
  Ni  Ni202  1  0.22119596  0.30138689  0.04403870  1
  Ni  Ni203  1  0.81035099  0.37748827  0.37317008  1
  Ni  Ni204  1  0.27546285  0.39332053  0.18200607  1
  Ni  Ni205  1  0.27176830  0.99897127  0.81448230  1
  Ni  Ni206  1  0.81419480  0.06989032  0.38261789  1
  Ni  Ni207  1  0.35520060  0.08454592  0.08017831  1
  Ni  Ni208  1  0.12692177  0.72898754  0.39359664  1
  Ni  Ni209  1  0.79484634  0.20558721  0.66426743  1
  Ni  Ni210  1  0.55954020  0.52801897  0.49642443  1
  Ni  Ni211  1  0.62774926  0.19423186  0.66226099  1
  Ni  Ni212  1  0.75155036  1.00262418  0.85925428  1
  Ni  Ni213  1  0.29263922  0.73179096  0.41155201  1
  Ni  Ni214  1  0.33756194  0.92118469  0.09500586  1
  Ni  Ni215  1  0.29681117  0.62682244  0.56635736  1
