# generated using pymatgen
data_Ti2CoNi
_symmetry_space_group_name_H-M   'P 1'
_cell_length_a   14.53135809
_cell_length_b   14.49136903
_cell_length_c   14.52481777
_cell_angle_alpha   90.24188007
_cell_angle_beta   90.23503381
_cell_angle_gamma   89.64716943
_symmetry_Int_Tables_number   1
_chemical_formula_structural   Ti2CoNi
_chemical_formula_sum   'Ti108 Co54 Ni54'
_cell_volume   3058.51490299
_cell_formula_units_Z   54
loop_
 _symmetry_equiv_pos_site_id
 _symmetry_equiv_pos_as_xyz
  1  'x, y, z'
loop_
 _atom_site_type_symbol
 _atom_site_label
 _atom_site_symmetry_multiplicity
 _atom_site_fract_x
 _atom_site_fract_y
 _atom_site_fract_z
 _atom_site_occupancy
  Ti  Ti0  1  0.06254792  -0.03707700  0.05058686  1
  Ti  Ti1  1  0.00966510  -0.05811811  0.37260112  1
  Ti  Ti2  1  -0.05436055  0.02592848  0.69235053  1
  Ti  Ti3  1  0.00364583  0.25171322  -0.05856590  1
  Ti  Ti4  1  0.01731304  0.33867536  0.34830882  1
  Ti  Ti5  1  -0.08664552  0.33454096  0.69882574  1
  Ti  Ti6  1  -0.00416075  0.63690445  0.05456671  1
  Ti  Ti7  1  -0.13026126  0.66788526  0.31292410  1
  Ti  Ti8  1  -0.01403540  0.64085396  0.57506961  1
  Ti  Ti9  1  0.32560023  0.06967173  -0.06790243  1
  Ti  Ti10  1  0.35891564  -0.06858634  0.44858903  1
  Ti  Ti11  1  0.39340936  -0.00675262  0.64968567  1
  Ti  Ti12  1  0.34754585  0.36413998  0.00352418  1
  Ti  Ti13  1  0.38772968  0.30647218  0.19030216  1
  Ti  Ti14  1  0.26566812  0.40536148  0.73914974  1
  Ti  Ti15  1  0.33692560  0.71213657  0.07712961  1
  Ti  Ti16  1  0.26167955  0.72794738  0.34098142  1
  Ti  Ti17  1  0.29162245  0.59445229  0.62755060  1
  Ti  Ti18  1  0.62845867  -0.01953416  0.00735452  1
  Ti  Ti19  1  0.71268549  0.00498995  0.23704422  1
  Ti  Ti20  1  0.58679816  -0.04202719  0.66208474  1
  Ti  Ti21  1  0.68169713  0.33718122  0.03103850  1
  Ti  Ti22  1  0.68881309  0.31602464  0.34015045  1
  Ti  Ti23  1  0.70887607  0.37899618  0.65868666  1
  Ti  Ti24  1  0.64454824  0.65624632  0.04061715  1
  Ti  Ti25  1  0.69610528  0.58650740  0.35032221  1
  Ti  Ti26  1  0.72312503  0.59146721  0.70762727  1
  Ti  Ti27  1  0.02400071  0.22277226  0.15260874  1
  Ti  Ti28  1  -0.04153782  0.17966512  0.43756053  1
  Ti  Ti29  1  0.01173033  0.07966755  0.86602057  1
  Ti  Ti30  1  0.01477951  0.46510906  0.17811281  1
  Ti  Ti31  1  0.02161967  0.46902798  0.47528383  1
  Ti  Ti32  1  0.00320189  0.45112912  0.85038353  1
  Ti  Ti33  1  0.02231275  0.79653747  0.16241011  1
  Ti  Ti34  1  0.06913508  0.82343500  0.57887928  1
  Ti  Ti35  1  -0.03071344  0.84320351  0.74948115  1
  Ti  Ti36  1  0.32083789  0.14159402  0.24258391  1
  Ti  Ti37  1  0.27434375  0.23194635  0.53875723  1
  Ti  Ti38  1  0.33112975  0.20232927  0.77496016  1
  Ti  Ti39  1  0.39059965  0.50059946  0.18017363  1
  Ti  Ti40  1  0.29541686  0.43870066  0.50788781  1
  Ti  Ti41  1  0.30825287  0.61698121  0.90280346  1
  Ti  Ti42  1  0.36105321  0.84285940  0.20516101  1
  Ti  Ti43  1  0.37000303  0.74896696  0.49867186  1
  Ti  Ti44  1  0.31458722  0.80832543  0.89798433  1
  Ti  Ti45  1  0.65509166  0.16688131  0.17652100  1
  Ti  Ti46  1  0.73145353  0.07638706  0.41238366  1
  Ti  Ti47  1  0.59185489  0.23950353  0.78497076  1
  Ti  Ti48  1  0.62968079  0.47246487  0.17739874  1
  Ti  Ti49  1  0.60268333  0.48531777  0.48865168  1
  Ti  Ti50  1  0.67260887  0.42841635  0.84538384  1
  Ti  Ti51  1  0.68186380  0.78317733  0.22392155  1
  Ti  Ti52  1  0.66713982  0.87895375  0.51690661  1
  Ti  Ti53  1  0.69708883  0.93060390  0.80723578  1
  Ti  Ti54  1  0.25068728  -0.01220131  0.12498230  1
  Ti  Ti55  1  0.11457513  0.00336618  0.58152287  1
  Ti  Ti56  1  0.16875219  -0.02654055  0.88248909  1
  Ti  Ti57  1  0.22935124  0.42191046  0.15768676  1
  Ti  Ti58  1  0.09563839  0.31451110  0.59215882  1
  Ti  Ti59  1  0.17556572  0.31110681  0.89114307  1
  Ti  Ti60  1  0.20423378  0.63395899  0.18377753  1
  Ti  Ti61  1  0.07407994  0.67555218  0.40361629  1
  Ti  Ti62  1  0.13241943  0.78544383  0.83026750  1
  Ti  Ti63  1  0.45434627  0.00945704  0.15309983  1
  Ti  Ti64  1  0.52953389  0.02589847  0.46670854  1
  Ti  Ti65  1  0.48886926  -0.04590011  0.84192049  1
  Ti  Ti66  1  0.51651853  0.25857914  0.05177013  1
  Ti  Ti67  1  0.44887735  0.31532800  0.49625292  1
  Ti  Ti68  1  0.44861079  0.36930652  0.79547767  1
  Ti  Ti69  1  0.52537292  0.60629931  0.23252225  1
  Ti  Ti70  1  0.56689705  0.71218527  0.47821846  1
  Ti  Ti71  1  0.58598907  0.67079291  0.82803458  1
  Ti  Ti72  1  0.92257211  0.01219102  0.17547032  1
  Ti  Ti73  1  0.88831584  -0.06809842  0.53923623  1
  Ti  Ti74  1  0.80604893  0.08627277  0.88209756  1
  Ti  Ti75  1  0.81630550  0.45871931  0.11038297  1
  Ti  Ti76  1  0.78095769  0.24512465  0.51533448  1
  Ti  Ti77  1  0.83952411  0.35607834  0.91670792  1
  Ti  Ti78  1  0.83332211  0.74031550  0.11890640  1
  Ti  Ti79  1  0.79221945  0.69669641  0.51453892  1
  Ti  Ti80  1  0.92540600  0.63757489  0.76277265  1
  Ti  Ti81  1  0.18262978  0.14778971  0.01587498  1
  Ti  Ti82  1  0.14782146  0.19675331  0.30916139  1
  Ti  Ti83  1  0.23590599  0.05783602  0.71096207  1
  Ti  Ti84  1  0.12700962  0.51986700  0.01097450  1
  Ti  Ti85  1  0.14652337  0.50301213  0.31057327  1
  Ti  Ti86  1  0.14878240  0.57421570  0.79128278  1
  Ti  Ti87  1  0.18984384  0.83302045  0.02362728  1
  Ti  Ti88  1  0.19764519  0.96157255  0.34328885  1
  Ti  Ti89  1  0.25380934  0.81835879  0.65747433  1
  Ti  Ti90  1  0.50796612  0.13623109  -0.08401909  1
  Ti  Ti91  1  0.50243544  0.21696288  0.33074105  1
  Ti  Ti92  1  0.50051909  0.16647706  0.61192112  1
  Ti  Ti93  1  0.50460779  0.52706763  -0.09215178  1
  Ti  Ti94  1  0.46804328  0.41218446  0.32430750  1
  Ti  Ti95  1  0.47189382  0.47709091  0.64483485  1
  Ti  Ti96  1  0.50874448  0.82685110  0.01242956  1
  Ti  Ti97  1  0.50133505  0.89296665  0.31116606  1
  Ti  Ti98  1  0.50142126  0.77073858  0.66681194  1
  Ti  Ti99  1  0.81401301  0.18250737  0.04658121  1
  Ti  Ti100  1  0.84146666  0.17188431  0.25529656  1
  Ti  Ti101  1  0.78984041  0.15239875  0.68943236  1
  Ti  Ti102  1  0.86351835  0.56776040  -0.05596133  1
  Ti  Ti103  1  0.83195895  0.46118173  0.31147171  1
  Ti  Ti104  1  0.85682992  0.46863684  0.59224798  1
  Ti  Ti105  1  0.79096369  0.76397296  -0.06764068  1
  Ti  Ti106  1  0.80974479  0.87025994  0.38320906  1
  Ti  Ti107  1  0.77514936  0.83688521  0.67059697  1
  Co  Co108  1  0.96933448  0.46669353  1.01467321  1
  Co  Co109  1  0.19761668  0.24669967  0.70597538  1
  Co  Co110  1  0.11008122  0.33859199  0.21525097  1
  Co  Co111  1  0.20831452  0.86185644  0.47175993  1
  Co  Co112  1  0.13682674  0.68664914  0.66986328  1
  Co  Co113  1  0.99445566  0.09749934  0.28946244  1
  Co  Co114  1  0.58564625  0.50772730  0.74854488  1
  Co  Co115  1  0.52168541  0.58538130  0.38649189  1
  Co  Co116  1  0.08972379  0.10185194  0.71522942  1
  Co  Co117  1  0.65404310  0.22881816  0.62781275  1
  Co  Co118  1  0.04337389  0.77838641  -0.00090639  1
  Co  Co119  1  0.79686179  0.93044088  0.95517175  1
  Co  Co120  1  0.76754099  0.99038052  0.64676335  1
  Co  Co121  1  0.84541202  0.30157028  0.37627075  1
  Co  Co122  1  0.17571068  0.66827162  0.99390302  1
  Co  Co123  1  0.53613232  0.33654190  0.66124384  1
  Co  Co124  1  0.90598686  0.34021894  0.22722401  1
  Co  Co125  1  0.64630459  0.15308901  0.01249707  1
  Co  Co126  1  0.57049181  0.72770299  0.31974187  1
  Co  Co127  1  0.70054226  0.83723561  0.06110336  1
  Co  Co128  1  0.20281972  0.71439768  0.52635357  1
  Co  Co129  1  0.42035340  0.74604075  0.33360047  1
  Co  Co130  1  0.93383584  0.74582091  0.89774711  1
  Co  Co131  1  0.43543205  0.48897576  0.47214597  1
  Co  Co132  1  0.93872998  0.34055923  0.52317331  1
  Co  Co133  1  0.23857382  0.58650110  0.42161454  1
  Co  Co134  1  0.26215267  0.69814123  0.76641622  1
  Co  Co135  1  0.03164564  0.62357558  0.88877018  1
  Co  Co136  1  0.65740601  0.71570168  0.62993804  1
  Co  Co137  1  0.12256390  0.92349657  0.73555294  1
  Co  Co138  1  0.86007852  0.02141350  0.36136082  1
  Co  Co139  1  0.76941057  0.01965203  0.08287422  1
  Co  Co140  1  0.45022269  0.67857978  0.93812042  1
  Co  Co141  1  0.86686248  0.95827365  0.81304795  1
  Co  Co142  1  0.72875989  0.59784410  0.87598529  1
  Co  Co143  1  0.16296941  0.15263573  0.85373538  1
  Co  Co144  1  0.63736259  0.09001812  0.72380396  1
  Co  Co145  1  0.60877617  0.33486610  0.50575188  1
  Co  Co146  1  0.70846228  0.75419381  0.39068442  1
  Co  Co147  1  0.30047540  0.42345979  0.31268192  1
  Co  Co148  1  0.82492742  0.87927863  0.20031094  1
  Co  Co149  1  0.64265004  0.06591397  0.87023503  1
  Co  Co150  1  0.16178982  0.40056352  0.43937878  1
  Co  Co151  1  0.10260502  0.39516269  0.75131502  1
  Co  Co152  1  0.36593069  0.31773103  0.63860306  1
  Co  Co153  1  0.63514008  0.82319587  0.90739060  1
  Co  Co154  1  0.36636990  0.57202379  0.33793390  1
  Co  Co155  1  0.92078388  0.03006068  1.01160180  1
  Co  Co156  1  0.76607961  0.41122732  0.46306898  1
  Co  Co157  1  0.07744471  0.94097299  0.22900465  1
  Co  Co158  1  0.46204705  1.01321711  1.00709577  1
  Co  Co159  1  0.91602329  0.86071262  0.04268739  1
  Co  Co160  1  0.17517348  0.45834309  0.62109297  1
  Co  Co161  1  0.13359941  0.57617803  0.53579422  1
  Ni  Ni162  1  0.35533298  0.89736365  0.04400225  1
  Ni  Ni163  1  0.57496193  0.32282961  0.19461255  1
  Ni  Ni164  1  0.52820261  0.76709466  0.15830203  1
  Ni  Ni165  1  0.86590594  0.55437090  0.45048956  1
  Ni  Ni166  1  0.72814172  0.74734918  0.78595080  1
  Ni  Ni167  1  0.89402400  0.58964200  0.17429583  1
  Ni  Ni168  1  0.59472531  0.92403312  0.16918104  1
  Ni  Ni169  1  0.54749205  0.05939415  0.30319644  1
  Ni  Ni170  1  0.35372776  0.17713874  0.06206271  1
  Ni  Ni171  1  0.91317522  0.32494287  0.06631404  1
  Ni  Ni172  1  0.26355619  0.11754343  0.40273920  1
  Ni  Ni173  1  0.84156632  0.48277235  0.77024046  1
  Ni  Ni174  1  0.30202259  0.92349191  0.78861863  1
  Ni  Ni175  1  0.64085838  0.93745757  0.36736413  1
  Ni  Ni176  1  0.41495681  0.65629099  0.74803592  1
  Ni  Ni177  1  -0.03660163  0.19902795  0.60767969  1
  Ni  Ni178  1  0.49541977  0.43125831  0.06531651  1
  Ni  Ni179  1  0.45174719  0.62138564  0.56814899  1
  Ni  Ni180  1  0.86332551  0.09429360  0.53772443  1
  Ni  Ni181  1  0.20987874  0.80859324  0.19472437  1
  Ni  Ni182  1  0.68860423  0.49961229  -0.00007848  1
  Ni  Ni183  1  0.39508144  0.25171180  0.90826317  1
  Ni  Ni184  1  0.11789565  0.08938593  0.16585684  1
  Ni  Ni185  1  0.71265847  0.23707694  0.88292395  1
  Ni  Ni186  1  0.00242264  0.91076917  0.89700955  1
  Ni  Ni187  1  1.02371491  0.48887882  0.64917547  1
  Ni  Ni188  1  0.49572857  0.87458459  0.54291285  1
  Ni  Ni189  1  0.47659137  0.79700485  0.83515328  1
  Ni  Ni190  1  0.72522322  0.56141992  0.54418972  1
  Ni  Ni191  1  0.74529868  0.32061404  0.18541092  1
  Ni  Ni192  1  0.48143928  0.60076761  0.06913537  1
  Ni  Ni193  1  0.66519753  0.08403747  0.56259531  1
  Ni  Ni194  1  0.47155200  0.09294654  0.75729939  1
  Ni  Ni195  1  0.02878531  0.62307734  0.25812662  1
  Ni  Ni196  1  0.94379732  0.80997746  0.29495975  1
  Ni  Ni197  1  0.37117227  0.51424320  0.79807164  1
  Ni  Ni198  1  0.11566215  0.80755423  0.32073355  1
  Ni  Ni199  1  0.03852864  0.24167820  0.76518741  1
  Ni  Ni200  1  0.27196291  0.03732597  0.54327274  1
  Ni  Ni201  1  0.48564369  0.16465717  0.18105127  1
  Ni  Ni202  1  0.94975081  0.77142814  0.45664261  1
  Ni  Ni203  1  0.72701275  0.61818719  0.19140653  1
  Ni  Ni204  1  0.88120291  0.22448423  0.82227447  1
  Ni  Ni205  1  0.90797067  0.77774026  0.61303952  1
  Ni  Ni206  1  0.24613879  0.46496538  0.92128278  1
  Ni  Ni207  1  0.36105906  0.99700312  0.29332763  1
  Ni  Ni208  1  0.11027902  0.35272313  0.04623783  1
  Ni  Ni209  1  0.09595021  0.07545070  0.43517297  1
  Ni  Ni210  1  0.23144622  0.25779365  0.14123503  1
  Ni  Ni211  1  0.28415445  0.55202186  0.06324652  1
  Ni  Ni212  1  0.59907996  0.18384842  0.45246173  1
  Ni  Ni213  1  0.54084141  0.35353472  0.92638660  1
  Ni  Ni214  1  0.33320264  0.28308952  0.36889820  1
  Ni  Ni215  1  0.40944597  0.15082803  0.46589728  1
