# generated using pymatgen
data_Ti2CoNi
_symmetry_space_group_name_H-M   'P 1'
_cell_length_a   14.65250808
_cell_length_b   14.66144815
_cell_length_c   14.67798616
_cell_angle_alpha   89.97286009
_cell_angle_beta   89.95620292
_cell_angle_gamma   90.11308333
_symmetry_Int_Tables_number   1
_chemical_formula_structural   Ti2CoNi
_chemical_formula_sum   'Ti108 Co54 Ni54'
_cell_volume   3153.22012922
_cell_formula_units_Z   54
loop_
 _symmetry_equiv_pos_site_id
 _symmetry_equiv_pos_as_xyz
  1  'x, y, z'
loop_
 _atom_site_type_symbol
 _atom_site_label
 _atom_site_symmetry_multiplicity
 _atom_site_fract_x
 _atom_site_fract_y
 _atom_site_fract_z
 _atom_site_occupancy
  Ti  Ti0  1  0.01231786  -0.03875359  -0.01507333  1
  Ti  Ti1  1  0.02705020  -0.04326968  0.30952137  1
  Ti  Ti2  1  -0.01507075  -0.03523397  0.68261590  1
  Ti  Ti3  1  0.02257678  0.36995659  -0.07362447  1
  Ti  Ti4  1  -0.01848712  0.30822124  0.26644761  1
  Ti  Ti5  1  -0.03023879  0.31347846  0.63209000  1
  Ti  Ti6  1  0.02668444  0.69608305  -0.00670044  1
  Ti  Ti7  1  0.01093292  0.76257394  0.30777101  1
  Ti  Ti8  1  -0.00613066  0.74900035  0.65250755  1
  Ti  Ti9  1  0.32144837  -0.01032856  -0.04611861  1
  Ti  Ti10  1  0.30510101  0.10821620  0.30263350  1
  Ti  Ti11  1  0.31450899  -0.05190237  0.64757104  1
  Ti  Ti12  1  0.32973100  0.31830555  -0.00084911  1
  Ti  Ti13  1  0.37393521  0.33500446  0.32773102  1
  Ti  Ti14  1  0.37032941  0.36561626  0.60648339  1
  Ti  Ti15  1  0.29112792  0.64419035  0.03486018  1
  Ti  Ti16  1  0.40042549  0.66674765  0.35066657  1
  Ti  Ti17  1  0.35234460  0.64483174  0.70193672  1
  Ti  Ti18  1  0.61809192  -0.02436956  -0.02376493  1
  Ti  Ti19  1  0.69597694  -0.03228145  0.36864502  1
  Ti  Ti20  1  0.65728868  0.00803250  0.61784061  1
  Ti  Ti21  1  0.68181948  0.31059252  -0.07858203  1
  Ti  Ti22  1  0.70369828  0.29191520  0.34480539  1
  Ti  Ti23  1  0.69106637  0.38149394  0.70867032  1
  Ti  Ti24  1  0.66511517  0.61063745  0.05904872  1
  Ti  Ti25  1  0.60690178  0.67020860  0.30392706  1
  Ti  Ti26  1  0.65103608  0.69938468  0.68686207  1
  Ti  Ti27  1  -0.08669363  0.16026824  0.15582379  1
  Ti  Ti28  1  -0.02000597  0.19614627  0.45835471  1
  Ti  Ti29  1  0.02030739  0.16406782  0.90183927  1
  Ti  Ti30  1  0.01131537  0.54196234  0.13491156  1
  Ti  Ti31  1  -0.02592889  0.56910199  0.56949460  1
  Ti  Ti32  1  -0.03056894  0.49120194  0.78364283  1
  Ti  Ti33  1  -0.01096945  0.82803033  0.12056823  1
  Ti  Ti34  1  0.00846655  0.86124613  0.49662710  1
  Ti  Ti35  1  0.06281347  0.83039828  0.84052898  1
  Ti  Ti36  1  0.37559539  0.13269358  0.08803564  1
  Ti  Ti37  1  0.27815858  0.21437243  0.47574805  1
  Ti  Ti38  1  0.35121419  0.19724853  0.84125489  1
  Ti  Ti39  1  0.35915725  0.46329491  0.15202812  1
  Ti  Ti40  1  0.30705019  0.47184122  0.46831626  1
  Ti  Ti41  1  0.31487847  0.49184970  0.88094008  1
  Ti  Ti42  1  0.36261640  0.79646240  0.17339858  1
  Ti  Ti43  1  0.30000563  0.78038350  0.50726650  1
  Ti  Ti44  1  0.33614525  0.81637224  0.82174408  1
  Ti  Ti45  1  0.72038479  0.17758914  0.17819503  1
  Ti  Ti46  1  0.64719749  0.14488989  0.45660211  1
  Ti  Ti47  1  0.60288384  0.12066973  0.86937376  1
  Ti  Ti48  1  0.68855953  0.47062641  0.22783473  1
  Ti  Ti49  1  0.64458462  0.41236197  0.52066464  1
  Ti  Ti50  1  0.66883519  0.50222128  0.89569264  1
  Ti  Ti51  1  0.65136426  0.80117074  0.05672826  1
  Ti  Ti52  1  0.75536616  0.87867896  0.51159022  1
  Ti  Ti53  1  0.61799242  0.84378233  0.82496763  1
  Ti  Ti54  1  0.19788959  0.05731806  0.09895490  1
  Ti  Ti55  1  0.21235754  -0.02788098  0.46524668  1
  Ti  Ti56  1  0.21982299  0.05650513  0.77918239  1
  Ti  Ti57  1  0.19385721  0.36963801  0.20143023  1
  Ti  Ti58  1  0.05093325  0.36724973  0.46009542  1
  Ti  Ti59  1  0.23037495  0.36557291  0.74573869  1
  Ti  Ti60  1  0.19505858  0.67948419  0.28664361  1
  Ti  Ti61  1  0.11120052  0.70070455  0.49046106  1
  Ti  Ti62  1  0.15407393  0.60943637  0.86127865  1
  Ti  Ti63  1  0.60016171  -0.02657413  0.18211747  1
  Ti  Ti64  1  0.54106734  -0.05449503  0.48450797  1
  Ti  Ti65  1  0.42766585  -0.00068752  0.80182077  1
  Ti  Ti66  1  0.56032473  0.33258540  0.20624161  1
  Ti  Ti67  1  0.50061015  0.28016185  0.48574213  1
  Ti  Ti68  1  0.50761945  0.37905122  0.83519581  1
  Ti  Ti69  1  0.49381661  0.66172732  0.14171692  1
  Ti  Ti70  1  0.53650007  0.62671305  0.50091716  1
  Ti  Ti71  1  0.51379163  0.58043187  0.82463688  1
  Ti  Ti72  1  0.80786927  0.00621680  0.23269550  1
  Ti  Ti73  1  0.91833274  0.01897731  0.47255431  1
  Ti  Ti74  1  0.87252197  0.03049254  0.84872499  1
  Ti  Ti75  1  0.87643446  0.38095915  0.10076521  1
  Ti  Ti76  1  0.80311018  0.26618430  0.52903449  1
  Ti  Ti77  1  0.86354112  0.30030287  0.80016416  1
  Ti  Ti78  1  0.82369726  0.72161204  0.13567977  1
  Ti  Ti79  1  0.80705733  0.58517849  0.46061989  1
  Ti  Ti80  1  0.93378808  0.68934187  0.81995793  1
  Ti  Ti81  1  0.15766073  0.24385674  0.03282733  1
  Ti  Ti82  1  0.14160332  0.22654528  0.33383188  1
  Ti  Ti83  1  0.09321931  0.16392980  0.68327843  1
  Ti  Ti84  1  0.17558214  0.47064551  0.02484177  1
  Ti  Ti85  1  0.12211848  0.53175389  0.40598442  1
  Ti  Ti86  1  0.11956272  0.47240686  0.62788560  1
  Ti  Ti87  1  0.18414321  0.82033778  0.07147065  1
  Ti  Ti88  1  0.23550228  0.92969700  0.25751044  1
  Ti  Ti89  1  0.15238904  0.85514976  0.62771928  1
  Ti  Ti90  1  0.56782767  0.17531008  0.06341455  1
  Ti  Ti91  1  0.48158411  0.07776127  0.35478441  1
  Ti  Ti92  1  0.51539919  0.15903047  0.69337951  1
  Ti  Ti93  1  0.46091688  0.51734667  -0.00214006  1
  Ti  Ti94  1  0.47769048  0.50402279  0.31032696  1
  Ti  Ti95  1  0.53597410  0.50301658  0.65323992  1
  Ti  Ti96  1  0.49850148  0.73278991  -0.04308283  1
  Ti  Ti97  1  0.46718302  0.85784246  0.32850738  1
  Ti  Ti98  1  0.48915661  0.84847635  0.65505884  1
  Ti  Ti99  1  0.81251873  0.20399318  -0.00852524  1
  Ti  Ti100  1  0.82703422  0.15429447  0.34930265  1
  Ti  Ti101  1  0.77053538  0.15230738  0.68645425  1
  Ti  Ti102  1  0.86264914  0.55145593  -0.03591937  1
  Ti  Ti103  1  0.88233463  0.48049172  0.27796903  1
  Ti  Ti104  1  0.82161696  0.49458097  0.65547061  1
  Ti  Ti105  1  0.81259232  0.92047399  0.06723428  1
  Ti  Ti106  1  0.78350619  0.75816923  0.34577836  1
  Ti  Ti107  1  0.81155337  0.83834426  0.67868891  1
  Co  Co108  1  0.79454996  0.70529124  -0.02793898  1
  Co  Co109  1  0.35738866  0.10258830  0.69819677  1
  Co  Co110  1  0.65108364  0.55057511  0.39978944  1
  Co  Co111  1  0.08312191  0.21664194  0.17471083  1
  Co  Co112  1  0.20736006  0.66907696  0.61448933  1
  Co  Co113  1  0.90114892  0.87451310  0.80945965  1
  Co  Co114  1  0.14224805  0.83069325  0.39660978  1
  Co  Co115  1  0.81666680  0.30881852  0.23242192  1
  Co  Co116  1  0.56228337  0.79577782  0.21199224  1
  Co  Co117  1  0.04448872  0.10341249  0.05946004  1
  Co  Co118  1  0.45703321  0.09667626  0.94155927  1
  Co  Co119  1  0.20572452  0.89567211  0.78206957  1
  Co  Co120  1  0.71368290  0.85108490  0.21686751  1
  Co  Co121  1  0.95163214  0.99589651  0.15576336  1
  Co  Co122  1  0.05650607  0.38535805  0.10984455  1
  Co  Co123  1  1.06790733  0.44099948  0.27788507  1
  Co  Co124  1  0.80046332  0.44943014  0.81231224  1
  Co  Co125  1  0.64805824  0.67658803  0.89251840  1
  Co  Co126  1  0.20367021  0.75776653  0.91610805  1
  Co  Co127  1  0.52223785  0.10485687  0.54166290  1
  Co  Co128  1  0.47715964  0.77400132  0.47530220  1
  Co  Co129  1  0.02867137  0.59989229  0.28916251  1
  Co  Co130  1  0.72177441  0.06593887  0.06569996  1
  Co  Co131  1  0.12279027  0.20637815  0.53007729  1
  Co  Co132  1  0.91502696  0.81256873  0.96323797  1
  Co  Co133  1  0.39601819  0.20162975  0.58423645  1
  Co  Co134  1  0.88672840  0.06573264  1.01861547  1
  Co  Co135  1  0.79957522  0.60662982  0.82336995  1
  Co  Co136  1  0.68537883  0.56601194  0.57583741  1
  Co  Co137  1  0.36577159  0.06856039  0.49075122  1
  Co  Co138  1  -0.04037158  0.49354797  0.40782001  1
  Co  Co139  1  0.77093970  0.75846144  0.80792622  1
  Co  Co140  1  0.17098584  0.73730033  0.75221110  1
  Co  Co141  1  0.69222546  0.70060543  0.48002567  1
  Co  Co142  1  0.47064853  0.44637877  0.47520154  1
  Co  Co143  1  0.23238778  0.08515959  0.59458479  1
  Co  Co144  1  0.10167434  0.94104381  0.15475906  1
  Co  Co145  1  0.58538149  0.39993493  0.36511656  1
  Co  Co146  1  0.22893282  0.54463100  0.72831398  1
  Co  Co147  1  0.87948181  0.32052851  0.39077315  1
  Co  Co148  1  0.48663325  0.85132042  0.08484690  1
  Co  Co149  1  0.41415351  0.99116467  0.22475759  1
  Co  Co150  1  0.84372819  0.37345556  0.94398771  1
  Co  Co151  1  0.76164680  0.16215007  0.84534599  1
  Co  Co152  1  0.62407844  0.81828868  0.38398671  1
  Co  Co153  1  0.39234980  0.90883206  0.51731346  1
  Co  Co154  1  0.67740029  0.54912206  0.73985554  1
  Co  Co155  1  0.39741641  0.54962310  0.58187872  1
  Co  Co156  1  0.83088182  0.99646483  0.64993124  1
  Co  Co157  1  0.35139392  0.96185285  0.37323749  1
  Co  Co158  1  0.61611699  0.81204014  0.56431324  1
  Co  Co159  1  0.32206981  0.94060451  0.10422503  1
  Co  Co160  1  0.48005853  0.00890867  0.07268377  1
  Co  Co161  1  0.25540729  0.22639306  0.67054349  1
  Ni  Ni162  1  0.75871954  0.87407244  0.91859331  1
  Ni  Ni163  1  0.76461178  0.43178245  0.40388628  1
  Ni  Ni164  1  0.29574890  0.79985436  0.34175133  1
  Ni  Ni165  1  0.73090253  -0.01791071  0.78956249  1
  Ni  Ni166  1  0.42634180  0.21840245  0.21715607  1
  Ni  Ni167  1  0.25329808  0.21384808  0.18382271  1
  Ni  Ni168  1  0.19857197  0.55471666  0.16341021  1
  Ni  Ni169  1  0.34457063  0.80672909  -0.00513253  1
  Ni  Ni170  1  0.64360764  0.23974314  0.59668944  1
  Ni  Ni171  1  0.87751329  0.85651911  0.23445036  1
  Ni  Ni172  1  0.17271298  0.09612933  0.93826240  1
  Ni  Ni173  1  0.83187219  0.66068578  0.66299481  1
  Ni  Ni174  1  0.53971606  0.49727148  0.14527845  1
  Ni  Ni175  1  0.07086472  0.61221509  0.71104060  1
  Ni  Ni176  1  0.88678759  0.41566011  0.52652664  1
  Ni  Ni177  1  0.73350092  0.45903716  0.04371019  1
  Ni  Ni178  1  0.34546303  0.62364503  0.20027624  1
  Ni  Ni179  1  0.05996775  0.33269623  0.76716909  1
  Ni  Ni180  1  0.02922894  0.53355635  0.95119396  1
  Ni  Ni181  1  0.49199800  0.73543238  0.77932065  1
  Ni  Ni182  1  0.57527310  0.99003574  0.75464847  1
  Ni  Ni183  1  0.63557847  0.24869514  0.77001758  1
  Ni  Ni184  1  0.48738853  0.25863412  0.94381678  1
  Ni  Ni185  1  0.45404319  0.33524402  0.09176179  1
  Ni  Ni186  1  0.13773165  0.07601722  0.25114481  1
  Ni  Ni187  1  0.57895173  0.40088513  1.01434813  1
  Ni  Ni188  1  0.08542634  0.69245476  0.15739202  1
  Ni  Ni189  1  0.26225589  0.62878314  0.44408264  1
  Ni  Ni190  1  0.20311855  0.34917568  0.55638048  1
  Ni  Ni191  1  0.10083880  0.08134663  0.41156905  1
  Ni  Ni192  1  0.53955707  0.23374411  0.33511001  1
  Ni  Ni193  1  0.78319872  0.08935131  0.52275299  1
  Ni  Ni194  1  0.83315641  0.55508250  0.13271451  1
  Ni  Ni195  1  0.98442450  0.11900709  0.29856666  1
  Ni  Ni196  1  0.47284562  0.90201276  0.92955887  1
  Ni  Ni197  1  0.52626515  0.33316553  0.66749306  1
  Ni  Ni198  1  0.69671050  0.31598259  0.10401079  1
  Ni  Ni199  1  0.38838770  0.46523429  0.73821226  1
  Ni  Ni200  1  0.06120063  0.01253905  0.82410057  1
  Ni  Ni201  1  0.98021501  0.25615827  0.03934209  1
  Ni  Ni202  1  0.36291371  0.65721623  0.88425963  1
  Ni  Ni203  1  0.28031328  0.51064490  0.30300227  1
  Ni  Ni204  1  0.92528340  0.13309532  0.60115271  1
  Ni  Ni205  1  0.20343838  0.37519012  0.37699254  1
  Ni  Ni206  1  0.64299669  0.10557412  0.29520208  1
  Ni  Ni207  1  0.88068221  0.87894718  0.39400889  1
  Ni  Ni208  1  0.95945184  0.66087901  0.42652286  1
  Ni  Ni209  1  0.76638846  0.61036887  0.27183734  1
  Ni  Ni210  1  0.17416156  0.21932550  0.82784408  1
  Ni  Ni211  1  0.86171055  0.74726931  0.52328825  1
  Ni  Ni212  1  0.16913682  0.92802139  0.93733833  1
  Ni  Ni213  1  0.93856432  0.16040086  0.75768143  1
  Ni  Ni214  1  0.07785908  1.03275528  0.56489098  1
  Ni  Ni215  1  0.19862036  0.35828131  0.90577007  1
