# generated using pymatgen
data_Ti2CoNi
_symmetry_space_group_name_H-M   'P 1'
_cell_length_a   14.50639825
_cell_length_b   14.48771263
_cell_length_c   14.47296705
_cell_angle_alpha   90.05620921
_cell_angle_beta   89.81186757
_cell_angle_gamma   89.83355105
_symmetry_Int_Tables_number   1
_chemical_formula_structural   Ti2CoNi
_chemical_formula_sum   'Ti108 Co54 Ni54'
_cell_volume   3041.67358032
_cell_formula_units_Z   54
loop_
 _symmetry_equiv_pos_site_id
 _symmetry_equiv_pos_as_xyz
  1  'x, y, z'
loop_
 _atom_site_type_symbol
 _atom_site_label
 _atom_site_symmetry_multiplicity
 _atom_site_fract_x
 _atom_site_fract_y
 _atom_site_fract_z
 _atom_site_occupancy
  Ti  Ti0  1  -0.04335801  -0.07037035  -0.05037328  1
  Ti  Ti1  1  0.08427008  -0.03694335  0.33752485  1
  Ti  Ti2  1  0.00512691  0.01265150  0.63813388  1
  Ti  Ti3  1  0.00280688  0.35670867  -0.02281857  1
  Ti  Ti4  1  0.00743944  0.30391729  0.26975805  1
  Ti  Ti5  1  -0.07326341  0.32449417  0.68784462  1
  Ti  Ti6  1  -0.01651077  0.63211544  -0.00711189  1
  Ti  Ti7  1  0.02694088  0.57658904  0.26431502  1
  Ti  Ti8  1  0.08207062  0.67429246  0.64095438  1
  Ti  Ti9  1  0.38896389  0.00451690  -0.01812948  1
  Ti  Ti10  1  0.26138855  0.02439975  0.28799731  1
  Ti  Ti11  1  0.35844104  0.00718733  0.62609218  1
  Ti  Ti12  1  0.34066498  0.32830827  0.06414084  1
  Ti  Ti13  1  0.34208922  0.33324373  0.27614281  1
  Ti  Ti14  1  0.39250292  0.35259353  0.66275788  1
  Ti  Ti15  1  0.33943923  0.68598622  -0.02623457  1
  Ti  Ti16  1  0.32233993  0.73314423  0.43884566  1
  Ti  Ti17  1  0.26737691  0.70872337  0.65516693  1
  Ti  Ti18  1  0.60658890  0.02414033  -0.05471331  1
  Ti  Ti19  1  0.68956367  0.01550245  0.40204577  1
  Ti  Ti20  1  0.66242430  0.02522361  0.66473086  1
  Ti  Ti21  1  0.65711228  0.33111688  -0.01729364  1
  Ti  Ti22  1  0.65132809  0.34884695  0.31360540  1
  Ti  Ti23  1  0.64944472  0.37777694  0.76973263  1
  Ti  Ti24  1  0.67803836  0.66964563  -0.03371826  1
  Ti  Ti25  1  0.75158171  0.67134556  0.31558458  1
  Ti  Ti26  1  0.68095420  0.70041322  0.59576363  1
  Ti  Ti27  1  -0.07062729  0.13590904  0.16697389  1
  Ti  Ti28  1  -0.00206996  0.19829819  0.57336719  1
  Ti  Ti29  1  -0.03839306  0.22013254  0.85737576  1
  Ti  Ti30  1  0.07190468  0.47034348  0.11373962  1
  Ti  Ti31  1  -0.01100523  0.55109379  0.50478502  1
  Ti  Ti32  1  -0.03698926  0.53937193  0.83387770  1
  Ti  Ti33  1  -0.02269803  0.82601728  0.17846916  1
  Ti  Ti34  1  -0.02394057  0.74842580  0.48719367  1
  Ti  Ti35  1  0.03138768  0.74175454  0.83810916  1
  Ti  Ti36  1  0.34403654  0.14030708  0.11238904  1
  Ti  Ti37  1  0.36503125  0.20187389  0.40806829  1
  Ti  Ti38  1  0.36201218  0.17068906  0.72605678  1
  Ti  Ti39  1  0.35082988  0.55308703  0.22142714  1
  Ti  Ti40  1  0.24951121  0.44918173  0.53279802  1
  Ti  Ti41  1  0.36006099  0.53307451  0.74914548  1
  Ti  Ti42  1  0.28851283  0.83063504  0.21172417  1
  Ti  Ti43  1  0.45976375  0.87814192  0.49948420  1
  Ti  Ti44  1  0.27896388  0.85277423  0.83330192  1
  Ti  Ti45  1  0.71031878  0.18928191  0.17529202  1
  Ti  Ti46  1  0.70986337  0.33230075  0.52975836  1
  Ti  Ti47  1  0.61985548  0.17002403  0.82566255  1
  Ti  Ti48  1  0.56030196  0.53920224  0.28587183  1
  Ti  Ti49  1  0.56820359  0.49966682  0.46696779  1
  Ti  Ti50  1  0.72630641  0.54194980  0.74411279  1
  Ti  Ti51  1  0.67538779  0.92723596  0.24984508  1
  Ti  Ti52  1  0.66682701  0.82615685  0.41753494  1
  Ti  Ti53  1  0.72618981  0.85023475  0.86808152  1
  Ti  Ti54  1  0.13566306  0.08880421  0.12793841  1
  Ti  Ti55  1  0.17300210  -0.02702923  0.51811767  1
  Ti  Ti56  1  0.15882935  -0.01192868  0.76357681  1
  Ti  Ti57  1  0.16558463  0.27478450  0.19775954  1
  Ti  Ti58  1  0.12013908  0.34020261  0.51921010  1
  Ti  Ti59  1  0.18553826  0.30642747  0.90056762  1
  Ti  Ti60  1  0.12646371  0.72413925  0.12897852  1
  Ti  Ti61  1  0.18511961  0.62687929  0.49634418  1
  Ti  Ti62  1  0.18720906  0.60405499  0.84173798  1
  Ti  Ti63  1  0.44375261  0.01278027  0.20946970  1
  Ti  Ti64  1  0.51680112  0.07336848  0.52098136  1
  Ti  Ti65  1  0.47355314  -0.05362854  0.80423895  1
  Ti  Ti66  1  0.53474825  0.29078737  0.16020649  1
  Ti  Ti67  1  0.50567625  0.30543921  0.48562471  1
  Ti  Ti68  1  0.48470694  0.39318766  0.94792152  1
  Ti  Ti69  1  0.43230856  0.71597213  0.16049297  1
  Ti  Ti70  1  0.50252414  0.68323790  0.53059231  1
  Ti  Ti71  1  0.50281361  0.61757345  0.90739812  1
  Ti  Ti72  1  0.85939968  -0.01831948  0.13005659  1
  Ti  Ti73  1  0.86240414  -0.06353649  0.45378935  1
  Ti  Ti74  1  0.90237418  0.04654237  0.82433972  1
  Ti  Ti75  1  0.83569984  0.34781068  0.09787113  1
  Ti  Ti76  1  0.86789470  0.37354247  0.40829592  1
  Ti  Ti77  1  0.83101531  0.38103633  0.83342446  1
  Ti  Ti78  1  0.82550213  0.68334136  0.13721558  1
  Ti  Ti79  1  0.76155446  0.55608688  0.49441487  1
  Ti  Ti80  1  0.84551064  0.70151188  0.79882121  1
  Ti  Ti81  1  0.11185639  0.06849074  -0.07382576  1
  Ti  Ti82  1  0.16144481  0.15477064  0.40630987  1
  Ti  Ti83  1  0.18925524  0.12544423  0.63355564  1
  Ti  Ti84  1  0.26166830  0.52232300  0.02933841  1
  Ti  Ti85  1  0.16772934  0.43128961  0.32240477  1
  Ti  Ti86  1  0.19610125  0.41472831  0.76429998  1
  Ti  Ti87  1  0.23320982  0.87112051  0.01521402  1
  Ti  Ti88  1  0.12002468  0.72840610  0.33071824  1
  Ti  Ti89  1  0.09263391  0.85461916  0.63282121  1
  Ti  Ti90  1  0.35969921  0.21244960  -0.08290406  1
  Ti  Ti91  1  0.56017265  0.17386109  0.35555942  1
  Ti  Ti92  1  0.56427015  0.25116403  0.64434645  1
  Ti  Ti93  1  0.56441904  0.49898744  0.10117039  1
  Ti  Ti94  1  0.40243027  0.51167108  0.45343990  1
  Ti  Ti95  1  0.54581281  0.58914766  0.69733773  1
  Ti  Ti96  1  0.53812902  0.82677377  0.00404521  1
  Ti  Ti97  1  0.50718154  0.84571221  0.24873872  1
  Ti  Ti98  1  0.45144427  0.77292709  0.71846386  1
  Ti  Ti99  1  0.77013739  0.13635593  -0.01662748  1
  Ti  Ti100  1  0.87468684  0.14449406  0.38860596  1
  Ti  Ti101  1  0.81494129  0.15007953  0.66938998  1
  Ti  Ti102  1  0.74823884  0.51685876  0.04441353  1
  Ti  Ti103  1  0.78070941  0.48358501  0.23278422  1
  Ti  Ti104  1  0.86684289  0.50248165  0.64754397  1
  Ti  Ti105  1  0.72873615  0.85845210  0.06357088  1
  Ti  Ti106  1  0.83746973  0.85141334  0.29033258  1
  Ti  Ti107  1  0.90264156  0.82915895  0.64576030  1
  Co  Co108  1  0.15974725  0.34607359  0.06674870  1
  Co  Co109  1  0.26276073  0.69274432  0.28485158  1
  Co  Co110  1  0.44120325  0.63140085  0.34479036  1
  Co  Co111  1  0.96889318  0.39020400  0.54682906  1
  Co  Co112  1  0.55266996  0.65830561  0.08518580  1
  Co  Co113  1  0.01274571  0.91670309  0.49932693  1
  Co  Co114  1  0.04754330  0.78635605  0.01131967  1
  Co  Co115  1  0.18941928  0.56873981  0.22136054  1
  Co  Co116  1  0.05727229  -0.04741006  0.06973610  1
  Co  Co117  1  0.65504461  0.68208479  0.78289218  1
  Co  Co118  1  0.35499727  0.34679575  0.48104068  1
  Co  Co119  1  0.24736078  0.25923841  0.58759028  1
  Co  Co120  1  0.47403628  0.10381616  0.87139603  1
  Co  Co121  1  0.33394818  0.36725044  0.83027336  1
  Co  Co122  1  0.98329310  0.83101438  0.35659011  1
  Co  Co123  1  0.22728281  0.16748139  0.00021114  1
  Co  Co124  1  0.50247181  0.93726777  0.64452351  1
  Co  Co125  1  0.61564088  0.87934070  0.74206688  1
  Co  Co126  1  0.50219014  0.10307713  0.70450151  1
  Co  Co127  1  0.93605589  -0.00055062  0.31213186  1
  Co  Co128  1  0.76948253  0.36304771  0.68340790  1
  Co  Co129  1  0.13621437  0.80572662  0.48540125  1
  Co  Co130  1  0.60283990  0.06833615  0.23059685  1
  Co  Co131  1  0.95265268  0.62567557  0.69455713  1
  Co  Co132  1  0.70748884  0.48397607  0.37588890  1
  Co  Co133  1  0.59453753  0.70473836  0.28229831  1
  Co  Co134  1  0.77742241  1.07767388  0.26525491  1
  Co  Co135  1  0.27364543  0.66728320  0.12707735  1
  Co  Co136  1  0.39850318  0.82951702  0.93734419  1
  Co  Co137  1  0.01595000  0.45161694  0.38798049  1
  Co  Co138  1  0.10051994  0.28744743  0.69417747  1
  Co  Co139  1  0.67877571  0.48845607  0.60210627  1
  Co  Co140  1  0.68191455  0.60606549  0.16593366  1
  Co  Co141  1  0.92949388  0.56071299  0.12815523  1
  Co  Co142  1  0.70663435  0.03498579  0.09342001  1
  Co  Co143  1  1.00182827  0.26940724  0.43191325  1
  Co  Co144  1  0.18070553  0.73231712  0.92739707  1
  Co  Co145  1  0.59396731  0.83331721  0.57721928  1
  Co  Co146  1  0.11331055  0.89335259  0.90542038  1
  Co  Co147  1  0.91059915  0.06339792  0.54391447  1
  Co  Co148  1  0.94422603  0.07147912  1.01306644  1
  Co  Co149  1  0.74439100  0.88961869  0.56884925  1
  Co  Co150  1  0.37832300  0.51087806  0.90666316  1
  Co  Co151  1  0.22849325  0.23021766  0.77215095  1
  Co  Co152  1  0.40800682  0.57736369  1.06829593  1
  Co  Co153  1  0.28738152  0.86584989  0.52175038  1
  Co  Co154  1  0.23488104  0.29993931  0.38431323  1
  Co  Co155  1  0.84508718  0.26897534  0.54255937  1
  Co  Co156  1  0.28070470  0.19330330  0.26415352  1
  Co  Co157  1  0.62751451  0.77100482  0.14963450  1
  Co  Co158  1  0.03592292  0.07370180  0.44753638  1
  Co  Co159  1  0.15880797  0.78183556  0.77607899  1
  Co  Co160  1  0.77273238  0.21855556  0.81352240  1
  Co  Co161  1  0.50697967  0.77706799  0.39254066  1
  Ni  Ni162  1  0.40628951  0.05143178  0.37586612  1
  Ni  Ni163  1  0.93758998  0.43603770  0.23711843  1
  Ni  Ni164  1  0.84763692  0.68020869  0.59186991  1
  Ni  Ni165  1  0.79897332  0.28947234  0.94746471  1
  Ni  Ni166  1  0.62684149  0.65571914  0.43507881  1
  Ni  Ni167  1  0.86891442  0.55135731  0.36031306  1
  Ni  Ni168  1  0.43793628  0.42460437  0.17397718  1
  Ni  Ni169  1  0.88348642  0.82311298  0.03662892  1
  Ni  Ni170  1  0.48335548  0.27010703  0.80924684  1
  Ni  Ni171  1  0.34191528  0.60328519  0.58838670  1
  Ni  Ni172  1  0.21374525  0.86721222  0.36650459  1
  Ni  Ni173  1  0.54452294  0.77552151  0.84670161  1
  Ni  Ni174  1  0.40048326  0.19399024  0.57574908  1
  Ni  Ni175  1  0.72934251  0.21193760  0.36731361  1
  Ni  Ni176  1  0.02200505  0.38078253  0.81417186  1
  Ni  Ni177  1  0.44690793  0.19594771  0.24705352  1
  Ni  Ni178  1  0.75408196  0.80136474  0.70658179  1
  Ni  Ni179  1  0.90379845  0.69492601  0.30696636  1
  Ni  Ni180  1  0.63829874  0.51133867  0.91627898  1
  Ni  Ni181  1  0.06590153  0.20271964  1.03268829  1
  Ni  Ni182  1  0.82584474  0.70323719  0.95731050  1
  Ni  Ni183  1  0.52281673  0.22092297  -0.02079152  1
  Ni  Ni184  1  0.12191121  0.47772901  0.93455261  1
  Ni  Ni185  1  0.40365532  0.88331269  0.10529350  1
  Ni  Ni186  1  0.05702451  0.13072213  0.28726494  1
  Ni  Ni187  1  0.14358629  0.90214595  0.19080509  1
  Ni  Ni188  1  0.91832024  0.22286896  0.01676859  1
  Ni  Ni189  1  0.34894284  0.66971614  0.80696787  1
  Ni  Ni190  1  0.73184274  0.02051748  0.83206260  1
  Ni  Ni191  1  0.57601275  0.93776712  0.11322612  1
  Ni  Ni192  1  0.48846518  0.42889113  0.78267923  1
  Ni  Ni193  1  0.64358291  0.18065195  0.50558301  1
  Ni  Ni194  1  0.54295132  0.96370845  0.37338642  1
  Ni  Ni195  1  0.24803601  0.41823455  0.15949730  1
  Ni  Ni196  1  0.79629292  0.96689987  0.96304349  1
  Ni  Ni197  1  0.27016935  0.98927830  0.12255058  1
  Ni  Ni198  1  0.53159849  0.41589570  0.60741135  1
  Ni  Ni199  1  0.81180569  0.28667005  0.25857670  1
  Ni  Ni200  1  0.80476376  0.76295798  0.47189483  1
  Ni  Ni201  1  0.19460628  0.54666259  0.66595166  1
  Ni  Ni202  1  0.80018432  0.56633342  0.88582077  1
  Ni  Ni203  1  0.48302040  0.40041219  0.33847017  1
  Ni  Ni204  1  0.27277437  0.87112117  0.67770854  1
  Ni  Ni205  1  0.89686685  0.46833668  0.98072559  1
  Ni  Ni206  1  0.29674024  0.08445376  0.48599812  1
  Ni  Ni207  1  0.25591678  0.55265502  0.37750723  1
  Ni  Ni208  1  0.37205147  0.89358602  0.35375942  1
  Ni  Ni209  1  0.51738299  0.08952205  0.08468912  1
  Ni  Ni210  1  0.02857902  0.48282399  0.68444462  1
  Ni  Ni211  1  0.76128155  0.06681975  0.51893062  1
  Ni  Ni212  1  0.05498765  0.14288679  0.74540861  1
  Ni  Ni213  1  0.33681726  0.03230840  0.79362437  1
  Ni  Ni214  1  0.68460669  0.35848314  0.16182842  1
  Ni  Ni215  1  0.98703309  0.91104643  0.77879237  1
