# generated using pymatgen
data_Ti2CoNi
_symmetry_space_group_name_H-M   'P 1'
_cell_length_a   14.63480071
_cell_length_b   14.60499917
_cell_length_c   14.63191128
_cell_angle_alpha   89.79681968
_cell_angle_beta   89.81209388
_cell_angle_gamma   90.04635133
_symmetry_Int_Tables_number   1
_chemical_formula_structural   Ti2CoNi
_chemical_formula_sum   'Ti108 Co54 Ni54'
_cell_volume   3127.40550387
_cell_formula_units_Z   54
loop_
 _symmetry_equiv_pos_site_id
 _symmetry_equiv_pos_as_xyz
  1  'x, y, z'
loop_
 _atom_site_type_symbol
 _atom_site_label
 _atom_site_symmetry_multiplicity
 _atom_site_fract_x
 _atom_site_fract_y
 _atom_site_fract_z
 _atom_site_occupancy
  Ti  Ti0  1  0.02952780  -0.02373041  0.03254797  1
  Ti  Ti1  1  0.01711930  -0.03789698  0.31811542  1
  Ti  Ti2  1  -0.03264035  0.03906098  0.64380912  1
  Ti  Ti3  1  -0.02406345  0.35339032  -0.00480154  1
  Ti  Ti4  1  -0.03321188  0.28548950  0.32559298  1
  Ti  Ti5  1  -0.03737372  0.34237094  0.63025266  1
  Ti  Ti6  1  -0.03523339  0.69447241  0.04817166  1
  Ti  Ti7  1  -0.00661286  0.71152018  0.37016561  1
  Ti  Ti8  1  0.02561251  0.64075162  0.69049908  1
  Ti  Ti9  1  0.30580596  -0.00041279  0.04565844  1
  Ti  Ti10  1  0.35693702  0.05215133  0.35123872  1
  Ti  Ti11  1  0.39641559  -0.05156122  0.70448946  1
  Ti  Ti12  1  0.32313184  0.35019602  0.03967036  1
  Ti  Ti13  1  0.32924446  0.33221410  0.26762716  1
  Ti  Ti14  1  0.31770365  0.37175337  0.66000501  1
  Ti  Ti15  1  0.31234134  0.69014152  0.06873859  1
  Ti  Ti16  1  0.20043371  0.68912073  0.35310628  1
  Ti  Ti17  1  0.31917921  0.61367140  0.72083243  1
  Ti  Ti18  1  0.72558667  -0.01735212  -0.00132959  1
  Ti  Ti19  1  0.69674504  0.00850895  0.29902953  1
  Ti  Ti20  1  0.62191991  -0.07073270  0.62621890  1
  Ti  Ti21  1  0.76760096  0.30073192  -0.01752533  1
  Ti  Ti22  1  0.68616991  0.37513405  0.25676688  1
  Ti  Ti23  1  0.57613162  0.28993806  0.63819885  1
  Ti  Ti24  1  0.63734118  0.67465769  0.05143053  1
  Ti  Ti25  1  0.65476931  0.68209240  0.43059536  1
  Ti  Ti26  1  0.65092911  0.73068125  0.67259351  1
  Ti  Ti27  1  0.02584603  0.21420863  0.16582555  1
  Ti  Ti28  1  0.00790682  0.18141787  0.51414238  1
  Ti  Ti29  1  0.01115817  0.08089869  0.82955272  1
  Ti  Ti30  1  0.05025926  0.43180823  0.19098363  1
  Ti  Ti31  1  0.08240669  0.55307263  0.48125221  1
  Ti  Ti32  1  0.03080168  0.54829172  0.90339265  1
  Ti  Ti33  1  -0.05464248  0.87164966  0.16996964  1
  Ti  Ti34  1  -0.08375312  0.86370307  0.46304286  1
  Ti  Ti35  1  -0.07021502  0.75636418  0.83462605  1
  Ti  Ti36  1  0.38835473  0.15391221  0.18233890  1
  Ti  Ti37  1  0.26473478  0.19951914  0.52136134  1
  Ti  Ti38  1  0.33125575  0.24721792  0.86551621  1
  Ti  Ti39  1  0.39218784  0.50000596  0.16548446  1
  Ti  Ti40  1  0.37847768  0.45134108  0.46902906  1
  Ti  Ti41  1  0.32901789  0.45697814  0.85069896  1
  Ti  Ti42  1  0.36549932  0.87060618  0.20154259  1
  Ti  Ti43  1  0.31212808  0.79348583  0.48726576  1
  Ti  Ti44  1  0.23587718  0.84131810  0.78622477  1
  Ti  Ti45  1  0.69919407  0.18909601  0.18379934  1
  Ti  Ti46  1  0.70343474  0.20549156  0.50556332  1
  Ti  Ti47  1  0.68695204  0.20966342  0.77427383  1
  Ti  Ti48  1  0.70266200  0.56505569  0.20433275  1
  Ti  Ti49  1  0.65817146  0.45365574  0.57095743  1
  Ti  Ti50  1  0.62167101  0.41548747  0.79217644  1
  Ti  Ti51  1  0.62000510  0.84892805  0.15859159  1
  Ti  Ti52  1  0.69527594  0.87555520  0.43825473  1
  Ti  Ti53  1  0.65895568  0.88245324  0.83210225  1
  Ti  Ti54  1  0.15622512  -0.07021902  0.16874119  1
  Ti  Ti55  1  0.14855886  0.03086321  0.47325360  1
  Ti  Ti56  1  0.16437468  -0.01938042  0.90559794  1
  Ti  Ti57  1  0.20763606  0.23294651  0.15770157  1
  Ti  Ti58  1  0.10729958  0.34081719  0.46063953  1
  Ti  Ti59  1  0.12280553  0.31108885  0.78218300  1
  Ti  Ti60  1  0.10934393  0.64518933  0.16327609  1
  Ti  Ti61  1  0.12047409  0.74878539  0.55424458  1
  Ti  Ti62  1  0.16624106  0.65614055  0.81531663  1
  Ti  Ti63  1  0.48399331  0.00174930  0.13747654  1
  Ti  Ti64  1  0.52686633  -0.00511576  0.46565946  1
  Ti  Ti65  1  0.55865500  0.04309298  0.78183260  1
  Ti  Ti66  1  0.51488741  0.28930971  0.21059597  1
  Ti  Ti67  1  0.55020272  0.33882959  0.43025780  1
  Ti  Ti68  1  0.50977166  0.30455747  0.91643118  1
  Ti  Ti69  1  0.47412332  0.69590690  0.18338627  1
  Ti  Ti70  1  0.44245758  0.65860280  0.45008804  1
  Ti  Ti71  1  0.54173089  0.69332002  0.84611624  1
  Ti  Ti72  1  0.85162149  0.05327853  0.16472847  1
  Ti  Ti73  1  0.80899030  -0.04403771  0.59224797  1
  Ti  Ti74  1  0.78294386  0.02932932  0.77935209  1
  Ti  Ti75  1  0.84147697  0.39280942  0.14756005  1
  Ti  Ti76  1  0.89192896  0.42462446  0.47825489  1
  Ti  Ti77  1  0.88025215  0.32742037  0.80883967  1
  Ti  Ti78  1  0.90476750  0.56623266  0.21067905  1
  Ti  Ti79  1  0.89117121  0.63425283  0.52608248  1
  Ti  Ti80  1  0.74197688  0.69195224  0.84963405  1
  Ti  Ti81  1  0.14309713  0.20435830  -0.03563670  1
  Ti  Ti82  1  0.19619054  0.17575634  0.33654459  1
  Ti  Ti83  1  0.13919026  0.10870452  0.66496423  1
  Ti  Ti84  1  0.19275158  0.50154242  0.02289558  1
  Ti  Ti85  1  0.21052473  0.48247081  0.34006400  1
  Ti  Ti86  1  0.12045230  0.46243298  0.65779469  1
  Ti  Ti87  1  0.10245146  0.79855871  -0.06545401  1
  Ti  Ti88  1  0.23027876  0.89373679  0.34215903  1
  Ti  Ti89  1  0.21862292  0.91940317  0.61540938  1
  Ti  Ti90  1  0.57636673  0.14723652  0.03082802  1
  Ti  Ti91  1  0.53377878  0.12419889  0.31693073  1
  Ti  Ti92  1  0.41631144  0.18137356  0.66241761  1
  Ti  Ti93  1  0.49174527  0.51478788  -0.05609138  1
  Ti  Ti94  1  0.54270343  0.56772973  0.30957811  1
  Ti  Ti95  1  0.48951787  0.53208140  0.73141773  1
  Ti  Ti96  1  0.46156361  0.86922284  -0.09221526  1
  Ti  Ti97  1  0.53117768  0.79766470  0.34116927  1
  Ti  Ti98  1  0.45741874  0.73772915  0.64427046  1
  Ti  Ti99  1  0.93083045  0.14762006  0.00695521  1
  Ti  Ti100  1  0.86253946  0.10342968  0.36490840  1
  Ti  Ti101  1  0.84577414  0.19544560  0.65892368  1
  Ti  Ti102  1  0.77397930  0.53009600  0.01597400  1
  Ti  Ti103  1  0.74176066  0.52189476  0.39796867  1
  Ti  Ti104  1  0.80824356  0.50179658  0.69048256  1
  Ti  Ti105  1  0.79416289  0.78913734  0.02749642  1
  Ti  Ti106  1  0.80158884  0.80955677  0.28778644  1
  Ti  Ti107  1  0.92815408  0.80555213  0.64446580  1
  Co  Co108  1  0.49016568  0.40169401  0.06046140  1
  Co  Co109  1  -0.00391372  0.90794185  0.88273597  1
  Co  Co110  1  1.00641987  0.20478545  0.70542450  1
  Co  Co111  1  0.88411694  0.02592060  0.90777840  1
  Co  Co112  1  0.29901169  0.07035549  0.61337969  1
  Co  Co113  1  0.07333476  0.58106518  0.30461916  1
  Co  Co114  1  0.55281271  0.44614013  0.20169071  1
  Co  Co115  1  0.24736519  1.02422058  0.75960264  1
  Co  Co116  1  0.29857804  0.16824864  0.04159170  1
  Co  Co117  1  0.28975570  0.76742238  0.64690730  1
  Co  Co118  1  0.14284416  0.32667822  0.28953912  1
  Co  Co119  1  0.26845772  0.32431798  0.41656923  1
  Co  Co120  1  0.64408556  0.71113109  0.24995159  1
  Co  Co121  1  0.55205552  0.52071359  0.46680427  1
  Co  Co122  1  0.82962632  0.17286642  0.86948237  1
  Co  Co123  1  0.75203104  0.80050299  0.57143170  1
  Co  Co124  1  0.52928941  0.85470138  0.74248230  1
  Co  Co125  1  0.87636893  0.93386931  0.03375585  1
  Co  Co126  1  0.42556125  0.11461823  0.50540104  1
  Co  Co127  1  0.87126161  0.25655663  0.46337179  1
  Co  Co128  1  0.31522261  0.97819375  0.48777429  1
  Co  Co129  1  0.61803005  0.29602301  0.07901007  1
  Co  Co130  1  0.22927605  0.77306327  0.20079079  1
  Co  Co131  1  -0.00291757  0.44903766  0.77298732  1
  Co  Co132  1  0.75913912  0.14172886  0.03317633  1
  Co  Co133  1  0.08208816  0.81132604  0.27677762  1
  Co  Co134  1  0.80801378  0.64885577  0.31454361  1
  Co  Co135  1  0.64231799  0.56258167  0.91969997  1
  Co  Co136  1  0.39112863  0.62384613  0.86746774  1
  Co  Co137  1  0.33471543  0.94885390  0.87604220  1
  Co  Co138  1  0.77301010  0.90845272  0.16220474  1
  Co  Co139  1  0.53468935  0.56409525  0.09718553  1
  Co  Co140  1  0.08498854  0.79703634  0.10333101  1
  Co  Co141  1  0.85423708  0.42100555  0.30484361  1
  Co  Co142  1  0.44094073  0.24252286  1.05491285  1
  Co  Co143  1  0.78476948  0.33874650  0.57038964  1
  Co  Co144  1  0.06776195  0.79988913  0.74971314  1
  Co  Co145  1  0.97560944  1.01236108  0.47693770  1
  Co  Co146  1  0.64068180  0.39823609  0.94742768  1
  Co  Co147  1  0.66675141  0.44930697  0.09256185  1
  Co  Co148  1  0.81464208  0.73864634  0.44267980  1
  Co  Co149  1  0.52247363  0.20531499  0.78844644  1
  Co  Co150  1  0.77822429  0.83496989  0.73224647  1
  Co  Co151  1  0.02617227  0.43603173  0.35501659  1
  Co  Co152  1  0.38830959  0.77308171  0.78880691  1
  Co  Co153  1  1.01530837  0.05644244  0.18541666  1
  Co  Co154  1  0.84506613  0.10318144  0.52602547  1
  Co  Co155  1  0.09344446  -0.03982052  0.74918856  1
  Co  Co156  1  0.79391728  0.70011222  0.15626506  1
  Co  Co157  1  0.95266395  0.72118412  0.21332331  1
  Co  Co158  1  0.26979423  0.09999979  0.90469636  1
  Co  Co159  1  0.92447980  0.55548540  0.38152941  1
  Co  Co160  1  0.91335571  0.93229363  0.75136165  1
  Co  Co161  1  0.48784710  0.41933240  0.59736821  1
  Ni  Ni162  1  0.65610482  0.57893921  0.74896306  1
  Ni  Ni163  1  0.35515123  0.73959731  0.31243091  1
  Ni  Ni164  1  0.56432922  0.79468886  0.51425841  1
  Ni  Ni165  1  0.95044623  0.51004503  0.05252766  1
  Ni  Ni166  1  0.25939362  0.20717942  0.71858145  1
  Ni  Ni167  1  0.41252718  0.56773402  0.58626008  1
  Ni  Ni168  1  0.87752549  0.46212750  0.90244188  1
  Ni  Ni169  1  0.81978390  0.67860956  0.68382657  1
  Ni  Ni170  1  0.90475311  0.58623665  0.78914576  1
  Ni  Ni171  1  0.23491032  0.84260712  0.03695250  1
  Ni  Ni172  1  0.25797747  0.59783765  0.20508529  1
  Ni  Ni173  1  0.36457280  0.56788612  0.32616335  1
  Ni  Ni174  1  0.09853258  0.86280317  0.43703246  1
  Ni  Ni175  1  0.05620849  0.90883671  0.58935744  1
  Ni  Ni176  1  0.45320589  0.36115048  0.75987971  1
  Ni  Ni177  1  0.39784294  0.09269926  0.80489427  1
  Ni  Ni178  1  0.86091667  0.23335112  0.13509166  1
  Ni  Ni179  1  0.26276884  0.04989076  0.21119103  1
  Ni  Ni180  1  0.53533722  0.95450439  0.28889621  1
  Ni  Ni181  1  0.55821787  0.11011432  0.60716673  1
  Ni  Ni182  1  0.66309372  0.10755757  0.89691290  1
  Ni  Ni183  1  0.04039891  0.12381678  0.35411870  1
  Ni  Ni184  1  0.65223731  0.22641218  0.34419619  1
  Ni  Ni185  1  0.74626965  0.34926226  0.71414750  1
  Ni  Ni186  1  0.15509893  0.08261540  0.07879857  1
  Ni  Ni187  1  0.14142602  0.28295444  0.61664588  1
  Ni  Ni188  1  0.28091755  0.73924954  0.91335983  1
  Ni  Ni189  1  0.18619339  0.61623153  0.62576167  1
  Ni  Ni190  1  0.87135966  0.63140429  0.93778995  1
  Ni  Ni191  1  0.71061874  0.08913121  0.63764627  1
  Ni  Ni192  1  0.19994158  0.36546382  0.91871846  1
  Ni  Ni193  1  0.72607632  0.60804372  0.56275099  1
  Ni  Ni194  1  0.42990177  0.08731101  -0.03106237  1
  Ni  Ni195  1  -0.00237990  0.23727792  0.87341034  1
  Ni  Ni196  1  0.73390810  0.35419557  0.41758733  1
  Ni  Ni197  1  0.62309503  0.81758191  0.97631753  1
  Ni  Ni198  1  0.80857756  0.25520431  0.29693923  1
  Ni  Ni199  1  0.12497226  0.34467840  0.06395010  1
  Ni  Ni200  1  0.22467535  0.42566254  0.17111942  1
  Ni  Ni201  1  0.39739021  0.21644454  0.36959254  1
  Ni  Ni202  1  0.26834329  0.59870758  0.47765270  1
  Ni  Ni203  1  0.22213870  0.44105897  0.52887400  1
  Ni  Ni204  1  0.70198396  0.03813582  0.46909881  1
  Ni  Ni205  1  0.40337621  0.89173745  0.37839831  1
  Ni  Ni206  1  0.16876420  0.48688687  0.81161504  1
  Ni  Ni207  1  0.56342893  0.97706743  -0.01413566  1
  Ni  Ni208  1  0.43663400  0.88652803  0.55532201  1
  Ni  Ni209  1  0.95876737  0.50840255  0.61915486  1
  Ni  Ni210  1  0.45476666  0.42222230  0.32476010  1
  Ni  Ni211  1  0.47290413  0.83173591  0.07328341  1
  Ni  Ni212  1  0.65040407  0.03154532  0.14128173  1
  Ni  Ni213  1  0.82004890  0.87578802  0.88590621  1
  Ni  Ni214  1  0.41402818  0.28675059  0.52367497  1
  Ni  Ni215  1  0.14766517  0.65751481  0.99695310  1
