# generated using pymatgen
data_Ti2CoNi
_symmetry_space_group_name_H-M   'P 1'
_cell_length_a   14.60292764
_cell_length_b   14.55160331
_cell_length_c   14.54364601
_cell_angle_alpha   90.20911350
_cell_angle_beta   90.15082119
_cell_angle_gamma   89.64473317
_symmetry_Int_Tables_number   1
_chemical_formula_structural   Ti2CoNi
_chemical_formula_sum   'Ti108 Co54 Ni54'
_cell_volume   3090.37623391
_cell_formula_units_Z   54
loop_
 _symmetry_equiv_pos_site_id
 _symmetry_equiv_pos_as_xyz
  1  'x, y, z'
loop_
 _atom_site_type_symbol
 _atom_site_label
 _atom_site_symmetry_multiplicity
 _atom_site_fract_x
 _atom_site_fract_y
 _atom_site_fract_z
 _atom_site_occupancy
  Ti  Ti0  1  -0.04792738  -0.02614972  0.00440018  1
  Ti  Ti1  1  0.01365819  -0.02828503  0.35417755  1
  Ti  Ti2  1  -0.05206877  -0.09409163  0.65370354  1
  Ti  Ti3  1  -0.07391610  0.38845442  -0.03397149  1
  Ti  Ti4  1  -0.04706826  0.29814016  0.32485042  1
  Ti  Ti5  1  0.03509488  0.39918256  0.67066259  1
  Ti  Ti6  1  0.01223438  0.68499527  0.06159364  1
  Ti  Ti7  1  0.02950535  0.71735405  0.32971067  1
  Ti  Ti8  1  0.00019477  0.71395712  0.70764187  1
  Ti  Ti9  1  0.28801876  -0.04148180  -0.01810596  1
  Ti  Ti10  1  0.33204134  -0.00254138  0.29607959  1
  Ti  Ti11  1  0.19092587  0.04712125  0.64291011  1
  Ti  Ti12  1  0.39237270  0.38699645  0.01568265  1
  Ti  Ti13  1  0.39309680  0.23573141  0.34646712  1
  Ti  Ti14  1  0.28775114  0.31108658  0.60225011  1
  Ti  Ti15  1  0.29830412  0.65623661  -0.05497147  1
  Ti  Ti16  1  0.40045495  0.65699167  0.38133779  1
  Ti  Ti17  1  0.35180887  0.68074866  0.63677922  1
  Ti  Ti18  1  0.74155646  -0.03891516  0.02659988  1
  Ti  Ti19  1  0.67665328  -0.02362432  0.31842579  1
  Ti  Ti20  1  0.61116388  -0.03184687  0.65721980  1
  Ti  Ti21  1  0.73741124  0.33457100  0.01001992  1
  Ti  Ti22  1  0.61858491  0.23961825  0.29037771  1
  Ti  Ti23  1  0.65539540  0.38299935  0.69798966  1
  Ti  Ti24  1  0.68828214  0.64102384  0.06134949  1
  Ti  Ti25  1  0.57881421  0.60425576  0.30240166  1
  Ti  Ti26  1  0.70780679  0.62074963  0.61125124  1
  Ti  Ti27  1  0.01921125  0.11877326  0.21156348  1
  Ti  Ti28  1  -0.00403450  0.09604831  0.53796726  1
  Ti  Ti29  1  -0.03792208  0.11031866  0.84445856  1
  Ti  Ti30  1  0.07181585  0.53513962  0.19816961  1
  Ti  Ti31  1  -0.02596494  0.59086070  0.50537511  1
  Ti  Ti32  1  -0.00395885  0.52805050  0.82466930  1
  Ti  Ti33  1  -0.05095794  0.82645879  0.19320679  1
  Ti  Ti34  1  -0.02434040  0.77658755  0.51263050  1
  Ti  Ti35  1  -0.01958136  0.90580508  0.83347700  1
  Ti  Ti36  1  0.32948257  0.17709137  0.07514701  1
  Ti  Ti37  1  0.30009683  0.11991192  0.48195433  1
  Ti  Ti38  1  0.32683151  0.15278362  0.84455849  1
  Ti  Ti39  1  0.28373031  0.51535724  0.13806952  1
  Ti  Ti40  1  0.39283993  0.51413193  0.56352955  1
  Ti  Ti41  1  0.33631759  0.38981808  0.81818015  1
  Ti  Ti42  1  0.37616930  0.89007863  0.13971633  1
  Ti  Ti43  1  0.37637069  0.81006292  0.48132393  1
  Ti  Ti44  1  0.39435252  0.92322330  0.82427409  1
  Ti  Ti45  1  0.73158647  0.13962025  0.11155009  1
  Ti  Ti46  1  0.65422233  0.11642186  0.46417950  1
  Ti  Ti47  1  0.67163056  0.18963832  0.92065663  1
  Ti  Ti48  1  0.64291418  0.46300441  0.16647540  1
  Ti  Ti49  1  0.66447162  0.50330574  0.45491845  1
  Ti  Ti50  1  0.64692462  0.44216703  0.87842242  1
  Ti  Ti51  1  0.57434200  0.81919711  0.24038375  1
  Ti  Ti52  1  0.68572065  0.77442548  0.47294353  1
  Ti  Ti53  1  0.64813577  0.89991812  0.84831038  1
  Ti  Ti54  1  0.19773668  0.02293273  0.14437669  1
  Ti  Ti55  1  0.19085174  -0.04914086  0.46829974  1
  Ti  Ti56  1  0.14665836  0.14396162  0.84663492  1
  Ti  Ti57  1  0.19552931  0.34280389  0.12412649  1
  Ti  Ti58  1  0.10572849  0.46344943  0.51199488  1
  Ti  Ti59  1  0.16538472  0.33799250  0.81401353  1
  Ti  Ti60  1  0.20748135  0.65989091  0.26842199  1
  Ti  Ti61  1  0.17994343  0.66392870  0.51843880  1
  Ti  Ti62  1  0.18663012  0.68209994  0.75574424  1
  Ti  Ti63  1  0.48623417  0.01753148  0.08785475  1
  Ti  Ti64  1  0.48170471  0.06427008  0.55324579  1
  Ti  Ti65  1  0.51123398  0.07618208  0.80419510  1
  Ti  Ti66  1  0.47514418  0.32412781  0.17609972  1
  Ti  Ti67  1  0.53745647  0.38154922  0.54912253  1
  Ti  Ti68  1  0.51032709  0.31833336  0.84200555  1
  Ti  Ti69  1  0.40905166  0.71055414  0.12883504  1
  Ti  Ti70  1  0.52264373  0.67290783  0.53538278  1
  Ti  Ti71  1  0.51781938  0.66505327  0.86898223  1
  Ti  Ti72  1  0.85062269  -0.00835502  0.23272342  1
  Ti  Ti73  1  0.80119442  0.07320559  0.56934561  1
  Ti  Ti74  1  0.79806483  -0.01132083  0.75041606  1
  Ti  Ti75  1  0.79442691  0.34244690  0.20514534  1
  Ti  Ti76  1  0.73912204  0.30154067  0.42933647  1
  Ti  Ti77  1  0.88051557  0.35652709  0.76719375  1
  Ti  Ti78  1  0.84852760  0.57989172  0.17362509  1
  Ti  Ti79  1  0.81730435  0.65026568  0.42618902  1
  Ti  Ti80  1  0.81693096  0.62472498  0.77520312  1
  Ti  Ti81  1  0.08873200  0.24751492  -0.00145819  1
  Ti  Ti82  1  0.16096089  0.22130114  0.31712171  1
  Ti  Ti83  1  0.07221893  0.20171318  0.68567346  1
  Ti  Ti84  1  0.11105487  0.51097932  -0.00920702  1
  Ti  Ti85  1  0.20208429  0.42080072  0.32604017  1
  Ti  Ti86  1  0.23005607  0.48940125  0.66920072  1
  Ti  Ti87  1  0.10278025  0.83651649  -0.02183664  1
  Ti  Ti88  1  0.16429802  0.88213420  0.28000246  1
  Ti  Ti89  1  0.25479415  0.86424875  0.70597451  1
  Ti  Ti90  1  0.52800898  0.19006540  0.04991497  1
  Ti  Ti91  1  0.50326536  0.08202269  0.35767935  1
  Ti  Ti92  1  0.48797410  0.20955007  0.67159949  1
  Ti  Ti93  1  0.54149790  0.52864921  0.00604102  1
  Ti  Ti94  1  0.37273409  0.45971992  0.32105782  1
  Ti  Ti95  1  0.48551577  0.51221164  0.74881646  1
  Ti  Ti96  1  0.56954091  0.81638821  0.06159341  1
  Ti  Ti97  1  0.54579718  0.90636894  0.45159768  1
  Ti  Ti98  1  0.44575025  0.86464650  0.64863797  1
  Ti  Ti99  1  0.90994772  0.19588960  0.02202549  1
  Ti  Ti100  1  0.83498550  0.14273803  0.36549585  1
  Ti  Ti101  1  0.77737383  0.18201034  0.73807606  1
  Ti  Ti102  1  0.86859659  0.59521072  -0.04133515  1
  Ti  Ti103  1  0.84266253  0.45860127  0.36270998  1
  Ti  Ti104  1  0.83055789  0.33771093  0.58427500  1
  Ti  Ti105  1  0.79741948  0.76712501  -0.07298236  1
  Ti  Ti106  1  0.84756859  0.84442938  0.36759892  1
  Ti  Ti107  1  0.73758003  0.81585652  0.67268685  1
  Co  Co108  1  0.11882254  0.83377523  0.80107592  1
  Co  Co109  1  0.75567193  0.86101320  0.20557371  1
  Co  Co110  1  0.88147752  0.06316454  0.10553839  1
  Co  Co111  1  0.10559575  0.99408547  0.91809384  1
  Co  Co112  1  0.24337570  0.28547580  0.44598026  1
  Co  Co113  1  0.45523513  0.48626684  0.14537254  1
  Co  Co114  1  0.92750074  0.42988545  0.19416210  1
  Co  Co115  1  0.69786011  0.60030065  0.90426486  1
  Co  Co116  1  0.59167537  0.80427613  0.61020470  1
  Co  Co117  1  0.25664242  0.81647314  0.88250637  1
  Co  Co118  1  0.28160653  0.78645730  0.21168589  1
  Co  Co119  1  0.73803599  0.57383947  0.29505411  1
  Co  Co120  1  0.10629948  0.81748070  0.44084310  1
  Co  Co121  1  0.56709611  0.53365538  0.60608355  1
  Co  Co122  1  0.49832799  0.96435981  0.24768501  1
  Co  Co123  1  0.85701413  0.71314438  0.26921518  1
  Co  Co124  1  0.67485788  0.40585623  0.32176691  1
  Co  Co125  1  0.85599609  0.80873869  0.76943634  1
  Co  Co126  1  0.80410935  0.46239210  0.86810686  1
  Co  Co127  1  0.80957551  -0.00062566  0.41575200  1
  Co  Co128  1  0.64134577  0.11464340  0.64799504  1
  Co  Co129  1  0.62213236  0.22994004  0.76615833  1
  Co  Co130  1  0.68863812  0.94424466  0.51046812  1
  Co  Co131  1  0.94619478  0.40133920  0.47803909  1
  Co  Co132  1  0.14743597  0.15539231  0.50867950  1
  Co  Co133  1  0.63215582  0.75584783  0.93443902  1
  Co  Co134  1  0.38287880  0.60231601  0.23688685  1
  Co  Co135  1  0.52247933  0.68128873  0.70064019  1
  Co  Co136  1  0.67113730  0.72113159  0.78206897  1
  Co  Co137  1  0.82889030  0.92064267  0.89318378  1
  Co  Co138  1  1.02369138  0.14927020  0.38513083  1
  Co  Co139  1  0.04077339  0.28626172  0.55060959  1
  Co  Co140  1  0.23639840  0.80857633  0.55480208  1
  Co  Co141  1  0.94027886  0.57732973  0.31569062  1
  Co  Co142  1  0.78411519  0.47439483  0.69652616  1
  Co  Co143  1  0.90557781  0.23381484  0.47799761  1
  Co  Co144  1  0.49823278  0.51549337  0.44118051  1
  Co  Co145  1  0.79789473  0.73238719  0.11559673  1
  Co  Co146  1  0.25342240  0.78125903  0.38015564  1
  Co  Co147  1  0.20880956  0.11447286  0.99260416  1
  Co  Co148  1  0.70404108  0.74493408  0.31158041  1
  Co  Co149  1  0.86615742  0.85726640  0.05929750  1
  Co  Co150  1  0.91408425  0.21278818  0.64889811  1
  Co  Co151  1  0.04794387  0.39138448  0.07840412  1
  Co  Co152  1  0.93527144  0.05959520  0.69503145  1
  Co  Co153  1  0.66916931  0.06625039  0.81198763  1
  Co  Co154  1  0.52480433  0.81831840  0.79131599  1
  Co  Co155  1  0.07681769  0.37454779  0.24204473  1
  Co  Co156  1  0.08620660  0.33401338  0.40928388  1
  Co  Co157  1  0.42332455  0.06340884  -0.05686193  1
  Co  Co158  1  0.08444435  0.00358687  0.74761565  1
  Co  Co159  1  0.41791731  0.24079501  0.94023930  1
  Co  Co160  1  0.96258569  0.52583765  0.06314348  1
  Co  Co161  1  0.64536367  0.56250599  0.75405548  1
  Ni  Ni162  1  0.09826943  0.56276867  0.37164678  1
  Ni  Ni163  1  0.98800296  0.26956038  0.15360431  1
  Ni  Ni164  1  0.39740656  0.79765681  -0.01911947  1
  Ni  Ni165  1  0.24720407  0.19429612  0.70419773  1
  Ni  Ni166  1  0.08503967  0.57176946  0.66133523  1
  Ni  Ni167  1  0.11155089  0.77652184  0.16291065  1
  Ni  Ni168  1  0.10194114  0.65533355  0.90228160  1
  Ni  Ni169  1  0.85764306  0.70306525  0.61489353  1
  Ni  Ni170  1  0.16569963  0.05480891  0.33422710  1
  Ni  Ni171  1  0.82107934  0.50409541  0.53056802  1
  Ni  Ni172  1  0.39490919  0.36797193  0.45480640  1
  Ni  Ni173  1  0.95870588  0.72450716  0.87071019  1
  Ni  Ni174  1  0.39503559  -0.03137487  0.43910368  1
  Ni  Ni175  1  0.94153178  0.94475123  0.49555296  1
  Ni  Ni176  1  0.41326025  0.52342965  0.90507840  1
  Ni  Ni177  1  0.85858174  0.18753589  0.21152704  1
  Ni  Ni178  1  0.26066239  0.44922976  0.49262415  1
  Ni  Ni179  1  0.79010421  0.47929658  0.05129650  1
  Ni  Ni180  1  0.32484724  0.57973216  0.77734633  1
  Ni  Ni181  1  0.26490981  0.47384378  0.96406453  1
  Ni  Ni182  1  0.43719154  0.13444223  0.20597006  1
  Ni  Ni183  1  0.10031488  0.84275659  0.62743129  1
  Ni  Ni184  1  0.01317049  0.27870085  0.84230213  1
  Ni  Ni185  1  0.82214525  0.84814273  0.53552238  1
  Ni  Ni186  1  0.18689420  0.64555537  0.08468815  1
  Ni  Ni187  1  0.24585196  0.79873367  0.05250170  1
  Ni  Ni188  1  0.17108976  0.51332439  0.82498853  1
  Ni  Ni189  1  0.32337111  0.96261505  0.57884482  1
  Ni  Ni190  1  0.25129106  0.29568985  -0.03830133  1
  Ni  Ni191  1  0.63595422  0.95866530  0.14811396  1
  Ni  Ni192  1  0.64260048  0.28069302  0.13948338  1
  Ni  Ni193  1  0.54057573  0.75285156  0.38722247  1
  Ni  Ni194  1  0.83177933  0.25050774  0.88757817  1
  Ni  Ni195  1  0.31684808  0.30665305  0.21916821  1
  Ni  Ni196  1  0.42160962  0.22493926  0.52282190  1
  Ni  Ni197  1  0.40772417  0.83112751  0.31045796  1
  Ni  Ni198  1  0.52708059  0.43297910  0.29344568  1
  Ni  Ni199  1  0.04067949  0.95567563  0.16572694  1
  Ni  Ni200  1  0.65754728  0.25754638  0.57725276  1
  Ni  Ni201  1  0.56388981  0.35871251  1.02056107  1
  Ni  Ni202  1  0.27620587  0.14328338  0.23575274  1
  Ni  Ni203  1  0.59649047  0.10240609  0.20120097  1
  Ni  Ni204  1  0.06392275  0.08492382  0.04951483  1
  Ni  Ni205  1  0.23548848  0.98944156  0.82342080  1
  Ni  Ni206  1  0.43082952  0.36760663  0.67845815  1
  Ni  Ni207  1  0.26376908  0.57749109  0.39883000  1
  Ni  Ni208  1  0.55287949  0.26284827  0.43478527  1
  Ni  Ni209  1  0.92405477  0.54363860  0.66067525  1
  Ni  Ni210  1  0.60460202  0.04441332  0.97434698  1
  Ni  Ni211  1  0.50678979  0.91482852  0.94102121  1
  Ni  Ni212  1  0.37311221  0.06725713  0.69264007  1
  Ni  Ni213  1  0.54758019  0.62615527  0.14472510  1
  Ni  Ni214  1  0.81150260  0.08309007  0.91186407  1
  Ni  Ni215  1  0.37280648  0.74557363  0.78814133  1
