# generated using pymatgen
data_Ti2CoNi
_symmetry_space_group_name_H-M   'P 1'
_cell_length_a   14.62751253
_cell_length_b   14.61595425
_cell_length_c   14.55875325
_cell_angle_alpha   90.19979641
_cell_angle_beta   90.10376460
_cell_angle_gamma   89.97206146
_symmetry_Int_Tables_number   1
_chemical_formula_structural   Ti2CoNi
_chemical_formula_sum   'Ti108 Co54 Ni54'
_cell_volume   3112.56504513
_cell_formula_units_Z   54
loop_
 _symmetry_equiv_pos_site_id
 _symmetry_equiv_pos_as_xyz
  1  'x, y, z'
loop_
 _atom_site_type_symbol
 _atom_site_label
 _atom_site_symmetry_multiplicity
 _atom_site_fract_x
 _atom_site_fract_y
 _atom_site_fract_z
 _atom_site_occupancy
  Ti  Ti0  1  0.02599800  -0.05389456  0.03283515  1
  Ti  Ti1  1  0.02472379  0.07890342  0.34943566  1
  Ti  Ti2  1  0.04046421  0.00476614  0.65155301  1
  Ti  Ti3  1  -0.07168935  0.36408947  0.02525583  1
  Ti  Ti4  1  -0.00436515  0.32956260  0.30827667  1
  Ti  Ti5  1  -0.02806254  0.44682418  0.68191893  1
  Ti  Ti6  1  -0.01722720  0.64515119  0.00828864  1
  Ti  Ti7  1  0.00339877  0.67870395  0.23963936  1
  Ti  Ti8  1  -0.00651347  0.73697819  0.70669334  1
  Ti  Ti9  1  0.32683279  -0.03938976  0.04929184  1
  Ti  Ti10  1  0.29726547  0.00659716  0.36208069  1
  Ti  Ti11  1  0.36319330  -0.07759277  0.62822254  1
  Ti  Ti12  1  0.36797344  0.34219464  -0.04331580  1
  Ti  Ti13  1  0.38058928  0.38424392  0.33096676  1
  Ti  Ti14  1  0.33117986  0.43933425  0.64249217  1
  Ti  Ti15  1  0.38642039  0.61660223  0.02974458  1
  Ti  Ti16  1  0.25788914  0.62562213  0.33534118  1
  Ti  Ti17  1  0.29758989  0.74120088  0.61445296  1
  Ti  Ti18  1  0.56673052  0.00485639  -0.01435622  1
  Ti  Ti19  1  0.63752501  -0.00797962  0.31039118  1
  Ti  Ti20  1  0.62303021  0.08009609  0.67761989  1
  Ti  Ti21  1  0.72988089  0.42613868  -0.00587476  1
  Ti  Ti22  1  0.69254962  0.29595758  0.37367269  1
  Ti  Ti23  1  0.66103364  0.34171383  0.66702585  1
  Ti  Ti24  1  0.68584593  0.71730466  -0.00992419  1
  Ti  Ti25  1  0.62992276  0.67826333  0.32512475  1
  Ti  Ti26  1  0.66553978  0.68260463  0.76772350  1
  Ti  Ti27  1  -0.01464991  0.20388461  0.11659933  1
  Ti  Ti28  1  0.03870990  0.16571158  0.53229771  1
  Ti  Ti29  1  0.01926970  0.19816146  0.86587057  1
  Ti  Ti30  1  0.02879926  0.48886633  0.16100126  1
  Ti  Ti31  1  -0.01096002  0.53047288  0.47043559  1
  Ti  Ti32  1  0.00971365  0.57141163  0.82189378  1
  Ti  Ti33  1  -0.05112315  0.87629466  0.20613732  1
  Ti  Ti34  1  0.03390572  0.81705129  0.43525788  1
  Ti  Ti35  1  0.00171405  0.90814992  0.82298307  1
  Ti  Ti36  1  0.33351402  0.18504077  0.07520544  1
  Ti  Ti37  1  0.33797439  0.10675416  0.54732057  1
  Ti  Ti38  1  0.36079451  0.03020768  0.82095313  1
  Ti  Ti39  1  0.31893616  0.53670512  0.18619568  1
  Ti  Ti40  1  0.29508774  0.56125464  0.50400168  1
  Ti  Ti41  1  0.27689500  0.50925861  0.84757935  1
  Ti  Ti42  1  0.33062553  0.75609665  0.16646377  1
  Ti  Ti43  1  0.48409891  0.76475199  0.50718972  1
  Ti  Ti44  1  0.31765856  0.82787498  0.83852402  1
  Ti  Ti45  1  0.66735300  0.16517194  0.08607995  1
  Ti  Ti46  1  0.70207590  0.16341439  0.51233337  1
  Ti  Ti47  1  0.68203830  0.12554949  0.87708189  1
  Ti  Ti48  1  0.62254105  0.49219076  0.20121571  1
  Ti  Ti49  1  0.72210766  0.50377146  0.48488876  1
  Ti  Ti50  1  0.58052180  0.53881985  0.87564739  1
  Ti  Ti51  1  0.73865977  0.82969390  0.15311365  1
  Ti  Ti52  1  0.67003774  0.83271694  0.55760179  1
  Ti  Ti53  1  0.69571517  0.94980577  0.82776768  1
  Ti  Ti54  1  0.16834740  -0.00359783  0.17491284  1
  Ti  Ti55  1  0.18807305  -0.06179292  0.51202895  1
  Ti  Ti56  1  0.15156597  0.04312062  0.82483135  1
  Ti  Ti57  1  0.14958932  0.19764041  0.21054060  1
  Ti  Ti58  1  0.20310184  0.26497431  0.54620540  1
  Ti  Ti59  1  0.15389439  0.33201318  0.74685833  1
  Ti  Ti60  1  0.17601280  0.61527211  0.08266920  1
  Ti  Ti61  1  0.11982934  0.65994197  0.54103286  1
  Ti  Ti62  1  0.17768515  0.68267409  0.77829224  1
  Ti  Ti63  1  0.47914740  -0.00958951  0.18459109  1
  Ti  Ti64  1  0.49733491  -0.03148677  0.47306353  1
  Ti  Ti65  1  0.51327075  -0.06757785  0.78648950  1
  Ti  Ti66  1  0.50578397  0.30586055  0.17580525  1
  Ti  Ti67  1  0.51112291  0.26457877  0.46440122  1
  Ti  Ti68  1  0.48950271  0.37351774  0.78115499  1
  Ti  Ti69  1  0.54549326  0.66280231  0.14186284  1
  Ti  Ti70  1  0.45311964  0.58935216  0.41460703  1
  Ti  Ti71  1  0.47728180  0.71152678  0.89538200  1
  Ti  Ti72  1  0.84197750  0.06330189  0.14177835  1
  Ti  Ti73  1  0.84606972  -0.03998225  0.53686732  1
  Ti  Ti74  1  0.86169891  0.01310993  0.88880944  1
  Ti  Ti75  1  0.73557116  0.33954619  0.20844441  1
  Ti  Ti76  1  0.85238066  0.30898223  0.53818813  1
  Ti  Ti77  1  0.80581945  0.29462645  0.79274189  1
  Ti  Ti78  1  0.76410398  0.63819411  0.18003511  1
  Ti  Ti79  1  0.88128253  0.71066417  0.53229893  1
  Ti  Ti80  1  0.85362009  0.66491051  0.81297869  1
  Ti  Ti81  1  0.13653789  0.12910552  0.02266777  1
  Ti  Ti82  1  0.26133835  0.20241312  0.36138139  1
  Ti  Ti83  1  0.27353190  0.17919121  0.73003491  1
  Ti  Ti84  1  0.11414383  0.44995202  -0.01834648  1
  Ti  Ti85  1  0.18599440  0.38952016  0.30024626  1
  Ti  Ti86  1  0.14716906  0.45495645  0.58446612  1
  Ti  Ti87  1  0.16805192  0.78114139  -0.02046524  1
  Ti  Ti88  1  0.21392439  0.82713205  0.31625452  1
  Ti  Ti89  1  0.13251223  0.83337195  0.64629226  1
  Ti  Ti90  1  0.51999145  0.21412571  -0.04648540  1
  Ti  Ti91  1  0.43655985  0.17735399  0.28075469  1
  Ti  Ti92  1  0.46782061  0.20867921  0.68282116  1
  Ti  Ti93  1  0.50034000  0.46306821  0.05937634  1
  Ti  Ti94  1  0.56289627  0.44826920  0.38285918  1
  Ti  Ti95  1  0.53785351  0.51218742  0.60550188  1
  Ti  Ti96  1  0.52687054  0.83216792  0.06572635  1
  Ti  Ti97  1  0.44943771  0.83633641  0.31394654  1
  Ti  Ti98  1  0.47360979  0.77088876  0.70310026  1
  Ti  Ti99  1  0.83302860  0.20978218  -0.03509912  1
  Ti  Ti100  1  0.81435767  0.07922787  0.37569471  1
  Ti  Ti101  1  0.91852765  0.14400708  0.69284559  1
  Ti  Ti102  1  0.86563130  0.46188299  -0.13271020  1
  Ti  Ti103  1  0.88363616  0.51562337  0.27646935  1
  Ti  Ti104  1  0.76288424  0.51163321  0.70302620  1
  Ti  Ti105  1  0.88305893  0.80926398  -0.04525247  1
  Ti  Ti106  1  0.77017990  0.85339623  0.37487053  1
  Ti  Ti107  1  0.81454130  0.81612306  0.69680620  1
  Co  Co108  1  0.70115362  0.88778282  0.99713161  1
  Co  Co109  1  0.35000546  0.28736489  0.61316471  1
  Co  Co110  1  0.55137440  0.37830551  0.92825711  1
  Co  Co111  1  0.60102755  0.61043810  0.47691146  1
  Co  Co112  1  0.33051078  0.33110011  0.77959943  1
  Co  Co113  1  0.41417508  0.62288469  0.61262557  1
  Co  Co114  1  0.85136350  0.92200072  0.06193343  1
  Co  Co115  1  0.16827844  0.70968671  0.21145464  1
  Co  Co116  1  0.73430664  0.16120224  0.26225865  1
  Co  Co117  1  0.06890459  0.58123025  0.66259095  1
  Co  Co118  1  0.66886586  -0.00134425  0.48380403  1
  Co  Co119  1  0.42492301  0.10365134  0.41058313  1
  Co  Co120  1  0.52120495  0.61907126  0.74050169  1
  Co  Co121  1  0.75017152  0.65286349  0.61673647  1
  Co  Co122  1  0.77526319  0.47891085  0.14316696  1
  Co  Co123  1  0.13985909  0.48678042  0.77793511  1
  Co  Co124  1  0.72715728  0.50584232  0.31934112  1
  Co  Co125  1  0.72311353  0.95791077  0.65267206  1
  Co  Co126  1  0.90083889  0.36691919  0.18499687  1
  Co  Co127  1  0.68250691  0.42072564  0.81855129  1
  Co  Co128  1  0.13795818  0.55499327  0.25033520  1
  Co  Co129  1  0.28946599  0.47726687  0.01391330  1
  Co  Co130  1  0.54266745  0.91762155  0.62185857  1
  Co  Co131  1  0.36724953  0.38492345  0.13254712  1
  Co  Co132  1  0.10274223  0.22569549  0.38259272  1
  Co  Co133  1  0.42497350  0.42460449  0.49286076  1
  Co  Co134  1  0.84712572  0.74776150  0.28207159  1
  Co  Co135  1  0.20732732  0.34271350  0.90050060  1
  Co  Co136  1  0.01843081  0.05670025  0.18040788  1
  Co  Co137  1  0.90385640  0.60330339  0.66100291  1
  Co  Co138  1  0.19516375  0.85008370  0.12482702  1
  Co  Co139  1  0.59039123  0.69461527  0.61136403  1
  Co  Co140  1  0.07682423  0.28348982  0.98554849  1
  Co  Co141  1  0.44918412  0.04953067  0.66995746  1
  Co  Co142  1  0.07479965  0.33363039  0.14405141  1
  Co  Co143  1  0.42829587  0.49702135  0.91598029  1
  Co  Co144  1  0.13117989  0.60877348  0.92276060  1
  Co  Co145  1  0.10519370  0.67290262  0.37354165  1
  Co  Co146  1  0.02688750  0.98010432  0.48878299  1
  Co  Co147  1  0.19359528  0.44314440  0.14022259  1
  Co  Co148  1  0.58554540  0.82673659  0.89724532  1
  Co  Co149  1  0.88284756  0.11723587  0.53412802  1
  Co  Co150  1  0.22123670  0.30300159  0.06249060  1
  Co  Co151  1  0.63923356  0.83350798  0.72520621  1
  Co  Co152  1  0.52787266  0.09081844  0.82364291  1
  Co  Co153  1  0.30442411  0.26957362  0.21605586  1
  Co  Co154  1  0.28104993  0.67188694  0.92475928  1
  Co  Co155  1  0.26048181  0.39552399  0.45745483  1
  Co  Co156  1  0.36031162  0.26507999  0.45865139  1
  Co  Co157  1  0.41448998  0.51205030  0.75509852  1
  Co  Co158  1  0.74813262  0.04047937  0.00029839  1
  Co  Co159  1  0.79787114  0.95112048  0.24848340  1
  Co  Co160  1  0.39840157  0.19814064  0.85140117  1
  Co  Co161  1  0.24610993  0.58268334  0.66574931  1
  Ni  Ni162  1  0.53505209  0.11708363  0.53909387  1
  Ni  Ni163  1  0.92437616  0.22150664  0.41516578  1
  Ni  Ni164  1  0.07974204  0.92528713  0.31027941  1
  Ni  Ni165  1  0.43650271  0.66274458  0.26453038  1
  Ni  Ni166  1  0.74969433  0.80071515  0.85800463  1
  Ni  Ni167  1  0.58303092  0.12688032  0.22081271  1
  Ni  Ni168  1  0.30305895  0.09252127  0.21227088  1
  Ni  Ni169  1  0.65442300  0.56760081  0.04796480  1
  Ni  Ni170  1  0.43951138  0.90671150  0.93434309  1
  Ni  Ni171  1  0.04509410  0.31114691  0.60461218  1
  Ni  Ni172  1  0.60360697  0.23715220  0.78052995  1
  Ni  Ni173  1  0.15002433  0.85010034  0.82701055  1
  Ni  Ni174  1  0.72306262  0.71222980  0.45925575  1
  Ni  Ni175  1  0.23378238  0.94060844  0.72227196  1
  Ni  Ni176  1  0.04581821  0.77420690  0.10116621  1
  Ni  Ni177  1  0.74257115  0.57389249  0.89670457  1
  Ni  Ni178  1  0.96573970  0.85767552  0.59648048  1
  Ni  Ni179  1  0.62560448  0.32554363  0.06834808  1
  Ni  Ni180  1  0.27861197  0.09391879  0.94415195  1
  Ni  Ni181  1  0.35735666  0.73074315  0.40273508  1
  Ni  Ni182  1  0.58948074  0.83109538  0.22446946  1
  Ni  Ni183  1  1.01852485  0.38783320  0.86100359  1
  Ni  Ni184  1  0.77948878  0.08707395  0.75374628  1
  Ni  Ni185  1  0.96562509  0.29379542  0.74142301  1
  Ni  Ni186  1  0.83837319  0.38311948  0.37218252  1
  Ni  Ni187  1  0.68306193  0.28324305  0.91664062  1
  Ni  Ni188  1  0.07548329  0.36657908  0.45446084  1
  Ni  Ni189  1  0.89640995  0.52318036  0.06199345  1
  Ni  Ni190  1  0.83986779  0.60513405  0.40805647  1
  Ni  Ni191  1  0.82130182  0.23223662  0.12756048  1
  Ni  Ni192  1  0.86323559  0.47694429  0.55679464  1
  Ni  Ni193  1  0.32707927  0.92275936  0.21984223  1
  Ni  Ni194  1  0.17924107  0.95648772  0.97016607  1
  Ni  Ni195  1  0.48569041  0.12743153  0.09250152  1
  Ni  Ni196  1  0.60184272  0.84346777  0.39703243  1
  Ni  Ni197  1  0.63118537  0.36310709  0.51481658  1
  Ni  Ni198  1  0.19224445  0.06950969  0.62937068  1
  Ni  Ni199  1  0.76743671  0.21066133  0.65111827  1
  Ni  Ni200  1  0.88040210  0.74032023  0.11113258  1
  Ni  Ni201  1  0.92012266  0.92728167  0.36908987  1
  Ni  Ni202  1  1.02467704  0.74378758  0.87557494  1
  Ni  Ni203  1  0.96551025  0.09561847  0.98565230  1
  Ni  Ni204  1  0.14691912  0.51357996  0.41590644  1
  Ni  Ni205  1  0.35278386  0.66640053  0.77080185  1
  Ni  Ni206  1  0.09351733  0.17521974  0.70747841  1
  Ni  Ni207  1  0.20962020  0.77407894  0.47316872  1
  Ni  Ni208  1  0.46711248  0.49277746  0.23906584  1
  Ni  Ni209  1  0.90391479  0.17594122  0.26213917  1
  Ni  Ni210  1  0.17466687  0.09522071  0.46391171  1
  Ni  Ni211  1  0.59885754  0.13588755  0.38366500  1
  Ni  Ni212  1  0.35985008  0.78807808  0.00866928  1
  Ni  Ni213  1  0.88495068  0.96612193  0.71540837  1
  Ni  Ni214  1  0.65849910  0.98620149  0.13753633  1
  Ni  Ni215  1  0.34319012  0.88018961  0.46200801  1
