# generated using pymatgen
data_Ti2CoNi
_symmetry_space_group_name_H-M   'P 1'
_cell_length_a   14.63123645
_cell_length_b   14.72614368
_cell_length_c   14.71510853
_cell_angle_alpha   90.05710906
_cell_angle_beta   89.84097495
_cell_angle_gamma   89.73971250
_symmetry_Int_Tables_number   1
_chemical_formula_structural   Ti2CoNi
_chemical_formula_sum   'Ti108 Co54 Ni54'
_cell_volume   3170.49561187
_cell_formula_units_Z   54
loop_
 _symmetry_equiv_pos_site_id
 _symmetry_equiv_pos_as_xyz
  1  'x, y, z'
loop_
 _atom_site_type_symbol
 _atom_site_label
 _atom_site_symmetry_multiplicity
 _atom_site_fract_x
 _atom_site_fract_y
 _atom_site_fract_z
 _atom_site_occupancy
  Ti  Ti0  1  -0.00665990  -0.00448364  0.00989656  1
  Ti  Ti1  1  0.09495624  -0.02567514  0.33782308  1
  Ti  Ti2  1  0.06027425  -0.01909353  0.56756914  1
  Ti  Ti3  1  -0.08163264  0.34387550  -0.04096936  1
  Ti  Ti4  1  0.03433770  0.42165319  0.29066373  1
  Ti  Ti5  1  -0.02117767  0.29234468  0.66459403  1
  Ti  Ti6  1  0.03551035  0.64794771  -0.00353791  1
  Ti  Ti7  1  -0.00058114  0.63115305  0.33170887  1
  Ti  Ti8  1  0.01456956  0.62160440  0.70007287  1
  Ti  Ti9  1  0.31139422  0.03519808  -0.06304569  1
  Ti  Ti10  1  0.28415550  0.03053878  0.29149605  1
  Ti  Ti11  1  0.29522347  0.00061193  0.61525173  1
  Ti  Ti12  1  0.26441688  0.38816047  -0.03903127  1
  Ti  Ti13  1  0.37160200  0.31899411  0.40276713  1
  Ti  Ti14  1  0.26113590  0.33267632  0.64991307  1
  Ti  Ti15  1  0.45865297  0.68562189  0.00272171  1
  Ti  Ti16  1  0.36031080  0.69667756  0.39143729  1
  Ti  Ti17  1  0.37491869  0.71395765  0.62683351  1
  Ti  Ti18  1  0.63813357  0.04792195  0.03505741  1
  Ti  Ti19  1  0.60862267  -0.00677675  0.34079141  1
  Ti  Ti20  1  0.67846105  -0.01373507  0.73026204  1
  Ti  Ti21  1  0.72188906  0.31745180  -0.04910551  1
  Ti  Ti22  1  0.66017203  0.32954063  0.30534422  1
  Ti  Ti23  1  0.63269155  0.39922583  0.65752333  1
  Ti  Ti24  1  0.67710432  0.67726720  0.03923131  1
  Ti  Ti25  1  0.75444862  0.62921397  0.30293017  1
  Ti  Ti26  1  0.68935216  0.65640506  0.71971802  1
  Ti  Ti27  1  -0.04858335  0.11572533  0.18461443  1
  Ti  Ti28  1  -0.01534436  0.21649231  0.50403937  1
  Ti  Ti29  1  0.04256345  0.17208747  0.91644877  1
  Ti  Ti30  1  -0.05587226  0.51891899  0.09289111  1
  Ti  Ti31  1  -0.05519621  0.53120945  0.50458032  1
  Ti  Ti32  1  0.01566537  0.40958238  0.81913760  1
  Ti  Ti33  1  -0.02527587  0.87588473  0.22967145  1
  Ti  Ti34  1  -0.05518473  0.78596378  0.43094388  1
  Ti  Ti35  1  0.08163613  0.77076958  0.83549144  1
  Ti  Ti36  1  0.32551952  0.21887458  0.19837025  1
  Ti  Ti37  1  0.42944922  0.15343563  0.50926446  1
  Ti  Ti38  1  0.28757236  0.12147548  0.77846366  1
  Ti  Ti39  1  0.36474048  0.41273734  0.22122509  1
  Ti  Ti40  1  0.37643308  0.46933363  0.56795503  1
  Ti  Ti41  1  0.34397168  0.44065848  0.78886054  1
  Ti  Ti42  1  0.28909157  0.78746247  0.08668945  1
  Ti  Ti43  1  0.26029085  0.82605927  0.52341446  1
  Ti  Ti44  1  0.37123322  0.85817278  0.91891656  1
  Ti  Ti45  1  0.62119022  0.19691010  0.16521875  1
  Ti  Ti46  1  0.66280514  0.17482535  0.53742174  1
  Ti  Ti47  1  0.66088228  0.16500367  0.83686299  1
  Ti  Ti48  1  0.68708245  0.48232781  0.18991722  1
  Ti  Ti49  1  0.71720174  0.53892982  0.52505113  1
  Ti  Ti50  1  0.66241030  0.51246589  0.84545440  1
  Ti  Ti51  1  0.65028452  0.79085711  0.23783995  1
  Ti  Ti52  1  0.66034259  0.85694009  0.53555543  1
  Ti  Ti53  1  0.69345825  0.81657160  0.84333752  1
  Ti  Ti54  1  0.20600716  -0.00531052  0.09064231  1
  Ti  Ti55  1  0.18670025  0.12487181  0.48726669  1
  Ti  Ti56  1  0.15598082  -0.04251896  0.77816229  1
  Ti  Ti57  1  0.11347827  0.26353028  0.17122198  1
  Ti  Ti58  1  0.15043486  0.33319746  0.44671769  1
  Ti  Ti59  1  0.17562464  0.27784735  0.81212670  1
  Ti  Ti60  1  0.19675551  0.67329104  0.23809285  1
  Ti  Ti61  1  0.14944273  0.68107032  0.44535372  1
  Ti  Ti62  1  0.21203284  0.58495172  0.90972896  1
  Ti  Ti63  1  0.42117520  0.00995655  0.12848812  1
  Ti  Ti64  1  0.51467158  -0.02185614  0.51714761  1
  Ti  Ti65  1  0.46654354  -0.01433336  0.76930454  1
  Ti  Ti66  1  0.53301251  0.35388101  0.11416994  1
  Ti  Ti67  1  0.53117803  0.32772449  0.52606756  1
  Ti  Ti68  1  0.46559823  0.33228915  0.89542712  1
  Ti  Ti69  1  0.47343752  0.60258340  0.18673491  1
  Ti  Ti70  1  0.59560621  0.66486330  0.42835675  1
  Ti  Ti71  1  0.41789672  0.69456720  0.81692293  1
  Ti  Ti72  1  0.83655788  -0.04114346  0.11135064  1
  Ti  Ti73  1  0.85518861  0.06154202  0.50314084  1
  Ti  Ti74  1  0.85927756  -0.05811434  0.80734047  1
  Ti  Ti75  1  0.86223160  0.37169269  0.16102826  1
  Ti  Ti76  1  0.82595318  0.37558332  0.56904060  1
  Ti  Ti77  1  0.81390122  0.34536301  0.77373537  1
  Ti  Ti78  1  0.90922582  0.69663794  0.16515358  1
  Ti  Ti79  1  0.77563231  0.71598467  0.55289244  1
  Ti  Ti80  1  0.86757566  0.75086391  0.73568950  1
  Ti  Ti81  1  0.21952334  0.19367784  0.02129089  1
  Ti  Ti82  1  0.08072321  0.19297036  0.33305713  1
  Ti  Ti83  1  0.10844983  0.13583321  0.69403093  1
  Ti  Ti84  1  0.19702871  0.51776356  0.10880650  1
  Ti  Ti85  1  0.24265727  0.49750489  0.37050739  1
  Ti  Ti86  1  0.18624246  0.53384756  0.69143609  1
  Ti  Ti87  1  0.11364232  0.83135358  0.01710921  1
  Ti  Ti88  1  0.24392506  0.83639791  0.33006985  1
  Ti  Ti89  1  0.08621623  0.78620838  0.61921661  1
  Ti  Ti90  1  0.48057829  0.13388623  -0.10593862  1
  Ti  Ti91  1  0.46007385  0.12959178  0.31077274  1
  Ti  Ti92  1  0.52833995  0.22574564  0.70491847  1
  Ti  Ti93  1  0.42047515  0.48364628  0.03811610  1
  Ti  Ti94  1  0.44473580  0.52308485  0.37785806  1
  Ti  Ti95  1  0.51140443  0.55845103  0.68489385  1
  Ti  Ti96  1  0.58182705  0.84554691  0.00249726  1
  Ti  Ti97  1  0.45415168  0.87733141  0.27593937  1
  Ti  Ti98  1  0.54577644  0.80967988  0.69257163  1
  Ti  Ti99  1  0.82432771  0.16023165  0.03922070  1
  Ti  Ti100  1  0.86033626  0.18396095  0.35261400  1
  Ti  Ti101  1  0.83057771  0.12809727  0.73389608  1
  Ti  Ti102  1  0.76762869  0.49648722  0.00252454  1
  Ti  Ti103  1  0.82195391  0.43852445  0.37224521  1
  Ti  Ti104  1  0.85741136  0.54738447  0.80249955  1
  Ti  Ti105  1  0.86762991  0.80030455  -0.05620032  1
  Ti  Ti106  1  0.79545445  0.92623337  0.34532290  1
  Ti  Ti107  1  0.86492892  0.89767041  0.60137099  1
  Co  Co108  1  0.55946707  0.49471898  0.51605981  1
  Co  Co109  1  0.75283592  0.66230067  0.88153685  1
  Co  Co110  1  1.06576473  0.57626263  0.84113687  1
  Co  Co111  1  0.28773151  0.59276067  0.50398516  1
  Co  Co112  1  0.91844214  0.02085338  0.30534189  1
  Co  Co113  1  0.85125183  0.59326383  0.63188687  1
  Co  Co114  1  0.56519153  0.05150501  0.20124049  1
  Co  Co115  1  0.38498722  0.84728832  0.75434899  1
  Co  Co116  1  0.48634297  0.28583290  0.26232734  1
  Co  Co117  1  0.21271175  0.68328555  0.61504171  1
  Co  Co118  1  0.31291503  0.90120937  0.19585240  1
  Co  Co119  1  0.10518783  0.85422529  0.45966625  1
  Co  Co120  1  0.85226623  0.77153661  0.29572909  1
  Co  Co121  1  0.78249186  0.59605171  0.13498839  1
  Co  Co122  1  0.47483084  0.38735298  0.70749238  1
  Co  Co123  1  0.85000593  0.63734239  0.42556708  1
  Co  Co124  1  0.14414596  0.04055955  0.93347214  1
  Co  Co125  1  0.09487416  0.58480418  0.55778459  1
  Co  Co126  1  0.94656001  0.93694095  0.44495671  1
  Co  Co127  1  0.31766222  0.62199194  0.07214808  1
  Co  Co128  1  0.33852203  0.58695403  0.72292370  1
  Co  Co129  1  0.32210842  0.57071679  0.24225668  1
  Co  Co130  1  0.55130266  0.90938021  0.14060676  1
  Co  Co131  1  0.95694668  0.22541305  0.79868864  1
  Co  Co132  1  0.93567438  0.67453457  0.86232452  1
  Co  Co133  1  0.07732263  0.78027748  0.31440787  1
  Co  Co134  1  0.20346587  0.45318940  0.53713373  1
  Co  Co135  1  0.13065054  0.25564927  0.58930667  1
  Co  Co136  1  0.60996994  -0.01655795  0.87802111  1
  Co  Co137  1  0.08750371  0.50029630  0.41966941  1
  Co  Co138  1  0.73365107  0.83493693  0.68530681  1
  Co  Co139  1  0.82047130  0.20939809  0.88341693  1
  Co  Co140  1  0.40125373  0.28144112  0.60024079  1
  Co  Co141  1  0.01099908  0.08192996  0.42608303  1
  Co  Co142  1  0.21064299  0.89175185  -0.08248626  1
  Co  Co143  1  0.27446218  0.16853532  0.61923745  1
  Co  Co144  1  0.19930204  0.68769657  0.77077681  1
  Co  Co145  1  0.93571930  0.51177208  0.93247912  1
  Co  Co146  1  0.27201082  0.72889221  0.93559344  1
  Co  Co147  1  0.51040482  0.75673953  0.13796386  1
  Co  Co148  1  0.17273015  0.43641449  0.83163156  1
  Co  Co149  1  0.52435724  0.38591672  0.38174848  1
  Co  Co150  1  0.53172520  0.45780067  0.23768893  1
  Co  Co151  1  0.41668526  0.11402056  0.67276773  1
  Co  Co152  1  0.52128662  0.84089056  0.84990718  1
  Co  Co153  1  0.85829105  0.64549503  0.00282810  1
  Co  Co154  1  0.91116927  0.07855473  0.89734095  1
  Co  Co155  1  -0.04688396  0.27605527  0.24987917  1
  Co  Co156  1  0.09268889  0.48183778  0.97501019  1
  Co  Co157  1  0.36040593  0.73381955  0.22294786  1
  Co  Co158  1  0.01512832  0.91608552  0.87794719  1
  Co  Co159  1  0.37468864  0.25902022  0.76180694  1
  Co  Co160  1  0.00429222  0.04239465  0.77645623  1
  Co  Co161  1  0.11012632  0.38811172  0.68057644  1
  Ni  Ni162  1  0.05411345  0.40232612  0.11434262  1
  Ni  Ni163  1  0.27771937  0.18844066  0.36488470  1
  Ni  Ni164  1  0.71945264  0.09544192  0.40354852  1
  Ni  Ni165  1  0.75388491  0.08714527  0.18132962  1
  Ni  Ni166  1  0.64805796  0.50396911  0.36509530  1
  Ni  Ni167  1  0.70543337  0.33636519  0.11113832  1
  Ni  Ni168  1  0.14944901  0.86870448  0.18952405  1
  Ni  Ni169  1  0.33378771  0.22309633  0.91132169  1
  Ni  Ni170  1  0.06306107  0.56144206  0.19685827  1
  Ni  Ni171  1  0.56974889  0.83690524  0.39862088  1
  Ni  Ni172  1  0.95064325  0.46069676  0.66410796  1
  Ni  Ni173  1  0.38135944  0.14294061  0.05044132  1
  Ni  Ni174  1  0.72835297  0.77367169  0.39870830  1
  Ni  Ni175  1  0.68534319  0.37801442  0.47247067  1
  Ni  Ni176  1  0.37305789  0.02652475  0.42833332  1
  Ni  Ni177  1  0.45209318  0.61741615  0.51793138  1
  Ni  Ni178  1  0.75239568  0.49088262  0.69264574  1
  Ni  Ni179  1  0.99676714  0.88585951  0.71451770  1
  Ni  Ni180  1  0.78691967  0.23889898  0.21622135  1
  Ni  Ni181  1  0.95457336  0.10359743  0.63513672  1
  Ni  Ni182  1  0.58775416  0.67837116  0.59045388  1
  Ni  Ni183  1  0.22351081  0.96846654  0.44857903  1
  Ni  Ni184  1  0.58310665  0.54075373  0.06850046  1
  Ni  Ni185  1  0.94377847  0.70987223  0.57456854  1
  Ni  Ni186  1  0.41158149  0.88205554  0.60209978  1
  Ni  Ni187  1  0.69676654  0.94064051  0.19364065  1
  Ni  Ni188  1  0.57244709  0.07181402  0.64099873  1
  Ni  Ni189  1  0.10450679  0.31800075  0.97788014  1
  Ni  Ni190  1  0.23832913  0.35524937  0.12146591  1
  Ni  Ni191  1  0.07135868  0.72920533  0.14815615  1
  Ni  Ni192  1  0.58394617  0.68023673  0.86881273  1
  Ni  Ni193  1  0.94200331  0.34446693  0.41211287  1
  Ni  Ni194  1  0.58551303  0.22863497  -0.00878210  1
  Ni  Ni195  1  0.47474077  0.98221882  0.96929062  1
  Ni  Ni196  1  0.61696826  0.33455610  0.81573086  1
  Ni  Ni197  1  0.77947244  0.79933711  0.12053726  1
  Ni  Ni198  1  0.08176708  0.11834550  0.07448911  1
  Ni  Ni199  1  0.88555248  0.53216596  0.25373575  1
  Ni  Ni200  1  0.22386066  0.33036239  0.29376144  1
  Ni  Ni201  1  0.38224567  0.30622848  0.05554727  1
  Ni  Ni202  1  0.75720885  0.04870366  0.90212066  1
  Ni  Ni203  1  0.49887145  0.49602976  0.84668868  1
  Ni  Ni204  1  0.16878851  0.11232384  0.21177403  1
  Ni  Ni205  1  0.71199256  0.25111487  0.67872906  1
  Ni  Ni206  1  0.73395404  0.90707881  0.98590477  1
  Ni  Ni207  1  0.95785338  0.82981815  0.07044179  1
  Ni  Ni208  1  0.97292435  0.25100713  0.07777032  1
  Ni  Ni209  1  0.40331046  0.86386756  0.43797888  1
  Ni  Ni210  1  0.57506928  0.21232559  0.39530100  1
  Ni  Ni211  1  0.36711372  0.56781299  0.91311635  1
  Ni  Ni212  1  0.23905047  0.83659611  0.68846215  1
  Ni  Ni213  1  0.70641062  1.01024745  0.55468765  1
  Ni  Ni214  1  0.59168740  0.41658344  0.96642398  1
  Ni  Ni215  1  0.50780863  0.71533376  0.30128672  1
