# generated using pymatgen
data_Gd19Ta56(WO20)8
_symmetry_space_group_name_H-M   'P 1'
_cell_length_a   15.54886706
_cell_length_b   15.54440587
_cell_length_c   15.33054277
_cell_angle_alpha   89.89459954
_cell_angle_beta   89.87671519
_cell_angle_gamma   89.94238502
_symmetry_Int_Tables_number   1
_chemical_formula_structural   Gd19Ta56(WO20)8
_chemical_formula_sum   'Gd19 Ta56 W8 O160'
_cell_volume   3705.34329369
_cell_formula_units_Z   1
loop_
 _symmetry_equiv_pos_site_id
 _symmetry_equiv_pos_as_xyz
  1  'x, y, z'
loop_
 _atom_type_symbol
 _atom_type_oxidation_number
  Gd3+  3.0
  Ta5+  5.0
  W6+  6.0
  O2-  -2.0
loop_
 _atom_site_type_symbol
 _atom_site_label
 _atom_site_symmetry_multiplicity
 _atom_site_fract_x
 _atom_site_fract_y
 _atom_site_fract_z
 _atom_site_occupancy
  Gd3+  Gd0  1  0.00040066  0.25197468  0.24782713  1
  Gd3+  Gd1  1  0.00210321  0.23949164  0.50546207  1
  Gd3+  Gd2  1  0.50489698  0.75180775  0.74849498  1
  Gd3+  Gd3  1  -0.01202101  0.74606135  0.73919452  1
  Gd3+  Gd4  1  0.76167154  0.75288701  -0.01593225  1
  Gd3+  Gd5  1  0.26458732  0.25782130  0.51244297  1
  Gd3+  Gd6  1  0.00633139  0.23927014  -0.00364228  1
  Gd3+  Gd7  1  0.75085178  0.74893945  0.24558614  1
  Gd3+  Gd8  1  -0.01514949  0.75138317  0.50194549  1
  Gd3+  Gd9  1  0.74530766  0.26700467  0.25863000  1
  Gd3+  Gd10  1  0.24208745  0.74676866  0.75418615  1
  Gd3+  Gd11  1  0.49508025  0.24877422  0.25121145  1
  Gd3+  Gd12  1  0.73765949  0.24588384  0.71277755  1
  Gd3+  Gd13  1  0.25896357  0.25695765  0.00436675  1
  Gd3+  Gd14  1  0.51868029  0.74765790  0.49832529  1
  Gd3+  Gd15  1  0.24571253  0.75275565  0.25085874  1
  Gd3+  Gd16  1  0.23514763  0.74673785  -0.00981870  1
  Gd3+  Gd17  1  0.25297714  0.74986891  0.50148059  1
  Gd3+  Gd18  1  0.75594181  0.25086468  -0.00991587  1
  Ta5+  Ta19  1  0.09774261  0.87516117  0.12296377  1
  Ta5+  Ta20  1  0.13926168  0.13116789  0.64211545  1
  Ta5+  Ta21  1  0.11445379  0.88269007  0.37599165  1
  Ta5+  Ta22  1  0.39483835  0.63599986  0.12119325  1
  Ta5+  Ta23  1  0.87967126  0.38021207  0.11660709  1
  Ta5+  Ta24  1  0.62285413  0.88402088  0.37440625  1
  Ta5+  Ta25  1  0.38842685  0.88907334  0.87231295  1
  Ta5+  Ta26  1  0.62991399  0.37709020  0.38636373  1
  Ta5+  Ta27  1  0.86873777  0.11515625  0.12609594  1
  Ta5+  Ta28  1  0.37017750  0.12563558  0.12826266  1
  Ta5+  Ta29  1  0.64034128  0.89102083  0.62178114  1
  Ta5+  Ta30  1  0.08736935  0.36438923  0.64343726  1
  Ta5+  Ta31  1  0.83977886  0.87598153  0.62839616  1
  Ta5+  Ta32  1  0.11860660  0.62121705  0.12823225  1
  Ta5+  Ta33  1  0.91088661  0.87717628  0.87706280  1
  Ta5+  Ta34  1  0.63357084  0.61964651  0.37663957  1
  Ta5+  Ta35  1  0.92002176  0.37555812  0.64096244  1
  Ta5+  Ta36  1  0.39426702  0.37217953  0.87771536  1
  Ta5+  Ta37  1  0.87551543  0.87784388  0.37193659  1
  Ta5+  Ta38  1  0.84522861  0.59896393  0.62559800  1
  Ta5+  Ta39  1  0.37286013  0.37512569  0.37390196  1
  Ta5+  Ta40  1  0.62409961  0.88719463  0.86798001  1
  Ta5+  Ta41  1  0.62541416  0.87717910  0.11759574  1
  Ta5+  Ta42  1  0.87083066  0.11943216  0.38100018  1
  Ta5+  Ta43  1  0.89966940  0.87915099  0.12298367  1
  Ta5+  Ta44  1  0.87713354  0.61977286  0.12314841  1
  Ta5+  Ta45  1  0.64984452  0.58790152  0.62549858  1
  Ta5+  Ta46  1  0.62648276  0.12396548  0.12339762  1
  Ta5+  Ta47  1  0.41102667  0.13306566  0.62158035  1
  Ta5+  Ta48  1  0.87293854  0.62163397  0.37649974  1
  Ta5+  Ta49  1  0.13908493  0.12804648  0.37735375  1
  Ta5+  Ta50  1  0.37724430  0.12900793  0.86762174  1
  Ta5+  Ta51  1  0.87914074  0.37757359  0.38843184  1
  Ta5+  Ta52  1  0.14305872  0.88891846  0.62509355  1
  Ta5+  Ta53  1  0.90103882  0.61994713  0.87134496  1
  Ta5+  Ta54  1  0.61869644  0.12493085  0.86382742  1
  Ta5+  Ta55  1  0.13045367  0.10724576  0.13014771  1
  Ta5+  Ta56  1  0.12394703  0.37245298  0.87295246  1
  Ta5+  Ta57  1  0.88121033  0.12120947  0.85778468  1
  Ta5+  Ta58  1  0.07806290  0.87584585  0.87186806  1
  Ta5+  Ta59  1  0.61783644  0.62102329  0.86990630  1
  Ta5+  Ta60  1  0.62757468  0.12109792  0.37737705  1
  Ta5+  Ta61  1  0.14267170  0.60320785  0.62134320  1
  Ta5+  Ta62  1  0.12725241  0.38034299  0.12970897  1
  Ta5+  Ta63  1  0.38090894  0.87790284  0.11867280  1
  Ta5+  Ta64  1  0.37183282  0.61963869  0.87202758  1
  Ta5+  Ta65  1  0.35511905  0.60892051  0.62281115  1
  Ta5+  Ta66  1  0.57946874  0.36015333  0.61681971  1
  Ta5+  Ta67  1  0.63000423  0.38090582  0.12054912  1
  Ta5+  Ta68  1  0.41401424  0.36656628  0.62735122  1
  Ta5+  Ta69  1  0.38712632  0.87977577  0.37330753  1
  Ta5+  Ta70  1  0.10787623  0.62092863  0.38071135  1
  Ta5+  Ta71  1  0.35392838  0.89055796  0.62476208  1
  Ta5+  Ta72  1  0.38592424  0.62205531  0.37367190  1
  Ta5+  Ta73  1  0.12580908  0.37689437  0.38551170  1
  Ta5+  Ta74  1  0.88422303  0.37384735  0.84939041  1
  W6+  W75  1  0.64084878  0.61906703  0.11777748  1
  W6+  W76  1  0.38447974  0.38448766  0.12872022  1
  W6+  W77  1  0.63394304  0.37156768  0.86363648  1
  W6+  W78  1  0.10099143  0.62135536  0.86917544  1
  W6+  W79  1  0.88522133  0.11762811  0.62548055  1
  W6+  W80  1  0.37886306  0.11969849  0.38080733  1
  W6+  W81  1  0.57370784  0.13623725  0.60653074  1
  W6+  W82  1  0.12715001  0.11434655  0.87563371  1
  O2-  O83  1  0.15820225  -0.01141773  0.13314871  1
  O2-  O84  1  0.13635849  0.00018444  0.38655927  1
  O2-  O85  1  0.12063402  0.00692908  0.61749828  1
  O2-  O86  1  0.12114763  -0.01384184  0.86735358  1
  O2-  O87  1  0.15297683  0.50583779  0.13589223  1
  O2-  O88  1  0.11918141  0.50096385  0.38841779  1
  O2-  O89  1  0.12431444  0.48655788  0.62113311  1
  O2-  O90  1  0.11479736  0.49007955  0.86959828  1
  O2-  O91  1  0.35875053  -0.00533788  0.12106645  1
  O2-  O92  1  0.33989463  -0.01439414  0.38366547  1
  O2-  O93  1  0.39727027  0.00143727  0.61382466  1
  O2-  O94  1  0.34840386  0.00263248  0.86962970  1
  O2-  O95  1  0.38849422  0.51961562  0.12090035  1
  O2-  O96  1  0.36027922  0.50705730  0.37956518  1
  O2-  O97  1  0.38638499  0.49563188  0.62210078  1
  O2-  O98  1  0.38047021  0.50093281  0.87556383  1
  O2-  O99  1  0.64226331  -0.00327672  0.11911777  1
  O2-  O100  1  0.66314019  -0.00292831  0.37704203  1
  O2-  O101  1  0.60627210  0.00336681  0.62036300  1
  O2-  O102  1  0.65985270  0.00681220  0.86705604  1
  O2-  O103  1  0.59555262  0.49322710  0.11213952  1
  O2-  O104  1  0.65252463  0.50132960  0.39099217  1
  O2-  O105  1  0.57768801  0.48886464  0.62928266  1
  O2-  O106  1  0.61738701  0.50475424  0.86364883  1
  O2-  O107  1  0.84468164  -0.00400457  0.12891727  1
  O2-  O108  1  0.84742861  -0.00445986  0.36972171  1
  O2-  O109  1  0.88156154  -0.01419671  0.62591141  1
  O2-  O110  1  0.88805860  0.00229725  0.87955202  1
  O2-  O111  1  0.84992743  0.49914412  0.12698349  1
  O2-  O112  1  0.86063549  0.50186183  0.37912106  1
  O2-  O113  1  0.91939154  0.49858574  0.63516408  1
  O2-  O114  1  0.89000138  0.49549795  0.86273572  1
  O2-  O115  1  0.10200408  0.24797934  0.12198517  1
  O2-  O116  1  0.08538419  0.24613406  0.37549129  1
  O2-  O117  1  0.07093107  0.23236114  0.64837199  1
  O2-  O118  1  0.14596380  0.24472821  0.91175209  1
  O2-  O119  1  0.16093467  0.74839588  0.12624008  1
  O2-  O120  1  0.15351878  0.75446589  0.38730603  1
  O2-  O121  1  0.15923707  0.75185227  0.62352290  1
  O2-  O122  1  0.12831186  0.75627007  0.85622080  1
  O2-  O123  1  0.39680327  0.24673998  0.13034208  1
  O2-  O124  1  0.40625488  0.25322522  0.37345362  1
  O2-  O125  1  0.36194229  0.25146328  0.62760924  1
  O2-  O126  1  0.34110447  0.25053742  0.87475195  1
  O2-  O127  1  0.32823251  0.75712641  0.12064421  1
  O2-  O128  1  0.34024587  0.75373912  0.37802727  1
  O2-  O129  1  0.34601674  0.75409852  0.63211129  1
  O2-  O130  1  0.35961337  0.76471894  0.85656128  1
  O2-  O131  1  0.60119550  0.25047292  0.13889153  1
  O2-  O132  1  0.61153248  0.24939294  0.35579269  1
  O2-  O133  1  0.64214733  0.25026364  0.59338420  1
  O2-  O134  1  0.67615387  0.23823619  0.86441815  1
  O2-  O135  1  0.67191576  0.75718875  0.11546290  1
  O2-  O136  1  0.64245504  0.75592596  0.38422293  1
  O2-  O137  1  0.56864506  0.78160145  0.62538451  1
  O2-  O138  1  0.64251044  0.76151373  0.86339888  1
  O2-  O139  1  0.91397611  0.24224472  0.11944065  1
  O2-  O140  1  0.90700880  0.24633573  0.38178242  1
  O2-  O141  1  0.87993173  0.24961843  0.62684718  1
  O2-  O142  1  0.84528423  0.24844387  0.86279865  1
  O2-  O143  1  0.84185490  0.74441747  0.11850295  1
  O2-  O144  1  0.83615744  0.75489749  0.37666858  1
  O2-  O145  1  0.90548632  0.76466729  0.62152709  1
  O2-  O146  1  0.87273783  0.74669591  0.87652065  1
  O2-  O147  1  0.08044449  0.11227501  0.01632851  1
  O2-  O148  1  0.09028544  0.12207395  0.25047199  1
  O2-  O149  1  0.14482114  0.15021084  0.50741889  1
  O2-  O150  1  0.18389296  0.13062903  0.75355443  1
  O2-  O151  1  0.13809710  0.63457546  0.00624365  1
  O2-  O152  1  0.14685224  0.63777846  0.25623602  1
  O2-  O153  1  0.08343541  0.63580801  0.51108666  1
  O2-  O154  1  0.08089378  0.62973940  0.72725383  1
  O2-  O155  1  0.35351958  0.13219356  -0.00142199  1
  O2-  O156  1  0.41538813  0.11639588  0.24518974  1
  O2-  O157  1  0.34429433  0.13582932  0.51159120  1
  O2-  O158  1  0.38399741  0.12745922  0.74482429  1
  O2-  O159  1  0.35749287  0.64893958  -0.00245676  1
  O2-  O160  1  0.35908063  0.64534693  0.24819942  1
  O2-  O161  1  0.40721349  0.64637364  0.50660182  1
  O2-  O162  1  0.40642155  0.63549757  0.74318262  1
  O2-  O163  1  0.64595710  0.13756770  -0.00330151  1
  O2-  O164  1  0.60133065  0.11448050  0.25204741  1
  O2-  O165  1  0.54960444  0.11645638  0.46766129  1
  O2-  O166  1  0.61880699  0.14146375  0.74222126  1
  O2-  O167  1  0.67190538  0.63249425  -0.01938958  1
  O2-  O168  1  0.65635265  0.62912194  0.25557421  1
  O2-  O169  1  0.61170279  0.62961989  0.51318829  1
  O2-  O170  1  0.60643788  0.63595209  0.73740441  1
  O2-  O171  1  0.86280131  0.13548480  -0.00415093  1
  O2-  O172  1  0.90109434  0.12586944  0.25218894  1
  O2-  O173  1  0.93238380  0.11040647  0.48903878  1
  O2-  O174  1  0.81965928  0.12056575  0.74890513  1
  O2-  O175  1  0.87796710  0.62188483  -0.00173720  1
  O2-  O176  1  0.85102634  0.63172374  0.25081241  1
  O2-  O177  1  0.88413025  0.63067589  0.50865822  1
  O2-  O178  1  0.88730665  0.63179370  0.73996149  1
  O2-  O179  1  0.15607877  0.37719457  0.00617624  1
  O2-  O180  1  0.10523192  0.36911807  0.25643603  1
  O2-  O181  1  0.12337675  0.34400284  0.51141098  1
  O2-  O182  1  0.14589121  0.34917798  0.75547900  1
  O2-  O183  1  0.12197692  0.85506394  0.00165091  1
  O2-  O184  1  0.14871855  0.86801788  0.25233863  1
  O2-  O185  1  0.08738072  0.86297528  0.50569577  1
  O2-  O186  1  0.07895292  0.86801053  0.73232007  1
  O2-  O187  1  0.34068190  0.37305290  -0.00454743  1
  O2-  O188  1  0.43027618  0.38342633  0.26180202  1
  O2-  O189  1  0.36689353  0.36811994  0.50226746  1
  O2-  O190  1  0.40236107  0.37087804  0.75351524  1
  O2-  O191  1  0.34451032  0.86588964  -0.00529453  1
  O2-  O192  1  0.35546376  0.86328867  0.24564168  1
  O2-  O193  1  0.40631469  0.85236821  0.49996535  1
  O2-  O194  1  0.41150834  0.87568158  0.74433568  1
  O2-  O195  1  0.65353978  0.35936617  -0.00141530  1
  O2-  O196  1  0.63882678  0.37890520  0.25190836  1
  O2-  O197  1  0.56296641  0.37052911  0.48589309  1
  O2-  O198  1  0.63354580  0.35095851  0.73246450  1
  O2-  O199  1  0.66620023  0.87260597  -0.00447549  1
  O2-  O200  1  0.65215180  0.86665966  0.24339867  1
  O2-  O201  1  0.58640925  0.87980393  0.49360386  1
  O2-  O202  1  0.58469555  0.88474303  0.75191537  1
  O2-  O203  1  0.86774406  0.35941948  -0.00930075  1
  O2-  O204  1  0.88045512  0.35662710  0.25183893  1
  O2-  O205  1  0.91624867  0.37363473  0.50602549  1
  O2-  O206  1  0.82457105  0.37262823  0.74006397  1
  O2-  O207  1  0.86358550  0.86512555  0.00468294  1
  O2-  O208  1  0.84538257  0.86559354  0.24052692  1
  O2-  O209  1  0.89823177  0.87081743  0.49349642  1
  O2-  O210  1  0.89815820  0.86735043  0.75317532  1
  O2-  O211  1  0.00043653  -0.04848322  0.09871185  1
  O2-  O212  1  -0.00056472  -0.19307605  0.16084547  1
  O2-  O213  1  -0.00408961  -0.13024001  0.34684414  1
  O2-  O214  1  -0.00365343  0.15789910  0.86609900  1
  O2-  O215  1  0.00329094  0.39359024  0.11100729  1
  O2-  O216  1  -0.00025024  0.61850579  0.13756938  1
  O2-  O217  1  -0.00782045  0.67366237  0.36478571  1
  O2-  O218  1  0.00282819  0.34505227  0.88807243  1
  O2-  O219  1  0.24523560  0.14747434  0.13572796  1
  O2-  O220  1  0.25013135  0.16210116  0.35855335  1
  O2-  O221  1  0.25157819  -0.10862688  0.54315342  1
  O2-  O222  1  0.25024710  -0.10951635  0.70454321  1
  O2-  O223  1  0.25034149  0.63993312  -0.13282986  1
  O2-  O224  1  0.24803342  0.35418907  0.37664181  1
  O2-  O225  1  0.25103448  0.60859845  0.53825322  1
  O2-  O226  1  0.24942980  0.61010224  0.69674302  1
  O2-  O227  1  0.50532830  -0.10783472  -0.09061915  1
  O2-  O228  1  0.50258445  -0.13113337  0.11373200  1
  O2-  O229  1  0.50376018  -0.10980213  0.33954119  1
  O2-  O230  1  0.49911846  0.12333123  0.88429581  1
  O2-  O231  1  0.49907975  0.65110408  -0.11342311  1
  O2-  O232  1  0.50617395  0.66937473  0.11767308  1
  O2-  O233  1  0.50689988  0.63772536  0.36477531  1
  O2-  O234  1  0.50524990  0.35228548  0.90594694  1
  O2-  O235  1  0.75040737  0.15509618  0.14685991  1
  O2-  O236  1  0.75317240  0.15322171  0.36318706  1
  O2-  O237  1  0.74165684  -0.11657981  0.54528953  1
  O2-  O238  1  0.73835269  -0.12890972  0.70315507  1
  O2-  O239  1  0.75742558  0.33809515  0.12777185  1
  O2-  O240  1  0.75558568  0.34755423  0.39013932  1
  O2-  O241  1  0.75039612  0.51610910  0.61110051  1
  O2-  O242  1  0.74434524  0.67507722  0.63311774  1
