# generated using pymatgen
data_Gd19Ta56(WO20)8
_symmetry_space_group_name_H-M   'P 1'
_cell_length_a   15.54661900
_cell_length_b   15.50513123
_cell_length_c   15.28923230
_cell_angle_alpha   90.10071059
_cell_angle_beta   89.93920932
_cell_angle_gamma   90.01071282
_symmetry_Int_Tables_number   1
_chemical_formula_structural   Gd19Ta56(WO20)8
_chemical_formula_sum   'Gd19 Ta56 W8 O160'
_cell_volume   3685.49781545
_cell_formula_units_Z   1
loop_
 _symmetry_equiv_pos_site_id
 _symmetry_equiv_pos_as_xyz
  1  'x, y, z'
loop_
 _atom_type_symbol
 _atom_type_oxidation_number
  Gd3+  3.0
  Ta5+  5.0
  W6+  6.0
  O2-  -2.0
loop_
 _atom_site_type_symbol
 _atom_site_label
 _atom_site_symmetry_multiplicity
 _atom_site_fract_x
 _atom_site_fract_y
 _atom_site_fract_z
 _atom_site_occupancy
  Gd3+  Gd0  1  0.76788898  0.24115234  0.48016020  1
  Gd3+  Gd1  1  0.78287469  0.73711275  0.25757337  1
  Gd3+  Gd2  1  0.72363612  0.75630020  0.48386156  1
  Gd3+  Gd3  1  -0.01286433  0.75117339  0.49212176  1
  Gd3+  Gd4  1  0.25146695  0.25461544  0.52873484  1
  Gd3+  Gd5  1  0.48684664  0.75356841  -0.00398015  1
  Gd3+  Gd6  1  0.73999946  0.74075626  0.00484217  1
  Gd3+  Gd7  1  0.25734008  0.75385916  0.74525358  1
  Gd3+  Gd8  1  0.75232918  0.73950629  0.76755755  1
  Gd3+  Gd9  1  0.75776538  0.25070727  0.72973183  1
  Gd3+  Gd10  1  0.00351612  0.26273121  0.76793575  1
  Gd3+  Gd11  1  0.51270754  0.24917269  0.78647744  1
  Gd3+  Gd12  1  0.47605428  0.74839048  0.50928455  1
  Gd3+  Gd13  1  -0.01406382  0.74766858  0.02676481  1
  Gd3+  Gd14  1  0.49371972  0.23208444  0.24638652  1
  Gd3+  Gd15  1  0.47409720  0.75186099  0.25996925  1
  Gd3+  Gd16  1  -0.00378517  0.74926856  0.74105638  1
  Gd3+  Gd17  1  -0.01056602  0.26900331  0.01506119  1
  Gd3+  Gd18  1  0.02326609  0.29065323  0.48445316  1
  Ta5+  Ta19  1  0.63565505  0.58942765  0.12132699  1
  Ta5+  Ta20  1  0.61093075  0.59483604  0.32631346  1
  Ta5+  Ta21  1  0.19801667  0.36520748  0.35363784  1
  Ta5+  Ta22  1  0.67370250  0.14460842  0.88872201  1
  Ta5+  Ta23  1  0.89013192  0.37477758  0.62221560  1
  Ta5+  Ta24  1  0.84699879  0.88998813  0.63306905  1
  Ta5+  Ta25  1  0.39848638  0.36961495  0.63299632  1
  Ta5+  Ta26  1  0.36947412  0.12490590  0.11045442  1
  Ta5+  Ta27  1  0.83557275  0.36954314  0.88609459  1
  Ta5+  Ta28  1  0.39152370  0.37070310  0.11565145  1
  Ta5+  Ta29  1  0.35763463  0.61973104  0.12550576  1
  Ta5+  Ta30  1  0.33897409  0.88045265  0.37933286  1
  Ta5+  Ta31  1  0.33908588  0.12999542  0.86825366  1
  Ta5+  Ta32  1  0.13446715  0.13133200  0.88302343  1
  Ta5+  Ta33  1  0.84126392  0.14820721  0.88782014  1
  Ta5+  Ta34  1  0.58716679  0.59530154  0.83613271  1
  Ta5+  Ta35  1  0.64929073  0.61337755  0.61695632  1
  Ta5+  Ta36  1  0.60568718  0.92276462  0.36011338  1
  Ta5+  Ta37  1  0.39248983  0.88859185  0.87046589  1
  Ta5+  Ta38  1  0.80053545  0.33595799  0.12144927  1
  Ta5+  Ta39  1  0.10264140  0.88888573  0.88139012  1
  Ta5+  Ta40  1  0.36085553  0.37269160  0.88468679  1
  Ta5+  Ta41  1  0.36353636  0.37112557  0.37202308  1
  Ta5+  Ta42  1  0.13159781  0.59967252  0.36978113  1
  Ta5+  Ta43  1  0.84344213  0.90301228  0.12700553  1
  Ta5+  Ta44  1  0.66740630  0.14589637  0.13301625  1
  Ta5+  Ta45  1  0.85348673  0.58249495  0.12625869  1
  Ta5+  Ta46  1  0.11897680  0.94407702  0.37871954  1
  Ta5+  Ta47  1  0.63189138  0.90678796  0.85872107  1
  Ta5+  Ta48  1  0.85626889  0.61821432  0.62064121  1
  Ta5+  Ta49  1  0.19811478  0.35299977  0.10119599  1
  Ta5+  Ta50  1  0.89482469  0.60097637  0.88361733  1
  Ta5+  Ta51  1  0.83569281  0.15735416  0.13566250  1
  Ta5+  Ta52  1  0.36586889  0.61825017  0.38471629  1
  Ta5+  Ta53  1  0.63370524  0.11912025  0.61892036  1
  Ta5+  Ta54  1  0.14037087  0.59259144  0.12575217  1
  Ta5+  Ta55  1  0.11526741  0.62468990  0.62219836  1
  Ta5+  Ta56  1  0.63782137  0.87616534  0.64029745  1
  Ta5+  Ta57  1  0.38555361  0.61426206  0.87041602  1
  Ta5+  Ta58  1  0.86623883  0.90170179  0.88156562  1
  Ta5+  Ta59  1  0.11296405  0.12520406  0.11994649  1
  Ta5+  Ta60  1  0.89391296  0.89406357  0.37927374  1
  Ta5+  Ta61  1  0.61909073  0.90390147  0.16139703  1
  Ta5+  Ta62  1  0.91452919  0.57096343  0.37234965  1
  Ta5+  Ta63  1  0.13130149  0.88584777  0.13630038  1
  Ta5+  Ta64  1  0.63625997  0.37048295  0.61405500  1
  Ta5+  Ta65  1  0.11515716  0.14333101  0.37456238  1
  Ta5+  Ta66  1  0.91926890  0.13342028  0.36018912  1
  Ta5+  Ta67  1  0.87223428  0.38095194  0.35251870  1
  Ta5+  Ta68  1  0.12927436  0.39394456  0.64230192  1
  Ta5+  Ta69  1  0.10372961  0.89349189  0.62722127  1
  Ta5+  Ta70  1  0.61441510  0.35676259  0.38589560  1
  Ta5+  Ta71  1  0.40007568  0.12732439  0.62475768  1
  Ta5+  Ta72  1  0.63347630  0.10975414  0.38008919  1
  Ta5+  Ta73  1  0.15489352  0.38498966  0.88994246  1
  Ta5+  Ta74  1  0.63214592  0.35206058  0.13143669  1
  W6+  W75  1  0.89566664  0.13653636  0.62329960  1
  W6+  W76  1  0.38050004  0.60726546  0.65193722  1
  W6+  W77  1  0.15580411  0.13502691  0.65991494  1
  W6+  W78  1  0.37767038  0.87969861  0.12373038  1
  W6+  W79  1  0.32723061  0.12505243  0.36750998  1
  W6+  W80  1  0.38107835  0.87830938  0.63266380  1
  W6+  W81  1  0.12358375  0.63311280  0.88475545  1
  W6+  W82  1  0.67284518  0.36061085  0.88600320  1
  O2-  O83  1  0.12976043  0.00554598  0.09763085  1
  O2-  O84  1  0.19664974  0.04353391  0.39050989  1
  O2-  O85  1  0.14406187  -0.00002178  0.65897334  1
  O2-  O86  1  0.14475771  0.00146923  0.88356862  1
  O2-  O87  1  0.18157112  0.48448235  0.10693319  1
  O2-  O88  1  0.15870716  0.48306329  0.36271875  1
  O2-  O89  1  0.16392654  0.51331706  0.64598057  1
  O2-  O90  1  0.16317073  0.50342295  0.89491778  1
  O2-  O91  1  0.39596082  0.01183212  0.13502466  1
  O2-  O92  1  0.35902048  -0.00368466  0.36851426  1
  O2-  O93  1  0.39412042  0.01066665  0.63069290  1
  O2-  O94  1  0.37193396  0.00868719  0.86636316  1
  O2-  O95  1  0.37647879  0.50115539  0.12599691  1
  O2-  O96  1  0.36964817  0.49720838  0.37453308  1
  O2-  O97  1  0.35095522  0.47719154  0.64632712  1
  O2-  O98  1  0.35744535  0.49559609  0.89131178  1
  O2-  O99  1  0.64973414  0.01682991  0.14931494  1
  O2-  O100  1  0.54783142  0.02059059  0.41420827  1
  O2-  O101  1  0.61883073  0.00020838  0.64214549  1
  O2-  O102  1  0.65077506  0.02141213  0.84660787  1
  O2-  O103  1  0.59614997  0.47958565  0.09939709  1
  O2-  O104  1  0.61675226  0.48805980  0.37778390  1
  O2-  O105  1  0.62129452  0.49503834  0.61668260  1
  O2-  O106  1  0.63779216  0.49177048  0.85476930  1
  O2-  O107  1  0.84818202  0.01833854  0.12964623  1
  O2-  O108  1  0.87370649  0.01070646  0.37460880  1
  O2-  O109  1  0.86366795  0.00517069  0.63826682  1
  O2-  O110  1  0.83409331  0.01482308  0.87581806  1
  O2-  O111  1  0.84826303  0.46717932  0.13454147  1
  O2-  O112  1  0.81708659  0.49904440  0.37722399  1
  O2-  O113  1  0.87000009  0.49720759  0.62171694  1
  O2-  O114  1  0.82947501  0.50091508  0.87803980  1
  O2-  O115  1  0.17364291  0.23159804  0.09970350  1
  O2-  O116  1  0.11365005  0.26658111  0.36352396  1
  O2-  O117  1  0.16462768  0.27524660  0.65608424  1
  O2-  O118  1  0.10371248  0.25929885  0.88077366  1
  O2-  O119  1  0.05046747  0.79411191  0.14822838  1
  O2-  O120  1  0.01980157  0.66202944  0.37436148  1
  O2-  O121  1  0.09993035  0.75902556  0.59806382  1
  O2-  O122  1  0.04461329  0.75649322  0.88242426  1
  O2-  O123  1  0.41539470  0.24547836  0.11813912  1
  O2-  O124  1  0.28885166  0.25999544  0.37585523  1
  O2-  O125  1  0.34955491  0.25414735  0.64481157  1
  O2-  O126  1  0.39094753  0.24505716  0.87791466  1
  O2-  O127  1  0.41626370  0.73714848  0.12431693  1
  O2-  O128  1  0.39014608  0.75155707  0.38465801  1
  O2-  O129  1  0.36766435  0.74275669  0.64532976  1
  O2-  O130  1  0.40285494  0.74847395  0.86188951  1
  O2-  O131  1  0.58444969  0.24059670  0.11288734  1
  O2-  O132  1  0.61613614  0.23219762  0.41224877  1
  O2-  O133  1  0.67703476  0.24436246  0.60140447  1
  O2-  O134  1  0.60145605  0.24857815  0.90277242  1
  O2-  O135  1  0.52432043  0.86763968  0.09273112  1
  O2-  O136  1  0.69165679  0.67629376  0.36368275  1
  O2-  O137  1  0.68358410  0.75374322  0.63109348  1
  O2-  O138  1  0.67478275  0.67616928  0.87737454  1
  O2-  O139  1  0.90994075  0.26249706  0.13867694  1
  O2-  O140  1  0.93316317  0.26744219  0.35988574  1
  O2-  O141  1  0.95710766  0.26037873  0.62165281  1
  O2-  O142  1  0.91486557  0.26018721  0.88538557  1
  O2-  O143  1  0.84477700  0.73554756  0.11745646  1
  O2-  O144  1  0.83692911  0.77795893  0.38728850  1
  O2-  O145  1  0.86900544  0.75045316  0.61551765  1
  O2-  O146  1  0.85752300  0.72029179  0.91636925  1
  O2-  O147  1  0.06385356  0.13319193  -0.00689599  1
  O2-  O148  1  0.11172740  0.13048133  0.24269143  1
  O2-  O149  1  0.12132542  0.16844758  0.51045017  1
  O2-  O150  1  0.07033824  0.13225232  0.77060405  1
  O2-  O151  1  0.09100825  0.64105246  0.02524276  1
  O2-  O152  1  0.09832420  0.60090602  0.24000088  1
  O2-  O153  1  0.12403171  0.61001858  0.49770618  1
  O2-  O154  1  0.13129121  0.66442723  0.74473079  1
  O2-  O155  1  0.38816676  0.11861730  -0.00978212  1
  O2-  O156  1  0.36758794  0.15045049  0.24520026  1
  O2-  O157  1  0.33870199  0.13628699  0.51340416  1
  O2-  O158  1  0.41641509  0.13909428  0.75371484  1
  O2-  O159  1  0.36017813  0.63972751  -0.00049882  1
  O2-  O160  1  0.37837664  0.63514929  0.25213103  1
  O2-  O161  1  0.38392373  0.62382398  0.50840605  1
  O2-  O162  1  0.30483065  0.62263084  0.77490729  1
  O2-  O163  1  0.66538833  0.12311253  0.00812018  1
  O2-  O164  1  0.62264229  0.14593588  0.26160263  1
  O2-  O165  1  0.69087079  0.10616953  0.50483012  1
  O2-  O166  1  0.63559997  0.15763848  0.74534269  1
  O2-  O167  1  0.60842271  0.69515772  0.05959556  1
  O2-  O168  1  0.55308832  0.62469222  0.21285088  1
  O2-  O169  1  0.59095812  0.66023954  0.52063974  1
  O2-  O170  1  0.59531059  0.65163118  0.72323735  1
  O2-  O171  1  0.86956040  0.14681156  0.00861802  1
  O2-  O172  1  0.84720738  0.14725571  0.26454138  1
  O2-  O173  1  0.89558034  0.15489786  0.48480565  1
  O2-  O174  1  0.87538631  0.15808594  0.75843081  1
  O2-  O175  1  0.92030578  0.60200589  0.02135937  1
  O2-  O176  1  0.88629758  0.61734453  0.25089576  1
  O2-  O177  1  0.90643822  0.62443034  0.48775202  1
  O2-  O178  1  0.88702609  0.65095606  0.76322569  1
  O2-  O179  1  0.09708887  0.37080474  0.00961339  1
  O2-  O180  1  0.20188215  0.35525746  0.22719652  1
  O2-  O181  1  0.15568951  0.36792413  0.50480409  1
  O2-  O182  1  0.09042278  0.39099991  0.76580360  1
  O2-  O183  1  0.10845624  0.86123333  0.00175333  1
  O2-  O184  1  0.11635771  0.92986418  0.25590553  1
  O2-  O185  1  0.10040262  0.91493029  0.50576431  1
  O2-  O186  1  0.13166799  0.84918610  0.75894521  1
  O2-  O187  1  0.42600347  0.37527783  -0.00385277  1
  O2-  O188  1  0.40393537  0.35897739  0.25019194  1
  O2-  O189  1  0.36714311  0.35907057  0.50709098  1
  O2-  O190  1  0.42690520  0.36945385  0.77046760  1
  O2-  O191  1  0.35923138  0.86462619  -0.01532700  1
  O2-  O192  1  0.36984529  0.85408545  0.26039854  1
  O2-  O193  1  0.38802681  0.87217750  0.49450514  1
  O2-  O194  1  0.32922360  0.87757062  0.76350263  1
  O2-  O195  1  0.70257599  0.35994432  0.02444263  1
  O2-  O196  1  0.60764332  0.34557751  0.26202732  1
  O2-  O197  1  0.68654680  0.37244526  0.49522519  1
  O2-  O198  1  0.63790164  0.34616141  0.74278961  1
  O2-  O199  1  0.74105770  0.85500774  -0.10229410  1
  O2-  O200  1  0.67586351  0.84156305  0.26129721  1
  O2-  O201  1  0.59627206  0.82651002  0.43648463  1
  O2-  O202  1  0.60104061  0.83707948  0.76278723  1
  O2-  O203  1  0.87622783  0.36571809  0.00318267  1
  O2-  O204  1  0.80955667  0.35485511  0.25444177  1
  O2-  O205  1  0.87312152  0.35516428  0.49255714  1
  O2-  O206  1  0.87414854  0.36172399  0.75134983  1
  O2-  O207  1  0.88997689  0.87334549  0.00559147  1
  O2-  O208  1  0.86678927  0.86981520  0.24607294  1
  O2-  O209  1  0.89954705  0.87916103  0.50610827  1
  O2-  O210  1  0.87675744  0.83513769  0.77276331  1
  O2-  O211  1  -0.01246749  -0.07553218  -0.13329977  1
  O2-  O212  1  0.01068257  -0.14176360  0.37376833  1
  O2-  O213  1  0.03047370  0.04738298  0.38596272  1
  O2-  O214  1  -0.01480731  -0.12145203  0.65443350  1
  O2-  O215  1  0.00600017  0.56985797  -0.13785395  1
  O2-  O216  1  -0.02095346  0.46787898  0.37253235  1
  O2-  O217  1  0.01642449  0.40830860  0.59857215  1
  O2-  O218  1  -0.00663529  0.62903991  0.63290337  1
  O2-  O219  1  0.23893751  0.15364569  -0.05552219  1
  O2-  O220  1  0.24329914  -0.14626321  0.13567830  1
  O2-  O221  1  0.21793145  -0.13555099  0.38580051  1
  O2-  O222  1  0.23696381  0.12919969  0.78604477  1
  O2-  O223  1  0.25545795  0.35852172  -0.02156635  1
  O2-  O224  1  0.24136733  0.65778425  0.13807434  1
  O2-  O225  1  0.24307099  0.64783453  0.36710812  1
  O2-  O226  1  0.25454864  0.35697566  0.81811724  1
  O2-  O227  1  0.51696939  -0.10959540  -0.09578913  1
  O2-  O228  1  0.53063736  -0.09021756  0.26225281  1
  O2-  O229  1  0.51646642  0.15193126  0.59538950  1
  O2-  O230  1  0.52178191  -0.15085911  0.60993482  1
  O2-  O231  1  0.50960242  0.61890030  -0.06861037  1
  O2-  O232  1  0.50332314  0.63482524  0.37161653  1
  O2-  O233  1  0.51594575  0.34510679  0.61068297  1
  O2-  O234  1  0.46407826  0.57878769  0.77767370  1
  O2-  O235  1  0.72698229  -0.13197728  0.09045015  1
  O2-  O236  1  0.70083242  -0.00217209  0.35018597  1
  O2-  O237  1  0.74007986  -0.11007232  0.55543894  1
  O2-  O238  1  0.74408664  -0.10733588  0.71985023  1
  O2-  O239  1  0.74863845  0.59760815  0.05540155  1
  O2-  O240  1  0.71209259  0.58948682  0.22240702  1
  O2-  O241  1  0.75604511  0.62245819  0.53969163  1
  O2-  O242  1  0.75402370  0.60801613  0.69852659  1
