# generated using pymatgen
data_Gd19Ta56(WO20)8
_symmetry_space_group_name_H-M   'P 1'
_cell_length_a   15.51378523
_cell_length_b   15.44213687
_cell_length_c   15.23851564
_cell_angle_alpha   90.11439969
_cell_angle_beta   89.93734092
_cell_angle_gamma   90.07279381
_symmetry_Int_Tables_number   1
_chemical_formula_structural   Gd19Ta56(WO20)8
_chemical_formula_sum   'Gd19 Ta56 W8 O160'
_cell_volume   3650.61776180
_cell_formula_units_Z   1
loop_
 _symmetry_equiv_pos_site_id
 _symmetry_equiv_pos_as_xyz
  1  'x, y, z'
loop_
 _atom_type_symbol
 _atom_type_oxidation_number
  Gd3+  3.0
  Ta5+  5.0
  W6+  6.0
  O2-  -2.0
loop_
 _atom_site_type_symbol
 _atom_site_label
 _atom_site_symmetry_multiplicity
 _atom_site_fract_x
 _atom_site_fract_y
 _atom_site_fract_z
 _atom_site_occupancy
  Gd3+  Gd0  1  0.51543356  0.75707888  0.00119025  1
  Gd3+  Gd1  1  0.04490505  0.23212522  0.77267456  1
  Gd3+  Gd2  1  0.74915569  0.23770489  0.49253678  1
  Gd3+  Gd3  1  -0.07326841  0.23829809  0.26594250  1
  Gd3+  Gd4  1  0.75371564  0.23819224  0.01156527  1
  Gd3+  Gd5  1  0.44371747  0.24968030  0.03234110  1
  Gd3+  Gd6  1  0.75020797  0.75503287  0.53755798  1
  Gd3+  Gd7  1  0.24593365  0.26960486  0.27107589  1
  Gd3+  Gd8  1  0.25721092  0.25103141  0.73613869  1
  Gd3+  Gd9  1  0.25817423  0.73651086  0.24958422  1
  Gd3+  Gd10  1  0.25431483  0.75393803  0.72089148  1
  Gd3+  Gd11  1  0.52146245  0.75713518  0.48658144  1
  Gd3+  Gd12  1  -0.00440894  0.74519306  0.25290089  1
  Gd3+  Gd13  1  0.00556327  0.73993486  0.00713990  1
  Gd3+  Gd14  1  -0.02457231  0.24757506  0.48863243  1
  Gd3+  Gd15  1  0.52864085  0.75550933  0.25229067  1
  Gd3+  Gd16  1  0.25120880  0.74618084  -0.00798719  1
  Gd3+  Gd17  1  0.21752587  0.25159145  -0.02026070  1
  Gd3+  Gd18  1  0.75410865  0.24366376  0.74660519  1
  Ta5+  Ta19  1  0.89619062  0.08886248  0.62058202  1
  Ta5+  Ta20  1  0.10273584  0.10213806  0.58815641  1
  Ta5+  Ta21  1  0.15082695  0.88990513  0.12761565  1
  Ta5+  Ta22  1  0.42669078  0.13210472  0.35635310  1
  Ta5+  Ta23  1  0.93244673  0.83459610  0.62909872  1
  Ta5+  Ta24  1  0.83566374  0.06544067  0.38790617  1
  Ta5+  Ta25  1  0.59433150  0.12477816  0.37285622  1
  Ta5+  Ta26  1  0.14016421  0.64227785  0.39232094  1
  Ta5+  Ta27  1  0.39903632  0.11624244  0.83874670  1
  Ta5+  Ta28  1  0.38711619  0.38315726  0.62226375  1
  Ta5+  Ta29  1  0.15374761  0.60605361  0.11897994  1
  Ta5+  Ta30  1  0.88275022  0.63181183  0.38550249  1
  Ta5+  Ta31  1  0.59806059  0.11454728  0.85817247  1
  Ta5+  Ta32  1  0.64014056  0.61801729  0.87522818  1
  Ta5+  Ta33  1  0.58335298  0.13498343  0.15986502  1
  Ta5+  Ta34  1  0.11680972  0.87419164  0.86719867  1
  Ta5+  Ta35  1  0.64783998  0.61694815  0.12087946  1
  Ta5+  Ta36  1  0.09247551  0.42152847  0.61351065  1
  Ta5+  Ta37  1  0.58297916  0.87629758  0.63767601  1
  Ta5+  Ta38  1  0.89437263  0.38240965  0.61581099  1
  Ta5+  Ta39  1  0.09915928  0.86152983  0.61132613  1
  Ta5+  Ta40  1  0.06847977  0.67479939  0.61476590  1
  Ta5+  Ta41  1  0.88412392  0.37580862  0.12779087  1
  Ta5+  Ta42  1  0.19129951  0.07285707  0.35750987  1
  Ta5+  Ta43  1  0.43312923  0.63052978  0.63082257  1
  Ta5+  Ta44  1  0.60663707  0.12257878  0.62200840  1
  Ta5+  Ta45  1  0.39247683  0.62106783  0.37462700  1
  Ta5+  Ta46  1  0.86101484  0.86368225  0.12436730  1
  Ta5+  Ta47  1  0.62749916  0.36934533  0.36747840  1
  Ta5+  Ta48  1  0.66136159  0.91641501  0.12435477  1
  Ta5+  Ta49  1  0.60235910  0.62745686  0.62874006  1
  Ta5+  Ta50  1  0.65450448  0.89092243  0.37891675  1
  Ta5+  Ta51  1  0.84817140  0.61634617  0.12913387  1
  Ta5+  Ta52  1  0.10509111  0.13382866  0.14291357  1
  Ta5+  Ta53  1  0.65230676  0.87315052  0.87749092  1
  Ta5+  Ta54  1  0.39360333  0.37841367  0.37501338  1
  Ta5+  Ta55  1  0.62437830  0.37912707  0.62403159  1
  Ta5+  Ta56  1  0.12655318  0.61699014  0.85915013  1
  Ta5+  Ta57  1  0.13372041  0.89191079  0.36953935  1
  Ta5+  Ta58  1  0.10051187  0.39804711  0.39663257  1
  Ta5+  Ta59  1  0.41231616  0.87667204  0.62748217  1
  Ta5+  Ta60  1  0.12569924  0.42247657  0.86604784  1
  Ta5+  Ta61  1  0.83533812  0.44361056  0.38223192  1
  Ta5+  Ta62  1  0.65514666  0.61273507  0.37139634  1
  Ta5+  Ta63  1  0.34636540  0.12395640  0.15509474  1
  Ta5+  Ta64  1  0.87994675  0.61864113  0.87786763  1
  Ta5+  Ta65  1  0.86872116  0.06897511  0.13276174  1
  Ta5+  Ta66  1  0.38081180  0.12549996  0.60015556  1
  Ta5+  Ta67  1  0.09155258  0.06509901  0.90009056  1
  Ta5+  Ta68  1  0.61373006  0.38116163  0.13051643  1
  Ta5+  Ta69  1  0.36499205  0.60762983  0.11963482  1
  Ta5+  Ta70  1  0.38828170  0.62115208  0.87157386  1
  Ta5+  Ta71  1  0.40084733  0.37248388  0.86907352  1
  Ta5+  Ta72  1  0.36334217  0.88364649  0.12150878  1
  Ta5+  Ta73  1  0.88561930  0.37328973  0.86989761  1
  Ta5+  Ta74  1  0.90472893  0.63285534  0.63139600  1
  W6+  W75  1  0.89290760  0.87487418  0.86979222  1
  W6+  W76  1  0.13243035  0.38808726  0.13393933  1
  W6+  W77  1  0.86675815  0.86378633  0.38675343  1
  W6+  W78  1  0.60670535  0.36620323  0.87519711  1
  W6+  W79  1  0.85991430  0.10878700  0.87383391  1
  W6+  W80  1  0.33305584  0.39042243  0.12890494  1
  W6+  W81  1  0.37097837  0.87890447  0.86750996  1
  W6+  W82  1  0.39988302  0.88759853  0.36795923  1
  O2-  O83  1  0.13533608  0.01267355  0.13987545  1
  O2-  O84  1  0.09128103  0.00834382  0.33296180  1
  O2-  O85  1  0.13237306  -0.00584012  0.62618415  1
  O2-  O86  1  0.01809827  -0.04190639  0.87606125  1
  O2-  O87  1  0.08129965  0.51485260  0.14362181  1
  O2-  O88  1  0.11188081  0.51867711  0.39479299  1
  O2-  O89  1  0.07670269  0.53827640  0.60989250  1
  O2-  O90  1  0.04281384  0.52109042  0.86252523  1
  O2-  O91  1  0.37325311  0.00536336  0.13011478  1
  O2-  O92  1  0.42006468  0.01198726  0.35014474  1
  O2-  O93  1  0.39930229  0.00598854  0.61626971  1
  O2-  O94  1  0.36446685  0.01647997  0.88819390  1
  O2-  O95  1  0.41144037  0.49920261  0.11005244  1
  O2-  O96  1  0.42268778  0.50542590  0.37414795  1
  O2-  O97  1  0.39954354  0.50381960  0.62934519  1
  O2-  O98  1  0.39345119  0.49346266  0.87673042  1
  O2-  O99  1  0.58089368  0.01089243  0.13403567  1
  O2-  O100  1  0.59796122  -0.00189144  0.37758732  1
  O2-  O101  1  0.59225238  0.00401046  0.61846636  1
  O2-  O102  1  0.63836426  0.00772307  0.89691092  1
  O2-  O103  1  0.59463424  0.50295627  0.12879194  1
  O2-  O104  1  0.62048674  0.49530737  0.38400456  1
  O2-  O105  1  0.62182062  0.49876027  0.61931038  1
  O2-  O106  1  0.62613659  0.50031212  0.87665163  1
  O2-  O107  1  0.93934960  -0.02660773  0.12795701  1
  O2-  O108  1  0.92640538  -0.00740438  0.39036227  1
  O2-  O109  1  0.91164763  -0.02677728  0.62595612  1
  O2-  O110  1  0.83245357  -0.01264973  0.86931833  1
  O2-  O111  1  0.86089482  0.49426906  0.14917228  1
  O2-  O112  1  0.93370861  0.51124540  0.39678363  1
  O2-  O113  1  0.88476892  0.50146667  0.61969687  1
  O2-  O114  1  0.85799838  0.48996886  0.88220921  1
  O2-  O115  1  0.16159241  0.24547414  0.12209042  1
  O2-  O116  1  0.01317815  0.31279238  0.36540665  1
  O2-  O117  1  0.15235932  0.20220351  0.64245577  1
  O2-  O118  1  0.16610767  0.29755098  0.84764557  1
  O2-  O119  1  0.16314781  0.74250813  0.12371258  1
  O2-  O120  1  0.17612975  0.77194857  0.37143679  1
  O2-  O121  1  0.17313119  0.76192293  0.59812621  1
  O2-  O122  1  0.13288428  0.74936631  0.89321917  1
  O2-  O123  1  0.34867043  0.25480110  0.16527746  1
  O2-  O124  1  0.36953679  0.25443335  0.35789637  1
  O2-  O125  1  0.34498814  0.25605914  0.61771356  1
  O2-  O126  1  0.35128334  0.23564935  0.86292793  1
  O2-  O127  1  0.34906783  0.74644332  0.11643086  1
  O2-  O128  1  0.42916550  0.74965640  0.36946415  1
  O2-  O129  1  0.37645961  0.74526066  0.63369685  1
  O2-  O130  1  0.33879310  0.73964023  0.86699361  1
  O2-  O131  1  0.54939361  0.27210317  0.13939554  1
  O2-  O132  1  0.65964955  0.24732249  0.37087030  1
  O2-  O133  1  0.67281968  0.24441423  0.62112460  1
  O2-  O134  1  0.65449377  0.22551355  0.87956508  1
  O2-  O135  1  0.58557899  0.72873428  0.12340980  1
  O2-  O136  1  0.62412608  0.75618682  0.36991955  1
  O2-  O137  1  0.62810572  0.75614145  0.63120860  1
  O2-  O138  1  0.60192038  0.75681413  0.88227646  1
  O2-  O139  1  0.81939753  0.27174027  0.14623221  1
  O2-  O140  1  0.86989358  0.19661640  0.39748005  1
  O2-  O141  1  0.87072147  0.24323386  0.59499486  1
  O2-  O142  1  0.83305427  0.25568304  0.88030925  1
  O2-  O143  1  0.91216510  0.73861211  0.12624247  1
  O2-  O144  1  0.93556869  0.74404036  0.38742985  1
  O2-  O145  1  0.83625660  0.73565655  0.65369748  1
  O2-  O146  1  0.92878952  0.73482432  0.88524467  1
  O2-  O147  1  0.11889546  0.12562798  0.00707638  1
  O2-  O148  1  0.13241743  0.15801051  0.26634027  1
  O2-  O149  1  0.16393342  0.11300119  0.47170073  1
  O2-  O150  1  0.14975695  0.13016720  0.81627809  1
  O2-  O151  1  0.10595484  0.62733083  -0.00077325  1
  O2-  O152  1  0.11641359  0.65232024  0.26357495  1
  O2-  O153  1  0.06864498  0.67206944  0.48389798  1
  O2-  O154  1  0.12124339  0.65368949  0.74223101  1
  O2-  O155  1  0.32055890  0.15239722  0.03490530  1
  O2-  O156  1  0.29333002  0.11231306  0.27777135  1
  O2-  O157  1  0.37157402  0.12966508  0.47984393  1
  O2-  O158  1  0.33146524  0.12350163  0.72985283  1
  O2-  O159  1  0.41839654  0.64128946  -0.00202223  1
  O2-  O160  1  0.41125825  0.64236393  0.24106132  1
  O2-  O161  1  0.42530058  0.63751857  0.49663480  1
  O2-  O162  1  0.43416478  0.63282962  0.76043439  1
  O2-  O163  1  0.64960203  0.15436378  0.05824036  1
  O2-  O164  1  0.65719168  0.12889839  0.25267483  1
  O2-  O165  1  0.63077165  0.13365506  0.49935501  1
  O2-  O166  1  0.65869696  0.12405713  0.74197960  1
  O2-  O167  1  0.59867040  0.63057228  -0.00320736  1
  O2-  O168  1  0.60094391  0.62226538  0.25794494  1
  O2-  O169  1  0.63433562  0.64241853  0.49547381  1
  O2-  O170  1  0.61140552  0.63129098  0.75659560  1
  O2-  O171  1  0.84939045  0.12162755  0.02170613  1
  O2-  O172  1  0.84740105  0.10198379  0.25417254  1
  O2-  O173  1  0.81318965  0.08981017  0.51749141  1
  O2-  O174  1  0.84121660  0.12082021  0.72916399  1
  O2-  O175  1  0.90957718  0.61641940  0.01009816  1
  O2-  O176  1  0.90510813  0.62480392  0.25193527  1
  O2-  O177  1  0.84774429  0.63885245  0.50792231  1
  O2-  O178  1  0.91229012  0.61084402  0.75975386  1
  O2-  O179  1  0.13797858  0.39056170  -0.01246633  1
  O2-  O180  1  0.14769458  0.37954193  0.28267297  1
  O2-  O181  1  0.15950883  0.37825314  0.51129682  1
  O2-  O182  1  0.14417300  0.40976533  0.72794936  1
  O2-  O183  1  0.09055044  0.86600932  0.01848635  1
  O2-  O184  1  0.08969964  0.86068718  0.23916174  1
  O2-  O185  1  0.08689376  0.88513228  0.48064135  1
  O2-  O186  1  0.13796071  0.85991669  0.74606466  1
  O2-  O187  1  0.33261933  0.34718926  -0.01540447  1
  O2-  O188  1  0.32626757  0.39986108  0.27410233  1
  O2-  O189  1  0.35810413  0.38520770  0.49727456  1
  O2-  O190  1  0.33816722  0.37501115  0.74445715  1
  O2-  O191  1  0.41995502  0.86987302  0.00868529  1
  O2-  O192  1  0.43156848  0.86448300  0.22635332  1
  O2-  O193  1  0.41169581  0.86362703  0.50080498  1
  O2-  O194  1  0.33733518  0.87565481  0.73489661  1
  O2-  O195  1  0.67613207  0.36423344  0.02538198  1
  O2-  O196  1  0.66759348  0.37788111  0.24116890  1
  O2-  O197  1  0.65379454  0.36286690  0.49912053  1
  O2-  O198  1  0.66748729  0.36575160  0.74209044  1
  O2-  O199  1  0.61604319  0.87828385  0.01172022  1
  O2-  O200  1  0.63825311  0.87549719  0.24043087  1
  O2-  O201  1  0.64095373  0.86945366  0.50640157  1
  O2-  O202  1  0.61845501  0.88897342  0.76037456  1
  O2-  O203  1  0.88288776  0.36602945  0.00444732  1
  O2-  O204  1  0.85781304  0.37382450  0.28437322  1
  O2-  O205  1  0.83491844  0.37112217  0.48539254  1
  O2-  O206  1  0.85516558  0.36303096  0.74345944  1
  O2-  O207  1  0.90284249  0.85893992  0.00646672  1
  O2-  O208  1  0.88685332  0.85545928  0.24702158  1
  O2-  O209  1  0.85713490  0.84897945  0.52181149  1
  O2-  O210  1  0.93392482  0.84921266  0.75100715  1
  O2-  O211  1  -0.00973425  0.14385812  -0.12143639  1
  O2-  O212  1  -0.01699678  0.14407187  0.15051534  1
  O2-  O213  1  -0.00566830  0.10802254  0.52116746  1
  O2-  O214  1  0.00715048  0.12373199  0.67975409  1
  O2-  O215  1  0.00395873  0.35591857  -0.14225261  1
  O2-  O216  1  -0.00776211  0.33802850  0.16195586  1
  O2-  O217  1  -0.00304748  0.39439082  0.52216678  1
  O2-  O218  1  0.00541915  0.33796115  0.66903453  1
  O2-  O219  1  0.25386335  -0.11579134  0.04670475  1
  O2-  O220  1  0.25665029  -0.12239668  0.20720000  1
  O2-  O221  1  0.24115469  -0.04288404  0.38538791  1
  O2-  O222  1  0.18127807  -0.02347504  0.89863444  1
  O2-  O223  1  0.26093045  0.60424981  0.03925093  1
  O2-  O224  1  0.25875783  0.59386569  0.19634652  1
  O2-  O225  1  0.27079636  0.62874462  0.38114181  1
  O2-  O226  1  0.20630453  0.51801385  0.86501491  1
  O2-  O227  1  0.49526580  0.15133267  -0.07154422  1
  O2-  O228  1  0.46217099  0.13716453  0.21545180  1
  O2-  O229  1  0.49512545  0.16773121  0.62328565  1
  O2-  O230  1  0.50306168  0.08580919  0.77707181  1
  O2-  O231  1  0.49679769  0.36148469  -0.03981955  1
  O2-  O232  1  0.51040625  0.35467001  0.34434602  1
  O2-  O233  1  0.50501322  0.35344641  0.61545390  1
  O2-  O234  1  0.49528181  0.34369874  0.79563678  1
  O2-  O235  1  0.76968145  -0.01589100  0.12759336  1
  O2-  O236  1  0.74904287  -0.17858771  0.10727292  1
  O2-  O237  1  0.76017686  -0.03553110  0.37416942  1
  O2-  O238  1  0.76190578  -0.16586849  0.87590530  1
  O2-  O239  1  0.74731725  0.58144802  0.05353632  1
  O2-  O240  1  0.74748416  0.66069064  0.18996390  1
  O2-  O241  1  0.77061986  0.55401314  0.35614906  1
  O2-  O242  1  0.76090866  0.64253091  0.87380609  1
