# generated using pymatgen
data_Gd19Ta56(WO20)8
_symmetry_space_group_name_H-M   'P 1'
_cell_length_a   15.61946953
_cell_length_b   15.49087878
_cell_length_c   15.16332969
_cell_angle_alpha   89.82561686
_cell_angle_beta   89.80609912
_cell_angle_gamma   90.18056149
_symmetry_Int_Tables_number   1
_chemical_formula_structural   Gd19Ta56(WO20)8
_chemical_formula_sum   'Gd19 Ta56 W8 O160'
_cell_volume   3668.85243599
_cell_formula_units_Z   1
loop_
 _symmetry_equiv_pos_site_id
 _symmetry_equiv_pos_as_xyz
  1  'x, y, z'
loop_
 _atom_type_symbol
 _atom_type_oxidation_number
  Gd3+  3.0
  Ta5+  5.0
  W6+  6.0
  O2-  -2.0
loop_
 _atom_site_type_symbol
 _atom_site_label
 _atom_site_symmetry_multiplicity
 _atom_site_fract_x
 _atom_site_fract_y
 _atom_site_fract_z
 _atom_site_occupancy
  Gd3+  Gd0  1  0.26480300  0.24586141  0.01469592  1
  Gd3+  Gd1  1  0.50250470  0.25786764  0.24221838  1
  Gd3+  Gd2  1  0.26184413  0.22025099  0.73584219  1
  Gd3+  Gd3  1  0.50094532  0.25034131  0.00670044  1
  Gd3+  Gd4  1  0.00244641  0.73597606  0.50621693  1
  Gd3+  Gd5  1  0.26356732  0.25781331  0.27767602  1
  Gd3+  Gd6  1  -0.00508018  0.27689373  0.74061946  1
  Gd3+  Gd7  1  0.74154315  0.24006921  0.25361525  1
  Gd3+  Gd8  1  0.76452089  0.75830232  0.70886464  1
  Gd3+  Gd9  1  0.52051884  0.75245171  0.72567829  1
  Gd3+  Gd10  1  -0.01000670  0.75784641  0.23815680  1
  Gd3+  Gd11  1  0.26117213  0.77634345  0.01075396  1
  Gd3+  Gd12  1  0.27594305  0.73982283  0.49941769  1
  Gd3+  Gd13  1  0.69822444  0.77552882  0.49911661  1
  Gd3+  Gd14  1  -0.01327830  0.75167742  -0.01987697  1
  Gd3+  Gd15  1  0.74595608  0.24919597  -0.00628478  1
  Gd3+  Gd16  1  -0.01526291  0.74537021  0.74890798  1
  Gd3+  Gd17  1  0.25163484  0.76271982  0.76305156  1
  Gd3+  Gd18  1  0.27645298  0.21272497  0.49617858  1
  Ta5+  Ta19  1  0.88130157  0.13108820  0.85496859  1
  Ta5+  Ta20  1  0.39903196  0.34839953  0.62567170  1
  Ta5+  Ta21  1  0.38358751  0.87523522  0.87789459  1
  Ta5+  Ta22  1  0.35838839  0.60956172  0.13348991  1
  Ta5+  Ta23  1  0.62809153  0.63340665  0.88548933  1
  Ta5+  Ta24  1  0.11144562  0.89322629  0.36351633  1
  Ta5+  Ta25  1  0.18724794  0.60570481  0.31806651  1
  Ta5+  Ta26  1  0.59903105  0.38981170  0.85896975  1
  Ta5+  Ta27  1  0.89939207  0.12360874  0.35885769  1
  Ta5+  Ta28  1  0.13287111  0.63097581  0.12443835  1
  Ta5+  Ta29  1  0.12693152  0.38139060  0.13771223  1
  Ta5+  Ta30  1  0.08341658  0.13745842  0.38947888  1
  Ta5+  Ta31  1  0.37576240  0.38785607  0.14061999  1
  Ta5+  Ta32  1  0.39855924  0.60633791  0.37729050  1
  Ta5+  Ta33  1  0.39795423  0.37969432  0.87037337  1
  Ta5+  Ta34  1  0.12906726  0.61372996  0.91247671  1
  Ta5+  Ta35  1  0.16949255  0.37864431  0.62758897  1
  Ta5+  Ta36  1  0.35052868  0.60450082  0.88493753  1
  Ta5+  Ta37  1  0.10271408  0.13319145  0.61499668  1
  Ta5+  Ta38  1  0.61793939  0.10783197  0.11233763  1
  Ta5+  Ta39  1  0.37429427  0.92331713  0.62322325  1
  Ta5+  Ta40  1  0.41421626  0.10587833  0.36779445  1
  Ta5+  Ta41  1  0.86294313  0.37722007  0.37368470  1
  Ta5+  Ta42  1  0.62367968  0.39648431  0.10731418  1
  Ta5+  Ta43  1  0.63318553  0.87729719  0.12887328  1
  Ta5+  Ta44  1  0.37704567  0.10782765  0.14890519  1
  Ta5+  Ta45  1  0.12538706  0.89267727  0.88862549  1
  Ta5+  Ta46  1  0.86962193  0.35821353  0.59406404  1
  Ta5+  Ta47  1  0.10721076  0.38768332  0.38812807  1
  Ta5+  Ta48  1  0.56535316  0.36362790  0.61900929  1
  Ta5+  Ta49  1  0.64584609  0.64358990  0.10514977  1
  Ta5+  Ta50  1  0.62221925  0.60630219  0.62121017  1
  Ta5+  Ta51  1  0.13921901  0.62062394  0.63325846  1
  Ta5+  Ta52  1  0.12020488  0.13681353  0.14243831  1
  Ta5+  Ta53  1  0.87391498  0.61167095  0.11916006  1
  Ta5+  Ta54  1  0.85699600  0.88291492  0.87890527  1
  Ta5+  Ta55  1  0.89159286  0.89426009  0.61061842  1
  Ta5+  Ta56  1  0.39484579  0.11871917  0.87873663  1
  Ta5+  Ta57  1  0.11836139  0.14097740  0.88104975  1
  Ta5+  Ta58  1  0.14925247  0.89496270  0.15117920  1
  Ta5+  Ta59  1  0.41650078  0.86590415  0.38380391  1
  Ta5+  Ta60  1  0.42550876  0.10486264  0.62067310  1
  Ta5+  Ta61  1  0.84317263  0.62805706  0.37081823  1
  Ta5+  Ta62  1  0.89142353  0.36916421  0.12239660  1
  Ta5+  Ta63  1  0.58196594  0.11012555  0.36201622  1
  Ta5+  Ta64  1  0.83097618  0.61755634  0.87743030  1
  Ta5+  Ta65  1  0.64893362  0.87627123  0.90115320  1
  Ta5+  Ta66  1  0.56666781  0.95002619  0.61149195  1
  Ta5+  Ta67  1  0.61652417  0.63076496  0.35551796  1
  Ta5+  Ta68  1  0.44048292  0.37157967  0.40085093  1
  Ta5+  Ta69  1  0.59238565  0.14278781  0.61302429  1
  Ta5+  Ta70  1  0.88352839  0.11541975  0.11664601  1
  Ta5+  Ta71  1  0.61283552  0.12041533  0.86878996  1
  Ta5+  Ta72  1  0.58055019  0.88104879  0.36416974  1
  Ta5+  Ta73  1  0.85605625  0.87826384  0.36965449  1
  Ta5+  Ta74  1  0.13964556  0.89221462  0.62364480  1
  W6+  W75  1  0.83482674  0.86996981  0.10931949  1
  W6+  W76  1  0.84534417  0.36587426  0.85594822  1
  W6+  W77  1  0.94348066  0.14402955  0.59067910  1
  W6+  W78  1  0.40068492  0.86153567  0.13916313  1
  W6+  W79  1  0.60946251  0.37957522  0.35973898  1
  W6+  W80  1  0.38397440  0.59467597  0.63181626  1
  W6+  W81  1  0.87970873  0.60373646  0.61862925  1
  W6+  W82  1  0.14449908  0.36568100  0.88167892  1
  O2-  O83  1  0.15031875  0.01933356  0.14750397  1
  O2-  O84  1  0.07742834  0.00802191  0.38002982  1
  O2-  O85  1  0.12262998  0.00865584  0.62526389  1
  O2-  O86  1  0.12124491  0.01644761  0.87889546  1
  O2-  O87  1  0.12210149  0.50124378  0.13397282  1
  O2-  O88  1  0.12140346  0.51310097  0.37395022  1
  O2-  O89  1  0.17183880  0.50456722  0.65469735  1
  O2-  O90  1  0.11630298  0.49810442  0.89829733  1
  O2-  O91  1  0.40024410  -0.00688492  0.14729573  1
  O2-  O92  1  0.38842111  -0.01449610  0.37848658  1
  O2-  O93  1  0.30930710  0.02284858  0.61476859  1
  O2-  O94  1  0.40011754  -0.00694211  0.87251993  1
  O2-  O95  1  0.31084943  0.48894942  0.13475352  1
  O2-  O96  1  0.44704046  0.49336315  0.40394122  1
  O2-  O97  1  0.38774900  0.46937421  0.63009296  1
  O2-  O98  1  0.32662307  0.47973987  0.88188428  1
  O2-  O99  1  0.58071325  -0.00474001  0.10638533  1
  O2-  O100  1  0.62428180  -0.00550437  0.35408281  1
  O2-  O101  1  0.65568198  0.02911762  0.62036623  1
  O2-  O102  1  0.62043171  -0.01043631  0.87071203  1
  O2-  O103  1  0.61308897  0.51410133  0.10307077  1
  O2-  O104  1  0.62622292  0.51394988  0.35366387  1
  O2-  O105  1  0.59404901  0.48798577  0.60698827  1
  O2-  O106  1  0.62483727  0.50952602  0.87758926  1
  O2-  O107  1  0.88689340  -0.00101888  0.11413541  1
  O2-  O108  1  0.88212678  0.00356432  0.37160605  1
  O2-  O109  1  0.91211649  0.00901131  0.60155193  1
  O2-  O110  1  0.86521424  0.00741861  0.85933871  1
  O2-  O111  1  0.91304191  0.49533471  0.12637814  1
  O2-  O112  1  0.84266310  0.49837536  0.37069209  1
  O2-  O113  1  0.89562898  0.47218334  0.59431689  1
  O2-  O114  1  0.83245702  0.50063953  0.86465052  1
  O2-  O115  1  0.18266004  0.25135391  0.14756664  1
  O2-  O116  1  0.14570808  0.26414746  0.39761178  1
  O2-  O117  1  0.17461714  0.24947263  0.60372374  1
  O2-  O118  1  0.20563092  0.23638121  0.87664294  1
  O2-  O119  1  0.12662123  0.75954935  0.13058609  1
  O2-  O120  1  0.03872696  0.79024413  0.37368513  1
  O2-  O121  1  0.12486630  0.71548746  0.71242661  1
  O2-  O122  1  0.14833970  0.76084310  0.91027020  1
  O2-  O123  1  0.36236188  0.25267312  0.15590941  1
  O2-  O124  1  0.40349011  0.24348184  0.35668894  1
  O2-  O125  1  0.35561660  0.22213502  0.62071169  1
  O2-  O126  1  0.39676325  0.24954906  0.89645467  1
  O2-  O127  1  0.36112813  0.73053224  0.11484138  1
  O2-  O128  1  0.40450805  0.72776967  0.39136129  1
  O2-  O129  1  0.26993001  0.66252161  0.64463430  1
  O2-  O130  1  0.34725819  0.73647760  0.88936729  1
  O2-  O131  1  0.63113569  0.24913333  0.10274771  1
  O2-  O132  1  0.61348637  0.23930645  0.34091141  1
  O2-  O133  1  0.62267614  0.25932078  0.59495338  1
  O2-  O134  1  0.60972456  0.25252190  0.89724931  1
  O2-  O135  1  0.68836236  0.76221372  0.11276139  1
  O2-  O136  1  0.63002202  0.76343739  0.36753571  1
  O2-  O137  1  0.64275032  0.73959416  0.63220706  1
  O2-  O138  1  0.59615988  0.76550154  0.85887603  1
  O2-  O139  1  0.82773929  0.24855390  0.12548932  1
  O2-  O140  1  0.84919810  0.24537666  0.35993614  1
  O2-  O141  1  0.96912701  0.28947445  0.58661227  1
  O2-  O142  1  0.80244793  0.22532997  0.85631169  1
  O2-  O143  1  0.91188978  0.73674503  0.11068459  1
  O2-  O144  1  0.81584000  0.75175609  0.38687256  1
  O2-  O145  1  0.89088167  0.74412569  0.62106091  1
  O2-  O146  1  0.87437015  0.75374272  0.87820982  1
  O2-  O147  1  0.13921950  0.14630142  0.01311496  1
  O2-  O148  1  0.12914706  0.15060309  0.27057509  1
  O2-  O149  1  0.15646826  0.11874175  0.49365158  1
  O2-  O150  1  0.11172607  0.15574670  0.74689094  1
  O2-  O151  1  0.05582259  0.62614603  0.02634898  1
  O2-  O152  1  0.08114645  0.63461374  0.24319970  1
  O2-  O153  1  0.20939474  0.71049504  0.36841204  1
  O2-  O154  1  0.02901431  0.65435835  0.85841897  1
  O2-  O155  1  0.35468933  0.12503224  0.01628492  1
  O2-  O156  1  0.31969611  0.11758736  0.26139421  1
  O2-  O157  1  0.40061744  0.13210933  0.49219636  1
  O2-  O158  1  0.37718154  0.13162440  0.75729925  1
  O2-  O159  1  0.39182176  0.59370435  0.00580698  1
  O2-  O160  1  0.41920308  0.60333309  0.23856757  1
  O2-  O161  1  0.34875144  0.61081568  0.49840535  1
  O2-  O162  1  0.40990027  0.61241307  0.77851464  1
  O2-  O163  1  0.67612934  0.11553570  -0.00305328  1
  O2-  O164  1  0.65470316  0.11773113  0.23190677  1
  O2-  O165  1  0.59128502  0.12664227  0.48315536  1
  O2-  O166  1  0.60483916  0.14005719  0.75014564  1
  O2-  O167  1  0.57188724  0.65550773  0.00167341  1
  O2-  O168  1  0.60575274  0.64843078  0.22307221  1
  O2-  O169  1  0.63207018  0.63679408  0.48827586  1
  O2-  O170  1  0.59203121  0.62244047  0.74993180  1
  O2-  O171  1  0.86038399  0.13872340  -0.00629742  1
  O2-  O172  1  0.84218069  0.12301827  0.23939331  1
  O2-  O173  1  0.97760157  0.16841215  0.44996502  1
  O2-  O174  1  0.91452973  0.14855009  0.73528169  1
  O2-  O175  1  0.89186325  0.62122967  -0.00788882  1
  O2-  O176  1  0.88724883  0.63851795  0.25088010  1
  O2-  O177  1  0.90686235  0.62865386  0.47699290  1
  O2-  O178  1  0.88146867  0.63624318  0.75880839  1
  O2-  O179  1  0.16946313  0.36358403  0.02248833  1
  O2-  O180  1  0.16223717  0.37430763  0.26290227  1
  O2-  O181  1  0.12453078  0.39684878  0.51116847  1
  O2-  O182  1  0.12911908  0.34512956  0.74290894  1
  O2-  O183  1  0.11909798  0.89508735  0.01956157  1
  O2-  O184  1  0.04959717  0.89096845  0.23168350  1
  O2-  O185  1  0.14748711  0.87117719  0.48851938  1
  O2-  O186  1  0.14742982  0.88035499  0.75391200  1
  O2-  O187  1  0.35864269  0.36079193  0.01446679  1
  O2-  O188  1  0.38577908  0.38140280  0.27181585  1
  O2-  O189  1  0.36043815  0.33967991  0.49459605  1
  O2-  O190  1  0.35356452  0.33645528  0.75697049  1
  O2-  O191  1  0.39955471  0.86170285  -0.00068435  1
  O2-  O192  1  0.38438095  0.84654296  0.26763117  1
  O2-  O193  1  0.37487468  0.85118979  0.51324500  1
  O2-  O194  1  0.38727064  0.84251910  0.74483438  1
  O2-  O195  1  0.67315559  0.38165299  -0.00863966  1
  O2-  O196  1  0.66812520  0.37419657  0.22178865  1
  O2-  O197  1  0.53910389  0.35743326  0.48175982  1
  O2-  O198  1  0.62377497  0.36287772  0.74083096  1
  O2-  O199  1  0.58876351  0.85891492  0.00939172  1
  O2-  O200  1  0.57068646  0.85873374  0.23136742  1
  O2-  O201  1  0.59699074  0.88303730  0.50312108  1
  O2-  O202  1  0.58439067  0.87855355  0.70919651  1
  O2-  O203  1  0.85895816  0.36500321  0.00361654  1
  O2-  O204  1  0.84662631  0.37101953  0.24292128  1
  O2-  O205  1  0.80421215  0.35330196  0.48339170  1
  O2-  O206  1  0.85640030  0.33813732  0.71746945  1
  O2-  O207  1  0.91208255  0.87666633  -0.00454514  1
  O2-  O208  1  0.87084714  0.85301553  0.24915859  1
  O2-  O209  1  0.91698758  0.86172785  0.48362500  1
  O2-  O210  1  0.89219919  0.86995418  0.73979543  1
  O2-  O211  1  -0.00199329  0.15658401  -0.11077928  1
  O2-  O212  1  -0.00016805  0.14880882  0.13225966  1
  O2-  O213  1  0.02520594  -0.15616753  0.62060597  1
  O2-  O214  1  0.00925519  -0.14111534  0.86281766  1
  O2-  O215  1  0.00987077  0.34226849  0.13425524  1
  O2-  O216  1  -0.01278210  0.37515907  0.37903996  1
  O2-  O217  1  0.13951068  0.67573423  0.52184293  1
  O2-  O218  1  0.01774758  0.61599848  0.62876692  1
  O2-  O219  1  0.26502295  -0.12381534  0.11965088  1
  O2-  O220  1  0.20087462  -0.11033848  0.28380793  1
  O2-  O221  1  0.25519372  -0.15683690  0.62733610  1
  O2-  O222  1  0.25896137  -0.11598290  0.88524332  1
  O2-  O223  1  0.21921360  0.63087794  0.01997888  1
  O2-  O224  1  0.24231027  0.62735025  0.19540957  1
  O2-  O225  1  0.29091988  0.54922569  0.34344345  1
  O2-  O226  1  0.23357996  0.62283707  0.83818352  1
  O2-  O227  1  0.50831210  0.11508144  -0.05857852  1
  O2-  O228  1  0.49851518  0.15218936  0.13032658  1
  O2-  O229  1  0.46207337  -0.01319747  0.54445290  1
  O2-  O230  1  0.46277190  -0.00707525  0.69508221  1
  O2-  O231  1  0.50561292  0.38390654  -0.04842259  1
  O2-  O232  1  0.50405479  0.36385074  0.13009330  1
  O2-  O233  1  0.49523713  0.65253374  0.61095664  1
  O2-  O234  1  0.48829347  0.42874581  0.80311829  1
  O2-  O235  1  0.75605087  -0.11378929  -0.02793802  1
  O2-  O236  1  0.73288140  -0.06329999  0.15808258  1
  O2-  O237  1  0.77387744  -0.12817910  0.59696419  1
  O2-  O238  1  0.74589965  -0.14042324  0.81469647  1
  O2-  O239  1  0.72587572  0.62580409  -0.03278108  1
  O2-  O240  1  0.75880090  0.59595763  0.13525939  1
  O2-  O241  1  0.74358112  0.60472010  0.63036901  1
  O2-  O242  1  0.73118935  0.66750276  0.81697163  1
