# generated using pymatgen
data_Gd19Ta56(WO20)8
_symmetry_space_group_name_H-M   'P 1'
_cell_length_a   15.56311826
_cell_length_b   15.52407989
_cell_length_c   15.31292118
_cell_angle_alpha   89.93971588
_cell_angle_beta   90.08340332
_cell_angle_gamma   89.93158339
_symmetry_Int_Tables_number   1
_chemical_formula_structural   Gd19Ta56(WO20)8
_chemical_formula_sum   'Gd19 Ta56 W8 O160'
_cell_volume   3699.64048104
_cell_formula_units_Z   1
loop_
 _symmetry_equiv_pos_site_id
 _symmetry_equiv_pos_as_xyz
  1  'x, y, z'
loop_
 _atom_type_symbol
 _atom_type_oxidation_number
  Gd3+  3.0
  Ta5+  5.0
  W6+  6.0
  O2-  -2.0
loop_
 _atom_site_type_symbol
 _atom_site_label
 _atom_site_symmetry_multiplicity
 _atom_site_fract_x
 _atom_site_fract_y
 _atom_site_fract_z
 _atom_site_occupancy
  Gd3+  Gd0  1  0.49666018  0.26798629  0.52352553  1
  Gd3+  Gd1  1  0.01373260  0.74331126  0.76000188  1
  Gd3+  Gd2  1  -0.00422283  0.73941524  0.50145437  1
  Gd3+  Gd3  1  0.50578403  0.24813416  0.01917636  1
  Gd3+  Gd4  1  0.74816217  0.24514990  0.51787621  1
  Gd3+  Gd5  1  0.49537552  0.76500025  -0.00755895  1
  Gd3+  Gd6  1  -0.02594836  0.22652284  0.51716507  1
  Gd3+  Gd7  1  0.25431382  0.25885414  0.49166901  1
  Gd3+  Gd8  1  0.25745808  0.74645052  0.02407395  1
  Gd3+  Gd9  1  -0.03925758  0.24537197  0.00804709  1
  Gd3+  Gd10  1  0.52416593  0.74957152  0.29616039  1
  Gd3+  Gd11  1  0.76161892  0.76401247  0.48697463  1
  Gd3+  Gd12  1  0.24671594  0.24826519  0.74351219  1
  Gd3+  Gd13  1  0.49553768  0.25413128  0.76246226  1
  Gd3+  Gd14  1  0.74869189  0.26587042  0.22730625  1
  Gd3+  Gd15  1  -0.00845782  0.25825266  0.75233588  1
  Gd3+  Gd16  1  0.27569855  0.25000399  -0.01225755  1
  Gd3+  Gd17  1  0.25487913  0.25362106  0.23490851  1
  Gd3+  Gd18  1  0.20200821  0.75016020  0.26138157  1
  Ta5+  Ta19  1  0.12147340  0.11281349  0.62205531  1
  Ta5+  Ta20  1  0.86112866  0.07910285  0.87806982  1
  Ta5+  Ta21  1  0.37737790  0.11227911  0.62769628  1
  Ta5+  Ta22  1  0.63135744  0.38119509  0.38004725  1
  Ta5+  Ta23  1  0.62626159  0.63289804  0.13246568  1
  Ta5+  Ta24  1  0.12027171  0.37989830  0.61000101  1
  Ta5+  Ta25  1  0.69686912  0.87668672  0.64072225  1
  Ta5+  Ta26  1  0.86823248  0.38928231  0.62715981  1
  Ta5+  Ta27  1  0.38160543  0.61450247  0.13143886  1
  Ta5+  Ta28  1  0.35750890  0.10165406  0.87063378  1
  Ta5+  Ta29  1  0.64167624  0.11769565  0.88402632  1
  Ta5+  Ta30  1  0.35298384  0.40392159  0.87073237  1
  Ta5+  Ta31  1  0.38169677  0.41821825  0.10481198  1
  Ta5+  Ta32  1  0.30355872  0.87332116  0.61280434  1
  Ta5+  Ta33  1  0.40935037  0.10950784  0.37189384  1
  Ta5+  Ta34  1  0.09954740  0.37029285  0.34933542  1
  Ta5+  Ta35  1  0.35635799  0.62203113  0.37039946  1
  Ta5+  Ta36  1  0.37321423  0.39255512  0.62934603  1
  Ta5+  Ta37  1  0.65416692  0.40905528  0.88841603  1
  Ta5+  Ta38  1  0.89349506  0.37700203  0.36173723  1
  Ta5+  Ta39  1  0.88153358  0.86545231  0.10914167  1
  Ta5+  Ta40  1  0.91063332  0.86742408  0.35913348  1
  Ta5+  Ta41  1  0.10445257  0.87913502  0.11168497  1
  Ta5+  Ta42  1  0.67954242  0.62290051  0.37978656  1
  Ta5+  Ta43  1  0.85380793  0.63650771  0.12240095  1
  Ta5+  Ta44  1  0.16415407  0.86459819  0.86642776  1
  Ta5+  Ta45  1  0.14381296  0.38935989  0.87008185  1
  Ta5+  Ta46  1  0.40029206  0.39020674  0.31270044  1
  Ta5+  Ta47  1  0.64796749  0.87018668  0.88367844  1
  Ta5+  Ta48  1  0.59070104  0.39765692  0.13447996  1
  Ta5+  Ta49  1  0.61917745  0.11872534  0.13510342  1
  Ta5+  Ta50  1  0.68917544  0.63060240  0.63970596  1
  Ta5+  Ta51  1  0.33913626  0.64680674  0.86432697  1
  Ta5+  Ta52  1  0.34013539  0.87644530  0.36415133  1
  Ta5+  Ta53  1  0.85053465  0.61926851  0.37265489  1
  Ta5+  Ta54  1  0.66992373  0.90410498  0.37697668  1
  Ta5+  Ta55  1  0.17032109  0.63376312  0.86913902  1
  Ta5+  Ta56  1  0.10837842  0.61123120  0.37375182  1
  Ta5+  Ta57  1  0.86736256  0.86276377  0.63314247  1
  Ta5+  Ta58  1  0.11414342  0.37116377  0.10189662  1
  Ta5+  Ta59  1  0.61158776  0.13235099  0.37541020  1
  Ta5+  Ta60  1  0.88871532  0.61856301  0.88723002  1
  Ta5+  Ta61  1  0.14528632  0.11019381  0.87435979  1
  Ta5+  Ta62  1  0.14057801  0.62462732  0.61951157  1
  Ta5+  Ta63  1  0.33237519  0.86347484  0.86501400  1
  Ta5+  Ta64  1  0.91615545  0.41405595  0.14437700  1
  Ta5+  Ta65  1  0.86266889  0.84019798  0.88809754  1
  Ta5+  Ta66  1  0.13683410  0.86801807  0.62005060  1
  Ta5+  Ta67  1  0.86120606  0.09560192  0.67236092  1
  Ta5+  Ta68  1  0.36290593  0.87368689  0.15268575  1
  Ta5+  Ta69  1  0.11918547  0.12197414  0.36269069  1
  Ta5+  Ta70  1  0.87094576  0.10362000  0.13610698  1
  Ta5+  Ta71  1  0.88689075  0.11814600  0.34075516  1
  Ta5+  Ta72  1  0.62193270  0.11215114  0.63358560  1
  Ta5+  Ta73  1  0.85740551  0.63456895  0.63420515  1
  Ta5+  Ta74  1  0.85093916  0.39399310  0.88101139  1
  W6+  W75  1  0.10725236  0.62092831  0.11429705  1
  W6+  W76  1  0.13118886  0.12359028  0.10584137  1
  W6+  W77  1  0.61222198  0.87284458  0.14087103  1
  W6+  W78  1  0.36804470  0.12298079  0.12182381  1
  W6+  W79  1  0.63466859  0.64739898  0.87967620  1
  W6+  W80  1  0.34247863  0.63767387  0.61308865  1
  W6+  W81  1  0.62604869  0.38569190  0.64450450  1
  W6+  W82  1  0.07882150  0.87523599  0.37197367  1
  O2-  O83  1  0.13879013  -0.00929013  0.12027415  1
  O2-  O84  1  0.10136757  0.00780347  0.36083386  1
  O2-  O85  1  0.15241519  -0.00251555  0.63314877  1
  O2-  O86  1  0.12690531  -0.00840176  0.86761688  1
  O2-  O87  1  0.10979367  0.48824594  0.10624140  1
  O2-  O88  1  0.12755588  0.48503208  0.36653444  1
  O2-  O89  1  0.14081861  0.49672050  0.62818279  1
  O2-  O90  1  0.13081448  0.50806219  0.86723929  1
  O2-  O91  1  0.37041897  -0.01018088  0.13737887  1
  O2-  O92  1  0.35246099  0.00343498  0.37326095  1
  O2-  O93  1  0.34905762  -0.00254541  0.61289330  1
  O2-  O94  1  0.36757325  -0.01536547  0.88970830  1
  O2-  O95  1  0.30883775  0.51639580  0.09545253  1
  O2-  O96  1  0.36058567  0.49032945  0.36169226  1
  O2-  O97  1  0.33928439  0.50456293  0.62112171  1
  O2-  O98  1  0.36831714  0.52000579  0.88456329  1
  O2-  O99  1  0.64040773  0.00472765  0.14542779  1
  O2-  O100  1  0.68126596  0.02669441  0.37329474  1
  O2-  O101  1  0.63922130  -0.00553321  0.63362588  1
  O2-  O102  1  0.63228425  -0.00178803  0.88916429  1
  O2-  O103  1  0.64644400  0.50747044  0.12628733  1
  O2-  O104  1  0.66967344  0.49303773  0.38665298  1
  O2-  O105  1  0.65964187  0.51411061  0.64450874  1
  O2-  O106  1  0.61766723  0.52204138  0.90277889  1
  O2-  O107  1  0.84324708  -0.01459538  0.11205577  1
  O2-  O108  1  0.89960213  0.00098588  0.36183115  1
  O2-  O109  1  0.86761015  -0.00830886  0.61333708  1
  O2-  O110  1  0.87903029  -0.03670316  0.90576620  1
  O2-  O111  1  0.92949120  0.53233804  0.12462682  1
  O2-  O112  1  0.86141366  0.49134369  0.38793120  1
  O2-  O113  1  0.85606625  0.50596972  0.61921567  1
  O2-  O114  1  0.91928899  0.49578400  0.89354885  1
  O2-  O115  1  0.17693615  0.25907881  0.09577145  1
  O2-  O116  1  0.16506377  0.25803484  0.36502954  1
  O2-  O117  1  0.09904648  0.24666989  0.61401440  1
  O2-  O118  1  0.16795602  0.25145944  0.87165427  1
  O2-  O119  1  0.14828871  0.75267650  0.12261787  1
  O2-  O120  1  0.10172441  0.73867503  0.38555165  1
  O2-  O121  1  0.09593284  0.74292777  0.61538712  1
  O2-  O122  1  0.11436690  0.74714192  0.87741541  1
  O2-  O123  1  0.36387746  0.26609919  0.11016952  1
  O2-  O124  1  0.33598317  0.29849667  0.35559680  1
  O2-  O125  1  0.39439216  0.24681637  0.64873912  1
  O2-  O126  1  0.35402248  0.24983158  0.85313755  1
  O2-  O127  1  0.32907951  0.73321545  0.15890630  1
  O2-  O128  1  0.34775208  0.74763671  0.35621970  1
  O2-  O129  1  0.35095871  0.76414842  0.60817754  1
  O2-  O130  1  0.40202447  0.75786528  0.87107281  1
  O2-  O131  1  0.62355743  0.27430044  0.12367283  1
  O2-  O132  1  0.68647613  0.26063816  0.37504866  1
  O2-  O133  1  0.58922451  0.24705176  0.64147016  1
  O2-  O134  1  0.55083231  0.20480988  0.89013808  1
  O2-  O135  1  0.55851095  0.74536532  0.15048953  1
  O2-  O136  1  0.65128589  0.75211821  0.38144349  1
  O2-  O137  1  0.66746294  0.76007223  0.61615220  1
  O2-  O138  1  0.58009330  0.76986814  0.86399611  1
  O2-  O139  1  0.84202373  0.22319761  0.11590576  1
  O2-  O140  1  0.86426409  0.26033509  0.32166966  1
  O2-  O141  1  0.89301688  0.22575442  0.64372765  1
  O2-  O142  1  0.91780364  0.28511776  0.87910261  1
  O2-  O143  1  0.91725203  0.73550017  0.11603161  1
  O2-  O144  1  0.90383273  0.73921826  0.36423447  1
  O2-  O145  1  0.92358227  0.74615549  0.63659905  1
  O2-  O146  1  0.93496571  0.73630885  0.90260301  1
  O2-  O147  1  0.07153560  0.14356964  -0.02894354  1
  O2-  O148  1  0.16387650  0.13586028  0.24607518  1
  O2-  O149  1  0.14646305  0.13327459  0.48858847  1
  O2-  O150  1  0.10637515  0.14314284  0.74913945  1
  O2-  O151  1  0.16877450  0.62855658  -0.00331494  1
  O2-  O152  1  0.09402561  0.62765855  0.25016907  1
  O2-  O153  1  0.08156609  0.60855883  0.50052110  1
  O2-  O154  1  0.13383047  0.64051714  0.74221747  1
  O2-  O155  1  0.40389284  0.14261702  -0.01703812  1
  O2-  O156  1  0.36186603  0.14594721  0.26523182  1
  O2-  O157  1  0.36920591  0.15114282  0.48725529  1
  O2-  O158  1  0.41565893  0.11175653  0.75351624  1
  O2-  O159  1  0.38782299  0.65701375  0.00882513  1
  O2-  O160  1  0.42277206  0.62179728  0.25492916  1
  O2-  O161  1  0.39133756  0.62365307  0.48457268  1
  O2-  O162  1  0.32975586  0.64401697  0.74430565  1
  O2-  O163  1  0.64153530  0.13812929  0.01405080  1
  O2-  O164  1  0.63774831  0.16014531  0.25405375  1
  O2-  O165  1  0.63520325  0.14582444  0.49967813  1
  O2-  O166  1  0.61536474  0.12607805  0.75825038  1
  O2-  O167  1  0.58972501  0.65046432  0.01246521  1
  O2-  O168  1  0.61477627  0.62679956  0.26083450  1
  O2-  O169  1  0.68311966  0.63036904  0.50403921  1
  O2-  O170  1  0.68230472  0.65364378  0.76306934  1
  O2-  O171  1  0.89259393  0.11374100  -0.00117254  1
  O2-  O172  1  0.79901009  0.11570037  0.24604840  1
  O2-  O173  1  0.85151801  0.15265747  0.45595028  1
  O2-  O174  1  0.93555490  0.12393887  0.78806093  1
  O2-  O175  1  0.82663379  0.61521381  -0.00234180  1
  O2-  O176  1  0.84134622  0.61517176  0.24531204  1
  O2-  O177  1  0.87250413  0.64490378  0.50229734  1
  O2-  O178  1  0.87824861  0.63105137  0.76571663  1
  O2-  O179  1  0.07495728  0.35879944  -0.02274031  1
  O2-  O180  1  0.14386612  0.35688368  0.23122993  1
  O2-  O181  1  0.14755113  0.36841801  0.48840466  1
  O2-  O182  1  0.09704659  0.36157613  0.75121180  1
  O2-  O183  1  0.16727780  0.86497034  -0.00136775  1
  O2-  O184  1  0.09275286  0.85722325  0.23398196  1
  O2-  O185  1  0.08016602  0.87539264  0.50910971  1
  O2-  O186  1  0.11527455  0.85459678  0.74606692  1
  O2-  O187  1  0.40952005  0.36760649  -0.01479497  1
  O2-  O188  1  0.31841580  0.39415726  0.21311241  1
  O2-  O189  1  0.37041829  0.34764514  0.51127378  1
  O2-  O190  1  0.41221254  0.38290096  0.75984281  1
  O2-  O191  1  0.37134260  0.84660140  0.02347394  1
  O2-  O192  1  0.43185018  0.86075822  0.25963238  1
  O2-  O193  1  0.30007900  0.87388896  0.47875557  1
  O2-  O194  1  0.31878565  0.87498848  0.74502616  1
  O2-  O195  1  0.58776575  0.38267463  0.00539639  1
  O2-  O196  1  0.64618279  0.37765427  0.25140868  1
  O2-  O197  1  0.63132961  0.35128234  0.50421137  1
  O2-  O198  1  0.59897762  0.36261924  0.79008764  1
  O2-  O199  1  0.62154971  0.85916936  0.00744333  1
  O2-  O200  1  0.60008282  0.87791603  0.27830389  1
  O2-  O201  1  0.67295811  0.88756906  0.50022145  1
  O2-  O202  1  0.68960404  0.87183803  0.76431080  1
  O2-  O203  1  0.88420545  0.38462667  0.02914222  1
  O2-  O204  1  0.82641300  0.39630913  0.22576874  1
  O2-  O205  1  0.85852487  0.34316299  0.49341854  1
  O2-  O206  1  0.89300341  0.37800193  0.74984765  1
  O2-  O207  1  0.81288466  0.83062991  0.00929914  1
  O2-  O208  1  0.90270747  0.86631863  0.23198580  1
  O2-  O209  1  0.88631951  0.85241194  0.49630728  1
  O2-  O210  1  0.87609530  0.84967458  0.76499599  1
  O2-  O211  1  -0.00658113  -0.11288254  0.06273051  1
  O2-  O212  1  -0.03948168  0.11139937  0.21661093  1
  O2-  O213  1  0.00391286  0.16079591  0.37808484  1
  O2-  O214  1  -0.00006404  0.10284089  0.60597163  1
  O2-  O215  1  0.00362252  0.32035772  0.13334032  1
  O2-  O216  1  -0.01507329  0.40747077  0.27677375  1
  O2-  O217  1  0.00082840  0.33339785  0.41691985  1
  O2-  O218  1  -0.00678552  0.37247495  0.60151966  1
  O2-  O219  1  0.24517792  0.10789236  -0.04440450  1
  O2-  O220  1  0.27144617  -0.12115702  0.25132965  1
  O2-  O221  1  0.25302260  0.15468104  0.62131078  1
  O2-  O222  1  0.25539932  0.10761114  0.79611111  1
  O2-  O223  1  0.24680553  0.39129530  -0.04361428  1
  O2-  O224  1  0.23415986  0.62226830  0.36945717  1
  O2-  O225  1  0.24542925  0.34292109  0.62691246  1
  O2-  O226  1  0.25176327  0.39236846  0.79538667  1
  O2-  O227  1  0.50253082  0.13812820  0.13058668  1
  O2-  O228  1  0.51804044  0.05052699  0.35639304  1
  O2-  O229  1  0.50570308  0.20596374  0.38787144  1
  O2-  O230  1  0.49883061  0.10961562  0.59575985  1
  O2-  O231  1  0.46954882  0.50734496  0.10393400  1
  O2-  O232  1  0.47912962  0.37564566  0.19677801  1
  O2-  O233  1  0.50965702  0.38442512  0.37669946  1
  O2-  O234  1  0.49415400  0.39663825  0.61125262  1
  O2-  O235  1  0.75815095  0.15122984  -0.11149212  1
  O2-  O236  1  0.78007585  -0.13217669  0.35437717  1
  O2-  O237  1  0.74974237  0.13793791  0.62697783  1
  O2-  O238  1  0.79813121  0.04650356  0.76662561  1
  O2-  O239  1  0.74821389  0.33909145  -0.06453486  1
  O2-  O240  1  0.73446472  0.68072024  0.12723622  1
  O2-  O241  1  0.75599056  0.34090714  0.63610369  1
  O2-  O242  1  0.75647165  0.45225586  0.82441632  1
