# generated using pymatgen
data_Gd19Ta56(WO20)8
_symmetry_space_group_name_H-M   'P 1'
_cell_length_a   15.54565654
_cell_length_b   15.50630484
_cell_length_c   15.19591041
_cell_angle_alpha   89.85908218
_cell_angle_beta   90.14061931
_cell_angle_gamma   89.83032752
_symmetry_Int_Tables_number   1
_chemical_formula_structural   Gd19Ta56(WO20)8
_chemical_formula_sum   'Gd19 Ta56 W8 O160'
_cell_volume   3663.02241989
_cell_formula_units_Z   1
loop_
 _symmetry_equiv_pos_site_id
 _symmetry_equiv_pos_as_xyz
  1  'x, y, z'
loop_
 _atom_type_symbol
 _atom_type_oxidation_number
  Gd3+  3.0
  Ta5+  5.0
  W6+  6.0
  O2-  -2.0
loop_
 _atom_site_type_symbol
 _atom_site_label
 _atom_site_symmetry_multiplicity
 _atom_site_fract_x
 _atom_site_fract_y
 _atom_site_fract_z
 _atom_site_occupancy
  Gd3+  Gd0  1  0.23472388  0.25072827  0.48782354  1
  Gd3+  Gd1  1  0.26406458  0.75430750  0.45868248  1
  Gd3+  Gd2  1  0.48790147  0.26663454  0.25479819  1
  Gd3+  Gd3  1  0.48851211  0.24356069  0.76369664  1
  Gd3+  Gd4  1  0.01237340  0.26357234  0.73528416  1
  Gd3+  Gd5  1  0.77957005  0.24243109  0.48391431  1
  Gd3+  Gd6  1  0.53534200  0.23696074  0.51513401  1
  Gd3+  Gd7  1  0.01605873  0.75030215  0.73304826  1
  Gd3+  Gd8  1  0.50710425  0.74486209  -0.02185183  1
  Gd3+  Gd9  1  0.48178352  0.26048483  0.01522173  1
  Gd3+  Gd10  1  0.26445908  0.74005470  -0.01093892  1
  Gd3+  Gd11  1  0.47371158  0.76065698  0.52759757  1
  Gd3+  Gd12  1  0.24957612  0.24923248  -0.00955481  1
  Gd3+  Gd13  1  0.74253289  0.73411003  0.01484178  1
  Gd3+  Gd14  1  0.74933687  0.23730518  -0.01282946  1
  Gd3+  Gd15  1  0.00649256  0.72669528  -0.01322668  1
  Gd3+  Gd16  1  -0.01317893  0.74254885  0.24491608  1
  Gd3+  Gd17  1  0.73864959  0.74601640  0.26607124  1
  Gd3+  Gd18  1  0.01073500  0.27309228  0.25591598  1
  Ta5+  Ta19  1  0.13846398  0.61872000  0.86071884  1
  Ta5+  Ta20  1  0.17256359  0.87757775  0.62252000  1
  Ta5+  Ta21  1  0.85480311  0.11544727  0.63394466  1
  Ta5+  Ta22  1  0.83474817  0.88640078  0.61590681  1
  Ta5+  Ta23  1  0.63855131  0.04858483  0.66435253  1
  Ta5+  Ta24  1  0.86598669  0.40085630  0.36772512  1
  Ta5+  Ta25  1  0.38345641  0.10539980  0.13229092  1
  Ta5+  Ta26  1  0.61511852  0.37669517  0.87120563  1
  Ta5+  Ta27  1  0.14143267  0.38669867  0.61786285  1
  Ta5+  Ta28  1  0.33417270  0.38843637  0.14145038  1
  Ta5+  Ta29  1  0.09786377  0.12600779  0.37734924  1
  Ta5+  Ta30  1  0.60417187  0.07254833  0.37808605  1
  Ta5+  Ta31  1  0.33893974  0.87823146  0.63363934  1
  Ta5+  Ta32  1  0.11845739  0.12774807  0.87613402  1
  Ta5+  Ta33  1  0.38140875  0.62703612  0.84176106  1
  Ta5+  Ta34  1  0.12839103  0.37787547  0.87969679  1
  Ta5+  Ta35  1  0.58414474  0.63103831  0.39668077  1
  Ta5+  Ta36  1  0.84571106  0.42990798  0.62352661  1
  Ta5+  Ta37  1  0.35715505  0.12522548  0.63009277  1
  Ta5+  Ta38  1  0.36894876  0.37778562  0.61727293  1
  Ta5+  Ta39  1  0.63597053  0.88253394  0.13613732  1
  Ta5+  Ta40  1  0.63137802  0.12907031  0.13628804  1
  Ta5+  Ta41  1  0.88774588  0.88083985  0.37553802  1
  Ta5+  Ta42  1  0.60513842  0.62048435  0.13732364  1
  Ta5+  Ta43  1  0.12642856  0.88501321  0.86924749  1
  Ta5+  Ta44  1  0.86427247  0.64824883  0.61254159  1
  Ta5+  Ta45  1  0.87695153  0.13003146  0.86297783  1
  Ta5+  Ta46  1  0.88474381  0.60783055  0.85681897  1
  Ta5+  Ta47  1  0.61539287  0.87361939  0.39431581  1
  Ta5+  Ta48  1  0.60390965  0.10445706  0.88632366  1
  Ta5+  Ta49  1  0.55439623  0.61609755  0.65593481  1
  Ta5+  Ta50  1  0.89328054  0.88184744  0.85764621  1
  Ta5+  Ta51  1  0.37913057  0.87226627  0.86109834  1
  Ta5+  Ta52  1  0.61651163  0.84987434  0.65391131  1
  Ta5+  Ta53  1  0.65255761  0.41101270  0.64327721  1
  Ta5+  Ta54  1  0.36180625  0.10376071  0.88095378  1
  Ta5+  Ta55  1  0.88046653  0.88947397  0.08294335  1
  Ta5+  Ta56  1  0.13977641  0.12725342  0.13520996  1
  Ta5+  Ta57  1  0.08914655  0.88804143  0.11107217  1
  Ta5+  Ta58  1  0.64335462  0.38939196  0.12585100  1
  Ta5+  Ta59  1  0.41725990  0.62292133  0.37836099  1
  Ta5+  Ta60  1  0.63828455  0.40207160  0.36817640  1
  Ta5+  Ta61  1  0.39878974  0.61658794  0.12883386  1
  Ta5+  Ta62  1  0.87774461  0.60843289  0.11894396  1
  Ta5+  Ta63  1  0.87181670  0.36472818  0.10876022  1
  Ta5+  Ta64  1  0.12282394  0.11739096  0.62113284  1
  Ta5+  Ta65  1  0.10888219  0.62563695  0.38174458  1
  Ta5+  Ta66  1  0.36742787  0.38366665  0.87404560  1
  Ta5+  Ta67  1  0.37294499  0.13058982  0.37648736  1
  Ta5+  Ta68  1  0.18063819  0.63131705  0.62673828  1
  Ta5+  Ta69  1  0.34726014  0.62698660  0.63400244  1
  Ta5+  Ta70  1  0.93002511  0.12861466  0.38281475  1
  Ta5+  Ta71  1  0.16687076  0.39270287  0.35740543  1
  Ta5+  Ta72  1  0.13878593  0.88069653  0.35948396  1
  Ta5+  Ta73  1  0.33479741  0.39398872  0.36143036  1
  Ta5+  Ta74  1  0.16694419  0.38336638  0.13926433  1
  W6+  W75  1  0.89083700  0.13667143  0.12444348  1
  W6+  W76  1  0.87951090  0.60081421  0.37983977  1
  W6+  W77  1  0.62952636  0.88494486  0.88472199  1
  W6+  W78  1  0.63501690  0.62199194  0.86648120  1
  W6+  W79  1  0.84158597  0.35953260  0.83620436  1
  W6+  W80  1  0.12653374  0.62614492  0.12657012  1
  W6+  W81  1  0.37130536  0.85278146  0.13154617  1
  W6+  W82  1  0.39112822  0.89511534  0.36786646  1
  O2-  O83  1  0.09914218  0.00982692  0.10112079  1
  O2-  O84  1  0.11891830  -0.00244366  0.37266575  1
  O2-  O85  1  0.12540139  -0.00270314  0.61866497  1
  O2-  O86  1  0.11315545  0.00739737  0.89371162  1
  O2-  O87  1  0.15849009  0.50104168  0.12314803  1
  O2-  O88  1  0.16414238  0.51559178  0.37234245  1
  O2-  O89  1  0.16192897  0.50502515  0.62068868  1
  O2-  O90  1  0.15508831  0.49868717  0.87583710  1
  O2-  O91  1  0.38642456  -0.00966038  0.11474618  1
  O2-  O92  1  0.33279133  0.02055708  0.37358561  1
  O2-  O93  1  0.35576959  0.00913980  0.61059244  1
  O2-  O94  1  0.48721167  0.08196160  0.90688930  1
  O2-  O95  1  0.33975466  0.50885490  0.11341508  1
  O2-  O96  1  0.37309648  0.50432562  0.39083487  1
  O2-  O97  1  0.36035841  0.49451239  0.62195191  1
  O2-  O98  1  0.35469515  0.50156348  0.86393305  1
  O2-  O99  1  0.64176319  0.00773146  0.13836734  1
  O2-  O100  1  0.52252244  -0.03654475  0.38270555  1
  O2-  O101  1  0.71735277  -0.06796739  0.61062171  1
  O2-  O102  1  0.67586968  0.01056846  0.86960658  1
  O2-  O103  1  0.66634426  0.50513959  0.11980878  1
  O2-  O104  1  0.61260361  0.50754664  0.41878781  1
  O2-  O105  1  0.55812611  0.48696595  0.63940823  1
  O2-  O106  1  0.65411799  0.48622860  0.86263249  1
  O2-  O107  1  0.86748909  0.00542886  0.09735012  1
  O2-  O108  1  0.91326513  -0.00105573  0.38057379  1
  O2-  O109  1  0.89685976  -0.01278409  0.61680118  1
  O2-  O110  1  0.88706726  0.00615037  0.86592366  1
  O2-  O111  1  0.86978239  0.48678702  0.10114424  1
  O2-  O112  1  0.78508144  0.49164605  0.34877469  1
  O2-  O113  1  0.91386856  0.53086916  0.62349432  1
  O2-  O114  1  0.86563189  0.49324814  0.84628764  1
  O2-  O115  1  0.13390970  0.25243107  0.15078343  1
  O2-  O116  1  0.13108983  0.25488153  0.36503430  1
  O2-  O117  1  0.09568223  0.25340458  0.61396302  1
  O2-  O118  1  0.08315254  0.25504120  0.87093633  1
  O2-  O119  1  0.07975093  0.75658011  0.11840326  1
  O2-  O120  1  0.15159965  0.74060709  0.35898313  1
  O2-  O121  1  0.13546695  0.75896775  0.64359688  1
  O2-  O122  1  0.10578052  0.75541430  0.86072970  1
  O2-  O123  1  0.39034534  0.25863389  0.13730484  1
  O2-  O124  1  0.33180492  0.24758780  0.35579318  1
  O2-  O125  1  0.43326440  0.24342860  0.62431153  1
  O2-  O126  1  0.40053248  0.24126064  0.88571649  1
  O2-  O127  1  0.32080183  0.72186073  0.12401368  1
  O2-  O128  1  0.41533365  0.75489760  0.38388768  1
  O2-  O129  1  0.36414324  0.75524422  0.64558322  1
  O2-  O130  1  0.41482488  0.75053845  0.84191520  1
  O2-  O131  1  0.58570093  0.26579764  0.14044279  1
  O2-  O132  1  0.74046884  0.33575493  0.37362078  1
  O2-  O133  1  0.59399214  0.11862437  0.57790067  1
  O2-  O134  1  0.59241337  0.23636394  0.88786169  1
  O2-  O135  1  0.64631938  0.75313501  0.13395250  1
  O2-  O136  1  0.64880166  0.75156403  0.38745540  1
  O2-  O137  1  0.54628973  0.74956881  0.66546610  1
  O2-  O138  1  0.63951763  0.75489422  0.90368887  1
  O2-  O139  1  0.94584677  0.26610986  0.12054618  1
  O2-  O140  1  0.90641377  0.26296678  0.39019886  1
  O2-  O141  1  0.79830611  0.22189962  0.62694745  1
  O2-  O142  1  0.79406481  0.22273736  0.84274697  1
  O2-  O143  1  0.88971126  0.74818907  0.09835962  1
  O2-  O144  1  0.86767042  0.74021962  0.33972791  1
  O2-  O145  1  0.90143568  0.76987535  0.62316057  1
  O2-  O146  1  0.91855087  0.75209672  0.86106765  1
  O2-  O147  1  0.13945725  0.15267313  0.00637319  1
  O2-  O148  1  0.08271317  0.12202060  0.24552523  1
  O2-  O149  1  0.15323824  0.12840255  0.49669105  1
  O2-  O150  1  0.09684092  0.12696322  0.75043697  1
  O2-  O151  1  0.14836769  0.64820431  -0.00966751  1
  O2-  O152  1  0.08182728  0.62754178  0.25608101  1
  O2-  O153  1  0.16994548  0.64348171  0.49988245  1
  O2-  O154  1  0.10373211  0.62676349  0.73889282  1
  O2-  O155  1  0.35172155  0.14001552  0.00876181  1
  O2-  O156  1  0.42044405  0.12972643  0.25397625  1
  O2-  O157  1  0.35140703  0.15538451  0.50400553  1
  O2-  O158  1  0.39410263  0.12182233  0.75616636  1
  O2-  O159  1  0.39073214  0.64278390  -0.01903147  1
  O2-  O160  1  0.39707009  0.62108206  0.25263718  1
  O2-  O161  1  0.36612716  0.64365273  0.50432059  1
  O2-  O162  1  0.44921499  0.60753458  0.73691647  1
  O2-  O163  1  0.64608211  0.12901944  0.00346025  1
  O2-  O164  1  0.60430136  0.12561448  0.26428224  1
  O2-  O165  1  0.66709807  0.16243445  0.43018177  1
  O2-  O166  1  0.59076105  0.12343936  0.75458719  1
  O2-  O167  1  0.62343563  0.63206968  0.00865569  1
  O2-  O168  1  0.62009761  0.63130337  0.26490418  1
  O2-  O169  1  0.57376884  0.64145370  0.52961761  1
  O2-  O170  1  0.64934316  0.61942712  0.72677539  1
  O2-  O171  1  0.87467965  0.15218420  -0.01503997  1
  O2-  O172  1  0.90628614  0.14133355  0.26111638  1
  O2-  O173  1  0.87017166  0.12429269  0.50503500  1
  O2-  O174  1  0.92308225  0.13964067  0.73714020  1
  O2-  O175  1  0.84072908  0.62912871  -0.02541056  1
  O2-  O176  1  0.90840251  0.60888963  0.23763448  1
  O2-  O177  1  0.82171967  0.63788785  0.50127158  1
  O2-  O178  1  0.84510914  0.64598375  0.74353048  1
  O2-  O179  1  0.14753816  0.36031701  0.00610792  1
  O2-  O180  1  0.08838498  0.39497143  0.25065605  1
  O2-  O181  1  0.15212473  0.37847428  0.48902259  1
  O2-  O182  1  0.10829443  0.37909966  0.74602091  1
  O2-  O183  1  0.16134997  0.86165894  -0.00046073  1
  O2-  O184  1  0.13921963  0.88289651  0.22408367  1
  O2-  O185  1  0.15245641  0.86075604  0.49158146  1
  O2-  O186  1  0.17974175  0.89154006  0.75968478  1
  O2-  O187  1  0.35588564  0.36086281  0.00631668  1
  O2-  O188  1  0.41074039  0.38718504  0.25146100  1
  O2-  O189  1  0.35635174  0.35602149  0.49139571  1
  O2-  O190  1  0.39577148  0.36171194  0.74977403  1
  O2-  O191  1  0.38260714  0.83605448  -0.00423954  1
  O2-  O192  1  0.26073026  0.86363123  0.35523049  1
  O2-  O193  1  0.36689165  0.86548268  0.50558865  1
  O2-  O194  1  0.39732986  0.90424440  0.74552788  1
  O2-  O195  1  0.64501281  0.35707398  0.00009260  1
  O2-  O196  1  0.60502845  0.40143038  0.24946130  1
  O2-  O197  1  0.64623035  0.32639359  0.55250245  1
  O2-  O198  1  0.59554306  0.34429199  0.74497269  1
  O2-  O199  1  0.57802289  0.87877272  0.02430189  1
  O2-  O200  1  0.62357468  0.86944664  0.26059815  1
  O2-  O201  1  0.59113438  0.85455568  0.51866753  1
  O2-  O202  1  0.67229086  0.84957246  0.76061000  1
  O2-  O203  1  0.84571189  0.34762390  -0.01402991  1
  O2-  O204  1  0.89458949  0.37421800  0.24688257  1
  O2-  O205  1  0.84956403  0.37861439  0.51050388  1
  O2-  O206  1  0.91456731  0.36361630  0.70562562  1
  O2-  O207  1  0.82097548  0.86007566  -0.03797029  1
  O2-  O208  1  0.80447296  0.88225679  0.28866994  1
  O2-  O209  1  0.83816273  0.86623739  0.48938786  1
  O2-  O210  1  0.84130728  0.87496590  0.74753344  1
  O2-  O211  1  -0.01592313  -0.12201837  0.00204665  1
  O2-  O212  1  -0.02715223  -0.11816507  0.17188753  1
  O2-  O213  1  0.00916863  -0.15391572  0.35350625  1
  O2-  O214  1  0.01095640  -0.11456612  0.80909212  1
  O2-  O215  1  -0.00508243  0.60956667  0.07514636  1
  O2-  O216  1  0.00061302  0.64738074  0.42518569  1
  O2-  O217  1  -0.04960033  0.47801046  0.39777159  1
  O2-  O218  1  0.00565678  0.60760860  0.87822421  1
  O2-  O219  1  0.33045721  -0.01119326  -0.10328076  1
  O2-  O220  1  0.25756228  0.11508923  0.15986770  1
  O2-  O221  1  0.24285532  0.15393187  0.65123658  1
  O2-  O222  1  0.24410771  0.14942478  0.86556659  1
  O2-  O223  1  0.25866429  0.65798512  -0.14462721  1
  O2-  O224  1  0.25018534  0.35727400  0.24809099  1
  O2-  O225  1  0.25404641  0.32992451  0.63550947  1
  O2-  O226  1  0.25000686  0.33823277  0.86256602  1
  O2-  O227  1  0.50483712  0.13014012  0.09658425  1
  O2-  O228  1  0.42270152  -0.12772329  0.24034281  1
  O2-  O229  1  0.49577826  0.13433577  0.41422753  1
  O2-  O230  1  0.55524508  -0.03982560  0.67108241  1
  O2-  O231  1  0.50813508  0.54379005  0.13151043  1
  O2-  O232  1  0.49682439  0.70169061  0.11838512  1
  O2-  O233  1  0.55144835  0.31933602  0.39071054  1
  O2-  O234  1  0.49487773  0.38256311  0.90329673  1
  O2-  O235  1  0.75707363  -0.13248377  0.11569889  1
  O2-  O236  1  0.74719111  0.16762469  0.13293314  1
  O2-  O237  1  0.68425256  -0.01837906  0.40433007  1
  O2-  O238  1  0.75710531  0.06780940  0.69485077  1
  O2-  O239  1  0.75825899  0.64292985  0.14086613  1
  O2-  O240  1  0.75411424  0.34404734  0.14524144  1
  O2-  O241  1  0.73418485  0.48735288  0.58874748  1
  O2-  O242  1  0.75739485  0.39117692  0.71614439  1
