# generated using pymatgen
data_Gd19Ta56(WO20)8
_symmetry_space_group_name_H-M   'P 1'
_cell_length_a   15.52957073
_cell_length_b   15.54091122
_cell_length_c   15.29654565
_cell_angle_alpha   89.83971616
_cell_angle_beta   90.14079262
_cell_angle_gamma   89.85730926
_symmetry_Int_Tables_number   1
_chemical_formula_structural   Gd19Ta56(WO20)8
_chemical_formula_sum   'Gd19 Ta56 W8 O160'
_cell_volume   3691.68751574
_cell_formula_units_Z   1
loop_
 _symmetry_equiv_pos_site_id
 _symmetry_equiv_pos_as_xyz
  1  'x, y, z'
loop_
 _atom_type_symbol
 _atom_type_oxidation_number
  Gd3+  3.0
  Ta5+  5.0
  W6+  6.0
  O2-  -2.0
loop_
 _atom_site_type_symbol
 _atom_site_label
 _atom_site_symmetry_multiplicity
 _atom_site_fract_x
 _atom_site_fract_y
 _atom_site_fract_z
 _atom_site_occupancy
  Gd3+  Gd0  1  0.74926346  0.76382298  0.51814201  1
  Gd3+  Gd1  1  0.27085525  0.26492770  0.48021457  1
  Gd3+  Gd2  1  0.00201949  0.25982649  0.26071229  1
  Gd3+  Gd3  1  0.25373723  0.25540022  -0.00192649  1
  Gd3+  Gd4  1  0.49724429  0.73953110  0.50465263  1
  Gd3+  Gd5  1  0.29208309  0.72138012  0.00691101  1
  Gd3+  Gd6  1  0.00533513  0.77599803  -0.00921938  1
  Gd3+  Gd7  1  0.25051511  0.25011281  0.73807563  1
  Gd3+  Gd8  1  0.00618626  0.76281346  0.26049481  1
  Gd3+  Gd9  1  0.00480082  0.23092413  0.75929481  1
  Gd3+  Gd10  1  0.51475672  0.73151162  0.00269401  1
  Gd3+  Gd11  1  0.76073861  0.75603197  0.01863170  1
  Gd3+  Gd12  1  0.24844125  0.73855013  0.51411313  1
  Gd3+  Gd13  1  0.74002809  0.27005937  0.49863644  1
  Gd3+  Gd14  1  0.00077824  0.24674626  0.50610962  1
  Gd3+  Gd15  1  0.73966624  0.24732854  -0.00125114  1
  Gd3+  Gd16  1  0.47163309  0.72949064  0.77692685  1
  Gd3+  Gd17  1  0.49989143  0.23495382  0.47858536  1
  Gd3+  Gd18  1  0.72662051  0.76466078  0.75956174  1
  Ta5+  Ta19  1  0.63819725  0.88238627  0.37246636  1
  Ta5+  Ta20  1  0.12996648  0.88759815  0.13606887  1
  Ta5+  Ta21  1  0.88093145  0.13434366  0.13539967  1
  Ta5+  Ta22  1  0.11231389  0.38243612  0.11833514  1
  Ta5+  Ta23  1  0.15419052  0.62632101  0.66248158  1
  Ta5+  Ta24  1  0.13081258  0.87802900  0.39477738  1
  Ta5+  Ta25  1  0.59269983  0.34798137  0.87425817  1
  Ta5+  Ta26  1  0.62405554  0.88130439  0.13046203  1
  Ta5+  Ta27  1  0.60598411  0.90529765  0.87881994  1
  Ta5+  Ta28  1  0.38913522  0.36110165  0.11534504  1
  Ta5+  Ta29  1  0.36272690  0.62079000  0.36495272  1
  Ta5+  Ta30  1  0.87680823  0.89804968  0.38028904  1
  Ta5+  Ta31  1  0.65410686  0.60428131  0.12645345  1
  Ta5+  Ta32  1  0.37713035  0.10834492  0.37219372  1
  Ta5+  Ta33  1  0.61773677  0.13331020  0.13367769  1
  Ta5+  Ta34  1  0.13240901  0.12351125  0.37918255  1
  Ta5+  Ta35  1  0.34288010  0.88704856  0.12784395  1
  Ta5+  Ta36  1  0.64258500  0.58404854  0.62226062  1
  Ta5+  Ta37  1  0.87302060  0.38534872  0.12651840  1
  Ta5+  Ta38  1  0.37708401  0.12810117  0.12647500  1
  Ta5+  Ta39  1  0.40849754  0.55907388  0.60682722  1
  Ta5+  Ta40  1  0.36805703  0.10672975  0.62148501  1
  Ta5+  Ta41  1  0.90248136  0.39464766  0.63620188  1
  Ta5+  Ta42  1  0.86110546  0.40484012  0.38122638  1
  Ta5+  Ta43  1  0.83907018  0.92985868  0.88754325  1
  Ta5+  Ta44  1  0.11256260  0.62903137  0.39077146  1
  Ta5+  Ta45  1  0.14171512  0.38677326  0.37600071  1
  Ta5+  Ta46  1  0.57546829  0.35939993  0.62768957  1
  Ta5+  Ta47  1  0.36515047  0.89129274  0.87050884  1
  Ta5+  Ta48  1  0.40775657  0.88780252  0.62876919  1
  Ta5+  Ta49  1  0.40014918  0.13198607  0.87495974  1
  Ta5+  Ta50  1  0.62722095  0.14714881  0.63778803  1
  Ta5+  Ta51  1  0.64828703  0.62264648  0.37138062  1
  Ta5+  Ta52  1  0.87473464  0.08953542  0.38802007  1
  Ta5+  Ta53  1  0.60344849  0.59543566  0.87153234  1
  Ta5+  Ta54  1  0.85736402  0.60998730  0.87965475  1
  Ta5+  Ta55  1  0.12638855  0.13072273  0.12742466  1
  Ta5+  Ta56  1  0.88950922  0.11478631  0.88708775  1
  Ta5+  Ta57  1  0.11271860  0.38156106  0.86376935  1
  Ta5+  Ta58  1  0.39868525  0.54019515  0.14111316  1
  Ta5+  Ta59  1  0.14540469  0.62749286  0.87130850  1
  Ta5+  Ta60  1  0.36517682  0.86217318  0.37285471  1
  Ta5+  Ta61  1  0.87521134  0.88980403  0.13830451  1
  Ta5+  Ta62  1  0.17605782  0.88325596  0.89074891  1
  Ta5+  Ta63  1  0.61241574  0.37652549  0.36609254  1
  Ta5+  Ta64  1  0.87685875  0.64146002  0.63914544  1
  Ta5+  Ta65  1  0.87015519  0.36696675  0.87372928  1
  Ta5+  Ta66  1  0.40640831  0.35931493  0.62152477  1
  Ta5+  Ta67  1  0.59317508  0.37374869  0.12522287  1
  Ta5+  Ta68  1  0.11705851  0.10599629  0.62440418  1
  Ta5+  Ta69  1  0.11320006  0.38679211  0.63185955  1
  Ta5+  Ta70  1  0.60888421  0.90743708  0.62374324  1
  Ta5+  Ta71  1  0.91149232  0.62568178  0.12770910  1
  Ta5+  Ta72  1  0.63950750  0.11834927  0.36884404  1
  Ta5+  Ta73  1  0.34753185  0.56138912  0.84001243  1
  Ta5+  Ta74  1  0.88965797  0.63854394  0.38189514  1
  W6+  W75  1  0.87158754  0.89465812  0.63604067  1
  W6+  W76  1  0.56520987  0.16083253  0.87785741  1
  W6+  W77  1  0.40092779  0.38192788  0.35492083  1
  W6+  W78  1  0.12804235  0.10762780  0.88163598  1
  W6+  W79  1  0.86425435  0.13435835  0.62690521  1
  W6+  W80  1  0.42957226  0.31656185  0.86464499  1
  W6+  W81  1  0.14161997  0.86210768  0.65284551  1
  W6+  W82  1  0.07860946  0.62893560  0.12290586  1
  O2-  O83  1  0.14728367  0.00761837  0.14104109  1
  O2-  O84  1  0.13527989  0.00091692  0.39161168  1
  O2-  O85  1  0.12146959  -0.01032430  0.61661217  1
  O2-  O86  1  0.20585429  0.00011489  0.87382416  1
  O2-  O87  1  0.11237821  0.49868888  0.11157118  1
  O2-  O88  1  0.11301760  0.50189817  0.39684325  1
  O2-  O89  1  0.13546802  0.50588869  0.64002738  1
  O2-  O90  1  0.11194313  0.50289616  0.87002887  1
  O2-  O91  1  0.35950118  0.00265410  0.10178340  1
  O2-  O92  1  0.37146666  -0.02048423  0.39007379  1
  O2-  O93  1  0.33870474  -0.01437973  0.59996510  1
  O2-  O94  1  0.39140641  0.00694719  0.88788132  1
  O2-  O95  1  0.31808391  0.47394923  0.08019330  1
  O2-  O96  1  0.41030670  0.51590056  0.39100476  1
  O2-  O97  1  0.32684646  0.47327979  0.60004600  1
  O2-  O98  1  0.35973395  0.44939624  0.85619432  1
  O2-  O99  1  0.61727846  0.00028333  0.12986053  1
  O2-  O100  1  0.59365988  -0.00395700  0.37087820  1
  O2-  O101  1  0.65224683  0.02004809  0.62709287  1
  O2-  O102  1  0.59255075  0.01891147  0.88552468  1
  O2-  O103  1  0.66124355  0.48438539  0.13222270  1
  O2-  O104  1  0.61963867  0.50676884  0.38436058  1
  O2-  O105  1  0.66220595  0.46953481  0.61624438  1
  O2-  O106  1  0.61792126  0.47850057  0.87249846  1
  O2-  O107  1  0.85702655  0.01302982  0.13413197  1
  O2-  O108  1  0.95357993  -0.00404445  0.39398228  1
  O2-  O109  1  0.84483324  0.00857416  0.61058634  1
  O2-  O110  1  0.78017522  0.03457092  0.87933878  1
  O2-  O111  1  0.89744520  0.50520098  0.10104268  1
  O2-  O112  1  0.90805052  0.51341627  0.40326099  1
  O2-  O113  1  0.89495088  0.51822943  0.63693691  1
  O2-  O114  1  0.88995798  0.49743442  0.88605504  1
  O2-  O115  1  0.15397392  0.25747711  0.12669462  1
  O2-  O116  1  0.10050806  0.26179733  0.37819808  1
  O2-  O117  1  0.11205456  0.25600742  0.64888041  1
  O2-  O118  1  0.13979429  0.25128999  0.84878383  1
  O2-  O119  1  0.07018376  0.77147116  0.12262169  1
  O2-  O120  1  0.08711040  0.75456734  0.39298199  1
  O2-  O121  1  0.21478728  0.73657313  0.65664810  1
  O2-  O122  1  0.18962502  0.74728538  0.89848160  1
  O2-  O123  1  0.34444773  0.24997463  0.15029677  1
  O2-  O124  1  0.39560288  0.23603404  0.36760242  1
  O2-  O125  1  0.36405163  0.23371018  0.59597895  1
  O2-  O126  1  0.31309150  0.23067305  0.86644733  1
  O2-  O127  1  0.42316975  0.81551825  0.07557749  1
  O2-  O128  1  0.42073961  0.73480195  0.37041218  1
  O2-  O129  1  0.43984510  0.76428703  0.64002581  1
  O2-  O130  1  0.38300516  0.75406679  0.89570076  1
  O2-  O131  1  0.64251422  0.26166669  0.14452618  1
  O2-  O132  1  0.61665696  0.24371590  0.36321145  1
  O2-  O133  1  0.68065245  0.26320025  0.63139823  1
  O2-  O134  1  0.67065061  0.25243828  0.87008300  1
  O2-  O135  1  0.63023377  0.74101429  0.09924942  1
  O2-  O136  1  0.61349241  0.74996777  0.39775792  1
  O2-  O137  1  0.64577700  0.78100040  0.62867454  1
  O2-  O138  1  0.59276948  0.73380166  0.86924984  1
  O2-  O139  1  0.84628991  0.25652314  0.14541388  1
  O2-  O140  1  0.93489284  0.30728455  0.38368831  1
  O2-  O141  1  0.91156146  0.26457534  0.63848252  1
  O2-  O142  1  0.84764924  0.24515222  0.87566154  1
  O2-  O143  1  0.89068753  0.75922807  0.13261691  1
  O2-  O144  1  0.89534957  0.76312151  0.36653145  1
  O2-  O145  1  0.82905360  0.76796135  0.64633912  1
  O2-  O146  1  0.73543598  0.63518436  0.87767366  1
  O2-  O147  1  0.17142274  0.13258073  0.00901818  1
  O2-  O148  1  0.10195358  0.14308443  0.25874236  1
  O2-  O149  1  0.13615204  0.16132468  0.50422013  1
  O2-  O150  1  0.09534543  0.11329676  0.74831212  1
  O2-  O151  1  0.07537842  0.64617583  -0.02665876  1
  O2-  O152  1  0.09449620  0.63556510  0.26739113  1
  O2-  O153  1  0.13603630  0.64110646  0.53110392  1
  O2-  O154  1  0.08238185  0.65054221  0.76306545  1
  O2-  O155  1  0.36346060  0.14730819  0.00125634  1
  O2-  O156  1  0.37178853  0.09481077  0.25114576  1
  O2-  O157  1  0.42312056  0.10847929  0.49864213  1
  O2-  O158  1  0.38494297  0.11842321  0.74298763  1
  O2-  O159  1  0.41302330  0.63691168  0.06448105  1
  O2-  O160  1  0.36761707  0.61381065  0.24193678  1
  O2-  O161  1  0.36889125  0.64014529  0.51234174  1
  O2-  O162  1  0.39516531  0.60497256  0.72178510  1
  O2-  O163  1  0.63450858  0.14515970  0.01132148  1
  O2-  O164  1  0.67126015  0.11717850  0.24733676  1
  O2-  O165  1  0.62086710  0.14673814  0.50303590  1
  O2-  O166  1  0.56623959  0.15258512  0.73896811  1
  O2-  O167  1  0.60282561  0.60682259  0.00529298  1
  O2-  O168  1  0.61752416  0.62912502  0.24466049  1
  O2-  O169  1  0.67507078  0.63082341  0.50647214  1
  O2-  O170  1  0.59691304  0.61716261  0.74151124  1
  O2-  O171  1  0.84754585  0.13996800  0.01089519  1
  O2-  O172  1  0.90537492  0.13371284  0.27058496  1
  O2-  O173  1  0.86034889  0.17473030  0.48895736  1
  O2-  O174  1  0.89762683  0.12259454  0.76285412  1
  O2-  O175  1  0.88678114  0.66948436  -0.01386496  1
  O2-  O176  1  0.90627054  0.62447619  0.25152176  1
  O2-  O177  1  0.86564535  0.65483530  0.51354075  1
  O2-  O178  1  0.89396091  0.65068571  0.77205092  1
  O2-  O179  1  0.14721355  0.36829509  -0.01463139  1
  O2-  O180  1  0.10195822  0.37814454  0.25191458  1
  O2-  O181  1  0.16475113  0.36293845  0.51249096  1
  O2-  O182  1  0.18066422  0.38161077  0.75345004  1
  O2-  O183  1  0.11107834  0.88522501  0.00272094  1
  O2-  O184  1  0.11253726  0.87320907  0.26174571  1
  O2-  O185  1  0.16143143  0.85660681  0.51455568  1
  O2-  O186  1  0.11761959  0.86810797  0.78770340  1
  O2-  O187  1  0.39791707  0.32942644  -0.00225161  1
  O2-  O188  1  0.38691411  0.43139934  0.22882657  1
  O2-  O189  1  0.40003865  0.35338038  0.48879433  1
  O2-  O190  1  0.37956246  0.32473112  0.73696640  1
  O2-  O191  1  0.29038821  0.87554829  -0.02565495  1
  O2-  O192  1  0.37961992  0.87073536  0.24460207  1
  O2-  O193  1  0.36333057  0.83323905  0.50307047  1
  O2-  O194  1  0.35011185  0.86895532  0.74510916  1
  O2-  O195  1  0.62320224  0.35865117  0.00370209  1
  O2-  O196  1  0.56784601  0.38530038  0.25359390  1
  O2-  O197  1  0.60525764  0.35169386  0.49582197  1
  O2-  O198  1  0.58850556  0.35825507  0.74989901  1
  O2-  O199  1  0.58370861  0.87040407  0.00710111  1
  O2-  O200  1  0.59422911  0.85561364  0.24849915  1
  O2-  O201  1  0.66852606  0.88847117  0.49757952  1
  O2-  O202  1  0.64626735  0.88696282  0.75671930  1
  O2-  O203  1  0.83417723  0.36932889  -0.00092083  1
  O2-  O204  1  0.87263980  0.40158508  0.25183290  1
  O2-  O205  1  0.83831783  0.38055179  0.52335981  1
  O2-  O206  1  0.84235284  0.38433598  0.75187099  1
  O2-  O207  1  0.87176426  0.86283922  -0.00175243  1
  O2-  O208  1  0.92037246  0.89192621  0.25303873  1
  O2-  O209  1  0.85697326  0.86745341  0.50016726  1
  O2-  O210  1  0.84238946  0.87636317  0.77703927  1
  O2-  O211  1  0.00305768  0.16161832  -0.09912903  1
  O2-  O212  1  0.00167524  0.14871583  0.11838130  1
  O2-  O213  1  -0.00191803  0.12412342  0.59317779  1
  O2-  O214  1  -0.05919677  -0.00366901  0.90255174  1
  O2-  O215  1  -0.00705029  0.35297679  -0.11672816  1
  O2-  O216  1  -0.00669619  0.34591707  0.11133095  1
  O2-  O217  1  0.00734586  0.38812936  0.55545931  1
  O2-  O218  1  0.01471611  0.38551796  0.71920972  1
  O2-  O219  1  0.24047499  -0.18463891  0.12846542  1
  O2-  O220  1  0.24888410  -0.16877937  0.36543773  1
  O2-  O221  1  0.25800312  0.13591306  0.39543523  1
  O2-  O222  1  0.24324535  0.13072900  0.63761561  1
  O2-  O223  1  0.26745417  0.59709546  -0.06810399  1
  O2-  O224  1  0.24328294  0.64071137  0.38481435  1
  O2-  O225  1  0.25975660  0.36770189  0.36627979  1
  O2-  O226  1  0.23587776  0.59219281  0.77089534  1
  O2-  O227  1  0.49084580  -0.13334910  -0.14605775  1
  O2-  O228  1  0.49790478  0.13873592  0.13611240  1
  O2-  O229  1  0.51256957  -0.11607207  0.53921917  1
  O2-  O230  1  0.50241850  -0.05983442  0.68745858  1
  O2-  O231  1  0.47007517  0.60158734  -0.12694081  1
  O2-  O232  1  0.49178332  0.45804288  0.09858153  1
  O2-  O233  1  0.52582929  0.61360017  0.57584979  1
  O2-  O234  1  0.48920916  0.46573711  0.63461197  1
  O2-  O235  1  0.74569761  -0.13324760  0.12115759  1
  O2-  O236  1  0.75268773  -0.11898581  0.33839196  1
  O2-  O237  1  0.75257529  0.08399140  0.40106245  1
  O2-  O238  1  0.72486262  -0.14706040  0.90638180  1
  O2-  O239  1  0.76977193  0.63296649  0.11210905  1
  O2-  O240  1  0.76550830  0.63009386  0.35384897  1
  O2-  O241  1  0.74203542  0.36930736  0.37765164  1
  O2-  O242  1  0.75078078  0.62800417  0.67045451  1
