# generated using pymatgen
data_Gd19Ta56(WO20)8
_symmetry_space_group_name_H-M   'P 1'
_cell_length_a   15.46280738
_cell_length_b   15.22466585
_cell_length_c   15.18019786
_cell_angle_alpha   90.12380560
_cell_angle_beta   90.23923783
_cell_angle_gamma   89.74052002
_symmetry_Int_Tables_number   1
_chemical_formula_structural   Gd19Ta56(WO20)8
_chemical_formula_sum   'Gd19 Ta56 W8 O160'
_cell_volume   3573.58660731
_cell_formula_units_Z   1
loop_
 _symmetry_equiv_pos_site_id
 _symmetry_equiv_pos_as_xyz
  1  'x, y, z'
loop_
 _atom_type_symbol
 _atom_type_oxidation_number
  Gd3+  3.0
  Ta5+  5.0
  W6+  6.0
  O2-  -2.0
loop_
 _atom_site_type_symbol
 _atom_site_label
 _atom_site_symmetry_multiplicity
 _atom_site_fract_x
 _atom_site_fract_y
 _atom_site_fract_z
 _atom_site_occupancy
  Gd3+  Gd0  1  0.00374596  0.27012122  0.73040103  1
  Gd3+  Gd1  1  0.02033668  0.75101768  0.49094268  1
  Gd3+  Gd2  1  0.54023196  0.71583530  0.76788945  1
  Gd3+  Gd3  1  0.71707237  0.26939513  0.76401277  1
  Gd3+  Gd4  1  0.79202630  0.76269351  0.49136126  1
  Gd3+  Gd5  1  0.48904211  0.71006449  0.23757473  1
  Gd3+  Gd6  1  -0.02837490  0.74609054  0.26136391  1
  Gd3+  Gd7  1  0.71292678  0.28935968  0.48063544  1
  Gd3+  Gd8  1  0.48590232  0.22705982  0.50478004  1
  Gd3+  Gd9  1  0.23070366  0.23916482  -0.03768572  1
  Gd3+  Gd10  1  0.49098992  0.25374259  -0.01050693  1
  Gd3+  Gd11  1  0.24499031  0.74402432  0.50591954  1
  Gd3+  Gd12  1  0.48819322  0.71101776  0.50200466  1
  Gd3+  Gd13  1  0.04071242  0.28751044  0.29318995  1
  Gd3+  Gd14  1  0.73200053  0.28009512  0.01764957  1
  Gd3+  Gd15  1  0.26103380  0.72166858  0.02493914  1
  Gd3+  Gd16  1  -0.02327139  0.29160444  0.01950922  1
  Gd3+  Gd17  1  0.26690511  0.73912698  0.76498170  1
  Gd3+  Gd18  1  0.26554545  0.72411099  0.26846865  1
  Ta5+  Ta19  1  0.13085260  0.14125437  0.61537802  1
  Ta5+  Ta20  1  0.61544886  0.10739828  0.87447653  1
  Ta5+  Ta21  1  0.34549882  0.35723332  0.12609075  1
  Ta5+  Ta22  1  0.71549036  0.61310224  0.86251655  1
  Ta5+  Ta23  1  0.39539225  0.36468898  0.63838838  1
  Ta5+  Ta24  1  0.63372468  0.60930780  0.36633238  1
  Ta5+  Ta25  1  0.35437934  0.35874005  0.84687172  1
  Ta5+  Ta26  1  0.20120311  0.37773747  0.39614952  1
  Ta5+  Ta27  1  0.83051318  0.65636907  0.10787229  1
  Ta5+  Ta28  1  0.33870053  0.12470988  0.38174589  1
  Ta5+  Ta29  1  0.58806755  0.43325059  0.87520896  1
  Ta5+  Ta30  1  0.15618062  0.57721555  0.36985719  1
  Ta5+  Ta31  1  0.85313697  0.13975555  0.88025361  1
  Ta5+  Ta32  1  0.64571045  0.85961991  0.88220506  1
  Ta5+  Ta33  1  0.07701166  0.61123018  0.65756111  1
  Ta5+  Ta34  1  0.62542773  0.85386440  0.12030188  1
  Ta5+  Ta35  1  0.40543659  0.84972779  0.89440645  1
  Ta5+  Ta36  1  0.60824834  0.11502783  0.35657468  1
  Ta5+  Ta37  1  0.11432059  0.15406773  0.13221102  1
  Ta5+  Ta38  1  0.36493509  0.10757184  0.63851361  1
  Ta5+  Ta39  1  0.13146317  0.89153461  0.37012496  1
  Ta5+  Ta40  1  0.83513597  0.40204985  0.62434353  1
  Ta5+  Ta41  1  0.65720359  0.63455974  0.10863018  1
  Ta5+  Ta42  1  0.84994165  0.41453227  0.87834422  1
  Ta5+  Ta43  1  0.64666950  0.12067028  0.61699307  1
  Ta5+  Ta44  1  0.88395202  0.91012856  0.37153920  1
  Ta5+  Ta45  1  0.15637061  0.89663342  0.90876216  1
  Ta5+  Ta46  1  0.12888611  0.90232618  0.14071515  1
  Ta5+  Ta47  1  0.87011038  0.64713929  0.66806595  1
  Ta5+  Ta48  1  0.37249383  0.88648164  0.14643878  1
  Ta5+  Ta49  1  0.35583395  0.12013288  0.12827396  1
  Ta5+  Ta50  1  0.09584102  0.64285259  0.88499098  1
  Ta5+  Ta51  1  0.59783620  0.39372762  0.12959828  1
  Ta5+  Ta52  1  0.90660838  0.90036775  0.65276154  1
  Ta5+  Ta53  1  0.10673462  0.39021876  0.87371973  1
  Ta5+  Ta54  1  0.36989586  0.36706663  0.37860740  1
  Ta5+  Ta55  1  0.55061386  0.38852416  0.37303950  1
  Ta5+  Ta56  1  0.08609631  0.61218405  0.13535728  1
  Ta5+  Ta57  1  0.40259652  0.59106422  0.89334680  1
  Ta5+  Ta58  1  0.84061025  0.41529253  0.17127769  1
  Ta5+  Ta59  1  0.19019717  0.38851654  0.64799692  1
  Ta5+  Ta60  1  0.61652090  0.11098318  0.12276380  1
  Ta5+  Ta61  1  0.61053293  0.86947901  0.61920350  1
  Ta5+  Ta62  1  0.86268098  0.14934453  0.14163483  1
  Ta5+  Ta63  1  0.83428249  0.15845513  0.35934048  1
  Ta5+  Ta64  1  0.40026806  0.51173911  0.08888981  1
  Ta5+  Ta65  1  0.34893058  0.55187342  0.39644165  1
  Ta5+  Ta66  1  0.92656132  0.90910748  0.86028770  1
  Ta5+  Ta67  1  0.16787613  0.12844433  0.38067994  1
  Ta5+  Ta68  1  0.56434243  0.37901024  0.63425557  1
  Ta5+  Ta69  1  0.12049561  0.89477434  0.66392502  1
  Ta5+  Ta70  1  0.64997366  0.59005667  0.61718930  1
  Ta5+  Ta71  1  0.88745851  0.89841952  0.10419028  1
  Ta5+  Ta72  1  0.38643803  0.57159131  0.63901983  1
  Ta5+  Ta73  1  0.37397697  0.10005156  0.86365448  1
  Ta5+  Ta74  1  0.35877373  0.92902390  0.38367359  1
  W6+  W75  1  0.81181704  0.13810035  0.61920160  1
  W6+  W76  1  0.93433804  0.65468367  0.87728627  1
  W6+  W77  1  0.87306215  0.39885614  0.37661924  1
  W6+  W78  1  0.85384423  0.59065269  0.34582220  1
  W6+  W79  1  0.09577311  0.11534528  0.86936829  1
  W6+  W80  1  0.37255111  0.85297913  0.62697520  1
  W6+  W81  1  0.62581945  0.85926631  0.37213790  1
  W6+  W82  1  0.16457949  0.37919790  0.13166638  1
  O2-  O83  1  0.10989877  0.02269821  0.13674786  1
  O2-  O84  1  0.10977893  0.00773168  0.34712925  1
  O2-  O85  1  0.14193520  0.00565644  0.62745501  1
  O2-  O86  1  0.19187943  0.01342556  0.91338726  1
  O2-  O87  1  0.08120905  0.49345709  0.12150157  1
  O2-  O88  1  0.10767697  0.47675709  0.41412293  1
  O2-  O89  1  0.12256497  0.50297698  0.63019593  1
  O2-  O90  1  0.09824211  0.51543918  0.87983013  1
  O2-  O91  1  0.25526803  -0.08674636  0.16695074  1
  O2-  O92  1  0.43553451  0.02307170  0.37653666  1
  O2-  O93  1  0.39663687  -0.01106205  0.63769408  1
  O2-  O94  1  0.39827658  -0.02679305  0.88174725  1
  O2-  O95  1  0.27282450  0.46617412  0.10335425  1
  O2-  O96  1  0.45658833  0.47701177  0.37748921  1
  O2-  O97  1  0.47833615  0.47873255  0.65528496  1
  O2-  O98  1  0.35171918  0.48615165  0.85390739  1
  O2-  O99  1  0.62805725  -0.01193344  0.12620530  1
  O2-  O100  1  0.62160114  -0.00428560  0.36204047  1
  O2-  O101  1  0.62868200  -0.00965672  0.61812138  1
  O2-  O102  1  0.61073620  -0.01881187  0.87370099  1
  O2-  O103  1  0.62827905  0.51343737  0.12215558  1
  O2-  O104  1  0.63363650  0.48639188  0.36011176  1
  O2-  O105  1  0.67846582  0.46919623  0.62350657  1
  O2-  O106  1  0.72150470  0.48005368  0.86910199  1
  O2-  O107  1  0.86618138  0.02062463  0.13409292  1
  O2-  O108  1  0.87739858  0.03058004  0.37097778  1
  O2-  O109  1  0.86488435  0.00703289  0.61658836  1
  O2-  O110  1  0.93286103  0.04652878  0.86633461  1
  O2-  O111  1  0.85690804  0.52383554  0.11960674  1
  O2-  O112  1  0.93573853  0.51771674  0.39970609  1
  O2-  O113  1  0.85722395  0.52287384  0.64927995  1
  O2-  O114  1  0.89987564  0.52161064  0.87431240  1
  O2-  O115  1  0.06100550  0.27615110  0.14572375  1
  O2-  O116  1  0.16501972  0.25511996  0.40330447  1
  O2-  O117  1  0.12207871  0.26986703  0.63249665  1
  O2-  O118  1  -0.03183802  0.35688264  0.87319481  1
  O2-  O119  1  0.19492449  0.67615969  0.15042401  1
  O2-  O120  1  0.14103997  0.71331298  0.39426656  1
  O2-  O121  1  0.23008837  0.83232090  0.64149311  1
  O2-  O122  1  0.18101723  0.75659819  0.89255241  1
  O2-  O123  1  0.41573979  0.22842469  0.12129885  1
  O2-  O124  1  0.39162950  0.23672307  0.38093933  1
  O2-  O125  1  0.41592308  0.22564104  0.65253700  1
  O2-  O126  1  0.33739544  0.22757521  0.85104564  1
  O2-  O127  1  0.36123900  0.75579524  0.15897974  1
  O2-  O128  1  0.38860646  0.67903814  0.35289843  1
  O2-  O129  1  0.34965506  0.70470632  0.61859142  1
  O2-  O130  1  0.35833533  0.71985005  0.89500487  1
  O2-  O131  1  0.59819986  0.25665062  0.09519322  1
  O2-  O132  1  0.59053112  0.25506055  0.38285366  1
  O2-  O133  1  0.60454870  0.24911198  0.62073367  1
  O2-  O134  1  0.63250236  0.23480151  0.89934929  1
  O2-  O135  1  0.57798578  0.74101272  0.09238321  1
  O2-  O136  1  0.56824165  0.72750689  0.38054751  1
  O2-  O137  1  0.58326956  0.71374252  0.62664046  1
  O2-  O138  1  0.67301192  0.73650022  0.85128166  1
  O2-  O139  1  0.86459691  0.28006905  0.12748729  1
  O2-  O140  1  0.80037487  0.28091817  0.35410211  1
  O2-  O141  1  0.77500530  0.28218220  0.62116982  1
  O2-  O142  1  0.80786777  0.26913946  0.88719407  1
  O2-  O143  1  0.82760985  0.79266453  0.11201812  1
  O2-  O144  1  1.00827457  0.85555187  0.37491687  1
  O2-  O145  1  0.85804259  0.77709341  0.63854178  1
  O2-  O146  1  0.95005319  0.78864832  0.85754977  1
  O2-  O147  1  0.08437058  0.16250579  0.00640886  1
  O2-  O148  1  0.12496446  0.16105532  0.26225030  1
  O2-  O149  1  0.10327844  0.12028286  0.49674113  1
  O2-  O150  1  0.06462964  0.13055539  0.72437697  1
  O2-  O151  1  0.11664391  0.64551676  0.00853895  1
  O2-  O152  1  0.07782249  0.61661457  0.26638724  1
  O2-  O153  1  0.13289911  0.69032177  0.58335649  1
  O2-  O154  1  0.14890655  0.64849004  0.75765170  1
  O2-  O155  1  0.35060485  0.12463906  -0.01302154  1
  O2-  O156  1  0.33501652  0.11295845  0.24954247  1
  O2-  O157  1  0.38465589  0.12053986  0.51149469  1
  O2-  O158  1  0.31040629  0.08382856  0.75974420  1
  O2-  O159  1  0.33519629  0.59257940  0.00548756  1
  O2-  O160  1  0.44221379  0.58439757  0.17525948  1
  O2-  O161  1  0.41725069  0.57951063  0.51530093  1
  O2-  O162  1  0.42223353  0.62124319  0.75759058  1
  O2-  O163  1  0.56676302  0.11121601  0.00672545  1
  O2-  O164  1  0.56113169  0.12778641  0.23413108  1
  O2-  O165  1  0.60669803  0.12472219  0.48949651  1
  O2-  O166  1  0.64358846  0.12592054  0.75121070  1
  O2-  O167  1  0.67967520  0.61900044  -0.01975481  1
  O2-  O168  1  0.62661790  0.64026110  0.24265240  1
  O2-  O169  1  0.75657011  0.65039928  0.59697572  1
  O2-  O170  1  0.63880238  0.59869643  0.75105869  1
  O2-  O171  1  0.88891723  0.16239959  0.00672575  1
  O2-  O172  1  0.91711512  0.16532214  0.25436061  1
  O2-  O173  1  0.80363881  0.15889411  0.47960188  1
  O2-  O174  1  0.85438711  0.17034193  0.75690207  1
  O2-  O175  1  0.86058602  0.66162171  -0.01086244  1
  O2-  O176  1  0.84588930  0.67057726  0.24013638  1
  O2-  O177  1  0.90974298  0.71047550  0.39813192  1
  O2-  O178  1  0.81366652  0.64835110  0.78275066  1
  O2-  O179  1  0.10234495  0.24899411  -0.14549013  1
  O2-  O180  1  0.15893755  0.37212983  0.27017269  1
  O2-  O181  1  0.20829794  0.38028560  0.52746163  1
  O2-  O182  1  0.09580701  0.38828005  0.74588970  1
  O2-  O183  1  0.17164420  0.85263158  0.03270610  1
  O2-  O184  1  0.11478491  0.83107700  0.24585039  1
  O2-  O185  1  0.14190398  0.86628110  0.49206430  1
  O2-  O186  1  0.16791504  0.88200477  0.78167404  1
  O2-  O187  1  0.35143798  0.32634425  -0.01265624  1
  O2-  O188  1  0.36476358  0.36121425  0.24689605  1
  O2-  O189  1  0.39303122  0.35387736  0.51436858  1
  O2-  O190  1  0.28536166  0.34341253  0.72344751  1
  O2-  O191  1  0.36148539  0.85155037  0.01516775  1
  O2-  O192  1  0.40522630  0.87799842  0.27349640  1
  O2-  O193  1  0.35788511  0.84910358  0.48335855  1
  O2-  O194  1  0.39688513  0.82418319  0.76549526  1
  O2-  O195  1  0.62432177  0.39099681  -0.01197395  1
  O2-  O196  1  0.55966454  0.37588166  0.24400679  1
  O2-  O197  1  0.57863190  0.38125583  0.50258923  1
  O2-  O198  1  0.61435274  0.38174362  0.76151552  1
  O2-  O199  1  0.68017526  0.86158396  -0.00029295  1
  O2-  O200  1  0.59539842  0.83938016  0.24084705  1
  O2-  O201  1  0.66903047  0.83629340  0.51184867  1
  O2-  O202  1  0.61210403  0.85213198  0.74339639  1
  O2-  O203  1  0.84141312  0.38981041  0.00349731  1
  O2-  O204  1  0.93661720  0.38199718  0.24880402  1
  O2-  O205  1  0.80420884  0.40461022  0.50084943  1
  O2-  O206  1  0.94437531  0.35672487  0.62555473  1
  O2-  O207  1  0.87516251  0.91330154  -0.02204120  1
  O2-  O208  1  0.90269589  0.88113421  0.24720006  1
  O2-  O209  1  0.89552361  0.87247595  0.49842105  1
  O2-  O210  1  0.84158910  0.90452307  0.76471909  1
  O2-  O211  1  0.04177799  -0.07863963  -0.08002858  1
  O2-  O212  1  0.00840143  -0.12662256  0.10652484  1
  O2-  O213  1  0.02130090  -0.16165654  0.61094635  1
  O2-  O214  1  0.00268712  -0.07086952  0.73749747  1
  O2-  O215  1  0.10881501  0.35871473  -0.00023774  1
  O2-  O216  1  -0.02052163  0.67424692  0.12754446  1
  O2-  O217  1  -0.03032327  0.64036790  0.58157913  1
  O2-  O218  1  -0.02025680  0.63405533  0.74352410  1
  O2-  O219  1  0.23465546  0.15239109  0.10357582  1
  O2-  O220  1  0.25053927  -0.14729560  0.34710214  1
  O2-  O221  1  0.26466457  0.01280026  0.41966517  1
  O2-  O222  1  0.25012316  0.14814532  0.61396396  1
  O2-  O223  1  0.22729359  0.37246448  -0.12027452  1
  O2-  O224  1  0.26013753  0.57449150  0.29562006  1
  O2-  O225  1  0.24645681  0.59617326  0.46594560  1
  O2-  O226  1  0.30079414  0.48562831  0.64038788  1
  O2-  O227  1  0.52451828  -0.18088671  -0.09995594  1
  O2-  O228  1  0.41260625  0.00590578  0.12012048  1
  O2-  O229  1  0.49953682  -0.14818214  0.57597321  1
  O2-  O230  1  0.49134230  0.13063926  0.84807896  1
  O2-  O231  1  0.52184143  0.53585916  -0.10913531  1
  O2-  O232  1  0.47532963  0.39760519  0.08129108  1
  O2-  O233  1  0.60194210  0.59860598  0.49905353  1
  O2-  O234  1  0.48205271  0.35891604  0.87676552  1
  O2-  O235  1  0.73519770  0.14764213  0.11306904  1
  O2-  O236  1  0.72257660  0.13109569  0.31255409  1
  O2-  O237  1  0.77171638  -0.13724429  0.37133808  1
  O2-  O238  1  0.74428595  0.09282495  0.90394519  1
  O2-  O239  1  0.72426819  0.36904904  0.14599419  1
  O2-  O240  1  0.79979197  0.47176720  0.27880407  1
  O2-  O241  1  0.74426291  0.65659761  0.39308005  1
  O2-  O242  1  0.81556679  0.38345980  0.75609940  1
