# generated using pymatgen
data_Gd19Ta56(WO20)8
_symmetry_space_group_name_H-M   'P 1'
_cell_length_a   15.57573918
_cell_length_b   15.48067795
_cell_length_c   15.13698127
_cell_angle_alpha   89.95063606
_cell_angle_beta   89.80026018
_cell_angle_gamma   90.16409142
_symmetry_Int_Tables_number   1
_chemical_formula_structural   Gd19Ta56(WO20)8
_chemical_formula_sum   'Gd19 Ta56 W8 O160'
_cell_volume   3649.83583476
_cell_formula_units_Z   1
loop_
 _symmetry_equiv_pos_site_id
 _symmetry_equiv_pos_as_xyz
  1  'x, y, z'
loop_
 _atom_type_symbol
 _atom_type_oxidation_number
  Gd3+  3.0
  Ta5+  5.0
  W6+  6.0
  O2-  -2.0
loop_
 _atom_site_type_symbol
 _atom_site_label
 _atom_site_symmetry_multiplicity
 _atom_site_fract_x
 _atom_site_fract_y
 _atom_site_fract_z
 _atom_site_occupancy
  Gd3+  Gd0  1  0.26601466  0.28246231  -0.00054599  1
  Gd3+  Gd1  1  0.49970623  0.25626085  0.23266922  1
  Gd3+  Gd2  1  0.48991651  0.75728569  0.51894763  1
  Gd3+  Gd3  1  0.75521195  0.73097288  0.23456613  1
  Gd3+  Gd4  1  0.74357766  0.72591551  0.50509325  1
  Gd3+  Gd5  1  0.45007994  0.72367046  0.76901975  1
  Gd3+  Gd6  1  0.44598957  0.72317314  0.01081343  1
  Gd3+  Gd7  1  -0.00354409  0.77594748  0.24901342  1
  Gd3+  Gd8  1  0.77329631  0.22592836  -0.01382893  1
  Gd3+  Gd9  1  0.23599183  0.76100861  0.25208545  1
  Gd3+  Gd10  1  0.72768586  0.25765964  0.22406077  1
  Gd3+  Gd11  1  0.01401001  0.27831777  0.48583791  1
  Gd3+  Gd12  1  0.23383341  0.76734881  0.50753599  1
  Gd3+  Gd13  1  0.77528827  0.73403476  0.77746104  1
  Gd3+  Gd14  1  0.50659159  0.74830454  0.24396508  1
  Gd3+  Gd15  1  0.53230146  0.23336879  0.00583744  1
  Gd3+  Gd16  1  0.50104865  0.24189489  0.76161366  1
  Gd3+  Gd17  1  0.02037253  0.26475199  -0.00766176  1
  Gd3+  Gd18  1  0.48583715  0.22257239  0.49412993  1
  Ta5+  Ta19  1  0.19260073  0.38426435  0.38027638  1
  Ta5+  Ta20  1  0.36694916  0.88333622  0.13690685  1
  Ta5+  Ta21  1  0.60241092  0.60241848  0.11654094  1
  Ta5+  Ta22  1  0.27804369  0.63544283  0.89025283  1
  Ta5+  Ta23  1  0.57959142  0.61353548  0.39073631  1
  Ta5+  Ta24  1  0.89562788  0.12004565  0.85046811  1
  Ta5+  Ta25  1  0.63340717  0.11199721  0.62206712  1
  Ta5+  Ta26  1  0.86152086  0.36914707  0.62236714  1
  Ta5+  Ta27  1  0.08957377  0.60311524  0.38567736  1
  Ta5+  Ta28  1  0.12452646  0.63889857  0.64459820  1
  Ta5+  Ta29  1  0.82805749  0.12794457  0.35723582  1
  Ta5+  Ta30  1  0.14576888  0.38899736  0.86385763  1
  Ta5+  Ta31  1  0.39551409  0.89191005  0.38213111  1
  Ta5+  Ta32  1  0.37057214  0.37870806  0.62935229  1
  Ta5+  Ta33  1  0.93672621  0.64633427  0.10017633  1
  Ta5+  Ta34  1  0.87560212  0.37146053  0.87319525  1
  Ta5+  Ta35  1  0.88842734  0.61051321  0.62519009  1
  Ta5+  Ta36  1  0.12131118  0.13863018  0.63138181  1
  Ta5+  Ta37  1  0.11129569  0.62026283  0.89206353  1
  Ta5+  Ta38  1  0.10575806  0.90174610  0.38875476  1
  Ta5+  Ta39  1  0.36698795  0.88826643  0.63810960  1
  Ta5+  Ta40  1  0.15343575  0.90589836  0.12738292  1
  Ta5+  Ta41  1  0.40103767  0.42937236  0.12579819  1
  Ta5+  Ta42  1  0.85769166  0.88255798  0.06987467  1
  Ta5+  Ta43  1  0.13960321  0.39151978  0.13331383  1
  Ta5+  Ta44  1  0.89817921  0.89606819  0.39449476  1
  Ta5+  Ta45  1  0.14347564  0.13723569  0.14166582  1
  Ta5+  Ta46  1  0.16279444  0.12335444  0.88170750  1
  Ta5+  Ta47  1  0.65576952  0.90311931  0.13310572  1
  Ta5+  Ta48  1  0.91203220  0.11042561  0.12666899  1
  Ta5+  Ta49  1  0.63304932  0.41530893  0.11607685  1
  Ta5+  Ta50  1  0.88707894  0.61765926  0.36818302  1
  Ta5+  Ta51  1  0.92936854  0.87655773  0.82391213  1
  Ta5+  Ta52  1  0.35587188  0.12025021  0.64650896  1
  Ta5+  Ta53  1  0.37060324  0.60891517  0.39121512  1
  Ta5+  Ta54  1  0.86992662  0.12704542  0.60120400  1
  Ta5+  Ta55  1  0.62564771  0.36131381  0.62187062  1
  Ta5+  Ta56  1  0.10285447  0.89398411  0.63940315  1
  Ta5+  Ta57  1  0.34597106  0.12025018  0.30468858  1
  Ta5+  Ta58  1  0.61821835  0.85964917  0.89199700  1
  Ta5+  Ta59  1  0.14024580  0.14022630  0.38492542  1
  Ta5+  Ta60  1  0.61134722  0.86500227  0.65039145  1
  Ta5+  Ta61  1  0.10669230  0.64472204  0.12385933  1
  Ta5+  Ta62  1  0.60439957  0.87917119  0.38145982  1
  Ta5+  Ta63  1  0.67443415  0.07298778  0.13358750  1
  Ta5+  Ta64  1  0.60863642  0.36972001  0.37376612  1
  Ta5+  Ta65  1  0.89411059  0.40183258  0.12964097  1
  Ta5+  Ta66  1  0.59433537  0.56323618  0.86154406  1
  Ta5+  Ta67  1  0.32185365  0.62131841  0.63575374  1
  Ta5+  Ta68  1  0.32918963  0.87794377  0.88882310  1
  Ta5+  Ta69  1  0.84944512  0.38646994  0.36194861  1
  Ta5+  Ta70  1  0.25331216  0.56359429  0.08238313  1
  Ta5+  Ta71  1  0.13404012  0.38883097  0.63143218  1
  Ta5+  Ta72  1  0.35283678  0.06963972  0.10728134  1
  Ta5+  Ta73  1  0.63680926  0.10091772  0.87743992  1
  Ta5+  Ta74  1  0.40099303  0.41554999  0.87578020  1
  W6+  W75  1  0.86550426  0.87334189  0.61885416  1
  W6+  W76  1  0.59686868  0.61041484  0.65333895  1
  W6+  W77  1  0.37989208  0.12665641  0.89880237  1
  W6+  W78  1  0.65936279  0.36681715  0.87737602  1
  W6+  W79  1  0.92026752  0.61836311  0.86781973  1
  W6+  W80  1  0.66238424  0.10967441  0.37167966  1
  W6+  W81  1  0.17007382  0.87161739  0.87531137  1
  W6+  W82  1  0.35533858  0.35762050  0.37051111  1
  O2-  O83  1  0.10247767  0.01942263  0.13265607  1
  O2-  O84  1  0.14759215  0.01578557  0.39318571  1
  O2-  O85  1  0.08553168  0.02012671  0.62723294  1
  O2-  O86  1  0.15150903  0.00643417  0.87637177  1
  O2-  O87  1  0.12494252  0.51451651  0.12558162  1
  O2-  O88  1  0.16463569  0.50751459  0.38070168  1
  O2-  O89  1  0.12958678  0.50986951  0.64023497  1
  O2-  O90  1  0.09154003  0.49678360  0.86303520  1
  O2-  O91  1  0.43963173  -0.01575631  0.10520583  1
  O2-  O92  1  0.38287040  0.02064160  0.36206785  1
  O2-  O93  1  0.31973709  -0.00177032  0.65466750  1
  O2-  O94  1  0.35191951  -0.00574239  0.89409340  1
  O2-  O95  1  0.36697443  0.54249861  0.14897033  1
  O2-  O96  1  0.35542333  0.49231437  0.38462937  1
  O2-  O97  1  0.36103337  0.50166513  0.62702324  1
  O2-  O98  1  0.36028743  0.52652197  0.87667535  1
  O2-  O99  1  0.58822612  0.00351217  0.18393809  1
  O2-  O100  1  0.67277877  -0.02569054  0.39018217  1
  O2-  O101  1  0.63936763  -0.00876776  0.63330545  1
  O2-  O102  1  0.64737670  -0.01880797  0.86519366  1
  O2-  O103  1  0.52929289  0.50105357  0.13750365  1
  O2-  O104  1  0.59005715  0.49217759  0.37610915  1
  O2-  O105  1  0.60649525  0.47688185  0.62851972  1
  O2-  O106  1  0.69297766  0.49672584  0.87016424  1
  O2-  O107  1  0.91720557  -0.01322255  0.11323577  1
  O2-  O108  1  0.85488261  0.00630748  0.38263244  1
  O2-  O109  1  0.87812933  0.00954154  0.59382693  1
  O2-  O110  1  0.93837970  0.00762086  0.84373790  1
  O2-  O111  1  0.91191169  0.51722238  0.11337898  1
  O2-  O112  1  0.83021030  0.50653258  0.34443072  1
  O2-  O113  1  0.90452588  0.48444853  0.61625567  1
  O2-  O114  1  0.90372566  0.48386311  0.88319109  1
  O2-  O115  1  0.17351273  0.26247469  0.12145958  1
  O2-  O116  1  0.13310321  0.27026531  0.39163942  1
  O2-  O117  1  0.08842196  0.26026920  0.61335191  1
  O2-  O118  1  0.13322936  0.25398785  0.89351142  1
  O2-  O119  1  0.11640179  0.77886932  0.15143151  1
  O2-  O120  1  0.16280269  0.78879306  0.38354057  1
  O2-  O121  1  0.13399572  0.76532938  0.62354173  1
  O2-  O122  1  0.18678624  0.73134193  0.89127743  1
  O2-  O123  1  0.51211003  0.34557338  0.10642629  1
  O2-  O124  1  0.41242269  0.21470817  0.35739341  1
  O2-  O125  1  0.39474326  0.24681643  0.64639262  1
  O2-  O126  1  0.43575663  0.26777009  0.89432328  1
  O2-  O127  1  0.38849823  0.75990147  0.15940700  1
  O2-  O128  1  0.39517154  0.76279045  0.39649693  1
  O2-  O129  1  0.36770552  0.75260404  0.61709606  1
  O2-  O130  1  0.36384127  0.74257168  0.88633467  1
  O2-  O131  1  0.61002087  0.19351710  0.14918534  1
  O2-  O132  1  0.60069341  0.24240853  0.34892382  1
  O2-  O133  1  0.57414132  0.23489099  0.62236704  1
  O2-  O134  1  0.63065941  0.23272737  0.89192085  1
  O2-  O135  1  0.56141164  0.71910828  0.10991786  1
  O2-  O136  1  0.58668666  0.74514071  0.38789180  1
  O2-  O137  1  0.55770345  0.74445126  0.65548148  1
  O2-  O138  1  0.53216970  0.77264528  0.88590569  1
  O2-  O139  1  0.82257048  0.20137086  0.12301651  1
  O2-  O140  1  0.83116626  0.25553408  0.33245878  1
  O2-  O141  1  0.91449216  0.26007635  0.60362464  1
  O2-  O142  1  0.93070218  0.24867922  0.86750757  1
  O2-  O143  1  0.92855292  0.78696816  0.11108186  1
  O2-  O144  1  0.77771790  0.67927879  0.36927289  1
  O2-  O145  1  0.82822261  0.73279318  0.63336315  1
  O2-  O146  1  0.92223904  0.75413446  0.83027070  1
  O2-  O147  1  0.17228202  0.13366554  0.01261876  1
  O2-  O148  1  0.10289993  0.14572351  0.26723037  1
  O2-  O149  1  0.07195259  0.14182439  0.49415532  1
  O2-  O150  1  0.12630297  0.14414729  0.75397280  1
  O2-  O151  1  0.05433169  0.66237257  0.00630798  1
  O2-  O152  1  0.10558925  0.65021287  0.26695630  1
  O2-  O153  1  0.12747552  0.64374933  0.49775959  1
  O2-  O154  1  0.09741323  0.64614833  0.76438894  1
  O2-  O155  1  0.35894860  0.17309168  0.03510694  1
  O2-  O156  1  0.42241536  0.13795014  0.19930290  1
  O2-  O157  1  0.42531426  0.10165121  0.54989953  1
  O2-  O158  1  0.41240272  0.11892496  0.75741961  1
  O2-  O159  1  0.32035233  0.65028163  0.01944960  1
  O2-  O160  1  0.28405776  0.64672432  0.31781732  1
  O2-  O161  1  0.30964356  0.63402001  0.50301230  1
  O2-  O162  1  0.31339090  0.64493275  0.75801722  1
  O2-  O163  1  0.67898833  0.11202308  0.00831423  1
  O2-  O164  1  0.73534978  0.10560122  0.24769593  1
  O2-  O165  1  0.60094595  0.12070409  0.50213516  1
  O2-  O166  1  0.60673815  0.12545771  0.75098478  1
  O2-  O167  1  0.57268920  0.60554922  -0.02213262  1
  O2-  O168  1  0.63258067  0.63371713  0.24549908  1
  O2-  O169  1  0.63874383  0.62437286  0.50688117  1
  O2-  O170  1  0.66027124  0.64404566  0.78477450  1
  O2-  O171  1  0.89878208  0.13219224  -0.01353556  1
  O2-  O172  1  0.90775552  0.11378964  0.25084689  1
  O2-  O173  1  0.88004326  0.15660910  0.47297588  1
  O2-  O174  1  0.90612736  0.13756579  0.72316875  1
  O2-  O175  1  0.88719237  0.65627159  -0.01200408  1
  O2-  O176  1  0.89475670  0.65218094  0.23454248  1
  O2-  O177  1  0.85665441  0.61786427  0.50038493  1
  O2-  O178  1  0.85135165  0.60590800  0.74557911  1
  O2-  O179  1  0.13268979  0.37813631  -0.00503810  1
  O2-  O180  1  0.16376854  0.38375056  0.25705836  1
  O2-  O181  1  0.11628343  0.38932932  0.50317228  1
  O2-  O182  1  0.09477753  0.36274269  0.75032942  1
  O2-  O183  1  0.14831573  0.87554738  0.00912512  1
  O2-  O184  1  0.15761456  0.89681881  0.26061993  1
  O2-  O185  1  0.15615876  0.89581968  0.52082029  1
  O2-  O186  1  0.17360294  0.89360066  0.73422969  1
  O2-  O187  1  0.38457051  0.38975911  0.00334996  1
  O2-  O188  1  0.38539355  0.35932701  0.22751385  1
  O2-  O189  1  0.39326153  0.35004178  0.51060359  1
  O2-  O190  1  0.42340217  0.37988376  0.74920289  1
  O2-  O191  1  0.36644213  0.85120274  0.01124072  1
  O2-  O192  1  0.33341554  0.87808170  0.27031504  1
  O2-  O193  1  0.33933104  0.88622579  0.50583140  1
  O2-  O194  1  0.36927363  0.85738766  0.76203800  1
  O2-  O195  1  0.66467836  0.34261114  0.01975355  1
  O2-  O196  1  0.61902712  0.37093753  0.23835954  1
  O2-  O197  1  0.57908462  0.34691776  0.49713407  1
  O2-  O198  1  0.61798834  0.34167308  0.74487533  1
  O2-  O199  1  0.61849856  0.87582158  0.01616255  1
  O2-  O200  1  0.65215293  0.83849790  0.25625210  1
  O2-  O201  1  0.63950665  0.83677739  0.52489529  1
  O2-  O202  1  0.65977650  0.83819797  0.76257594  1
  O2-  O203  1  0.87925501  0.34483116  0.00894310  1
  O2-  O204  1  0.91666077  0.38254871  0.25491440  1
  O2-  O205  1  0.89820490  0.37527680  0.47458419  1
  O2-  O206  1  0.85009709  0.36246480  0.74412339  1
  O2-  O207  1  0.88205046  0.88078406  -0.04866540  1
  O2-  O208  1  0.85827348  0.82691533  0.29779032  1
  O2-  O209  1  0.82929263  0.84514881  0.48495110  1
  O2-  O210  1  0.82836038  0.88293732  0.75854538  1
  O2-  O211  1  0.01865097  0.16930571  0.10910593  1
  O2-  O212  1  0.00356829  -0.09022783  0.31063217  1
  O2-  O213  1  0.00139558  -0.11358527  0.46985464  1
  O2-  O214  1  -0.00875236  -0.12303594  0.69949148  1
  O2-  O215  1  0.01397769  0.35744524  0.11655759  1
  O2-  O216  1  -0.01702693  0.69942203  0.38181649  1
  O2-  O217  1  -0.01144776  0.53494945  0.39273722  1
  O2-  O218  1  -0.00131315  0.64674302  0.61983962  1
  O2-  O219  1  0.26672751  -0.03210173  0.11481814  1
  O2-  O220  1  0.26056531  0.11630933  0.20054871  1
  O2-  O221  1  0.26029148  0.15095680  0.39364630  1
  O2-  O222  1  0.23921636  0.14863630  0.60600064  1
  O2-  O223  1  0.20662268  0.54615372  -0.03608377  1
  O2-  O224  1  0.26427331  0.41860509  0.10779428  1
  O2-  O225  1  0.25047520  0.35915187  0.64313627  1
  O2-  O226  1  0.27025368  0.36973665  0.86715295  1
  O2-  O227  1  0.52286398  0.10467365  -0.07502615  1
  O2-  O228  1  0.50116248  -0.11449374  0.30075273  1
  O2-  O229  1  0.50258760  -0.10049468  0.45885153  1
  O2-  O230  1  0.48827957  -0.10166679  0.63651220  1
  O2-  O231  1  0.52209999  0.44964644  -0.11254598  1
  O2-  O232  1  0.47412379  0.62097231  0.30934714  1
  O2-  O233  1  0.48014367  0.61775573  0.47289852  1
  O2-  O234  1  0.51182459  0.58738531  0.76554900  1
  O2-  O235  1  0.75643616  -0.02320615  0.08652154  1
  O2-  O236  1  0.75832383  -0.18403248  0.11008532  1
  O2-  O237  1  0.74990232  0.14786743  0.61883065  1
  O2-  O238  1  0.77321940  0.12496198  0.85731252  1
  O2-  O239  1  0.69483079  0.52296409  0.09182840  1
  O2-  O240  1  0.77101761  0.38295862  0.15413592  1
  O2-  O241  1  0.72897666  0.37323430  0.38435005  1
  O2-  O242  1  0.74442345  0.35171647  0.58992740  1
