# generated using pymatgen
data_Gd19Ta56(WO20)8
_symmetry_space_group_name_H-M   'P 1'
_cell_length_a   15.56318025
_cell_length_b   15.45424348
_cell_length_c   15.21421939
_cell_angle_alpha   90.07862072
_cell_angle_beta   90.06634197
_cell_angle_gamma   89.96372172
_symmetry_Int_Tables_number   1
_chemical_formula_structural   Gd19Ta56(WO20)8
_chemical_formula_sum   'Gd19 Ta56 W8 O160'
_cell_volume   3659.27446901
_cell_formula_units_Z   1
loop_
 _symmetry_equiv_pos_site_id
 _symmetry_equiv_pos_as_xyz
  1  'x, y, z'
loop_
 _atom_type_symbol
 _atom_type_oxidation_number
  Gd3+  3.0
  Ta5+  5.0
  W6+  6.0
  O2-  -2.0
loop_
 _atom_site_type_symbol
 _atom_site_label
 _atom_site_symmetry_multiplicity
 _atom_site_fract_x
 _atom_site_fract_y
 _atom_site_fract_z
 _atom_site_occupancy
  Gd3+  Gd0  1  0.23529096  0.27267850  0.78597889  1
  Gd3+  Gd1  1  0.02740295  0.25022668  -0.01441775  1
  Gd3+  Gd2  1  0.01039853  0.77395133  0.75426347  1
  Gd3+  Gd3  1  0.01522519  0.25452869  0.23782277  1
  Gd3+  Gd4  1  -0.03426596  0.74075447  0.51410006  1
  Gd3+  Gd5  1  0.72711597  0.70721039  0.76172678  1
  Gd3+  Gd6  1  0.49080872  0.75289259  -0.01028980  1
  Gd3+  Gd7  1  0.78936038  0.20862584  0.50158722  1
  Gd3+  Gd8  1  0.19274375  0.76795005  0.48617942  1
  Gd3+  Gd9  1  0.01111621  0.76361154  0.27441241  1
  Gd3+  Gd10  1  0.75215519  0.23612028  -0.00447076  1
  Gd3+  Gd11  1  0.47135493  0.24995526  0.47752730  1
  Gd3+  Gd12  1  0.76063809  0.72267696  0.01828704  1
  Gd3+  Gd13  1  0.74961573  0.24403364  0.74596304  1
  Gd3+  Gd14  1  0.49618026  0.74263065  0.51146638  1
  Gd3+  Gd15  1  0.53382561  0.28409396  0.23152212  1
  Gd3+  Gd16  1  0.75393375  0.75276306  0.25197768  1
  Gd3+  Gd17  1  0.49166092  0.24207523  0.77425926  1
  Gd3+  Gd18  1  0.24375894  0.26007463  0.24874191  1
  Ta5+  Ta19  1  0.37951043  0.39623887  0.13072938  1
  Ta5+  Ta20  1  0.71411273  0.38322002  0.16432558  1
  Ta5+  Ta21  1  0.33698821  0.64085796  0.88574800  1
  Ta5+  Ta22  1  0.16247018  0.87135533  0.88846578  1
  Ta5+  Ta23  1  0.89874783  0.11143662  0.12644472  1
  Ta5+  Ta24  1  0.35217704  0.40131931  0.37725393  1
  Ta5+  Ta25  1  0.35535952  0.86593316  0.63498048  1
  Ta5+  Ta26  1  0.90119711  0.38740284  0.11379238  1
  Ta5+  Ta27  1  0.87013828  0.91630123  0.63482499  1
  Ta5+  Ta28  1  0.09663094  0.45859908  0.87810720  1
  Ta5+  Ta29  1  0.11905831  0.90255325  0.62657490  1
  Ta5+  Ta30  1  0.39049188  0.11150232  0.62741185  1
  Ta5+  Ta31  1  0.40204144  0.88552064  0.14424775  1
  Ta5+  Ta32  1  0.89851941  0.57610951  0.63701929  1
  Ta5+  Ta33  1  0.66927219  0.85746669  0.88761468  1
  Ta5+  Ta34  1  0.89149362  0.59225138  0.88623511  1
  Ta5+  Ta35  1  0.89016428  0.38714440  0.85853082  1
  Ta5+  Ta36  1  0.62380346  0.08462690  0.87401871  1
  Ta5+  Ta37  1  0.86229112  0.88386106  0.38138491  1
  Ta5+  Ta38  1  0.87163463  0.37983330  0.61212978  1
  Ta5+  Ta39  1  0.63207468  0.07617229  0.65734318  1
  Ta5+  Ta40  1  0.11179934  0.36954711  0.41315566  1
  Ta5+  Ta41  1  0.34947224  0.62855428  0.63461835  1
  Ta5+  Ta42  1  0.12158254  0.13329949  0.38904954  1
  Ta5+  Ta43  1  0.62553055  0.40551664  0.59831301  1
  Ta5+  Ta44  1  0.10896319  0.11127929  0.84962571  1
  Ta5+  Ta45  1  0.83826616  0.85037264  0.87385989  1
  Ta5+  Ta46  1  0.87356269  0.58442277  0.13826205  1
  Ta5+  Ta47  1  0.33142416  0.86760359  0.88852815  1
  Ta5+  Ta48  1  0.64048110  0.87781479  0.12243745  1
  Ta5+  Ta49  1  0.14920793  0.95815608  0.37749235  1
  Ta5+  Ta50  1  0.59556097  0.59601730  0.89586157  1
  Ta5+  Ta51  1  0.14824603  0.65102416  0.13144322  1
  Ta5+  Ta52  1  0.68458842  0.37054358  0.37290232  1
  Ta5+  Ta53  1  0.94422320  0.11356414  0.38520659  1
  Ta5+  Ta54  1  0.08179059  0.39179340  0.67014785  1
  Ta5+  Ta55  1  0.09197704  0.60305368  0.38169377  1
  Ta5+  Ta56  1  0.61965533  0.60850110  0.34988893  1
  Ta5+  Ta57  1  0.11141681  0.14231760  0.63480332  1
  Ta5+  Ta58  1  0.94276608  0.13377045  0.64409522  1
  Ta5+  Ta59  1  0.85257981  0.35502252  0.35928794  1
  Ta5+  Ta60  1  0.86910791  0.09861290  0.87380926  1
  Ta5+  Ta61  1  0.14595646  0.12441576  0.10741730  1
  Ta5+  Ta62  1  0.61450418  0.11720602  0.36973315  1
  Ta5+  Ta63  1  0.55121997  0.52448946  0.12323934  1
  Ta5+  Ta64  1  0.11902379  0.62797233  0.63602018  1
  Ta5+  Ta65  1  0.38903159  0.38015522  0.62745180  1
  Ta5+  Ta66  1  0.34425376  0.89640280  0.38140998  1
  Ta5+  Ta67  1  0.65009583  0.12455078  0.12767521  1
  Ta5+  Ta68  1  0.37171642  0.65296602  0.14302614  1
  Ta5+  Ta69  1  0.33427951  0.64175574  0.38247037  1
  Ta5+  Ta70  1  0.88556745  0.86200194  0.10945529  1
  Ta5+  Ta71  1  0.29597571  0.07806736  0.38890880  1
  Ta5+  Ta72  1  0.16869984  0.67554233  0.88301842  1
  Ta5+  Ta73  1  0.62506500  0.87313145  0.36664434  1
  Ta5+  Ta74  1  0.85312181  0.60340911  0.38099063  1
  W6+  W75  1  0.13064812  0.88110945  0.13994753  1
  W6+  W76  1  0.63444697  0.85198713  0.62449741  1
  W6+  W77  1  0.37953494  0.13336496  0.14661679  1
  W6+  W78  1  0.57921112  0.43026137  0.80316320  1
  W6+  W79  1  0.12755142  0.39883674  0.12578086  1
  W6+  W80  1  0.39959366  0.39616567  0.88685586  1
  W6+  W81  1  0.36771518  0.11771157  0.89384226  1
  W6+  W82  1  0.60222141  0.59366051  0.65506018  1
  O2-  O83  1  0.16058856  0.01027647  0.13483983  1
  O2-  O84  1  0.04243825  0.02737386  0.37395763  1
  O2-  O85  1  0.15049548  0.01722809  0.62795875  1
  O2-  O86  1  0.14163068  -0.00449670  0.86559485  1
  O2-  O87  1  0.15396025  0.53105976  0.13181498  1
  O2-  O88  1  0.07133620  0.48053598  0.37883812  1
  O2-  O89  1  0.13167616  0.51037402  0.65907628  1
  O2-  O90  1  0.17837692  0.54625181  0.87469306  1
  O2-  O91  1  0.37057937  -0.00144119  0.14237642  1
  O2-  O92  1  0.40710995  -0.00148809  0.38132146  1
  O2-  O93  1  0.37194230  -0.01240365  0.62343693  1
  O2-  O94  1  0.34896580  -0.01371235  0.89381119  1
  O2-  O95  1  0.41197702  0.53059648  0.13917738  1
  O2-  O96  1  0.37633852  0.51624580  0.38775749  1
  O2-  O97  1  0.37419394  0.50691020  0.61970606  1
  O2-  O98  1  0.37001570  0.52361214  0.88736229  1
  O2-  O99  1  0.64699098  0.00635667  0.11651083  1
  O2-  O100  1  0.59519387  -0.00665537  0.35171269  1
  O2-  O101  1  0.66433110  -0.01608802  0.58906853  1
  O2-  O102  1  0.66662857  -0.01930686  0.92317226  1
  O2-  O103  1  0.65426965  0.47475317  0.09215874  1
  O2-  O104  1  0.65333633  0.49617642  0.37770177  1
  O2-  O105  1  0.61034131  0.51561922  0.54713647  1
  O2-  O106  1  0.65606216  0.49550276  0.89601404  1
  O2-  O107  1  0.89720115  -0.00988141  0.11546014  1
  O2-  O108  1  0.87870945  0.00239001  0.37730892  1
  O2-  O109  1  0.84974214  0.03165478  0.64190741  1
  O2-  O110  1  0.85855369  -0.01914651  0.87096609  1
  O2-  O111  1  0.96434035  0.50417674  0.12297185  1
  O2-  O112  1  0.84284772  0.48511161  0.36993150  1
  O2-  O113  1  0.81041120  0.48840251  0.60233794  1
  O2-  O114  1  0.82540101  0.48171362  0.89285534  1
  O2-  O115  1  0.10417591  0.26451635  0.10972745  1
  O2-  O116  1  0.05873477  0.26223855  0.39108059  1
  O2-  O117  1  0.09446851  0.26969823  0.67180139  1
  O2-  O118  1  0.11299967  0.24074258  0.86611611  1
  O2-  O119  1  0.07240881  0.75485895  0.13842646  1
  O2-  O120  1  0.07463916  0.73473184  0.40585856  1
  O2-  O121  1  0.08332722  0.75936528  0.60745414  1
  O2-  O122  1  0.07797861  0.76976138  0.88817263  1
  O2-  O123  1  0.39741706  0.27559572  0.16438466  1
  O2-  O124  1  0.44744255  0.32916087  0.34858247  1
  O2-  O125  1  0.42759409  0.24383898  0.62699781  1
  O2-  O126  1  0.36321337  0.26178190  0.86018200  1
  O2-  O127  1  0.45202481  0.74313534  0.13529040  1
  O2-  O128  1  0.29218782  0.76233988  0.37970339  1
  O2-  O129  1  0.40879850  0.74560386  0.63805077  1
  O2-  O130  1  0.40084839  0.75286200  0.87287572  1
  O2-  O131  1  0.65255434  0.27102242  0.12937961  1
  O2-  O132  1  0.61044632  0.25418626  0.36372014  1
  O2-  O133  1  0.70943547  0.16541658  0.61929213  1
  O2-  O134  1  0.74405167  0.14006664  0.87060813  1
  O2-  O135  1  0.66771108  0.74878349  0.13120060  1
  O2-  O136  1  0.61330978  0.75303310  0.32686878  1
  O2-  O137  1  0.59755755  0.71785617  0.61327710  1
  O2-  O138  1  0.64623887  0.71982053  0.91715423  1
  O2-  O139  1  0.91519581  0.25593102  0.11294957  1
  O2-  O140  1  0.88255266  0.22585904  0.37126297  1
  O2-  O141  1  0.87419709  0.24912473  0.62586031  1
  O2-  O142  1  0.83571155  0.27775562  0.88115305  1
  O2-  O143  1  0.86673165  0.72966064  0.13182408  1
  O2-  O144  1  0.88491021  0.75242489  0.37957425  1
  O2-  O145  1  0.91841885  0.69894680  0.65068070  1
  O2-  O146  1  0.84304299  0.70979952  0.86819682  1
  O2-  O147  1  0.14833926  0.12469715  -0.01792055  1
  O2-  O148  1  0.13110397  0.15829555  0.25037234  1
  O2-  O149  1  0.12932167  0.16112356  0.51494224  1
  O2-  O150  1  0.18721793  0.13801204  0.75194537  1
  O2-  O151  1  0.16539374  0.66688299  0.00992604  1
  O2-  O152  1  0.11270718  0.64517986  0.26334524  1
  O2-  O153  1  0.07415526  0.61064043  0.51281567  1
  O2-  O154  1  0.12021587  0.66898755  0.75482707  1
  O2-  O155  1  0.39680591  0.13708704  0.01473834  1
  O2-  O156  1  0.33209523  0.14518326  0.28874140  1
  O2-  O157  1  0.35601965  0.13549906  0.50495926  1
  O2-  O158  1  0.36491735  0.12916212  0.74786209  1
  O2-  O159  1  0.36100098  0.65392654  0.01658799  1
  O2-  O160  1  0.39148821  0.64741337  0.27375447  1
  O2-  O161  1  0.37472702  0.65356253  0.49972917  1
  O2-  O162  1  0.32502627  0.63567903  0.75292851  1
  O2-  O163  1  0.63180645  0.14534531  0.00227781  1
  O2-  O164  1  0.58482010  0.13902326  0.23703298  1
  O2-  O165  1  0.72493581  0.11331184  0.41049891  1
  O2-  O166  1  0.62016288  0.17203967  0.76875380  1
  O2-  O167  1  0.54833976  0.60415243  0.02613144  1
  O2-  O168  1  0.57918386  0.58625854  0.22887515  1
  O2-  O169  1  0.52640621  0.63073792  0.41855770  1
  O2-  O170  1  0.58971807  0.64692516  0.78013767  1
  O2-  O171  1  0.85400678  0.13135015  -0.00044005  1
  O2-  O172  1  0.93029601  0.12042981  0.24744042  1
  O2-  O173  1  0.92068484  0.12381947  0.51220455  1
  O2-  O174  1  0.86790497  0.14988926  0.75973068  1
  O2-  O175  1  0.84544656  0.60158526  0.01537902  1
  O2-  O176  1  0.82563221  0.62232217  0.25044232  1
  O2-  O177  1  0.88683860  0.61187916  0.50309086  1
  O2-  O178  1  0.90311557  0.56658457  0.76246986  1
  O2-  O179  1  0.11930316  0.39803797  -0.02056676  1
  O2-  O180  1  0.12433184  0.35527261  0.25969458  1
  O2-  O181  1  0.10506519  0.38135990  0.53550280  1
  O2-  O182  1  0.15723553  0.39854739  0.77925302  1
  O2-  O183  1  0.16153150  0.87273861  0.01127764  1
  O2-  O184  1  0.10004901  0.88114606  0.27670128  1
  O2-  O185  1  0.11003379  0.89208830  0.49212972  1
  O2-  O186  1  0.12684004  0.86573541  0.74793879  1
  O2-  O187  1  0.34187315  0.38910544  0.01747787  1
  O2-  O188  1  0.31640766  0.40313698  0.24533222  1
  O2-  O189  1  0.36460801  0.36267384  0.49820943  1
  O2-  O190  1  0.28307961  0.34328748  0.66428471  1
  O2-  O191  1  0.37968635  0.85195376  0.02004954  1
  O2-  O192  1  0.37093842  0.85402110  0.26047435  1
  O2-  O193  1  0.38957823  0.85021579  0.49665762  1
  O2-  O194  1  0.33654790  0.86484196  0.75600218  1
  O2-  O195  1  0.78757423  0.36120491  0.05704299  1
  O2-  O196  1  0.61946696  0.39907071  0.25163966  1
  O2-  O197  1  0.68535684  0.34232608  0.50729062  1
  O2-  O198  1  0.61429379  0.32828578  0.70537208  1
  O2-  O199  1  0.59399450  0.85586216  0.00338148  1
  O2-  O200  1  0.68047037  0.88465057  0.24423581  1
  O2-  O201  1  0.58544090  0.85559750  0.48339633  1
  O2-  O202  1  0.65426346  0.83434099  0.76370717  1
  O2-  O203  1  0.94192171  0.37294791  -0.01986856  1
  O2-  O204  1  0.92289463  0.37284982  0.24212038  1
  O2-  O205  1  0.87245482  0.35377274  0.48805534  1
  O2-  O206  1  0.83485027  0.37253995  0.74059176  1
  O2-  O207  1  0.90264229  0.83664534  -0.01143367  1
  O2-  O208  1  0.87205748  0.86078872  0.25033695  1
  O2-  O209  1  0.88149986  0.87176238  0.51188937  1
  O2-  O210  1  0.86354753  0.85223832  0.74241168  1
  O2-  O211  1  -0.01146815  0.12412148  -0.10097700  1
  O2-  O212  1  0.01646318  0.12302961  0.09090016  1
  O2-  O213  1  -0.00625252  -0.09447418  0.64015804  1
  O2-  O214  1  0.02918257  0.09518057  0.73562243  1
  O2-  O215  1  0.00083538  0.53700883  -0.08817067  1
  O2-  O216  1  -0.02974098  0.61482573  0.34075190  1
  O2-  O217  1  -0.02728872  0.45356544  0.62677688  1
  O2-  O218  1  0.00107018  0.40168889  0.79782204  1
  O2-  O219  1  0.25420226  0.18142285  0.12581549  1
  O2-  O220  1  0.25538759  -0.02546108  0.30493843  1
  O2-  O221  1  0.25917343  -0.03871500  0.45997279  1
  O2-  O222  1  0.23892701  -0.15024742  0.60500644  1
  O2-  O223  1  0.25916234  0.69510662  0.16572190  1
  O2-  O224  1  0.21877634  0.60136043  0.39797551  1
  O2-  O225  1  0.23218942  0.37077678  0.39624295  1
  O2-  O226  1  0.23444561  0.65953314  0.59305103  1
  O2-  O227  1  0.50499395  0.10493802  -0.13025246  1
  O2-  O228  1  0.52169353  -0.10535753  0.15947436  1
  O2-  O229  1  0.54661737  0.12802912  0.46840763  1
  O2-  O230  1  0.51201971  0.09311030  0.64079785  1
  O2-  O231  1  0.51885430  0.33804184  -0.11236251  1
  O2-  O232  1  0.50407772  0.40273640  0.12564934  1
  O2-  O233  1  0.51359970  0.37015529  0.56167636  1
  O2-  O234  1  0.44685046  0.38976658  0.74274360  1
  O2-  O235  1  0.76616550  -0.12322529  0.08905588  1
  O2-  O236  1  0.76902581  0.13706704  0.14699056  1
  O2-  O237  1  0.74203876  -0.12825733  0.40160447  1
  O2-  O238  1  0.64634923  0.01531325  0.76378542  1
  O2-  O239  1  0.80808316  0.47789376  0.16410639  1
  O2-  O240  1  0.75972969  0.31900008  0.26908825  1
  O2-  O241  1  0.73363352  0.65359442  0.38530543  1
  O2-  O242  1  0.65708484  0.48230637  0.70142266  1
