# generated using pymatgen
data_Gd19Ta56(WO20)8
_symmetry_space_group_name_H-M   'P 1'
_cell_length_a   15.48161679
_cell_length_b   15.50840115
_cell_length_c   15.38217280
_cell_angle_alpha   89.97449487
_cell_angle_beta   90.05814256
_cell_angle_gamma   89.99763362
_symmetry_Int_Tables_number   1
_chemical_formula_structural   Gd19Ta56(WO20)8
_chemical_formula_sum   'Gd19 Ta56 W8 O160'
_cell_volume   3693.18240757
_cell_formula_units_Z   1
loop_
 _symmetry_equiv_pos_site_id
 _symmetry_equiv_pos_as_xyz
  1  'x, y, z'
loop_
 _atom_type_symbol
 _atom_type_oxidation_number
  Gd3+  3.0
  Ta5+  5.0
  W6+  6.0
  O2-  -2.0
loop_
 _atom_site_type_symbol
 _atom_site_label
 _atom_site_symmetry_multiplicity
 _atom_site_fract_x
 _atom_site_fract_y
 _atom_site_fract_z
 _atom_site_occupancy
  Gd3+  Gd0  1  0.71478245  0.76109064  0.75588227  1
  Gd3+  Gd1  1  0.02792129  0.73991150  0.73491274  1
  Gd3+  Gd2  1  0.68694068  0.76831555  0.00267939  1
  Gd3+  Gd3  1  0.50464440  0.24492706  0.75124385  1
  Gd3+  Gd4  1  0.51757671  0.75289831  0.23256352  1
  Gd3+  Gd5  1  0.25823341  0.76094645  0.50341153  1
  Gd3+  Gd6  1  0.25294365  0.75044999  0.26681709  1
  Gd3+  Gd7  1  0.02314986  0.26109552  0.76617238  1
  Gd3+  Gd8  1  0.01624858  0.25413001  -0.01413155  1
  Gd3+  Gd9  1  0.26141091  0.25637701  0.47487276  1
  Gd3+  Gd10  1  0.47222038  0.74771654  0.76092592  1
  Gd3+  Gd11  1  0.24449607  0.24890277  -0.00015981  1
  Gd3+  Gd12  1  0.78977522  0.25514040  0.76212033  1
  Gd3+  Gd13  1  0.50591469  0.25645498  -0.01548854  1
  Gd3+  Gd14  1  0.50584365  0.24711100  0.50768527  1
  Gd3+  Gd15  1  0.74679793  0.25368486  -0.00830049  1
  Gd3+  Gd16  1  0.74661473  0.76706150  0.24229767  1
  Gd3+  Gd17  1  -0.00849196  0.25285105  0.50663519  1
  Gd3+  Gd18  1  0.21650389  0.24327689  0.22759739  1
  Ta5+  Ta19  1  0.17383122  0.61878303  0.62647072  1
  Ta5+  Ta20  1  0.11064807  0.87918947  0.37725835  1
  Ta5+  Ta21  1  0.87403782  0.63108845  0.37761365  1
  Ta5+  Ta22  1  0.16278561  0.40280633  0.86648225  1
  Ta5+  Ta23  1  0.36872819  0.63566707  0.12719953  1
  Ta5+  Ta24  1  0.12722900  0.87609530  0.61865182  1
  Ta5+  Ta25  1  0.90828116  0.91450557  0.13277645  1
  Ta5+  Ta26  1  0.85218223  0.11295246  0.60956806  1
  Ta5+  Ta27  1  0.63255108  0.10578444  0.86706345  1
  Ta5+  Ta28  1  0.58548301  0.91194814  0.87177189  1
  Ta5+  Ta29  1  0.14457049  0.10627890  0.87249944  1
  Ta5+  Ta30  1  0.32605411  0.85692997  0.87687689  1
  Ta5+  Ta31  1  0.13377727  0.86291448  0.11854254  1
  Ta5+  Ta32  1  0.85853795  0.63352844  0.62910393  1
  Ta5+  Ta33  1  0.62118443  0.88536123  0.38014995  1
  Ta5+  Ta34  1  0.62261887  0.63042378  0.38131551  1
  Ta5+  Ta35  1  0.36704557  0.12482790  0.33883030  1
  Ta5+  Ta36  1  0.86639936  0.37910245  0.36664850  1
  Ta5+  Ta37  1  0.36686007  0.37445793  0.62276985  1
  Ta5+  Ta38  1  0.87456779  0.64846855  0.11483703  1
  Ta5+  Ta39  1  0.87267918  0.87682861  0.38769917  1
  Ta5+  Ta40  1  0.59678061  0.62845112  0.62817407  1
  Ta5+  Ta41  1  0.85330270  0.11960715  0.13161320  1
  Ta5+  Ta42  1  0.60718592  0.56885593  0.13061083  1
  Ta5+  Ta43  1  0.39421023  0.09119938  0.88770311  1
  Ta5+  Ta44  1  0.90510026  0.41675981  0.12643010  1
  Ta5+  Ta45  1  0.16495380  0.63736966  0.87746273  1
  Ta5+  Ta46  1  0.34483524  0.62235945  0.63253960  1
  Ta5+  Ta47  1  0.63663149  0.13245138  0.37691486  1
  Ta5+  Ta48  1  0.58251871  0.91868445  0.12170214  1
  Ta5+  Ta49  1  0.09290149  0.08383186  0.12351964  1
  Ta5+  Ta50  1  0.89180783  0.11384585  0.87503424  1
  Ta5+  Ta51  1  0.37063983  0.40599585  0.86583540  1
  Ta5+  Ta52  1  0.62581489  0.38584738  0.86550468  1
  Ta5+  Ta53  1  0.87449654  0.12799896  0.36752089  1
  Ta5+  Ta54  1  0.61164848  0.12481560  0.12806656  1
  Ta5+  Ta55  1  0.64678468  0.11181468  0.61487510  1
  Ta5+  Ta56  1  0.10912435  0.40281733  0.11860189  1
  Ta5+  Ta57  1  0.56419455  0.87930320  0.62045559  1
  Ta5+  Ta58  1  0.37261767  0.89239264  0.11626998  1
  Ta5+  Ta59  1  0.38390594  0.88549725  0.37349578  1
  Ta5+  Ta60  1  0.37945466  0.38028150  0.35766853  1
  Ta5+  Ta61  1  0.15888581  0.85755464  0.86992321  1
  Ta5+  Ta62  1  0.88251156  0.86590760  0.88844365  1
  Ta5+  Ta63  1  0.45273935  0.05945811  0.12347587  1
  Ta5+  Ta64  1  0.39374116  0.87583893  0.62446152  1
  Ta5+  Ta65  1  0.14600935  0.11764593  0.63002155  1
  Ta5+  Ta66  1  0.38580738  0.61980230  0.38412029  1
  Ta5+  Ta67  1  0.12034968  0.12146601  0.37157400  1
  Ta5+  Ta68  1  0.39157934  0.39875845  0.12114603  1
  Ta5+  Ta69  1  0.35229621  0.10746057  0.64881277  1
  Ta5+  Ta70  1  0.13290100  0.39035179  0.36812628  1
  Ta5+  Ta71  1  0.84814466  0.38597102  0.60944474  1
  Ta5+  Ta72  1  0.11102528  0.62461907  0.38083790  1
  Ta5+  Ta73  1  0.33506839  0.63511937  0.88394814  1
  Ta5+  Ta74  1  0.61548133  0.37372384  0.13619173  1
  W6+  W75  1  0.88179979  0.87120630  0.64100001  1
  W6+  W76  1  0.89177998  0.64312846  0.88345114  1
  W6+  W77  1  0.64301213  0.38334388  0.61790195  1
  W6+  W78  1  0.12402442  0.37539847  0.62326374  1
  W6+  W79  1  0.60238439  0.63286134  0.88444402  1
  W6+  W80  1  0.89170772  0.39104256  0.87577670  1
  W6+  W81  1  0.62266799  0.38620250  0.38902134  1
  W6+  W82  1  0.14659454  0.62667948  0.12440415  1
  O2-  O83  1  0.15623158  -0.01426223  0.14373294  1
  O2-  O84  1  0.09112541  0.00178943  0.36540879  1
  O2-  O85  1  0.10460615  0.00649360  0.61337069  1
  O2-  O86  1  0.14921849  -0.01296897  0.87034344  1
  O2-  O87  1  0.17685801  0.50037278  0.11372489  1
  O2-  O88  1  0.08272600  0.50042173  0.37063867  1
  O2-  O89  1  0.15352370  0.50177320  0.63122727  1
  O2-  O90  1  0.12456232  0.51742929  0.87294910  1
  O2-  O91  1  0.32645214  0.00354704  0.13159876  1
  O2-  O92  1  0.39402664  0.00817167  0.37045716  1
  O2-  O93  1  0.39873283  0.00980192  0.60003833  1
  O2-  O94  1  0.35211020  -0.02228878  0.88036257  1
  O2-  O95  1  0.35023683  0.50914022  0.12096888  1
  O2-  O96  1  0.40817655  0.49830685  0.38259674  1
  O2-  O97  1  0.35932519  0.49141438  0.62406921  1
  O2-  O98  1  0.38752563  0.51940594  0.90764567  1
  O2-  O99  1  0.66185795  0.00964926  0.13193910  1
  O2-  O100  1  0.64746092  0.00317740  0.38429629  1
  O2-  O101  1  0.60629237  -0.00120139  0.62442582  1
  O2-  O102  1  0.67930056  -0.00964732  0.84607448  1
  O2-  O103  1  0.69064859  0.47794887  0.12476619  1
  O2-  O104  1  0.66086494  0.51777287  0.37820961  1
  O2-  O105  1  0.63398379  0.51616028  0.62686261  1
  O2-  O106  1  0.63385335  0.50106322  0.87738936  1
  O2-  O107  1  0.82025475  0.00534535  0.13400293  1
  O2-  O108  1  0.86493297  0.00120889  0.36221236  1
  O2-  O109  1  0.89993612  0.00834198  0.63634431  1
  O2-  O110  1  0.87474300  -0.00633203  0.88144549  1
  O2-  O111  1  0.85827267  0.52699711  0.10718351  1
  O2-  O112  1  0.87134576  0.50787476  0.36557171  1
  O2-  O113  1  0.86569464  0.50484892  0.62151763  1
  O2-  O114  1  0.88273290  0.51965414  0.88550475  1
  O2-  O115  1  0.12027105  0.26213638  0.10615718  1
  O2-  O116  1  0.14629991  0.25178904  0.36247802  1
  O2-  O117  1  0.08365038  0.23398077  0.62682897  1
  O2-  O118  1  0.12929643  0.23549617  0.89728725  1
  O2-  O119  1  0.19053423  0.75545886  0.13209522  1
  O2-  O120  1  0.15585641  0.75202084  0.38899629  1
  O2-  O121  1  0.13138350  0.74953405  0.60261707  1
  O2-  O122  1  0.09406340  0.74991479  0.86642024  1
  O2-  O123  1  0.29738740  0.31742225  0.13065476  1
  O2-  O124  1  0.32794982  0.25885401  0.32976299  1
  O2-  O125  1  0.40634859  0.22536916  0.62912872  1
  O2-  O126  1  0.42610164  0.21626616  0.87226594  1
  O2-  O127  1  0.39238446  0.76337168  0.15484231  1
  O2-  O128  1  0.35203417  0.75173245  0.38316015  1
  O2-  O129  1  0.37306659  0.74824474  0.61491652  1
  O2-  O130  1  0.39433307  0.74792312  0.88466868  1
  O2-  O131  1  0.58107631  0.25354066  0.12437238  1
  O2-  O132  1  0.59500828  0.24905770  0.38968240  1
  O2-  O133  1  0.61038969  0.23721214  0.61792851  1
  O2-  O134  1  0.60919273  0.23871893  0.86872026  1
  O2-  O135  1  0.59404823  0.79061418  0.11528115  1
  O2-  O136  1  0.65331800  0.75310859  0.36003662  1
  O2-  O137  1  0.61779365  0.76002905  0.64472907  1
  O2-  O138  1  0.60267867  0.78009825  0.87031474  1
  O2-  O139  1  0.74998226  0.18107192  0.13183587  1
  O2-  O140  1  0.91403426  0.25322368  0.37530507  1
  O2-  O141  1  0.87467432  0.24408898  0.60592161  1
  O2-  O142  1  0.90350826  0.25073244  0.88026480  1
  O2-  O143  1  0.78463704  0.73289441  0.10395935  1
  O2-  O144  1  0.82815926  0.75915105  0.36898141  1
  O2-  O145  1  0.81103272  0.74707965  0.64698496  1
  O2-  O146  1  0.79970433  0.77417985  0.88623488  1
  O2-  O147  1  0.14105097  0.11500973  0.01516871  1
  O2-  O148  1  0.10307695  0.13709581  0.23535631  1
  O2-  O149  1  0.10096194  0.13733645  0.49180781  1
  O2-  O150  1  0.10563187  0.13149879  0.75504784  1
  O2-  O151  1  0.14707608  0.64366458  -0.00289718  1
  O2-  O152  1  0.15542762  0.62941074  0.26536942  1
  O2-  O153  1  0.16165846  0.61645413  0.49116936  1
  O2-  O154  1  0.14189789  0.64564463  0.74564441  1
  O2-  O155  1  0.42256339  0.11720120  0.00970225  1
  O2-  O156  1  0.42082465  0.13087818  0.23005379  1
  O2-  O157  1  0.39423593  0.16685683  0.45173222  1
  O2-  O158  1  0.41115200  0.10287538  0.75711691  1
  O2-  O159  1  0.33477616  0.65440538  0.01443782  1
  O2-  O160  1  0.34201185  0.62605934  0.26109857  1
  O2-  O161  1  0.34082209  0.62202390  0.49689285  1
  O2-  O162  1  0.37016768  0.63299376  0.75810470  1
  O2-  O163  1  0.63036349  0.13451569  -0.00411946  1
  O2-  O164  1  0.60838297  0.12699480  0.26024001  1
  O2-  O165  1  0.58441574  0.11929132  0.49687680  1
  O2-  O166  1  0.59940240  0.12372686  0.74548159  1
  O2-  O167  1  0.63380183  0.62805405  0.02884224  1
  O2-  O168  1  0.64603307  0.63599728  0.23053368  1
  O2-  O169  1  0.60747970  0.64703697  0.49967374  1
  O2-  O170  1  0.56847574  0.63362459  0.75170606  1
  O2-  O171  1  0.88602088  0.14873420  0.01372887  1
  O2-  O172  1  0.90668405  0.13642452  0.24394779  1
  O2-  O173  1  0.91363778  0.12267618  0.48854199  1
  O2-  O174  1  0.90519520  0.14219535  0.75317114  1
  O2-  O175  1  0.93138884  0.67501192  0.01240113  1
  O2-  O176  1  0.86418451  0.65116526  0.24468107  1
  O2-  O177  1  0.85192215  0.63863991  0.49860776  1
  O2-  O178  1  0.91560880  0.63957217  0.73969267  1
  O2-  O179  1  0.16464276  0.37794690  -0.00551036  1
  O2-  O180  1  0.14684916  0.37051667  0.23949692  1
  O2-  O181  1  0.10401441  0.35695512  0.48507923  1
  O2-  O182  1  0.14084391  0.34831090  0.75538731  1
  O2-  O183  1  0.13013555  0.86742109  -0.00030733  1
  O2-  O184  1  0.15137375  0.86445254  0.26305131  1
  O2-  O185  1  0.16499448  0.88798152  0.48993254  1
  O2-  O186  1  0.14002580  0.86380424  0.73935188  1
  O2-  O187  1  0.39649761  0.36230861  0.00062221  1
  O2-  O188  1  0.42395587  0.38049352  0.24290436  1
  O2-  O189  1  0.38431639  0.34648660  0.49101945  1
  O2-  O190  1  0.39847161  0.36052262  0.74416680  1
  O2-  O191  1  0.32233019  0.85665027  0.01104852  1
  O2-  O192  1  0.33215024  0.87769409  0.26074162  1
  O2-  O193  1  0.34738028  0.88079139  0.49349518  1
  O2-  O194  1  0.36387199  0.86245563  0.74681287  1
  O2-  O195  1  0.63164573  0.35228801  -0.00165899  1
  O2-  O196  1  0.61679931  0.37610973  0.25452615  1
  O2-  O197  1  0.56606367  0.38235988  0.50958634  1
  O2-  O198  1  0.59674356  0.36520837  0.74418162  1
  O2-  O199  1  0.62678457  0.90338630  -0.00697233  1
  O2-  O200  1  0.64240009  0.87498195  0.24904208  1
  O2-  O201  1  0.60889413  0.86327085  0.49996390  1
  O2-  O202  1  0.55252798  0.88867278  0.75228827  1
  O2-  O203  1  0.84320616  0.35257295  0.03850270  1
  O2-  O204  1  0.87890669  0.36893973  0.23748348  1
  O2-  O205  1  0.91224974  0.37928707  0.48973802  1
  O2-  O206  1  0.90877961  0.35315605  0.73438905  1
  O2-  O207  1  0.88633842  0.87435933  0.02044817  1
  O2-  O208  1  0.85876697  0.86674896  0.23588289  1
  O2-  O209  1  0.85855619  0.87903604  0.50377011  1
  O2-  O210  1  0.92815915  0.84855384  0.77602478  1
  O2-  O211  1  -0.01797673  0.02903926  0.11429281  1
  O2-  O212  1  0.01553617  -0.14666462  0.14964268  1
  O2-  O213  1  -0.00826062  -0.14863637  0.37344665  1
  O2-  O214  1  0.01339707  0.11062508  0.90031372  1
  O2-  O215  1  0.00167573  0.38013471  0.05000527  1
  O2-  O216  1  0.01516247  0.46337856  0.17889419  1
  O2-  O217  1  -0.00751577  0.65761696  0.38310173  1
  O2-  O218  1  0.02755004  0.36741847  0.87696072  1
  O2-  O219  1  0.26894477  0.12973463  -0.10522117  1
  O2-  O220  1  0.24337089  0.10793528  0.33474693  1
  O2-  O221  1  0.25292593  0.14346925  0.56306564  1
  O2-  O222  1  0.24589866  0.07764636  0.70479046  1
  O2-  O223  1  0.27749288  0.32422485  -0.11384708  1
  O2-  O224  1  0.25306012  0.40340813  0.38438201  1
  O2-  O225  1  0.25503566  0.32878790  0.60489248  1
  O2-  O226  1  0.26684859  0.45948328  0.81239151  1
  O2-  O227  1  0.47218215  -0.05849034  0.04841608  1
  O2-  O228  1  0.48437034  -0.05673164  0.20207417  1
  O2-  O229  1  0.50014566  -0.15139715  0.35683928  1
  O2-  O230  1  0.52353823  0.03569652  0.88356224  1
  O2-  O231  1  0.52231407  0.45670516  0.10971350  1
  O2-  O232  1  0.49316801  0.62409446  0.15154813  1
  O2-  O233  1  0.50443421  0.65027391  0.34409605  1
  O2-  O234  1  0.49959960  0.37486346  0.87836996  1
  O2-  O235  1  0.76253342  0.14789141  -0.12260939  1
  O2-  O236  1  0.75724434  0.15510133  0.36815966  1
  O2-  O237  1  0.75035043  0.09211370  0.53768022  1
  O2-  O238  1  0.75230746  0.13370146  0.68793361  1
  O2-  O239  1  0.75157342  0.35016058  -0.12714367  1
  O2-  O240  1  0.75408954  0.35642146  0.36576074  1
  O2-  O241  1  0.74952879  0.37923229  0.53464263  1
  O2-  O242  1  0.75365345  0.37623620  0.69342817  1
