# generated using pymatgen
data_Gd19Ta56(WO20)8
_symmetry_space_group_name_H-M   'P 1'
_cell_length_a   15.53067236
_cell_length_b   15.46681602
_cell_length_c   15.25934565
_cell_angle_alpha   89.75987727
_cell_angle_beta   89.97099771
_cell_angle_gamma   89.94990108
_symmetry_Int_Tables_number   1
_chemical_formula_structural   Gd19Ta56(WO20)8
_chemical_formula_sum   'Gd19 Ta56 W8 O160'
_cell_volume   3665.41415797
_cell_formula_units_Z   1
loop_
 _symmetry_equiv_pos_site_id
 _symmetry_equiv_pos_as_xyz
  1  'x, y, z'
loop_
 _atom_type_symbol
 _atom_type_oxidation_number
  Gd3+  3.0
  Ta5+  5.0
  W6+  6.0
  O2-  -2.0
loop_
 _atom_site_type_symbol
 _atom_site_label
 _atom_site_symmetry_multiplicity
 _atom_site_fract_x
 _atom_site_fract_y
 _atom_site_fract_z
 _atom_site_occupancy
  Gd3+  Gd0  1  0.49567963  0.25182444  -0.00950087  1
  Gd3+  Gd1  1  0.51091279  0.76226769  0.25138753  1
  Gd3+  Gd2  1  0.01018278  0.26303424  -0.00835780  1
  Gd3+  Gd3  1  0.00418178  0.73806751  0.25372342  1
  Gd3+  Gd4  1  0.00169550  0.24166846  0.52386818  1
  Gd3+  Gd5  1  0.51588187  0.76244375  -0.01424360  1
  Gd3+  Gd6  1  0.77704910  0.75645787  -0.02219731  1
  Gd3+  Gd7  1  0.22550762  0.28100181  0.75020926  1
  Gd3+  Gd8  1  0.01262505  0.24828428  0.25013403  1
  Gd3+  Gd9  1  0.46159876  0.23118071  0.75939731  1
  Gd3+  Gd10  1  0.24760001  0.24097115  -0.03467257  1
  Gd3+  Gd11  1  0.27510830  0.75069405  0.21459629  1
  Gd3+  Gd12  1  0.50907102  0.24434588  0.25538410  1
  Gd3+  Gd13  1  0.02296359  0.74845885  0.73802567  1
  Gd3+  Gd14  1  0.47903083  0.75429907  0.73264798  1
  Gd3+  Gd15  1  0.74832944  0.75089447  0.24704435  1
  Gd3+  Gd16  1  0.76562343  0.24671436  0.25483035  1
  Gd3+  Gd17  1  0.47140060  0.23377515  0.52261300  1
  Gd3+  Gd18  1  0.24429886  0.23452263  0.51399104  1
  Ta5+  Ta19  1  0.64305308  0.87022228  0.64213627  1
  Ta5+  Ta20  1  0.38148037  0.88736638  0.37631864  1
  Ta5+  Ta21  1  0.32942262  0.87473624  0.62305047  1
  Ta5+  Ta22  1  0.87244521  0.87685355  0.83042569  1
  Ta5+  Ta23  1  0.15751236  0.88575503  0.35403512  1
  Ta5+  Ta24  1  0.10796540  0.62612428  0.09939930  1
  Ta5+  Ta25  1  0.37003823  0.62528229  0.37138983  1
  Ta5+  Ta26  1  0.39471887  0.88558284  0.10944764  1
  Ta5+  Ta27  1  0.62576256  0.87375961  0.38943081  1
  Ta5+  Ta28  1  0.63434219  0.87512044  0.83930511  1
  Ta5+  Ta29  1  0.64148342  0.12145616  0.11030952  1
  Ta5+  Ta30  1  0.63489041  0.37556358  0.11531977  1
  Ta5+  Ta31  1  0.16387022  0.05600115  0.86765290  1
  Ta5+  Ta32  1  0.84482165  0.38903296  0.38787972  1
  Ta5+  Ta33  1  0.90130776  0.40537980  0.62653220  1
  Ta5+  Ta34  1  0.88924100  0.12449466  0.12883963  1
  Ta5+  Ta35  1  0.12836055  0.41782378  0.89046010  1
  Ta5+  Ta36  1  0.85742863  0.11986730  0.39211109  1
  Ta5+  Ta37  1  0.60866345  0.11731392  0.63738307  1
  Ta5+  Ta38  1  0.17409707  0.64735229  0.61869946  1
  Ta5+  Ta39  1  0.36485037  0.12494979  0.12869738  1
  Ta5+  Ta40  1  0.32365100  0.85095575  0.87353353  1
  Ta5+  Ta41  1  0.86276786  0.37155289  0.86446807  1
  Ta5+  Ta42  1  0.62096095  0.38189487  0.85970893  1
  Ta5+  Ta43  1  0.61771786  0.61365181  0.36793294  1
  Ta5+  Ta44  1  0.88128927  0.12268468  0.64588437  1
  Ta5+  Ta45  1  0.10492155  0.41911265  0.63190516  1
  Ta5+  Ta46  1  0.10278864  0.88125700  0.10763236  1
  Ta5+  Ta47  1  0.62305178  0.61716966  0.11685447  1
  Ta5+  Ta48  1  0.34395763  0.64815309  0.87777072  1
  Ta5+  Ta49  1  0.64603726  0.88216472  0.11414570  1
  Ta5+  Ta50  1  0.64302829  0.37439959  0.39864463  1
  Ta5+  Ta51  1  0.65722497  0.11440211  0.40272787  1
  Ta5+  Ta52  1  0.64637726  0.62362801  0.86248024  1
  Ta5+  Ta53  1  0.89905438  0.90599770  0.09384013  1
  Ta5+  Ta54  1  0.56123049  0.39939500  0.62878661  1
  Ta5+  Ta55  1  0.14877228  0.63882905  0.36583530  1
  Ta5+  Ta56  1  0.37349371  0.05158569  0.89229585  1
  Ta5+  Ta57  1  0.15571590  0.86159812  0.86754875  1
  Ta5+  Ta58  1  0.81012161  0.88224974  0.65818944  1
  Ta5+  Ta59  1  0.82978238  0.63342526  0.62954128  1
  Ta5+  Ta60  1  0.34214456  0.63744428  0.62258844  1
  Ta5+  Ta61  1  0.12134055  0.39748897  0.37943411  1
  Ta5+  Ta62  1  0.15217741  0.39057631  0.13406979  1
  Ta5+  Ta63  1  0.37409956  0.40177584  0.87889488  1
  Ta5+  Ta64  1  0.17779356  0.66230500  0.87675907  1
  Ta5+  Ta65  1  0.87338198  0.38362471  0.12887723  1
  Ta5+  Ta66  1  0.65751586  0.62766291  0.61762162  1
  Ta5+  Ta67  1  0.12642690  0.11511424  0.10497306  1
  Ta5+  Ta68  1  0.41299400  0.61279818  0.11626548  1
  Ta5+  Ta69  1  0.35597351  0.37572036  0.13625559  1
  Ta5+  Ta70  1  0.86488177  0.88261751  0.41044457  1
  Ta5+  Ta71  1  0.36238109  0.37413356  0.37439548  1
  Ta5+  Ta72  1  0.63249947  0.12140602  0.86147580  1
  Ta5+  Ta73  1  0.39181108  0.39567763  0.63124457  1
  Ta5+  Ta74  1  0.32466714  0.08078280  0.37292144  1
  W6+  W75  1  0.90217086  0.61835839  0.86270378  1
  W6+  W76  1  0.16087827  0.87048837  0.61047349  1
  W6+  W77  1  0.12461040  0.06276992  0.66274518  1
  W6+  W78  1  0.12231000  0.04386873  0.45936646  1
  W6+  W79  1  0.88144493  0.64057888  0.37983695  1
  W6+  W80  1  0.91062616  0.62280299  0.10632378  1
  W6+  W81  1  0.87617458  0.12224163  0.87609429  1
  W6+  W82  1  0.35864159  0.08159901  0.63807614  1
  O2-  O83  1  0.15501061  0.00227131  0.13307420  1
  O2-  O84  1  0.07612383  -0.02854343  0.34737052  1
  O2-  O85  1  0.24461055  -0.00778566  0.64181024  1
  O2-  O86  1  0.07752082  -0.02478326  0.87271356  1
  O2-  O87  1  0.15697883  0.51028061  0.11641745  1
  O2-  O88  1  0.11885793  0.51638597  0.34955522  1
  O2-  O89  1  0.17180792  0.52257584  0.63067164  1
  O2-  O90  1  0.14764493  0.53571709  0.88669670  1
  O2-  O91  1  0.35731384  0.00365279  0.12760310  1
  O2-  O92  1  0.27027030  -0.03535750  0.34057394  1
  O2-  O93  1  0.41292692  -0.03705789  0.62012420  1
  O2-  O94  1  0.42921827  -0.05287107  0.89126505  1
  O2-  O95  1  0.40281891  0.48829505  0.12055573  1
  O2-  O96  1  0.37581810  0.49399544  0.37046827  1
  O2-  O97  1  0.37318914  0.51387998  0.62545894  1
  O2-  O98  1  0.36615227  0.52151609  0.87813179  1
  O2-  O99  1  0.67083494  0.00029125  0.10179112  1
  O2-  O100  1  0.61654813  0.00063480  0.38762023  1
  O2-  O101  1  0.63124188  0.00190282  0.62998327  1
  O2-  O102  1  0.63487053  0.00021049  0.85655399  1
  O2-  O103  1  0.65397257  0.49800363  0.11218865  1
  O2-  O104  1  0.60463631  0.48899480  0.37194815  1
  O2-  O105  1  0.60204588  0.51753056  0.61239195  1
  O2-  O106  1  0.62621176  0.50383481  0.88351910  1
  O2-  O107  1  0.85228313  0.00753956  0.14628518  1
  O2-  O108  1  0.88141007  -0.00359872  0.36571140  1
  O2-  O109  1  0.83187916  0.01031264  0.63201648  1
  O2-  O110  1  0.87017567  -0.00480595  0.85270150  1
  O2-  O111  1  0.86147118  0.49892087  0.14503596  1
  O2-  O112  1  0.86323882  0.50410629  0.37248128  1
  O2-  O113  1  0.82365684  0.50011983  0.62550326  1
  O2-  O114  1  0.90655066  0.48304159  0.86667963  1
  O2-  O115  1  0.10463779  0.25116930  0.12439019  1
  O2-  O116  1  0.05080414  0.29262084  0.38770602  1
  O2-  O117  1  0.19049629  0.32355943  0.61731251  1
  O2-  O118  1  0.12647718  0.27866814  0.89230199  1
  O2-  O119  1  0.07733312  0.75678818  0.11626599  1
  O2-  O120  1  0.11037416  0.76458368  0.35778515  1
  O2-  O121  1  0.09733816  0.75159578  0.60588866  1
  O2-  O122  1  0.08794919  0.75735718  0.88067738  1
  O2-  O123  1  0.41302265  0.24893159  0.13016270  1
  O2-  O124  1  0.43451586  0.26776247  0.38234263  1
  O2-  O125  1  0.35560784  0.24394661  0.64162308  1
  O2-  O126  1  0.36206309  0.25886609  0.87309546  1
  O2-  O127  1  0.42250227  0.74959631  0.12564960  1
  O2-  O128  1  0.35219146  0.75335717  0.34750605  1
  O2-  O129  1  0.38630317  0.75956452  0.61058526  1
  O2-  O130  1  0.42217331  0.75658472  0.87661935  1
  O2-  O131  1  0.59993148  0.24700599  0.11142718  1
  O2-  O132  1  0.63164929  0.24455616  0.35758671  1
  O2-  O133  1  0.55647696  0.26587990  0.64649101  1
  O2-  O134  1  0.58264392  0.24641920  0.86242176  1
  O2-  O135  1  0.62524465  0.74583961  0.13993761  1
  O2-  O136  1  0.63379756  0.74654065  0.34707944  1
  O2-  O137  1  0.61061681  0.73989395  0.64047937  1
  O2-  O138  1  0.59343081  0.74155678  0.85159610  1
  O2-  O139  1  0.92046075  0.25477339  0.12767721  1
  O2-  O140  1  0.83622517  0.24756498  0.38997002  1
  O2-  O141  1  0.86805347  0.23272037  0.59245305  1
  O2-  O142  1  0.91867876  0.26063856  0.87820986  1
  O2-  O143  1  0.77088789  0.84406582  0.12621059  1
  O2-  O144  1  0.92083249  0.78180010  0.37430796  1
  O2-  O145  1  0.80319917  0.75372527  0.65471954  1
  O2-  O146  1  0.90249858  0.75203892  0.85505969  1
  O2-  O147  1  0.10717243  0.12256607  -0.01676921  1
  O2-  O148  1  0.01490080  0.10991644  0.16103658  1
  O2-  O149  1  0.13128850  0.15427828  0.55093171  1
  O2-  O150  1  0.17821311  0.13881096  0.77221302  1
  O2-  O151  1  0.18240491  0.66445192  0.00905872  1
  O2-  O152  1  0.17165147  0.65510716  0.23183590  1
  O2-  O153  1  0.16979503  0.63999163  0.48430897  1
  O2-  O154  1  0.14932417  0.65764853  0.74728967  1
  O2-  O155  1  0.41325340  0.12101010  0.00794752  1
  O2-  O156  1  0.36123334  0.13104632  0.26261995  1
  O2-  O157  1  0.35448256  0.12773691  0.49101136  1
  O2-  O158  1  0.37455529  0.09676453  0.77749056  1
  O2-  O159  1  0.35595408  0.63947462  0.01155999  1
  O2-  O160  1  0.35261669  0.62411038  0.23102594  1
  O2-  O161  1  0.35339327  0.63289925  0.48976691  1
  O2-  O162  1  0.36725838  0.65007910  0.74899595  1
  O2-  O163  1  0.60346799  0.12616668  -0.00823917  1
  O2-  O164  1  0.56249739  0.11004207  0.20302025  1
  O2-  O165  1  0.59274375  0.15101491  0.50849377  1
  O2-  O166  1  0.66604212  0.14910087  0.74076615  1
  O2-  O167  1  0.66948259  0.65028891  -0.00495620  1
  O2-  O168  1  0.67991222  0.61556025  0.25313080  1
  O2-  O169  1  0.65787485  0.63006243  0.48140408  1
  O2-  O170  1  0.68643438  0.61776699  0.74643644  1
  O2-  O171  1  0.91575010  0.12747825  0.00884581  1
  O2-  O172  1  0.89371799  0.15324997  0.26586583  1
  O2-  O173  1  0.93683242  0.11600530  0.48399204  1
  O2-  O174  1  0.83943542  0.15039517  0.75470108  1
  O2-  O175  1  0.85191279  0.63259491  -0.01307755  1
  O2-  O176  1  0.86624153  0.67469904  0.23400196  1
  O2-  O177  1  0.86038986  0.64489241  0.51496534  1
  O2-  O178  1  0.91372229  0.63299518  0.72966984  1
  O2-  O179  1  0.08868969  0.39266104  0.01522227  1
  O2-  O180  1  0.08984876  0.37828613  0.24388919  1
  O2-  O181  1  0.10380591  0.41465842  0.49964091  1
  O2-  O182  1  0.12782573  0.39890763  0.76280390  1
  O2-  O183  1  0.16101255  0.87211370  0.00448331  1
  O2-  O184  1  0.17172684  0.85882798  0.22149614  1
  O2-  O185  1  0.17517850  0.87929529  0.47435673  1
  O2-  O186  1  0.13166225  0.85810276  0.74208781  1
  O2-  O187  1  0.39941648  0.36668859  0.00421870  1
  O2-  O188  1  0.40816401  0.35953058  0.25257868  1
  O2-  O189  1  0.36408858  0.35954971  0.50416410  1
  O2-  O190  1  0.33899778  0.38130916  0.75276801  1
  O2-  O191  1  0.34133023  0.85262513  0.00543361  1
  O2-  O192  1  0.39345309  0.86968165  0.23964955  1
  O2-  O193  1  0.34646227  0.87308072  0.48997916  1
  O2-  O194  1  0.35033896  0.85011058  0.74665300  1
  O2-  O195  1  0.58888926  0.37027173  -0.00091834  1
  O2-  O196  1  0.58168127  0.36935121  0.22610387  1
  O2-  O197  1  0.56531257  0.35558775  0.49616920  1
  O2-  O198  1  0.63199739  0.39059734  0.73908172  1
  O2-  O199  1  0.64461795  0.84489654  -0.01397038  1
  O2-  O200  1  0.61949489  0.87978182  0.23931891  1
  O2-  O201  1  0.64222284  0.86137458  0.50756963  1
  O2-  O202  1  0.55208405  0.88184762  0.74449802  1
  O2-  O203  1  0.89868266  0.37374492  0.00702104  1
  O2-  O204  1  0.89743985  0.35322953  0.26072947  1
  O2-  O205  1  0.91048144  0.37656535  0.49835637  1
  O2-  O206  1  0.86159846  0.36381352  0.73951062  1
  O2-  O207  1  0.86747333  0.87136043  -0.02123251  1
  O2-  O208  1  0.75433341  0.86599559  0.35598396  1
  O2-  O209  1  0.85218435  0.87574775  0.52710840  1
  O2-  O210  1  0.93423921  0.87021993  0.71879850  1
  O2-  O211  1  0.00766648  -0.05185447  0.05489195  1
  O2-  O212  1  -0.03483642  -0.13692552  0.19082916  1
  O2-  O213  1  0.07895068  -0.02338966  0.57184788  1
  O2-  O214  1  -0.00028948  0.11778948  0.66400760  1
  O2-  O215  1  0.01728832  0.59896837  0.02297704  1
  O2-  O216  1  0.01307397  0.60629722  0.19103157  1
  O2-  O217  1  -0.00540162  0.48360388  0.64019231  1
  O2-  O218  1  0.01259684  0.32603655  0.63995741  1
  O2-  O219  1  0.26358701  0.09672456  -0.05658342  1
  O2-  O220  1  0.24950390  0.15776923  0.11075350  1
  O2-  O221  1  0.21482521  0.13612048  0.38947669  1
  O2-  O222  1  0.25909103  -0.02840722  0.84768613  1
  O2-  O223  1  0.25086994  0.33486019  0.07333946  1
  O2-  O224  1  0.25844913  0.40657446  0.21047640  1
  O2-  O225  1  0.23800831  0.34893100  0.38461856  1
  O2-  O226  1  0.24762078  0.38911849  0.90367457  1
  O2-  O227  1  0.51758731  -0.11100785  0.08949420  1
  O2-  O228  1  0.50368575  -0.15280602  0.38041544  1
  O2-  O229  1  0.42539859  0.00412701  0.38029132  1
  O2-  O230  1  0.48694440  0.12091741  0.65249626  1
  O2-  O231  1  0.52042834  0.62217635  0.03856147  1
  O2-  O232  1  0.52267497  0.61643581  0.19856557  1
  O2-  O233  1  0.49784713  0.64299236  0.36818681  1
  O2-  O234  1  0.49195736  0.38050535  0.84780999  1
  O2-  O235  1  0.76183036  0.15843820  0.12709725  1
  O2-  O236  1  0.73643262  0.11171790  0.30578743  1
  O2-  O237  1  0.75713167  0.09934461  0.47126044  1
  O2-  O238  1  0.75215041  -0.16143569  0.85405823  1
  O2-  O239  1  0.75474037  0.34391179  0.12655768  1
  O2-  O240  1  0.73867734  0.38056970  0.30795304  1
  O2-  O241  1  0.73986223  0.38749660  0.46991011  1
  O2-  O242  1  0.74386268  0.36030861  0.88976801  1
