# generated using pymatgen
data_Gd19Ta56(WO20)8
_symmetry_space_group_name_H-M   'P 1'
_cell_length_a   15.55264361
_cell_length_b   15.53407868
_cell_length_c   15.38632123
_cell_angle_alpha   89.97672185
_cell_angle_beta   90.13157472
_cell_angle_gamma   90.01289249
_symmetry_Int_Tables_number   1
_chemical_formula_structural   Gd19Ta56(WO20)8
_chemical_formula_sum   'Gd19 Ta56 W8 O160'
_cell_volume   3717.26329984
_cell_formula_units_Z   1
loop_
 _symmetry_equiv_pos_site_id
 _symmetry_equiv_pos_as_xyz
  1  'x, y, z'
loop_
 _atom_type_symbol
 _atom_type_oxidation_number
  Gd3+  3.0
  Ta5+  5.0
  W6+  6.0
  O2-  -2.0
loop_
 _atom_site_type_symbol
 _atom_site_label
 _atom_site_symmetry_multiplicity
 _atom_site_fract_x
 _atom_site_fract_y
 _atom_site_fract_z
 _atom_site_occupancy
  Gd3+  Gd0  1  0.25293661  0.73663217  0.73981782  1
  Gd3+  Gd1  1  -0.00605182  0.25256938  0.76640374  1
  Gd3+  Gd2  1  0.23681447  0.23723644  0.23307756  1
  Gd3+  Gd3  1  -0.00634967  0.27357076  0.23392818  1
  Gd3+  Gd4  1  -0.00688132  0.72450946  0.01746406  1
  Gd3+  Gd5  1  0.50555567  0.24426927  0.46611466  1
  Gd3+  Gd6  1  0.27316286  0.76143545  0.23563984  1
  Gd3+  Gd7  1  0.75967026  0.24730606  0.01902988  1
  Gd3+  Gd8  1  0.50108162  0.24316434  0.00514540  1
  Gd3+  Gd9  1  0.49829151  0.77103635  0.75514971  1
  Gd3+  Gd10  1  0.25253100  0.75302649  0.49345941  1
  Gd3+  Gd11  1  0.75129302  0.74874640  0.48572289  1
  Gd3+  Gd12  1  0.03211682  0.72966954  0.25441346  1
  Gd3+  Gd13  1  0.50642344  0.24367682  0.74866488  1
  Gd3+  Gd14  1  -0.03941338  0.75176630  0.77294026  1
  Gd3+  Gd15  1  0.73570884  0.75893568  0.76530417  1
  Gd3+  Gd16  1  0.73574741  0.74639379  0.00253670  1
  Gd3+  Gd17  1  0.22024744  0.23480443  0.49267735  1
  Gd3+  Gd18  1  0.25685083  0.23529716  0.74591092  1
  Ta5+  Ta19  1  0.12934296  0.87595757  0.10750996  1
  Ta5+  Ta20  1  0.93623401  0.12793563  0.38032137  1
  Ta5+  Ta21  1  0.85374443  0.87369526  0.15909843  1
  Ta5+  Ta22  1  0.35738475  0.87098483  0.87808017  1
  Ta5+  Ta23  1  0.61708552  0.87603025  0.37007321  1
  Ta5+  Ta24  1  0.35031759  0.61017989  0.36339918  1
  Ta5+  Ta25  1  0.60989582  0.11405027  0.13425757  1
  Ta5+  Ta26  1  0.13337263  0.11503287  0.86600178  1
  Ta5+  Ta27  1  0.63800041  0.38201686  0.36413628  1
  Ta5+  Ta28  1  0.60215663  0.62757439  0.37196517  1
  Ta5+  Ta29  1  0.61005302  0.61307662  0.88317402  1
  Ta5+  Ta30  1  0.12088150  0.12207509  0.10784244  1
  Ta5+  Ta31  1  0.11669530  0.37944373  0.10253714  1
  Ta5+  Ta32  1  0.86220243  0.37574394  0.63585325  1
  Ta5+  Ta33  1  0.33605074  0.62033333  0.10646145  1
  Ta5+  Ta34  1  0.12404260  0.37516891  0.61813455  1
  Ta5+  Ta35  1  0.88250634  0.38095246  0.38977154  1
  Ta5+  Ta36  1  0.63646809  0.12369642  0.61265272  1
  Ta5+  Ta37  1  0.40247712  0.61485094  0.87957175  1
  Ta5+  Ta38  1  0.41641570  0.86322811  0.11700326  1
  Ta5+  Ta39  1  0.36586670  0.37045094  0.60815925  1
  Ta5+  Ta40  1  0.16638792  0.62195820  0.10706513  1
  Ta5+  Ta41  1  0.60769547  0.88804594  0.89055654  1
  Ta5+  Ta42  1  0.61616181  0.61936734  0.12776055  1
  Ta5+  Ta43  1  0.35707632  0.37001013  0.11653329  1
  Ta5+  Ta44  1  0.09851838  0.61686091  0.60815009  1
  Ta5+  Ta45  1  0.10207065  0.12179572  0.36901769  1
  Ta5+  Ta46  1  0.86831404  0.39905265  0.13301911  1
  Ta5+  Ta47  1  0.13072112  0.87416333  0.91468094  1
  Ta5+  Ta48  1  0.38257421  0.11069813  0.86843466  1
  Ta5+  Ta49  1  0.58483346  0.86842036  0.12227525  1
  Ta5+  Ta50  1  0.15310586  0.38338761  0.86810488  1
  Ta5+  Ta51  1  0.80405059  0.55143975  0.79876175  1
  Ta5+  Ta52  1  0.35902189  0.37697001  0.88070253  1
  Ta5+  Ta53  1  0.17218959  0.61410068  0.36435183  1
  Ta5+  Ta54  1  0.36594604  0.12042536  0.37195143  1
  Ta5+  Ta55  1  0.87441996  0.88766466  0.60330149  1
  Ta5+  Ta56  1  0.63239878  0.12103672  0.35946020  1
  Ta5+  Ta57  1  0.14669347  0.88904457  0.35586971  1
  Ta5+  Ta58  1  0.88604826  0.62448175  0.60954590  1
  Ta5+  Ta59  1  0.37909675  0.87877602  0.36854145  1
  Ta5+  Ta60  1  0.38574046  0.61298275  0.61786749  1
  Ta5+  Ta61  1  0.85469795  0.64380246  0.15511833  1
  Ta5+  Ta62  1  0.92009632  0.62291595  0.40170700  1
  Ta5+  Ta63  1  0.32944198  0.37397833  0.36924593  1
  Ta5+  Ta64  1  0.39214675  0.87530899  0.61253341  1
  Ta5+  Ta65  1  0.13544675  0.10444218  0.62169610  1
  Ta5+  Ta66  1  0.90848089  0.87973112  0.38914481  1
  Ta5+  Ta67  1  0.36893171  0.10925932  0.12086855  1
  Ta5+  Ta68  1  0.62486667  0.61808935  0.62232705  1
  Ta5+  Ta69  1  0.87495322  0.92638147  0.91856906  1
  Ta5+  Ta70  1  0.63545753  0.12931115  0.87101420  1
  Ta5+  Ta71  1  0.15917680  0.37992402  0.36461715  1
  Ta5+  Ta72  1  0.07795629  0.86942696  0.58681801  1
  Ta5+  Ta73  1  0.34930782  0.10944029  0.61137177  1
  Ta5+  Ta74  1  0.85539489  0.12242637  0.14865848  1
  W6+  W75  1  0.11903260  0.63165445  0.85913372  1
  W6+  W76  1  0.64122704  0.87836309  0.62474287  1
  W6+  W77  1  0.87292266  0.11908103  0.88649056  1
  W6+  W78  1  0.61345838  0.36856774  0.61295236  1
  W6+  W79  1  0.64426634  0.36932081  0.86831718  1
  W6+  W80  1  0.87963315  0.38344651  0.88396870  1
  W6+  W81  1  0.88705945  0.13471384  0.62338295  1
  W6+  W82  1  0.60890549  0.36999739  0.13294582  1
  O2-  O83  1  0.11901028  -0.00128880  0.10313904  1
  O2-  O84  1  0.15033228  0.00693631  0.37458405  1
  O2-  O85  1  0.11335872  -0.02092181  0.62359900  1
  O2-  O86  1  0.14299166  -0.00943009  0.87510940  1
  O2-  O87  1  0.14789300  0.49645495  0.10399349  1
  O2-  O88  1  0.13655904  0.49929458  0.37573692  1
  O2-  O89  1  0.09292334  0.49594707  0.60511472  1
  O2-  O90  1  0.13689378  0.49841436  0.86212823  1
  O2-  O91  1  0.40318462  -0.00417204  0.12822641  1
  O2-  O92  1  0.35710642  -0.00172926  0.37172998  1
  O2-  O93  1  0.39911716  -0.00302705  0.62215426  1
  O2-  O94  1  0.35576255  -0.00704995  0.85223145  1
  O2-  O95  1  0.35022147  0.49013715  0.11183144  1
  O2-  O96  1  0.36875747  0.49111092  0.36800121  1
  O2-  O97  1  0.39931039  0.49380866  0.61389627  1
  O2-  O98  1  0.39631834  0.49135434  0.85570603  1
  O2-  O99  1  0.59115185  -0.00264361  0.11323469  1
  O2-  O100  1  0.65490239  -0.00682691  0.36474372  1
  O2-  O101  1  0.60598121  0.01022627  0.62390286  1
  O2-  O102  1  0.62798678  0.00595026  0.87165760  1
  O2-  O103  1  0.61231878  0.50061409  0.12783981  1
  O2-  O104  1  0.63678971  0.51001561  0.37758562  1
  O2-  O105  1  0.63784779  0.50235336  0.60810973  1
  O2-  O106  1  0.60633562  0.49566495  0.88078180  1
  O2-  O107  1  0.85422412  -0.00558292  0.15527669  1
  O2-  O108  1  0.92023032  -0.00123304  0.37352983  1
  O2-  O109  1  0.89099319  0.00304612  0.61512308  1
  O2-  O110  1  0.96325111  0.00267407  0.89130791  1
  O2-  O111  1  0.84819070  0.51877184  0.13871746  1
  O2-  O112  1  0.91598685  0.49959740  0.38571271  1
  O2-  O113  1  0.84393374  0.51497376  0.66629537  1
  O2-  O114  1  0.90007506  0.52724032  0.86079105  1
  O2-  O115  1  0.08942428  0.24614965  0.11982604  1
  O2-  O116  1  0.14534260  0.24433518  0.35722910  1
  O2-  O117  1  0.15075582  0.24094324  0.63526473  1
  O2-  O118  1  0.13329505  0.24816903  0.84239412  1
  O2-  O119  1  0.10362042  0.74612604  0.12381774  1
  O2-  O120  1  0.16944451  0.75332845  0.34998410  1
  O2-  O121  1  0.13374240  0.76376675  0.62376699  1
  O2-  O122  1  0.07257349  0.77398524  0.86154317  1
  O2-  O123  1  0.39294319  0.24113591  0.11229274  1
  O2-  O124  1  0.32512222  0.23951022  0.38139617  1
  O2-  O125  1  0.32833127  0.24157951  0.60534837  1
  O2-  O126  1  0.38730606  0.25238242  0.86893012  1
  O2-  O127  1  0.37743304  0.73995657  0.11102529  1
  O2-  O128  1  0.34934794  0.75160145  0.37197830  1
  O2-  O129  1  0.33843646  0.74602932  0.61791903  1
  O2-  O130  1  0.37763028  0.74079405  0.85194640  1
  O2-  O131  1  0.57791887  0.23802833  0.13209065  1
  O2-  O132  1  0.63480383  0.24652277  0.36070665  1
  O2-  O133  1  0.55947479  0.23329604  0.60616072  1
  O2-  O134  1  0.57869179  0.25286957  0.87696430  1
  O2-  O135  1  0.63039497  0.74956320  0.11194924  1
  O2-  O136  1  0.65623569  0.74999989  0.36843437  1
  O2-  O137  1  0.67791208  0.73912183  0.62776323  1
  O2-  O138  1  0.63054857  0.75189303  0.88260705  1
  O2-  O139  1  0.86180536  0.25996453  0.14286152  1
  O2-  O140  1  0.93415421  0.26726510  0.37522655  1
  O2-  O141  1  0.92041038  0.26529428  0.63056927  1
  O2-  O142  1  0.92064816  0.25485863  0.89113726  1
  O2-  O143  1  0.92429102  0.76333800  0.15605084  1
  O2-  O144  1  0.88761910  0.74628333  0.41080167  1
  O2-  O145  1  0.86765951  0.74798482  0.59804607  1
  O2-  O146  1  0.85325155  0.82531261  0.84503944  1
  O2-  O147  1  0.09260628  0.13153673  -0.02086036  1
  O2-  O148  1  0.12261869  0.12518735  0.23641068  1
  O2-  O149  1  0.09606700  0.13860874  0.50530040  1
  O2-  O150  1  0.08212280  0.11677582  0.74745437  1
  O2-  O151  1  0.10796644  0.64011797  -0.00484828  1
  O2-  O152  1  0.15448496  0.62819522  0.23527882  1
  O2-  O153  1  0.16095695  0.63540115  0.50198891  1
  O2-  O154  1  0.16282462  0.62400475  0.71498690  1
  O2-  O155  1  0.39463584  0.11817738  -0.00860469  1
  O2-  O156  1  0.34478794  0.13012211  0.24548096  1
  O2-  O157  1  0.41126446  0.12958419  0.49917317  1
  O2-  O158  1  0.38848435  0.14552123  0.73315995  1
  O2-  O159  1  0.32436953  0.61730098  -0.02737582  1
  O2-  O160  1  0.34730130  0.62496131  0.23839201  1
  O2-  O161  1  0.34752208  0.62566281  0.50095236  1
  O2-  O162  1  0.34713554  0.62115981  0.73812035  1
  O2-  O163  1  0.62358105  0.13659369  0.00075439  1
  O2-  O164  1  0.57074322  0.10937977  0.25547174  1
  O2-  O165  1  0.60289285  0.12581331  0.48381454  1
  O2-  O166  1  0.63012788  0.14644544  0.74115047  1
  O2-  O167  1  0.65518965  0.62355827  0.00552505  1
  O2-  O168  1  0.62661853  0.63434507  0.25064551  1
  O2-  O169  1  0.63993007  0.64318670  0.49748421  1
  O2-  O170  1  0.66897055  0.61490576  0.74344628  1
  O2-  O171  1  0.86601998  0.12793391  0.02657505  1
  O2-  O172  1  0.93293126  0.13677344  0.24469877  1
  O2-  O173  1  0.90050504  0.13666670  0.49448311  1
  O2-  O174  1  0.89739144  0.13908077  0.75375256  1
  O2-  O175  1  0.85888525  0.67039363  0.02986084  1
  O2-  O176  1  0.88513484  0.63813818  0.27869904  1
  O2-  O177  1  0.82295126  0.61006444  0.49865452  1
  O2-  O178  1  0.84346259  0.66266438  0.73566793  1
  O2-  O179  1  0.09882781  0.36235062  -0.02048560  1
  O2-  O180  1  0.11899014  0.36646431  0.23853197  1
  O2-  O181  1  0.11809303  0.34990911  0.49247915  1
  O2-  O182  1  0.09442500  0.37259955  0.74051415  1
  O2-  O183  1  0.20239500  0.84314326  0.00889993  1
  O2-  O184  1  0.16659331  0.87996888  0.22841220  1
  O2-  O185  1  0.15286919  0.86652696  0.48550997  1
  O2-  O186  1  0.23715671  0.84312229  0.84280037  1
  O2-  O187  1  0.42135673  0.36919626  -0.00293923  1
  O2-  O188  1  0.34962067  0.35429781  0.24205667  1
  O2-  O189  1  0.39851575  0.35208791  0.48840813  1
  O2-  O190  1  0.40603823  0.34932052  0.72486573  1
  O2-  O191  1  0.36810249  0.87450595  -0.00388330  1
  O2-  O192  1  0.38769822  0.86459118  0.24487311  1
  O2-  O193  1  0.34109445  0.87450335  0.49862769  1
  O2-  O194  1  0.37140443  0.85868945  0.73525993  1
  O2-  O195  1  0.64589784  0.34260712  0.00123567  1
  O2-  O196  1  0.57377404  0.38310979  0.26409045  1
  O2-  O197  1  0.58590794  0.36756573  0.47412623  1
  O2-  O198  1  0.59625868  0.35992310  0.74638859  1
  O2-  O199  1  0.65652997  0.87691899  0.00328221  1
  O2-  O200  1  0.59816324  0.86771770  0.24511221  1
  O2-  O201  1  0.65438673  0.86468251  0.49001642  1
  O2-  O202  1  0.61918895  0.85969439  0.76173598  1
  O2-  O203  1  0.82992735  0.37825726  0.01556932  1
  O2-  O204  1  0.89475687  0.38501787  0.25925009  1
  O2-  O205  1  0.89470639  0.39582083  0.51717600  1
  O2-  O206  1  0.91356860  0.37848306  0.74983467  1
  O2-  O207  1  0.85087340  0.86441942  0.02664648  1
  O2-  O208  1  0.84173241  0.86307265  0.28579742  1
  O2-  O209  1  0.82145863  0.88632716  0.48613563  1
  O2-  O210  1  0.77574522  0.87802819  0.67436798  1
  O2-  O211  1  0.03624916  -0.13275249  0.00439183  1
  O2-  O212  1  0.02217492  -0.14845540  0.33888899  1
  O2-  O213  1  -0.01862409  -0.12709751  0.51050697  1
  O2-  O214  1  -0.01853358  -0.14252604  0.67754161  1
  O2-  O215  1  -0.00944145  0.39280863  0.11666288  1
  O2-  O216  1  0.03582259  0.64101219  0.36952093  1
  O2-  O217  1  -0.01673818  0.61579874  0.52768042  1
  O2-  O218  1  -0.00406076  0.64503490  0.68130915  1
  O2-  O219  1  0.25377507  0.13724465  -0.13138226  1
  O2-  O220  1  0.24319564  0.13796480  0.10361540  1
  O2-  O221  1  0.24601794  0.09365481  0.53966663  1
  O2-  O222  1  0.24147699  0.09493041  0.69550925  1
  O2-  O223  1  0.25993886  0.38745269  -0.05037918  1
  O2-  O224  1  0.23873126  0.33487050  0.11292809  1
  O2-  O225  1  0.24521883  0.39630054  0.61263909  1
  O2-  O226  1  0.26034022  0.37157565  0.79494128  1
  O2-  O227  1  0.48750412  -0.12870087  -0.13011735  1
  O2-  O228  1  0.49956270  -0.12616971  0.39888453  1
  O2-  O229  1  0.50463745  -0.16358764  0.61335338  1
  O2-  O230  1  0.50310385  0.11427998  0.85575396  1
  O2-  O231  1  0.49834347  0.62324473  -0.04532299  1
  O2-  O232  1  0.48554516  0.63165424  0.37822993  1
  O2-  O233  1  0.50403771  0.64803447  0.62288681  1
  O2-  O234  1  0.51317687  0.63584639  0.79837311  1
  O2-  O235  1  0.78913483  0.00298922  -0.09998255  1
  O2-  O236  1  0.73190570  0.13236025  0.14987980  1
  O2-  O237  1  0.75175850  0.13233241  0.59941966  1
  O2-  O238  1  0.74616226  0.18471015  0.88536452  1
  O2-  O239  1  0.74849208  0.63126427  -0.12244015  1
  O2-  O240  1  0.76238347  0.37535686  0.37999199  1
  O2-  O241  1  0.74970499  0.34712320  0.63019081  1
  O2-  O242  1  0.75509758  0.44140091  0.82725888  1
