# generated using pymatgen
data_Gd19Ta56(WO20)8
_symmetry_space_group_name_H-M   'P 1'
_cell_length_a   15.59165612
_cell_length_b   15.54393489
_cell_length_c   15.19929033
_cell_angle_alpha   89.91873260
_cell_angle_beta   90.15256763
_cell_angle_gamma   90.12303424
_symmetry_Int_Tables_number   1
_chemical_formula_structural   Gd19Ta56(WO20)8
_chemical_formula_sum   'Gd19 Ta56 W8 O160'
_cell_volume   3683.60923141
_cell_formula_units_Z   1
loop_
 _symmetry_equiv_pos_site_id
 _symmetry_equiv_pos_as_xyz
  1  'x, y, z'
loop_
 _atom_type_symbol
 _atom_type_oxidation_number
  Gd3+  3.0
  Ta5+  5.0
  W6+  6.0
  O2-  -2.0
loop_
 _atom_site_type_symbol
 _atom_site_label
 _atom_site_symmetry_multiplicity
 _atom_site_fract_x
 _atom_site_fract_y
 _atom_site_fract_z
 _atom_site_occupancy
  Gd3+  Gd0  1  0.22564080  0.24896031  0.49978114  1
  Gd3+  Gd1  1  0.50396415  0.23927023  0.49570539  1
  Gd3+  Gd2  1  0.50713168  0.24596229  0.74519898  1
  Gd3+  Gd3  1  -0.05334045  0.76087202  0.50609154  1
  Gd3+  Gd4  1  0.00737705  0.26607746  0.73826248  1
  Gd3+  Gd5  1  -0.00725571  0.24406888  0.49555430  1
  Gd3+  Gd6  1  0.75213552  0.74427966  -0.00295094  1
  Gd3+  Gd7  1  0.26028554  0.73950320  0.74380569  1
  Gd3+  Gd8  1  -0.00477782  0.25661202  0.23809919  1
  Gd3+  Gd9  1  0.24597718  0.27915009  0.74511744  1
  Gd3+  Gd10  1  0.25434598  0.76045884  0.01345691  1
  Gd3+  Gd11  1  0.50621804  0.73241611  0.74663438  1
  Gd3+  Gd12  1  0.00072894  0.25700332  -0.00690442  1
  Gd3+  Gd13  1  0.76095933  0.73733611  0.24185891  1
  Gd3+  Gd14  1  0.24850723  0.75774924  0.48734441  1
  Gd3+  Gd15  1  0.25991396  0.24181427  0.00943359  1
  Gd3+  Gd16  1  -0.00683761  0.72915163  -0.00841891  1
  Gd3+  Gd17  1  0.51958178  0.75949511  0.26108128  1
  Gd3+  Gd18  1  0.71488137  0.20867784  0.00178501  1
  Ta5+  Ta19  1  0.38689516  0.87848374  0.87876235  1
  Ta5+  Ta20  1  0.39759492  0.36470040  0.14034241  1
  Ta5+  Ta21  1  0.83330346  0.88222463  0.36889421  1
  Ta5+  Ta22  1  0.62146312  0.60594800  0.12679461  1
  Ta5+  Ta23  1  0.39785895  0.37049274  0.88301664  1
  Ta5+  Ta24  1  0.63745932  0.62742987  0.61554999  1
  Ta5+  Ta25  1  0.62448942  0.88068917  0.11745106  1
  Ta5+  Ta26  1  0.64768633  0.11341346  0.62343501  1
  Ta5+  Ta27  1  0.11389705  0.11597827  0.11957820  1
  Ta5+  Ta28  1  0.83271034  0.37398524  0.11543136  1
  Ta5+  Ta29  1  0.13220347  0.38569026  0.11386708  1
  Ta5+  Ta30  1  0.39362174  0.62073583  0.36292401  1
  Ta5+  Ta31  1  0.88177830  0.88981989  0.87686739  1
  Ta5+  Ta32  1  0.13269484  0.41815945  0.90368369  1
  Ta5+  Ta33  1  0.11435042  0.11424809  0.37219381  1
  Ta5+  Ta34  1  0.64242586  0.36678229  0.37424898  1
  Ta5+  Ta35  1  0.36483885  0.11216875  0.87553367  1
  Ta5+  Ta36  1  0.63233224  0.61157282  0.87213667  1
  Ta5+  Ta37  1  0.84375433  0.13386952  0.65752024  1
  Ta5+  Ta38  1  0.87832939  0.60701127  0.11713734  1
  Ta5+  Ta39  1  0.12128808  0.38545832  0.36477277  1
  Ta5+  Ta40  1  0.63844132  0.36473175  0.86507047  1
  Ta5+  Ta41  1  0.90621989  0.62690069  0.36555043  1
  Ta5+  Ta42  1  0.87069216  0.38362047  0.36845560  1
  Ta5+  Ta43  1  0.87610672  0.63809694  0.84153033  1
  Ta5+  Ta44  1  0.12212036  0.11157131  0.88320776  1
  Ta5+  Ta45  1  0.86133445  0.89438901  0.62342354  1
  Ta5+  Ta46  1  0.12173449  0.62840369  0.14423683  1
  Ta5+  Ta47  1  0.08597664  0.88094470  0.35810092  1
  Ta5+  Ta48  1  0.58126788  0.87357371  0.60304688  1
  Ta5+  Ta49  1  0.86405410  0.39685150  0.61099333  1
  Ta5+  Ta50  1  0.60380219  0.10104865  0.86239734  1
  Ta5+  Ta51  1  0.34922857  0.11232558  0.63037158  1
  Ta5+  Ta52  1  0.11899109  0.61101032  0.61881554  1
  Ta5+  Ta53  1  0.36138503  0.11566324  0.38097420  1
  Ta5+  Ta54  1  0.10882788  0.87416579  0.15850305  1
  Ta5+  Ta55  1  0.66532643  0.36614898  0.12362719  1
  Ta5+  Ta56  1  0.40206075  0.87248571  0.61376409  1
  Ta5+  Ta57  1  0.63227182  0.11637139  0.36871245  1
  Ta5+  Ta58  1  0.38974468  0.61508799  0.11045045  1
  Ta5+  Ta59  1  0.86900501  0.39497778  0.86115825  1
  Ta5+  Ta60  1  0.66707925  0.87094308  0.38088510  1
  Ta5+  Ta61  1  0.62491692  0.86985781  0.86004502  1
  Ta5+  Ta62  1  0.36485946  0.38802535  0.60880035  1
  Ta5+  Ta63  1  0.39380611  0.88036127  0.13465790  1
  Ta5+  Ta64  1  0.64137632  0.61214349  0.37926557  1
  Ta5+  Ta65  1  0.40682437  0.12695986  0.13199896  1
  Ta5+  Ta66  1  0.86118374  0.12324953  0.35372931  1
  Ta5+  Ta67  1  0.11925402  0.60992697  0.87137155  1
  Ta5+  Ta68  1  0.41525052  0.87871415  0.39924665  1
  Ta5+  Ta69  1  0.12433456  0.86935271  0.86668352  1
  Ta5+  Ta70  1  0.89573540  0.88649815  0.12525105  1
  Ta5+  Ta71  1  0.35999509  0.37696311  0.38340111  1
  Ta5+  Ta72  1  0.11216528  0.87082781  0.61820885  1
  Ta5+  Ta73  1  0.14129304  0.11302620  0.63837748  1
  Ta5+  Ta74  1  0.64082352  0.37782820  0.61988139  1
  W6+  W75  1  0.56737673  0.12483220  0.12761545  1
  W6+  W76  1  0.79650222  0.64463090  0.60322613  1
  W6+  W77  1  0.37450407  0.62078161  0.89599881  1
  W6+  W78  1  0.17434349  0.45637791  0.55936114  1
  W6+  W79  1  0.87239302  0.12923051  0.09610572  1
  W6+  W80  1  0.06980421  0.63259336  0.39107428  1
  W6+  W81  1  0.37435319  0.62271210  0.61044509  1
  W6+  W82  1  0.84655428  0.09556357  0.89048871  1
  O2-  O83  1  0.13063774  -0.01272391  0.12494933  1
  O2-  O84  1  0.06368774  0.00387653  0.37608656  1
  O2-  O85  1  0.10695512  -0.00449118  0.63541209  1
  O2-  O86  1  0.11948160  -0.00922091  0.85363094  1
  O2-  O87  1  0.14962786  0.51111510  0.12640177  1
  O2-  O88  1  0.09703621  0.49764774  0.38309458  1
  O2-  O89  1  0.23756824  0.57892476  0.60165823  1
  O2-  O90  1  0.20672936  0.51803110  0.88553420  1
  O2-  O91  1  0.38442407  0.00283328  0.13401714  1
  O2-  O92  1  0.41046630  0.00522717  0.39076496  1
  O2-  O93  1  0.37513283  -0.00503025  0.64028362  1
  O2-  O94  1  0.34186403  -0.00972583  0.85158685  1
  O2-  O95  1  0.39384121  0.49134350  0.13003376  1
  O2-  O96  1  0.37814266  0.49733216  0.37466775  1
  O2-  O97  1  0.41587772  0.49330439  0.62280516  1
  O2-  O98  1  0.39833423  0.48744167  0.88101675  1
  O2-  O99  1  0.59948014  -0.00547989  0.11602146  1
  O2-  O100  1  0.65481021  -0.00046018  0.37706554  1
  O2-  O101  1  0.62105988  -0.00285310  0.60834991  1
  O2-  O102  1  0.65805133  -0.00729877  0.85760627  1
  O2-  O103  1  0.61842309  0.48723358  0.11517734  1
  O2-  O104  1  0.62157127  0.48665330  0.38663601  1
  O2-  O105  1  0.64082523  0.49655706  0.61419066  1
  O2-  O106  1  0.62787192  0.48738311  0.87260158  1
  O2-  O107  1  0.90982235  0.00215647  0.12445360  1
  O2-  O108  1  0.84083966  0.00714358  0.34597896  1
  O2-  O109  1  0.88506801  0.02378366  0.63278305  1
  O2-  O110  1  0.93424277  -0.00215716  0.88798506  1
  O2-  O111  1  0.82735024  0.49898789  0.11635130  1
  O2-  O112  1  0.89474244  0.50114682  0.36568247  1
  O2-  O113  1  0.82935313  0.50680562  0.60430100  1
  O2-  O114  1  0.87434345  0.51355523  0.84853929  1
  O2-  O115  1  0.12132709  0.24871536  0.10688266  1
  O2-  O116  1  0.09826393  0.24280873  0.36392068  1
  O2-  O117  1  0.12980525  0.24081303  0.63833567  1
  O2-  O118  1  0.13145293  0.23687719  0.91515074  1
  O2-  O119  1  0.15242276  0.75746606  0.12504159  1
  O2-  O120  1  0.04434519  0.77139179  0.38924965  1
  O2-  O121  1  0.16321107  0.75059715  0.61386619  1
  O2-  O122  1  0.16375948  0.74098727  0.87107326  1
  O2-  O123  1  0.34692659  0.24934378  0.13768628  1
  O2-  O124  1  0.35139546  0.24288213  0.41018111  1
  O2-  O125  1  0.32958390  0.25073703  0.61204391  1
  O2-  O126  1  0.32950606  0.25116947  0.87382442  1
  O2-  O127  1  0.35919516  0.75374600  0.12360567  1
  O2-  O128  1  0.41442083  0.75303717  0.37644089  1
  O2-  O129  1  0.33888276  0.75657835  0.60747888  1
  O2-  O130  1  0.33752760  0.76045957  0.88478604  1
  O2-  O131  1  0.63281375  0.24548654  0.12339372  1
  O2-  O132  1  0.58425899  0.25448016  0.37284949  1
  O2-  O133  1  0.59089839  0.23815547  0.62261314  1
  O2-  O134  1  0.64287047  0.22514597  0.85266030  1
  O2-  O135  1  0.66466377  0.74276362  0.12736736  1
  O2-  O136  1  0.64125678  0.74059686  0.35610018  1
  O2-  O137  1  0.58249483  0.73853399  0.61066073  1
  O2-  O138  1  0.60571914  0.74134891  0.86824262  1
  O2-  O139  1  0.91195206  0.26579676  0.11629356  1
  O2-  O140  1  0.91500772  0.26189263  0.36588565  1
  O2-  O141  1  0.91174836  0.24165037  0.61916069  1
  O2-  O142  1  0.96939246  0.32326415  0.86676780  1
  O2-  O143  1  0.85349742  0.74363038  0.11263746  1
  O2-  O144  1  0.87033979  0.75794070  0.36035814  1
  O2-  O145  1  0.82054783  0.78147411  0.60823118  1
  O2-  O146  1  0.86336043  0.75948955  0.89161866  1
  O2-  O147  1  0.06417425  0.10331512  -0.00442361  1
  O2-  O148  1  0.09766254  0.12669029  0.24306676  1
  O2-  O149  1  0.10073726  0.13811950  0.50357084  1
  O2-  O150  1  0.08045618  0.13650661  0.76385577  1
  O2-  O151  1  0.11317113  0.64164908  -0.00250139  1
  O2-  O152  1  0.12624163  0.63740055  0.26266156  1
  O2-  O153  1  0.04137810  0.65603228  0.53352953  1
  O2-  O154  1  0.14740621  0.63014785  0.74730124  1
  O2-  O155  1  0.38110994  0.13800758  0.00086018  1
  O2-  O156  1  0.38834584  0.13404730  0.26456718  1
  O2-  O157  1  0.40855025  0.12511159  0.51702679  1
  O2-  O158  1  0.39228356  0.15021198  0.74923722  1
  O2-  O159  1  0.29803374  0.61895961  0.02541995  1
  O2-  O160  1  0.35568022  0.62885443  0.24565500  1
  O2-  O161  1  0.33257430  0.63800983  0.47117000  1
  O2-  O162  1  0.38610154  0.64623294  0.75219139  1
  O2-  O163  1  0.60100482  0.12408365  -0.01274979  1
  O2-  O164  1  0.56930920  0.11421437  0.26649169  1
  O2-  O165  1  0.59828933  0.12563019  0.49172638  1
  O2-  O166  1  0.57353166  0.11432885  0.73335020  1
  O2-  O167  1  0.64989968  0.62597114  0.00447693  1
  O2-  O168  1  0.67287776  0.60753807  0.24666442  1
  O2-  O169  1  0.68988821  0.62995741  0.49048079  1
  O2-  O170  1  0.60838773  0.61849186  0.74474020  1
  O2-  O171  1  0.87001648  0.19820095  -0.03126272  1
  O2-  O172  1  0.90711539  0.13925315  0.23918058  1
  O2-  O173  1  0.92510322  0.12186361  0.45765414  1
  O2-  O174  1  0.89599524  0.16560655  0.76934921  1
  O2-  O175  1  0.88521552  0.62548818  -0.01064559  1
  O2-  O176  1  0.85988320  0.62660226  0.24387804  1
  O2-  O177  1  0.86469883  0.64010847  0.48229092  1
  O2-  O178  1  0.86320561  0.65215077  0.72346556  1
  O2-  O179  1  0.05386742  0.39481943  0.00968870  1
  O2-  O180  1  0.09638147  0.37378466  0.23418889  1
  O2-  O181  1  0.11198161  0.34754284  0.49121657  1
  O2-  O182  1  0.13226931  0.35865025  0.79602532  1
  O2-  O183  1  0.16832954  0.87511433  -0.01840102  1
  O2-  O184  1  0.17435599  0.87031410  0.27176882  1
  O2-  O185  1  0.13056437  0.87729959  0.49209603  1
  O2-  O186  1  0.16981572  0.86131670  0.74201274  1
  O2-  O187  1  0.38956396  0.35366484  0.00768670  1
  O2-  O188  1  0.41127046  0.35817769  0.27083115  1
  O2-  O189  1  0.43407040  0.36698767  0.49386029  1
  O2-  O190  1  0.39184204  0.34833493  0.74414642  1
  O2-  O191  1  0.35936299  0.88190388  0.00314835  1
  O2-  O192  1  0.42158422  0.87481937  0.26191679  1
  O2-  O193  1  0.32686149  0.87965069  0.49049120  1
  O2-  O194  1  0.39639333  0.84399433  0.74754927  1
  O2-  O195  1  0.65984249  0.35328578  -0.01296106  1
  O2-  O196  1  0.65979967  0.37087304  0.25297588  1
  O2-  O197  1  0.60165478  0.35761812  0.50499326  1
  O2-  O198  1  0.59316329  0.36805136  0.73547118  1
  O2-  O199  1  0.66023068  0.86172948  -0.00841829  1
  O2-  O200  1  0.62985335  0.86726478  0.24548811  1
  O2-  O201  1  0.65678067  0.85574282  0.50371503  1
  O2-  O202  1  0.59707213  0.86216155  0.73554534  1
  O2-  O203  1  0.85081319  0.38303171  -0.01778456  1
  O2-  O204  1  0.85640179  0.36950069  0.24555900  1
  O2-  O205  1  0.91915902  0.37682482  0.49969452  1
  O2-  O206  1  0.91473638  0.38743124  0.72435782  1
  O2-  O207  1  0.84325233  0.87893094  0.00795558  1
  O2-  O208  1  0.82667463  0.87338877  0.22831576  1
  O2-  O209  1  0.87705307  0.89949667  0.49308791  1
  O2-  O210  1  0.85604579  0.89089016  0.75704697  1
  O2-  O211  1  0.00821756  -0.15157584  0.07691921  1
  O2-  O212  1  0.01306717  -0.11876660  0.23988373  1
  O2-  O213  1  -0.00824899  -0.14055155  0.62785076  1
  O2-  O214  1  0.00669074  -0.15684470  0.88248098  1
  O2-  O215  1  0.04838950  0.50463612  -0.12431955  1
  O2-  O216  1  0.00110129  0.64211279  0.12875822  1
  O2-  O217  1  0.06415449  0.50360751  0.62905161  1
  O2-  O218  1  0.00010636  0.66073022  0.85384213  1
  O2-  O219  1  0.24057434  0.10883491  -0.08822574  1
  O2-  O220  1  0.23753519  0.10645750  0.37631882  1
  O2-  O221  1  0.24360142  0.10557157  0.55903507  1
  O2-  O222  1  0.23990922  0.12345890  0.71890201  1
  O2-  O223  1  0.21125986  0.38003847  0.00294993  1
  O2-  O224  1  0.24242664  0.36713617  0.34148368  1
  O2-  O225  1  0.28255370  0.38944343  0.50269082  1
  O2-  O226  1  0.25311756  0.40157909  0.66358096  1
  O2-  O227  1  0.50460233  -0.11179478  -0.10658059  1
  O2-  O228  1  0.50961233  -0.16646101  0.11229400  1
  O2-  O229  1  0.48512777  -0.13467703  0.51010371  1
  O2-  O230  1  0.48408705  0.08350324  0.87419531  1
  O2-  O231  1  0.46008558  0.62605210  0.00830684  1
  O2-  O232  1  0.51149495  0.64384604  0.16723175  1
  O2-  O233  1  0.51563458  0.62173967  0.35400378  1
  O2-  O234  1  0.51240190  0.33033525  0.87834829  1
  O2-  O235  1  0.78429824  0.07565445  0.01292251  1
  O2-  O236  1  0.74537763  0.16640054  0.35785741  1
  O2-  O237  1  0.75454608  0.15389148  0.56614007  1
  O2-  O238  1  0.73766977  0.10817631  0.72009574  1
  O2-  O239  1  0.75007621  0.63663902  -0.13204526  1
  O2-  O240  1  0.75754630  0.35540935  0.41361249  1
  O2-  O241  1  0.75588301  0.33880904  0.62304549  1
  O2-  O242  1  0.75748106  0.35943257  0.82405497  1
