# generated using pymatgen
data_Gd19Ta56(WO20)8
_symmetry_space_group_name_H-M   'P 1'
_cell_length_a   15.44720961
_cell_length_b   15.42350928
_cell_length_c   15.25525705
_cell_angle_alpha   89.84227789
_cell_angle_beta   90.28171632
_cell_angle_gamma   90.19915927
_symmetry_Int_Tables_number   1
_chemical_formula_structural   Gd19Ta56(WO20)8
_chemical_formula_sum   'Gd19 Ta56 W8 O160'
_cell_volume   3634.48825720
_cell_formula_units_Z   1
loop_
 _symmetry_equiv_pos_site_id
 _symmetry_equiv_pos_as_xyz
  1  'x, y, z'
loop_
 _atom_type_symbol
 _atom_type_oxidation_number
  Gd3+  3.0
  Ta5+  5.0
  W6+  6.0
  O2-  -2.0
loop_
 _atom_site_type_symbol
 _atom_site_label
 _atom_site_symmetry_multiplicity
 _atom_site_fract_x
 _atom_site_fract_y
 _atom_site_fract_z
 _atom_site_occupancy
  Gd3+  Gd0  1  0.48954202  0.74530353  0.75054247  1
  Gd3+  Gd1  1  0.74589220  0.76501512  0.23514765  1
  Gd3+  Gd2  1  0.24069334  0.25490047  0.75453095  1
  Gd3+  Gd3  1  0.26021050  0.24235221  0.25720048  1
  Gd3+  Gd4  1  0.24196109  0.74260650  0.47764984  1
  Gd3+  Gd5  1  0.76034007  0.25952869  -0.01873138  1
  Gd3+  Gd6  1  0.73877301  0.23629140  0.49024225  1
  Gd3+  Gd7  1  0.00695071  0.24206017  0.23041883  1
  Gd3+  Gd8  1  0.22849871  0.25095486  -0.01498519  1
  Gd3+  Gd9  1  0.74094391  0.78702976  0.47959434  1
  Gd3+  Gd10  1  0.26098498  0.25244613  0.51373027  1
  Gd3+  Gd11  1  0.02169035  0.75803314  0.73918359  1
  Gd3+  Gd12  1  0.72365092  0.25267135  0.72293316  1
  Gd3+  Gd13  1  0.25890293  0.78946723  0.04123796  1
  Gd3+  Gd14  1  -0.02109967  0.73077072  0.26401131  1
  Gd3+  Gd15  1  0.51212666  0.74677637  -0.01392586  1
  Gd3+  Gd16  1  0.50972421  0.23744948  0.24773268  1
  Gd3+  Gd17  1  0.74955217  0.23425983  0.24440097  1
  Gd3+  Gd18  1  0.45559412  0.25582327  0.02947227  1
  Ta5+  Ta19  1  0.38746596  0.11141018  0.64389520  1
  Ta5+  Ta20  1  0.63829186  0.87292090  0.86231384  1
  Ta5+  Ta21  1  0.66742405  0.62049931  0.37036581  1
  Ta5+  Ta22  1  0.61026434  0.37915664  0.37410699  1
  Ta5+  Ta23  1  0.08250473  0.86834255  0.38777638  1
  Ta5+  Ta24  1  0.35652490  0.07043369  0.10635005  1
  Ta5+  Ta25  1  0.59248990  0.37373400  0.84342613  1
  Ta5+  Ta26  1  0.08533740  0.12226799  0.87778472  1
  Ta5+  Ta27  1  0.40476842  0.63292924  0.38778337  1
  Ta5+  Ta28  1  0.83797156  0.61643901  0.37634467  1
  Ta5+  Ta29  1  0.38277675  0.10825135  0.40584581  1
  Ta5+  Ta30  1  0.09799326  0.37443931  0.62130857  1
  Ta5+  Ta31  1  0.59086166  0.87353814  0.60882621  1
  Ta5+  Ta32  1  0.60285478  0.10808790  0.40243502  1
  Ta5+  Ta33  1  0.12553426  0.11026289  0.63154728  1
  Ta5+  Ta34  1  0.39389616  0.63360737  0.14722113  1
  Ta5+  Ta35  1  0.88491639  0.87800233  0.87072768  1
  Ta5+  Ta36  1  0.90993265  0.87269833  0.38205816  1
  Ta5+  Ta37  1  0.17612811  0.87128105  0.62825497  1
  Ta5+  Ta38  1  0.07852496  0.86418842  0.13026977  1
  Ta5+  Ta39  1  0.10960242  0.37197218  0.38562286  1
  Ta5+  Ta40  1  0.87922302  0.37601586  0.62981134  1
  Ta5+  Ta41  1  0.13553648  0.61114618  0.63235024  1
  Ta5+  Ta42  1  0.88930250  0.62265125  0.86425947  1
  Ta5+  Ta43  1  0.40470447  0.86145937  0.38633705  1
  Ta5+  Ta44  1  0.13646464  0.62362419  0.88053435  1
  Ta5+  Ta45  1  0.91474243  0.37353065  0.87056897  1
  Ta5+  Ta46  1  0.34477431  0.62461284  0.88831748  1
  Ta5+  Ta47  1  0.38299075  0.38570742  0.87168190  1
  Ta5+  Ta48  1  0.13513308  0.88087233  0.87895693  1
  Ta5+  Ta49  1  0.09876276  0.62679950  0.11500267  1
  Ta5+  Ta50  1  0.57469174  0.86627677  0.35551499  1
  Ta5+  Ta51  1  0.62005757  0.61200626  0.12112511  1
  Ta5+  Ta52  1  0.39721388  0.38148397  0.40166349  1
  Ta5+  Ta53  1  0.08318161  0.37864190  0.87275372  1
  Ta5+  Ta54  1  0.38536335  0.88431632  0.88498154  1
  Ta5+  Ta55  1  0.88330464  0.37480060  0.12148876  1
  Ta5+  Ta56  1  0.64348846  0.61408568  0.86294253  1
  Ta5+  Ta57  1  0.84616400  0.87845900  0.62675506  1
  Ta5+  Ta58  1  0.13439373  0.10593007  0.12390067  1
  Ta5+  Ta59  1  0.91823365  0.12537258  0.86744478  1
  Ta5+  Ta60  1  0.88043178  0.12041805  0.62980190  1
  Ta5+  Ta61  1  0.88464469  0.11596484  0.10802326  1
  Ta5+  Ta62  1  0.61849039  0.11922027  0.85751089  1
  Ta5+  Ta63  1  0.63103550  0.37415994  0.10134880  1
  Ta5+  Ta64  1  0.89813899  0.37710609  0.38839748  1
  Ta5+  Ta65  1  0.85823743  0.62164364  0.62067322  1
  Ta5+  Ta66  1  0.12566357  0.11523007  0.38084376  1
  Ta5+  Ta67  1  0.86031922  0.62220985  0.11086634  1
  Ta5+  Ta68  1  0.34720179  0.86722597  0.63164154  1
  Ta5+  Ta69  1  0.39560063  0.12623068  0.85276112  1
  Ta5+  Ta70  1  0.55754677  0.12152419  0.61603015  1
  Ta5+  Ta71  1  0.62652477  0.62210430  0.61630292  1
  Ta5+  Ta72  1  0.87455508  0.11639806  0.37365440  1
  Ta5+  Ta73  1  0.91090604  0.87355083  0.12301675  1
  Ta5+  Ta74  1  0.36428795  0.60849570  0.63981309  1
  W6+  W75  1  0.61682835  0.87270122  0.11501494  1
  W6+  W76  1  0.63287685  0.11238006  0.09306985  1
  W6+  W77  1  0.11189847  0.61356606  0.37311999  1
  W6+  W78  1  0.40030645  0.37376467  0.64964801  1
  W6+  W79  1  0.58319614  0.37710996  0.59127775  1
  W6+  W80  1  0.42083991  0.45475771  0.21128589  1
  W6+  W81  1  0.14314533  0.38238453  0.12432722  1
  W6+  W82  1  0.40202464  0.88501384  0.15853805  1
  O2-  O83  1  0.10989831  -0.01140453  0.13269284  1
  O2-  O84  1  0.10540931  -0.00318609  0.37713072  1
  O2-  O85  1  0.17559724  0.00132280  0.62925527  1
  O2-  O86  1  0.09196418  -0.00694388  0.89133195  1
  O2-  O87  1  0.13783555  0.51493925  0.11156044  1
  O2-  O88  1  0.14491418  0.48539545  0.37507857  1
  O2-  O89  1  0.08140633  0.49487428  0.61852404  1
  O2-  O90  1  0.10504302  0.50306431  0.87927052  1
  O2-  O91  1  0.44836840  0.01630971  0.16253806  1
  O2-  O92  1  0.38837528  -0.01523725  0.39330625  1
  O2-  O93  1  0.37629631  -0.00923857  0.63030565  1
  O2-  O94  1  0.39377424  0.00559813  0.88778405  1
  O2-  O95  1  0.50347312  0.56159141  0.13881345  1
  O2-  O96  1  0.40141783  0.50854863  0.39421174  1
  O2-  O97  1  0.42340817  0.50606108  0.62577249  1
  O2-  O98  1  0.38180654  0.50550445  0.90355516  1
  O2-  O99  1  0.61401720  -0.00556083  0.07626185  1
  O2-  O100  1  0.59735771  -0.00990705  0.37039078  1
  O2-  O101  1  0.56834508  -0.00857541  0.61573643  1
  O2-  O102  1  0.62358255  -0.00404882  0.85947671  1
  O2-  O103  1  0.65783154  0.49127320  0.12002280  1
  O2-  O104  1  0.63090818  0.49856252  0.36997685  1
  O2-  O105  1  0.59175600  0.51453348  0.58450247  1
  O2-  O106  1  0.62062497  0.49248726  0.85511830  1
  O2-  O107  1  0.89549802  -0.00059342  0.14491483  1
  O2-  O108  1  0.89531560  -0.00007904  0.35985725  1
  O2-  O109  1  0.84042694  0.00702295  0.64221551  1
  O2-  O110  1  0.91056764  -0.00588602  0.84392050  1
  O2-  O111  1  0.86764849  0.49965193  0.13274169  1
  O2-  O112  1  0.85491616  0.48588140  0.36025540  1
  O2-  O113  1  0.89251752  0.49516559  0.64015675  1
  O2-  O114  1  0.91388553  0.50512584  0.84468268  1
  O2-  O115  1  0.17722326  0.24512418  0.12230240  1
  O2-  O116  1  0.16760951  0.25562510  0.39150752  1
  O2-  O117  1  0.15756872  0.24065402  0.62855088  1
  O2-  O118  1  0.13351608  0.24816079  0.86776937  1
  O2-  O119  1  0.14841360  0.74404781  0.13514743  1
  O2-  O120  1  0.12163009  0.74540529  0.37732013  1
  O2-  O121  1  0.15391270  0.73920195  0.64160986  1
  O2-  O122  1  0.11465359  0.75096333  0.85672950  1
  O2-  O123  1  0.50548180  0.36647308  0.12786067  1
  O2-  O124  1  0.37632858  0.24615197  0.39305450  1
  O2-  O125  1  0.34845958  0.24369605  0.64852137  1
  O2-  O126  1  0.36221624  0.24811687  0.85458587  1
  O2-  O127  1  0.34906792  0.75095652  0.15455066  1
  O2-  O128  1  0.34014133  0.74575186  0.36691501  1
  O2-  O129  1  0.37143556  0.73705537  0.65153221  1
  O2-  O130  1  0.39546810  0.74047421  0.87608569  1
  O2-  O131  1  0.60209978  0.24134645  0.06959725  1
  O2-  O132  1  0.61206362  0.23654823  0.38306969  1
  O2-  O133  1  0.60663556  0.24044458  0.61120158  1
  O2-  O134  1  0.65238186  0.25742692  0.85526417  1
  O2-  O135  1  0.57842633  0.73472188  0.12009238  1
  O2-  O136  1  0.65754774  0.75578479  0.35616967  1
  O2-  O137  1  0.56481587  0.73676786  0.61624649  1
  O2-  O138  1  0.60523782  0.73554718  0.86084699  1
  O2-  O139  1  0.88461433  0.24630974  0.08879714  1
  O2-  O140  1  0.84307245  0.26069244  0.38533765  1
  O2-  O141  1  0.82405226  0.24061345  0.61310729  1
  O2-  O142  1  0.88185112  0.24832520  0.88965859  1
  O2-  O143  1  0.90562773  0.74112066  0.11681919  1
  O2-  O144  1  0.86226374  0.74744954  0.39233380  1
  O2-  O145  1  0.83687537  0.74721260  0.60215819  1
  O2-  O146  1  0.92779535  0.75187659  0.86560151  1
  O2-  O147  1  0.15222078  0.11959774  0.00005091  1
  O2-  O148  1  0.12095021  0.14872165  0.25340995  1
  O2-  O149  1  0.14605735  0.12672756  0.50329807  1
  O2-  O150  1  0.11957126  0.12025923  0.75676062  1
  O2-  O151  1  0.07475987  0.64032098  -0.00840997  1
  O2-  O152  1  0.06601776  0.61835743  0.23940566  1
  O2-  O153  1  0.14691407  0.62755216  0.50785752  1
  O2-  O154  1  0.08503099  0.62148630  0.75136495  1
  O2-  O155  1  0.35503774  0.13778048  -0.00733176  1
  O2-  O156  1  0.39750715  0.19567929  0.15848196  1
  O2-  O157  1  0.33629685  0.12254623  0.52354276  1
  O2-  O158  1  0.31135943  0.11168337  0.75920150  1
  O2-  O159  1  0.40275649  0.64458703  0.01641661  1
  O2-  O160  1  0.43749445  0.64314128  0.26901569  1
  O2-  O161  1  0.35584782  0.64047474  0.51212779  1
  O2-  O162  1  0.40480699  0.61733451  0.76528203  1
  O2-  O163  1  0.69299829  0.12626072  -0.04359799  1
  O2-  O164  1  0.62145123  0.15229817  0.21907228  1
  O2-  O165  1  0.65961223  0.10920423  0.51658161  1
  O2-  O166  1  0.65150230  0.12381306  0.73529418  1
  O2-  O167  1  0.60148622  0.61550516  -0.01719438  1
  O2-  O168  1  0.65422570  0.62832780  0.24009290  1
  O2-  O169  1  0.67160166  0.65642514  0.50166599  1
  O2-  O170  1  0.59228336  0.62171106  0.74485855  1
  O2-  O171  1  0.88336309  0.09603408  -0.01359471  1
  O2-  O172  1  0.74425569  0.12356457  0.36317267  1
  O2-  O173  1  0.86152010  0.12270875  0.50016603  1
  O2-  O174  1  0.85784560  0.14990551  0.75012196  1
  O2-  O175  1  0.89139658  0.61536290  -0.01235154  1
  O2-  O176  1  0.85222625  0.64457464  0.24615565  1
  O2-  O177  1  0.87636448  0.60480077  0.50020833  1
  O2-  O178  1  0.91183374  0.64967507  0.73289021  1
  O2-  O179  1  0.12877872  0.36132153  -0.01078301  1
  O2-  O180  1  0.15079157  0.34609959  0.25939648  1
  O2-  O181  1  0.16399753  0.36943157  0.51488634  1
  O2-  O182  1  0.12996433  0.36993491  0.74279394  1
  O2-  O183  1  0.12173260  0.85353742  0.00443354  1
  O2-  O184  1  0.07703257  0.85930012  0.25648179  1
  O2-  O185  1  0.13682671  0.86418430  0.50793741  1
  O2-  O186  1  0.11434016  0.88149627  0.75023156  1
  O2-  O187  1  0.34025600  0.34794453  -0.01284983  1
  O2-  O188  1  0.33296446  0.37577898  0.28840353  1
  O2-  O189  1  0.34593801  0.37373627  0.51659644  1
  O2-  O190  1  0.31254805  0.38703603  0.76610841  1
  O2-  O191  1  0.40199490  0.84633972  0.01291045  1
  O2-  O192  1  0.47634963  0.84032593  0.27203744  1
  O2-  O193  1  0.37358041  0.84340903  0.50732325  1
  O2-  O194  1  0.37716953  0.86961559  0.76131615  1
  O2-  O195  1  0.65550008  0.37690185  -0.02285037  1
  O2-  O196  1  0.64621045  0.34474641  0.25051855  1
  O2-  O197  1  0.67444921  0.36606552  0.48310422  1
  O2-  O198  1  0.64225483  0.37353378  0.72446827  1
  O2-  O199  1  0.50842914  0.86559687  -0.12184750  1
  O2-  O200  1  0.65061379  0.87551831  0.24161625  1
  O2-  O201  1  0.60210076  0.85052374  0.48257584  1
  O2-  O202  1  0.60524931  0.85511099  0.73756481  1
  O2-  O203  1  0.87539271  0.38909501  -0.01110489  1
  O2-  O204  1  0.85860560  0.34663740  0.24484323  1
  O2-  O205  1  0.84410641  0.37478937  0.50888118  1
  O2-  O206  1  0.84311645  0.35387564  0.74962975  1
  O2-  O207  1  0.89492170  0.88284576  -0.00806974  1
  O2-  O208  1  0.87446631  0.84877836  0.25223611  1
  O2-  O209  1  0.88910261  0.88876118  0.51189866  1
  O2-  O210  1  0.91045186  0.85948890  0.73159447  1
  O2-  O211  1  0.01370223  0.14005981  0.11807483  1
  O2-  O212  1  -0.11483451  0.15425688  0.24693891  1
  O2-  O213  1  0.00265068  0.15438241  0.37955864  1
  O2-  O214  1  0.00048929  0.11524621  0.62232630  1
  O2-  O215  1  0.00405499  0.36224016  0.13406671  1
  O2-  O216  1  0.00224006  0.35856679  0.31666985  1
  O2-  O217  1  0.00538566  0.38506702  0.46742343  1
  O2-  O218  1  -0.01141833  0.31953820  0.63283154  1
  O2-  O219  1  0.30381729  -0.03918954  0.08509543  1
  O2-  O220  1  0.25614795  0.10261558  0.17164368  1
  O2-  O221  1  0.26336123  0.11680326  0.35813469  1
  O2-  O222  1  0.25817443  -0.13062068  0.90117929  1
  O2-  O223  1  0.24295211  0.66517395  -0.03957490  1
  O2-  O224  1  0.32340298  0.53777366  0.15748509  1
  O2-  O225  1  0.24884251  0.56828506  0.64746392  1
  O2-  O226  1  0.24523231  0.60113607  0.81662094  1
  O2-  O227  1  0.51187433  0.15438308  -0.08817588  1
  O2-  O228  1  0.48602545  0.12102468  0.33179302  1
  O2-  O229  1  0.50242784  0.11824790  0.49134847  1
  O2-  O230  1  0.47948593  0.12504971  0.74372660  1
  O2-  O231  1  0.49760992  0.35167084  -0.07296030  1
  O2-  O232  1  0.49554791  0.37617245  0.30695635  1
  O2-  O233  1  0.51289019  0.37322241  0.46507742  1
  O2-  O234  1  0.47976356  0.38399246  0.77506977  1
  O2-  O235  1  0.64148038  -0.15742358  -0.01533882  1
  O2-  O236  1  0.76128006  0.13868681  0.12326558  1
  O2-  O237  1  0.72149022  -0.12536882  0.60650161  1
  O2-  O238  1  0.76336695  -0.13438011  0.84809678  1
  O2-  O239  1  0.74292177  0.65413170  0.09442795  1
  O2-  O240  1  0.75016109  0.33196298  0.11430855  1
  O2-  O241  1  0.74290343  0.60077782  0.65875527  1
  O2-  O242  1  0.76463876  0.62687654  0.85519415  1
