# generated using pymatgen
data_Gd19Ta56(WO20)8
_symmetry_space_group_name_H-M   'P 1'
_cell_length_a   15.63443970
_cell_length_b   15.56635400
_cell_length_c   15.02882969
_cell_angle_alpha   90.03469137
_cell_angle_beta   90.79080857
_cell_angle_gamma   89.81019890
_symmetry_Int_Tables_number   1
_chemical_formula_structural   Gd19Ta56(WO20)8
_chemical_formula_sum   'Gd19 Ta56 W8 O160'
_cell_volume   3657.21564020
_cell_formula_units_Z   1
loop_
 _symmetry_equiv_pos_site_id
 _symmetry_equiv_pos_as_xyz
  1  'x, y, z'
loop_
 _atom_type_symbol
 _atom_type_oxidation_number
  Gd3+  3.0
  Ta5+  5.0
  W6+  6.0
  O2-  -2.0
loop_
 _atom_site_type_symbol
 _atom_site_label
 _atom_site_symmetry_multiplicity
 _atom_site_fract_x
 _atom_site_fract_y
 _atom_site_fract_z
 _atom_site_occupancy
  Gd3+  Gd0  1  0.21293337  0.25740676  0.51474946  1
  Gd3+  Gd1  1  0.49092450  0.25036972  0.27245149  1
  Gd3+  Gd2  1  0.20851911  0.73959166  0.70340135  1
  Gd3+  Gd3  1  -0.04267004  0.24784938  0.26496542  1
  Gd3+  Gd4  1  0.78036373  0.24550174  0.51132532  1
  Gd3+  Gd5  1  0.75320553  0.25212297  0.01949843  1
  Gd3+  Gd6  1  0.49571677  0.73050842  -0.01792539  1
  Gd3+  Gd7  1  0.00515265  0.24987444  0.74448836  1
  Gd3+  Gd8  1  0.24009846  0.74806165  0.21553273  1
  Gd3+  Gd9  1  0.46576037  0.72591145  0.27011155  1
  Gd3+  Gd10  1  0.23457986  0.23793038  -0.00989223  1
  Gd3+  Gd11  1  0.23958978  0.24511137  0.23767665  1
  Gd3+  Gd12  1  0.78465862  0.73813353  0.26332541  1
  Gd3+  Gd13  1  0.73903044  0.24529360  0.26523204  1
  Gd3+  Gd14  1  0.21604944  0.75581783  -0.04451518  1
  Gd3+  Gd15  1  0.47454371  0.74430468  0.51055962  1
  Gd3+  Gd16  1  0.52782947  0.77452866  0.74011288  1
  Gd3+  Gd17  1  0.74939911  0.71754089  0.00992526  1
  Gd3+  Gd18  1  0.77998960  0.24473592  0.77635810  1
  Ta5+  Ta19  1  0.92183289  0.63961219  0.14100670  1
  Ta5+  Ta20  1  0.07734523  0.63475279  0.09250535  1
  Ta5+  Ta21  1  0.89261150  0.87085257  0.65893697  1
  Ta5+  Ta22  1  0.13702341  0.62215496  0.34459711  1
  Ta5+  Ta23  1  0.14916102  0.37477570  0.83762823  1
  Ta5+  Ta24  1  0.90012385  0.39272082  0.12439376  1
  Ta5+  Ta25  1  0.61406175  0.38485899  0.39546282  1
  Ta5+  Ta26  1  0.88831071  0.87233921  0.88711886  1
  Ta5+  Ta27  1  0.87958041  0.38400578  0.63775118  1
  Ta5+  Ta28  1  0.85609099  0.40404756  0.37580777  1
  Ta5+  Ta29  1  0.09537352  0.10954445  0.10056749  1
  Ta5+  Ta30  1  0.61716994  0.41461692  0.13125935  1
  Ta5+  Ta31  1  0.30566228  0.12786852  0.65176426  1
  Ta5+  Ta32  1  0.60885547  0.61534681  0.14810541  1
  Ta5+  Ta33  1  0.05425463  0.37849960  0.59003063  1
  Ta5+  Ta34  1  0.43128434  0.89146562  0.12842533  1
  Ta5+  Ta35  1  0.14399047  0.12001301  0.83901733  1
  Ta5+  Ta36  1  0.10916355  0.38489888  0.09682331  1
  Ta5+  Ta37  1  0.62209841  0.10910990  0.13363632  1
  Ta5+  Ta38  1  0.38105389  0.36846726  0.87199202  1
  Ta5+  Ta39  1  0.07473649  0.86048327  0.09825770  1
  Ta5+  Ta40  1  0.36498537  0.37364478  0.40227778  1
  Ta5+  Ta41  1  0.63968024  0.86179413  0.13653983  1
  Ta5+  Ta42  1  0.91648416  0.37375182  0.90732070  1
  Ta5+  Ta43  1  0.87442167  0.09405264  0.38432304  1
  Ta5+  Ta44  1  0.35372899  0.61273272  0.87090682  1
  Ta5+  Ta45  1  0.67833735  0.61921182  0.60797735  1
  Ta5+  Ta46  1  0.61334475  0.12605142  0.87798791  1
  Ta5+  Ta47  1  0.91655919  0.86363301  0.14189728  1
  Ta5+  Ta48  1  0.06620445  0.11819239  0.59052039  1
  Ta5+  Ta49  1  0.13067800  0.87912652  0.56806708  1
  Ta5+  Ta50  1  0.09934025  0.61420976  0.83506952  1
  Ta5+  Ta51  1  0.42075045  0.57870342  0.12460317  1
  Ta5+  Ta52  1  0.87251828  0.61826922  0.88561608  1
  Ta5+  Ta53  1  0.60352455  0.12096031  0.39576281  1
  Ta5+  Ta54  1  0.65651098  0.89854342  0.60795594  1
  Ta5+  Ta55  1  0.61738313  0.87809814  0.35700320  1
  Ta5+  Ta56  1  0.40691607  0.60737839  0.67077063  1
  Ta5+  Ta57  1  0.32473445  0.88209296  0.40395558  1
  Ta5+  Ta58  1  0.37127563  0.37423567  0.12555181  1
  Ta5+  Ta59  1  0.68236075  0.12090638  0.63667382  1
  Ta5+  Ta60  1  0.89560032  0.11250885  0.63913692  1
  Ta5+  Ta61  1  0.09712395  0.38087881  0.33176500  1
  Ta5+  Ta62  1  0.91561907  0.11912354  0.90829774  1
  Ta5+  Ta63  1  0.37078090  0.89262735  0.64330988  1
  Ta5+  Ta64  1  0.10826812  0.87829401  0.83047762  1
  Ta5+  Ta65  1  0.31575676  0.61241997  0.42818198  1
  Ta5+  Ta66  1  0.10497978  0.11583952  0.34001367  1
  Ta5+  Ta67  1  0.90511743  0.63012009  0.67360428  1
  Ta5+  Ta68  1  0.70155403  0.37956914  0.64107632  1
  Ta5+  Ta69  1  0.37644665  0.11730321  0.87055393  1
  Ta5+  Ta70  1  0.88058297  0.11121598  0.12377930  1
  Ta5+  Ta71  1  0.61447428  0.37959389  0.87226058  1
  Ta5+  Ta72  1  0.63600040  0.62554139  0.40296746  1
  Ta5+  Ta73  1  0.12668703  0.87052515  0.34956721  1
  Ta5+  Ta74  1  0.65659733  0.88934914  0.87835831  1
  W6+  W75  1  0.91667496  0.85000645  0.40441231  1
  W6+  W76  1  0.08818859  0.62357683  0.55812478  1
  W6+  W77  1  0.34822842  0.12622672  0.39227848  1
  W6+  W78  1  0.37788845  0.12892019  0.12448828  1
  W6+  W79  1  0.36884771  0.87976949  0.88779021  1
  W6+  W80  1  0.32413256  0.37181819  0.66426993  1
  W6+  W81  1  0.91004314  0.64520850  0.41299553  1
  W6+  W82  1  0.61731600  0.62846200  0.85607026  1
  O2-  O83  1  0.09153238  -0.01178511  0.10129471  1
  O2-  O84  1  0.10868193  -0.00398870  0.33948581  1
  O2-  O85  1  0.10108506  -0.00267709  0.57917684  1
  O2-  O86  1  0.12333847  -0.00213873  0.83847482  1
  O2-  O87  1  0.09979452  0.50499889  0.09447495  1
  O2-  O88  1  0.12797862  0.49644487  0.33190108  1
  O2-  O89  1  0.06289558  0.49439331  0.57102094  1
  O2-  O90  1  0.11883336  0.49428645  0.84570366  1
  O2-  O91  1  0.43082496  0.00551764  0.15054949  1
  O2-  O92  1  0.36821227  -0.01169861  0.38072626  1
  O2-  O93  1  0.36450092  0.01206534  0.65249468  1
  O2-  O94  1  0.41325562  0.00489093  0.88299210  1
  O2-  O95  1  0.33767716  0.49080967  0.14248240  1
  O2-  O96  1  0.35052940  0.49590982  0.39871031  1
  O2-  O97  1  0.39529486  0.49179198  0.66913366  1
  O2-  O98  1  0.37957612  0.49534757  0.86505994  1
  O2-  O99  1  0.62665476  -0.00934528  0.13250721  1
  O2-  O100  1  0.59051151  -0.00526508  0.36881856  1
  O2-  O101  1  0.61727288  0.01075489  0.61931163  1
  O2-  O102  1  0.61522560  0.00069695  0.90291837  1
  O2-  O103  1  0.68832852  0.50898657  0.15195651  1
  O2-  O104  1  0.59789723  0.50851714  0.39623237  1
  O2-  O105  1  0.68125659  0.50412392  0.63424991  1
  O2-  O106  1  0.60591695  0.49538445  0.86482844  1
  O2-  O107  1  0.88674458  -0.00830487  0.13970962  1
  O2-  O108  1  0.89879278  -0.01981822  0.38625113  1
  O2-  O109  1  0.90952940  -0.00971310  0.67883447  1
  O2-  O110  1  0.91102560  0.00242496  0.89176186  1
  O2-  O111  1  0.90233921  0.50987219  0.14027673  1
  O2-  O112  1  0.87229612  0.51908652  0.37978741  1
  O2-  O113  1  0.88889681  0.50920644  0.66967002  1
  O2-  O114  1  0.89727504  0.49088209  0.89129571  1
  O2-  O115  1  0.12714204  0.24527520  0.10044200  1
  O2-  O116  1  0.10600517  0.25013776  0.31085219  1
  O2-  O117  1  0.06840773  0.24752628  0.58451910  1
  O2-  O118  1  0.17371844  0.24521751  0.84694710  1
  O2-  O119  1  0.15253074  0.74821690  0.09032472  1
  O2-  O120  1  0.15645358  0.74752161  0.36154297  1
  O2-  O121  1  0.13788809  0.75200072  0.56936440  1
  O2-  O122  1  0.12114448  0.74231854  0.82983759  1
  O2-  O123  1  0.32320580  0.25720155  0.11126669  1
  O2-  O124  1  0.29499966  0.26495192  0.38467318  1
  O2-  O125  1  0.26784624  0.24482054  0.66144367  1
  O2-  O126  1  0.35529017  0.24755948  0.88389808  1
  O2-  O127  1  0.50650790  0.69342335  0.12387351  1
  O2-  O128  1  0.36421135  0.74712968  0.39822403  1
  O2-  O129  1  0.40876576  0.74841202  0.64767897  1
  O2-  O130  1  0.36270092  0.74150841  0.89869622  1
  O2-  O131  1  0.69785432  0.31902422  0.14393425  1
  O2-  O132  1  0.62443606  0.25487235  0.37087058  1
  O2-  O133  1  0.68915038  0.24641014  0.64676590  1
  O2-  O134  1  0.66879293  0.24538288  0.88238418  1
  O2-  O135  1  0.67117508  0.73661784  0.14212592  1
  O2-  O136  1  0.57318296  0.75093602  0.38051154  1
  O2-  O137  1  0.56622357  0.81672497  0.60271946  1
  O2-  O138  1  0.59843301  0.77349743  0.87966823  1
  O2-  O139  1  0.87979088  0.24538630  0.12579667  1
  O2-  O140  1  0.84300333  0.24638844  0.37730577  1
  O2-  O141  1  0.88001752  0.24608075  0.63214470  1
  O2-  O142  1  0.86676435  0.25044144  0.91454878  1
  O2-  O143  1  0.84754509  0.74959997  0.12280651  1
  O2-  O144  1  0.83170188  0.74879390  0.40555616  1
  O2-  O145  1  0.92072773  0.75787928  0.69762173  1
  O2-  O146  1  0.86042171  0.75036122  0.88270612  1
  O2-  O147  1  0.15431567  0.11566852  -0.01661531  1
  O2-  O148  1  0.16568284  0.11626472  0.21577658  1
  O2-  O149  1  0.13281219  0.13843224  0.46252316  1
  O2-  O150  1  0.10324011  0.12851582  0.71550860  1
  O2-  O151  1  0.07316361  0.63883901  -0.03932618  1
  O2-  O152  1  0.11529494  0.64460217  0.22244472  1
  O2-  O153  1  0.04083867  0.62111982  0.42289074  1
  O2-  O154  1  0.12178284  0.62342865  0.70475300  1
  O2-  O155  1  0.33706400  0.11820174  -0.01155511  1
  O2-  O156  1  0.37167838  0.16428419  0.25864587  1
  O2-  O157  1  0.30876476  0.13201811  0.52641137  1
  O2-  O158  1  0.27417100  0.10456178  0.79217323  1
  O2-  O159  1  0.40840534  0.60822645  -0.00286432  1
  O2-  O160  1  0.34772111  0.66559773  0.16606913  1
  O2-  O161  1  0.38953482  0.62011203  0.53774942  1
  O2-  O162  1  0.46818958  0.63639905  0.79682642  1
  O2-  O163  1  0.51781733  0.17391756  0.14321644  1
  O2-  O164  1  0.63356453  0.13065488  0.26571751  1
  O2-  O165  1  0.67154472  0.13074241  0.49897086  1
  O2-  O166  1  0.67990533  0.10941803  0.77327348  1
  O2-  O167  1  0.62078056  0.64020812  0.00778736  1
  O2-  O168  1  0.66023628  0.63704331  0.27611471  1
  O2-  O169  1  0.57829280  0.64145079  0.52651823  1
  O2-  O170  1  0.62260804  0.66060656  0.71349630  1
  O2-  O171  1  0.82263213  0.11565915  0.00205966  1
  O2-  O172  1  0.84665619  0.12648325  0.25845619  1
  O2-  O173  1  0.85818247  0.11357541  0.50998699  1
  O2-  O174  1  0.88655967  0.14273905  0.77727759  1
  O2-  O175  1  0.87768660  0.62866116  0.00965117  1
  O2-  O176  1  0.90971820  0.65222445  0.26811010  1
  O2-  O177  1  0.94803806  0.64336843  0.55821037  1
  O2-  O178  1  0.97227524  0.62101951  0.79888154  1
  O2-  O179  1  0.16857974  0.37280856  -0.01931663  1
  O2-  O180  1  0.17598395  0.37710941  0.21184336  1
  O2-  O181  1  0.11948988  0.36093521  0.45687920  1
  O2-  O182  1  0.10150611  0.36723533  0.71450682  1
  O2-  O183  1  0.09708743  0.85781433  -0.03961369  1
  O2-  O184  1  0.09335329  0.84670701  0.22837373  1
  O2-  O185  1  0.05422971  0.87115815  0.45545314  1
  O2-  O186  1  0.10927076  0.86426340  0.69816537  1
  O2-  O187  1  0.39873997  0.37783359  0.00068385  1
  O2-  O188  1  0.37765569  0.35326878  0.25953536  1
  O2-  O189  1  0.33689235  0.36046499  0.52226475  1
  O2-  O190  1  0.27187049  0.38314969  0.80394169  1
  O2-  O191  1  0.35544087  0.86837885  0.03267745  1
  O2-  O192  1  0.37525114  0.82619243  0.21575618  1
  O2-  O193  1  0.40203456  0.87605016  0.51894124  1
  O2-  O194  1  0.42263964  0.87727006  0.75755178  1
  O2-  O195  1  0.62496076  0.37131147  0.00125211  1
  O2-  O196  1  0.57337315  0.38259676  0.24577271  1
  O2-  O197  1  0.65650769  0.36910218  0.51239851  1
  O2-  O198  1  0.70006074  0.37553807  0.77933992  1
  O2-  O199  1  0.69049854  0.85671284  0.00846637  1
  O2-  O200  1  0.70071002  0.86667219  0.26125510  1
  O2-  O201  1  0.66507932  0.88120347  0.47887241  1
  O2-  O202  1  0.62626891  0.88683146  0.75250603  1
  O2-  O203  1  0.82775321  0.38242108  0.01690964  1
  O2-  O204  1  0.85102490  0.36547567  0.24185698  1
  O2-  O205  1  0.85384572  0.38031947  0.50129211  1
  O2-  O206  1  0.88825892  0.34906425  0.77661050  1
  O2-  O207  1  0.90402114  0.86803013  0.00834904  1
  O2-  O208  1  0.90167249  0.84108428  0.26616509  1
  O2-  O209  1  0.91103598  0.86316401  0.54165243  1
  O2-  O210  1  0.98171152  0.87156615  0.80746773  1
  O2-  O211  1  -0.02031752  0.12069634  0.03014081  1
  O2-  O212  1  0.00014032  0.12679064  0.19028686  1
  O2-  O213  1  -0.01223683  0.14416397  0.37418357  1
  O2-  O214  1  0.02700634  0.15773604  0.86790423  1
  O2-  O215  1  -0.00999173  0.37165361  0.03092011  1
  O2-  O216  1  0.01557907  0.36903643  0.19475682  1
  O2-  O217  1  -0.02242174  0.37035229  0.36231063  1
  O2-  O218  1  0.02820732  0.34011840  0.86832406  1
  O2-  O219  1  0.23691522  -0.14448074  -0.15952380  1
  O2-  O220  1  0.24802008  -0.12456438  0.30069642  1
  O2-  O221  1  0.21859282  -0.10588026  0.46604859  1
  O2-  O222  1  0.25505866  -0.13022108  0.63024781  1
  O2-  O223  1  0.23135007  0.62083810  -0.11016789  1
  O2-  O224  1  0.26451020  0.62746012  0.31157455  1
  O2-  O225  1  0.20945846  0.60400231  0.48089591  1
  O2-  O226  1  0.30927616  0.63450847  0.74128774  1
  O2-  O227  1  0.53066391  -0.14416889  0.05817969  1
  O2-  O228  1  0.54074585  -0.14279286  0.23114275  1
  O2-  O229  1  0.48762372  0.15227487  0.39044043  1
  O2-  O230  1  0.50090508  0.15092698  0.85046084  1
  O2-  O231  1  0.53371574  0.50770857  0.09237793  1
  O2-  O232  1  0.50028617  0.58320419  0.23377908  1
  O2-  O233  1  0.48579082  0.35688554  0.40573748  1
  O2-  O234  1  0.50214775  0.34558643  0.84351301  1
  O2-  O235  1  0.62987677  0.14071280  0.00691614  1
  O2-  O236  1  0.73985409  0.14812265  0.13789385  1
  O2-  O237  1  0.76851789  -0.13006633  0.65049670  1
  O2-  O238  1  0.77214094  -0.09333562  0.85273697  1
  O2-  O239  1  0.75158182  0.61789035  -0.12121031  1
  O2-  O240  1  0.73059775  0.38928558  0.35039563  1
  O2-  O241  1  0.73051257  0.61284917  0.47931755  1
  O2-  O242  1  0.78780502  0.65813509  0.65081375  1
