# generated using pymatgen
data_Gd19Ta56(WO20)8
_symmetry_space_group_name_H-M   'P 1'
_cell_length_a   15.51867702
_cell_length_b   15.44939012
_cell_length_c   15.37049234
_cell_angle_alpha   89.99513882
_cell_angle_beta   90.13311994
_cell_angle_gamma   90.04383334
_symmetry_Int_Tables_number   1
_chemical_formula_structural   Gd19Ta56(WO20)8
_chemical_formula_sum   'Gd19 Ta56 W8 O160'
_cell_volume   3685.12744808
_cell_formula_units_Z   1
loop_
 _symmetry_equiv_pos_site_id
 _symmetry_equiv_pos_as_xyz
  1  'x, y, z'
loop_
 _atom_type_symbol
 _atom_type_oxidation_number
  Gd3+  3.0
  Ta5+  5.0
  W6+  6.0
  O2-  -2.0
loop_
 _atom_site_type_symbol
 _atom_site_label
 _atom_site_symmetry_multiplicity
 _atom_site_fract_x
 _atom_site_fract_y
 _atom_site_fract_z
 _atom_site_occupancy
  Gd3+  Gd0  1  0.26981335  0.75611824  -0.01566071  1
  Gd3+  Gd1  1  0.25791385  0.25559884  0.50381561  1
  Gd3+  Gd2  1  0.26302416  0.74569943  0.52771750  1
  Gd3+  Gd3  1  0.01164429  0.24970348  0.49930575  1
  Gd3+  Gd4  1  0.73731343  0.74458465  0.00403842  1
  Gd3+  Gd5  1  -0.02272765  0.72651016  0.49593573  1
  Gd3+  Gd6  1  0.52022271  0.25662638  0.50733868  1
  Gd3+  Gd7  1  0.02545744  0.21101219  0.74775300  1
  Gd3+  Gd8  1  0.73865863  0.24789366  0.24899886  1
  Gd3+  Gd9  1  0.50026701  0.76325087  0.01542881  1
  Gd3+  Gd10  1  0.72846278  0.24251920  0.75629287  1
  Gd3+  Gd11  1  0.76078209  0.26150393  0.50963598  1
  Gd3+  Gd12  1  -0.01548906  0.75330900  0.24250182  1
  Gd3+  Gd13  1  0.48001546  0.75429033  0.78593300  1
  Gd3+  Gd14  1  0.04376296  0.22818622  0.00364035  1
  Gd3+  Gd15  1  0.74126270  0.75843343  0.52049340  1
  Gd3+  Gd16  1  0.73895564  0.75972395  0.23003762  1
  Gd3+  Gd17  1  -0.00334963  0.76188112  -0.00508223  1
  Gd3+  Gd18  1  0.25853648  0.26860635  0.74579631  1
  Ta5+  Ta19  1  0.39164048  0.38374736  0.62334276  1
  Ta5+  Ta20  1  0.12231631  0.88731755  0.12651662  1
  Ta5+  Ta21  1  0.41967122  0.62997780  0.62451708  1
  Ta5+  Ta22  1  0.12695732  0.88170080  0.86111956  1
  Ta5+  Ta23  1  0.62967644  0.11477632  0.37499784  1
  Ta5+  Ta24  1  0.40244090  0.14659048  0.87675913  1
  Ta5+  Ta25  1  0.11815787  0.37481367  0.36012237  1
  Ta5+  Ta26  1  0.85198853  0.87707724  0.86306073  1
  Ta5+  Ta27  1  0.18260935  0.12670207  0.12809658  1
  Ta5+  Ta28  1  0.87165741  0.89492914  0.11130115  1
  Ta5+  Ta29  1  0.87974463  0.37368349  0.37245514  1
  Ta5+  Ta30  1  0.86817878  0.61125249  0.88630458  1
  Ta5+  Ta31  1  0.59953527  0.86918936  0.37410160  1
  Ta5+  Ta32  1  0.38753186  0.13020143  0.36688821  1
  Ta5+  Ta33  1  0.58660909  0.36366569  0.12415913  1
  Ta5+  Ta34  1  0.92142793  0.36846590  0.87324157  1
  Ta5+  Ta35  1  0.15065416  0.42791980  0.61499776  1
  Ta5+  Ta36  1  0.09008834  0.38622741  0.85561005  1
  Ta5+  Ta37  1  0.41324449  0.13675004  0.11780997  1
  Ta5+  Ta38  1  0.63392535  0.39412042  0.63074033  1
  Ta5+  Ta39  1  0.41641393  0.36627073  0.12075948  1
  Ta5+  Ta40  1  0.63411213  0.38832077  0.37219126  1
  Ta5+  Ta41  1  0.37138561  0.61484290  0.12608093  1
  Ta5+  Ta42  1  0.86753972  0.60484295  0.10429579  1
  Ta5+  Ta43  1  0.36378889  0.94573333  0.87253543  1
  Ta5+  Ta44  1  0.58812391  0.64040633  0.62574073  1
  Ta5+  Ta45  1  0.38969849  0.37434539  0.36188996  1
  Ta5+  Ta46  1  0.17229986  0.10781208  0.87303699  1
  Ta5+  Ta47  1  0.92069526  0.86881210  0.63381138  1
  Ta5+  Ta48  1  0.86743624  0.14474786  0.10675984  1
  Ta5+  Ta49  1  0.58291214  0.14298114  0.12361113  1
  Ta5+  Ta50  1  0.60549415  0.63498360  0.38005154  1
  Ta5+  Ta51  1  0.12530152  0.61498551  0.36946672  1
  Ta5+  Ta52  1  0.61552569  0.89791532  0.11974065  1
  Ta5+  Ta53  1  0.11217894  0.86869316  0.37968846  1
  Ta5+  Ta54  1  0.57119654  0.12345370  0.87582139  1
  Ta5+  Ta55  1  0.64805286  0.88883570  0.86522201  1
  Ta5+  Ta56  1  0.89444190  0.35429069  0.11926981  1
  Ta5+  Ta57  1  0.38291072  0.11424251  0.62530570  1
  Ta5+  Ta58  1  0.87533735  0.11239607  0.62673426  1
  Ta5+  Ta59  1  0.57968044  0.86330429  0.62472017  1
  Ta5+  Ta60  1  0.12517072  0.11844098  0.36522777  1
  Ta5+  Ta61  1  0.41230120  0.87081737  0.62961466  1
  Ta5+  Ta62  1  0.14280257  0.09903744  0.61818983  1
  Ta5+  Ta63  1  0.87921129  0.12287117  0.88490979  1
  Ta5+  Ta64  1  0.41809432  0.36814346  0.87427748  1
  Ta5+  Ta65  1  0.62834330  0.61108626  0.86935099  1
  Ta5+  Ta66  1  0.10468210  0.61371544  0.62313123  1
  Ta5+  Ta67  1  0.36345193  0.62488875  0.37503646  1
  Ta5+  Ta68  1  0.36678979  0.88875365  0.13339807  1
  Ta5+  Ta69  1  0.62678511  0.10655822  0.62755563  1
  Ta5+  Ta70  1  0.13303197  0.62753165  0.12365834  1
  Ta5+  Ta71  1  0.61512656  0.61249652  0.12898502  1
  Ta5+  Ta72  1  0.87489545  0.11848822  0.36290718  1
  Ta5+  Ta73  1  0.86313358  0.61998728  0.64228689  1
  Ta5+  Ta74  1  0.08753226  0.86743874  0.61650863  1
  W6+  W75  1  0.88126602  0.87784645  0.37968202  1
  W6+  W76  1  0.12083330  0.63344246  0.86553518  1
  W6+  W77  1  0.86106148  0.61578128  0.36918190  1
  W6+  W78  1  0.88011979  0.37391465  0.65461891  1
  W6+  W79  1  0.35192131  0.60277815  0.87215763  1
  W6+  W80  1  0.13935591  0.37911082  0.11116959  1
  W6+  W81  1  0.58248739  0.36199908  0.87467782  1
  W6+  W82  1  0.35055254  0.87840038  0.38324026  1
  O2-  O83  1  0.13854963  0.00775317  0.12985893  1
  O2-  O84  1  0.11590490  -0.00232286  0.37527625  1
  O2-  O85  1  0.09187601  -0.00702682  0.58961246  1
  O2-  O86  1  0.10517536  0.00197405  0.88588599  1
  O2-  O87  1  0.11358835  0.51239326  0.10431090  1
  O2-  O88  1  0.09460458  0.49793385  0.38756929  1
  O2-  O89  1  0.05247494  0.50099725  0.59056408  1
  O2-  O90  1  0.10231471  0.50226848  0.87087671  1
  O2-  O91  1  0.37428174  0.00951566  0.12219323  1
  O2-  O92  1  0.36009693  0.01506742  0.37669820  1
  O2-  O93  1  0.41875553  -0.00234070  0.62619900  1
  O2-  O94  1  0.46297337  0.02407964  0.86917965  1
  O2-  O95  1  0.39066960  0.49616332  0.12037146  1
  O2-  O96  1  0.37530766  0.49341610  0.38838667  1
  O2-  O97  1  0.41675245  0.50041573  0.61124057  1
  O2-  O98  1  0.40271319  0.48950958  0.87305795  1
  O2-  O99  1  0.61143327  0.01599009  0.13553881  1
  O2-  O100  1  0.60069383  -0.00608484  0.37601625  1
  O2-  O101  1  0.60662804  -0.01232178  0.61920270  1
  O2-  O102  1  0.63415413  0.00741342  0.87103770  1
  O2-  O103  1  0.60213270  0.49391396  0.13698137  1
  O2-  O104  1  0.61978392  0.51196605  0.37356261  1
  O2-  O105  1  0.61242047  0.51256941  0.63062621  1
  O2-  O106  1  0.59005378  0.49989986  0.86659959  1
  O2-  O107  1  0.86005112  0.01529473  0.11070638  1
  O2-  O108  1  0.75221183  0.09530412  0.36230260  1
  O2-  O109  1  0.90182146  -0.00508671  0.62571664  1
  O2-  O110  1  0.86192550  0.00230431  0.87922002  1
  O2-  O111  1  0.87852394  0.48483058  0.11719974  1
  O2-  O112  1  0.75600356  0.39059920  0.39993186  1
  O2-  O113  1  0.88536985  0.50399892  0.63762952  1
  O2-  O114  1  0.89621469  0.49209564  0.88225016  1
  O2-  O115  1  0.13774722  0.23978470  0.12401298  1
  O2-  O116  1  0.15459587  0.25519921  0.38037751  1
  O2-  O117  1  0.15725200  0.23060913  0.63217183  1
  O2-  O118  1  0.13594819  0.23536472  0.85007599  1
  O2-  O119  1  0.07395713  0.74628080  0.12595799  1
  O2-  O120  1  0.07180069  0.74232287  0.37321416  1
  O2-  O121  1  0.08027102  0.73921443  0.61174988  1
  O2-  O122  1  0.07259497  0.76868492  0.86664437  1
  O2-  O123  1  0.37051536  0.25181161  0.12877474  1
  O2-  O124  1  0.33577378  0.25244758  0.36830515  1
  O2-  O125  1  0.34689783  0.24793871  0.62915507  1
  O2-  O126  1  0.34133444  0.26067847  0.86815821  1
  O2-  O127  1  0.37298835  0.75672778  0.09465481  1
  O2-  O128  1  0.32073260  0.74383195  0.38962192  1
  O2-  O129  1  0.36522300  0.74978274  0.64269035  1
  O2-  O130  1  0.40791589  0.72563841  0.90523718  1
  O2-  O131  1  0.64987589  0.25140701  0.12322023  1
  O2-  O132  1  0.65745678  0.25184574  0.38557745  1
  O2-  O133  1  0.65621770  0.24634335  0.62196122  1
  O2-  O134  1  0.62815278  0.23268991  0.87200653  1
  O2-  O135  1  0.63054647  0.75396262  0.11001261  1
  O2-  O136  1  0.67491564  0.75238627  0.37231993  1
  O2-  O137  1  0.65174277  0.75363615  0.63861500  1
  O2-  O138  1  0.61576324  0.75435168  0.88923078  1
  O2-  O139  1  0.95355041  0.24079574  0.12765966  1
  O2-  O140  1  0.84204031  0.24572066  0.37718734  1
  O2-  O141  1  0.84667598  0.24158946  0.63964181  1
  O2-  O142  1  0.95194370  0.23111620  0.88086719  1
  O2-  O143  1  0.86617772  0.75009341  0.09562760  1
  O2-  O144  1  0.88964786  0.74461312  0.37413839  1
  O2-  O145  1  0.90116856  0.74171372  0.63178451  1
  O2-  O146  1  0.86395298  0.74747060  0.90033941  1
  O2-  O147  1  0.17896460  0.12589856  -0.00220756  1
  O2-  O148  1  0.18838160  0.12548140  0.26042569  1
  O2-  O149  1  0.15732728  0.13320245  0.48833090  1
  O2-  O150  1  0.12958808  0.09805502  0.74522628  1
  O2-  O151  1  0.24660510  0.64037485  0.15688620  1
  O2-  O152  1  0.08551609  0.63001187  0.24716102  1
  O2-  O153  1  0.14261984  0.64440065  0.49235929  1
  O2-  O154  1  0.08421169  0.61766964  0.74082451  1
  O2-  O155  1  0.38175019  0.13504247  -0.00369731  1
  O2-  O156  1  0.41707157  0.13237397  0.24942988  1
  O2-  O157  1  0.36028514  0.14551478  0.49905340  1
  O2-  O158  1  0.38091228  0.13450630  0.74739411  1
  O2-  O159  1  0.32641744  0.61577718  0.00625763  1
  O2-  O160  1  0.38791069  0.62967974  0.25313019  1
  O2-  O161  1  0.35532191  0.63121492  0.50956998  1
  O2-  O162  1  0.40287101  0.62674721  0.74816136  1
  O2-  O163  1  0.57856406  0.12759374  0.00076146  1
  O2-  O164  1  0.62005602  0.14679739  0.25487265  1
  O2-  O165  1  0.65124809  0.13101996  0.50129132  1
  O2-  O166  1  0.60415102  0.12621019  0.74726762  1
  O2-  O167  1  0.62170306  0.62570467  -0.00282448  1
  O2-  O168  1  0.61011394  0.64866659  0.25179493  1
  O2-  O169  1  0.63788811  0.64677598  0.50181151  1
  O2-  O170  1  0.58134142  0.64646377  0.75799630  1
  O2-  O171  1  0.82258574  0.15795740  -0.00765710  1
  O2-  O172  1  0.86321015  0.14508964  0.23917990  1
  O2-  O173  1  0.86820051  0.13449171  0.50000473  1
  O2-  O174  1  0.90363143  0.12448415  0.75569748  1
  O2-  O175  1  0.95257179  0.62018967  0.00605152  1
  O2-  O176  1  0.89503808  0.63570238  0.22661932  1
  O2-  O177  1  0.83868290  0.63723346  0.51039719  1
  O2-  O178  1  0.88940072  0.63130957  0.76633737  1
  O2-  O179  1  0.11142298  0.35444509  -0.02427524  1
  O2-  O180  1  0.15462467  0.38892233  0.24919106  1
  O2-  O181  1  0.11656337  0.35990212  0.50734737  1
  O2-  O182  1  0.15820044  0.38223481  0.73196034  1
  O2-  O183  1  0.10704309  0.86742903  0.00007873  1
  O2-  O184  1  0.12994161  0.85808744  0.25162835  1
  O2-  O185  1  0.15306509  0.84957331  0.49567435  1
  O2-  O186  1  0.12064481  0.88639749  0.73937035  1
  O2-  O187  1  0.40773574  0.36068541  -0.00443982  1
  O2-  O188  1  0.37062535  0.37981620  0.24392922  1
  O2-  O189  1  0.39996806  0.34219718  0.49586754  1
  O2-  O190  1  0.36453366  0.37527369  0.74529883  1
  O2-  O191  1  0.38879418  0.89180149  -0.02071280  1
  O2-  O192  1  0.34921216  0.87716292  0.24927528  1
  O2-  O193  1  0.35540722  0.86618695  0.51693731  1
  O2-  O194  1  0.39320054  0.88312454  0.76927710  1
  O2-  O195  1  0.58768138  0.36602162  0.00473618  1
  O2-  O196  1  0.64667360  0.36656695  0.24961089  1
  O2-  O197  1  0.61178883  0.37307738  0.50045527  1
  O2-  O198  1  0.64518998  0.36572247  0.75115632  1
  O2-  O199  1  0.59151515  0.88558341  -0.00507371  1
  O2-  O200  1  0.63655652  0.86634397  0.24986725  1
  O2-  O201  1  0.62581831  0.85526158  0.49797047  1
  O2-  O202  1  0.57842401  0.86705927  0.75845289  1
  O2-  O203  1  0.91451121  0.34898131  -0.00377196  1
  O2-  O204  1  0.85620529  0.35280184  0.24597386  1
  O2-  O205  1  0.90416415  0.34732602  0.50268698  1
  O2-  O206  1  0.83103489  0.34527063  0.78168157  1
  O2-  O207  1  0.91107812  0.88348436  -0.00940221  1
  O2-  O208  1  0.85959287  0.85231809  0.23823083  1
  O2-  O209  1  0.86363736  0.85593447  0.51397007  1
  O2-  O210  1  0.92557536  0.86829906  0.76507765  1
  O2-  O211  1  -0.00639044  -0.11114204  0.14402679  1
  O2-  O212  1  -0.08928372  0.00432724  0.36182691  1
  O2-  O213  1  0.00636562  0.15568495  0.37861464  1
  O2-  O214  1  0.00616293  0.15054676  0.61027775  1
  O2-  O215  1  0.14349782  0.66584784  0.00167515  1
  O2-  O216  1  -0.10029877  0.49127420  0.36976664  1
  O2-  O217  1  0.00215895  0.33767440  0.35640816  1
  O2-  O218  1  -0.00511744  0.35764399  0.75574140  1
  O2-  O219  1  0.28482702  0.04631956  -0.13195081  1
  O2-  O220  1  0.24383936  -0.13688234  0.10009004  1
  O2-  O221  1  0.26049789  0.07513883  0.62575411  1
  O2-  O222  1  0.24805740  -0.12669771  0.87913392  1
  O2-  O223  1  0.24459988  0.67931854  -0.14356437  1
  O2-  O224  1  0.24012183  0.59792658  0.34858912  1
  O2-  O225  1  0.26624351  0.38604850  0.58316302  1
  O2-  O226  1  0.20832965  0.53714242  0.62657652  1
  O2-  O227  1  0.49454015  -0.13244452  0.13395143  1
  O2-  O228  1  0.48751847  -0.15810670  0.36995653  1
  O2-  O229  1  0.50532682  0.14962124  0.40170255  1
  O2-  O230  1  0.50533684  0.14652405  0.60226526  1
  O2-  O231  1  0.49406954  0.64206495  0.10579784  1
  O2-  O232  1  0.48930285  0.64681331  0.39479992  1
  O2-  O233  1  0.50893088  0.35275699  0.36180947  1
  O2-  O234  1  0.51019200  0.34577197  0.63232449  1
  O2-  O235  1  0.74819940  -0.12465546  -0.05437911  1
  O2-  O236  1  0.74377144  -0.12699940  0.11541697  1
  O2-  O237  1  0.75315240  0.09892616  0.65171870  1
  O2-  O238  1  0.75028727  -0.12369807  0.78837582  1
  O2-  O239  1  0.79410747  0.60766425  -0.00392298  1
  O2-  O240  1  0.74257764  0.62896692  0.14695318  1
  O2-  O241  1  0.75329882  0.38604519  0.59969931  1
  O2-  O242  1  0.74430815  0.60680170  0.84257069  1
