# generated using pymatgen
data_Gd19Ta56(WO20)8
_symmetry_space_group_name_H-M   'P 1'
_cell_length_a   15.51018007
_cell_length_b   15.38002838
_cell_length_c   15.34063369
_cell_angle_alpha   89.98050785
_cell_angle_beta   89.91256716
_cell_angle_gamma   89.84959141
_symmetry_Int_Tables_number   1
_chemical_formula_structural   Gd19Ta56(WO20)8
_chemical_formula_sum   'Gd19 Ta56 W8 O160'
_cell_volume   3659.44521745
_cell_formula_units_Z   1
loop_
 _symmetry_equiv_pos_site_id
 _symmetry_equiv_pos_as_xyz
  1  'x, y, z'
loop_
 _atom_type_symbol
 _atom_type_oxidation_number
  Gd3+  3.0
  Ta5+  5.0
  W6+  6.0
  O2-  -2.0
loop_
 _atom_site_type_symbol
 _atom_site_label
 _atom_site_symmetry_multiplicity
 _atom_site_fract_x
 _atom_site_fract_y
 _atom_site_fract_z
 _atom_site_occupancy
  Gd3+  Gd0  1  0.00669754  0.26083764  0.51611398  1
  Gd3+  Gd1  1  0.50395988  0.22653673  0.24538495  1
  Gd3+  Gd2  1  0.46626403  0.26936046  0.46152320  1
  Gd3+  Gd3  1  0.77901804  0.24443001  0.72989074  1
  Gd3+  Gd4  1  0.49077911  0.73762440  -0.00823153  1
  Gd3+  Gd5  1  0.77645929  0.23088406  0.49849665  1
  Gd3+  Gd6  1  0.76008223  0.72999333  0.52041300  1
  Gd3+  Gd7  1  -0.01511147  0.24348032  0.27858053  1
  Gd3+  Gd8  1  0.01367520  0.76820839  0.25641669  1
  Gd3+  Gd9  1  0.45311123  0.74357562  0.47874262  1
  Gd3+  Gd10  1  0.26456858  0.27496327  0.25429538  1
  Gd3+  Gd11  1  0.75912619  0.74895641  0.24396188  1
  Gd3+  Gd12  1  -0.00350313  0.26395231  0.00317738  1
  Gd3+  Gd13  1  0.25531141  0.25571832  -0.00836166  1
  Gd3+  Gd14  1  0.76794648  0.74618609  0.74933718  1
  Gd3+  Gd15  1  0.03144507  0.76569131  0.51298044  1
  Gd3+  Gd16  1  0.25242931  0.76192721  -0.01076194  1
  Gd3+  Gd17  1  0.76401389  0.25300688  -0.01342013  1
  Gd3+  Gd18  1  0.74200552  0.76421202  -0.01073477  1
  Ta5+  Ta19  1  0.32916612  0.86843731  0.35628542  1
  Ta5+  Ta20  1  0.65466598  0.38686729  0.36905136  1
  Ta5+  Ta21  1  0.92025811  0.87396827  0.87326620  1
  Ta5+  Ta22  1  0.12954489  0.12294297  0.10978759  1
  Ta5+  Ta23  1  0.85600491  0.39868843  0.37771513  1
  Ta5+  Ta24  1  0.39965202  0.13656116  0.86651058  1
  Ta5+  Ta25  1  0.38694762  0.38816302  0.11781366  1
  Ta5+  Ta26  1  0.62047641  0.10490073  0.11114621  1
  Ta5+  Ta27  1  0.87262378  0.38770971  0.86519473  1
  Ta5+  Ta28  1  0.57970061  0.58111406  0.60469316  1
  Ta5+  Ta29  1  0.15289916  0.13081375  0.62807339  1
  Ta5+  Ta30  1  0.88788129  0.62970997  0.88502770  1
  Ta5+  Ta31  1  0.61442007  0.85372213  0.37993702  1
  Ta5+  Ta32  1  0.06917207  0.12193383  0.86371723  1
  Ta5+  Ta33  1  0.87887244  0.07736006  0.37395457  1
  Ta5+  Ta34  1  0.37417164  0.11675940  0.11954874  1
  Ta5+  Ta35  1  0.37360716  0.38366897  0.86326807  1
  Ta5+  Ta36  1  0.60517706  0.60263314  0.85499900  1
  Ta5+  Ta37  1  0.60925883  0.86733166  0.13061968  1
  Ta5+  Ta38  1  0.63220822  0.07025353  0.62180320  1
  Ta5+  Ta39  1  0.33684848  0.45472500  0.36256277  1
  Ta5+  Ta40  1  0.62067887  0.61036684  0.12637691  1
  Ta5+  Ta41  1  0.18762059  0.88034497  0.63225414  1
  Ta5+  Ta42  1  0.91036464  0.60934979  0.63207720  1
  Ta5+  Ta43  1  0.86064688  0.88323497  0.37890851  1
  Ta5+  Ta44  1  0.38651762  0.87936539  0.12958309  1
  Ta5+  Ta45  1  0.15768604  0.63813413  0.63024582  1
  Ta5+  Ta46  1  0.12060378  0.62865535  0.11918561  1
  Ta5+  Ta47  1  0.11823841  0.38004601  0.86479129  1
  Ta5+  Ta48  1  0.11489654  0.87685468  0.86561067  1
  Ta5+  Ta49  1  0.62722392  0.36653035  0.86199958  1
  Ta5+  Ta50  1  0.88867014  0.06321957  0.62420130  1
  Ta5+  Ta51  1  0.40226097  0.88548183  0.86297511  1
  Ta5+  Ta52  1  0.16330352  0.87525293  0.37551206  1
  Ta5+  Ta53  1  0.37612633  0.62957379  0.13253359  1
  Ta5+  Ta54  1  0.63083778  0.36251078  0.11972169  1
  Ta5+  Ta55  1  0.62144783  0.38235778  0.60792874  1
  Ta5+  Ta56  1  0.39159876  0.12817432  0.61513366  1
  Ta5+  Ta57  1  0.12907638  0.62311174  0.87577013  1
  Ta5+  Ta58  1  0.13076117  0.38657970  0.11917941  1
  Ta5+  Ta59  1  0.32296502  0.63709775  0.60863305  1
  Ta5+  Ta60  1  0.30677007  0.66154572  0.35172604  1
  Ta5+  Ta61  1  0.61630073  0.63064355  0.37590208  1
  Ta5+  Ta62  1  0.88764248  0.41975122  0.61616939  1
  Ta5+  Ta63  1  0.13366351  0.62214806  0.37732613  1
  Ta5+  Ta64  1  0.88084299  0.62816903  0.11906562  1
  Ta5+  Ta65  1  0.64927560  0.09438072  0.36832113  1
  Ta5+  Ta66  1  0.63454540  0.11161389  0.86466471  1
  Ta5+  Ta67  1  0.33066212  0.11323537  0.37958016  1
  Ta5+  Ta68  1  0.36091415  0.62953101  0.85786589  1
  Ta5+  Ta69  1  0.15751394  0.38538808  0.61882593  1
  Ta5+  Ta70  1  0.90763628  0.09957605  0.12994959  1
  Ta5+  Ta71  1  0.83971579  0.90870714  0.62895853  1
  Ta5+  Ta72  1  0.86878770  0.90535961  0.11395147  1
  Ta5+  Ta73  1  0.59443921  0.82575283  0.63131163  1
  Ta5+  Ta74  1  0.38881417  0.39950333  0.61395860  1
  W6+  W75  1  0.10267602  0.39723127  0.37437449  1
  W6+  W76  1  0.34929117  0.87638339  0.61544389  1
  W6+  W77  1  0.90569117  0.12551036  0.86724883  1
  W6+  W78  1  0.13977216  0.88487125  0.11598851  1
  W6+  W79  1  0.87997555  0.37829204  0.13979051  1
  W6+  W80  1  0.90206897  0.63726730  0.38208099  1
  W6+  W81  1  0.12796396  0.12232520  0.39951441  1
  W6+  W82  1  0.56884122  0.86457901  0.85157900  1
  O2-  O83  1  0.16826447  0.01123098  0.12619971  1
  O2-  O84  1  0.15163568  -0.00619033  0.38024279  1
  O2-  O85  1  0.16755351  0.00507529  0.62623549  1
  O2-  O86  1  0.09860783  0.00319319  0.86648000  1
  O2-  O87  1  0.14853180  0.50675340  0.13762956  1
  O2-  O88  1  0.05798465  0.52413206  0.37065204  1
  O2-  O89  1  0.16326122  0.50749500  0.62332270  1
  O2-  O90  1  0.15012831  0.49816036  0.88233234  1
  O2-  O91  1  0.35140957  0.00013341  0.10153156  1
  O2-  O92  1  0.35206113  -0.00517915  0.36042380  1
  O2-  O93  1  0.37025991  0.01242109  0.60955530  1
  O2-  O94  1  0.39208285  0.01531821  0.88495579  1
  O2-  O95  1  0.35360497  0.50737817  0.11547906  1
  O2-  O96  1  0.39666443  0.55917889  0.33710540  1
  O2-  O97  1  0.35124511  0.51690575  0.59532491  1
  O2-  O98  1  0.35634353  0.50346423  0.87953911  1
  O2-  O99  1  0.64424696  -0.01661817  0.10341765  1
  O2-  O100  1  0.60436854  -0.01807435  0.38215157  1
  O2-  O101  1  0.59240535  -0.04274524  0.63355343  1
  O2-  O102  1  0.62343108  -0.00514180  0.87433120  1
  O2-  O103  1  0.65358946  0.49226539  0.12403302  1
  O2-  O104  1  0.63602859  0.50441376  0.37107961  1
  O2-  O105  1  0.66436112  0.49467275  0.57849484  1
  O2-  O106  1  0.59381684  0.48671923  0.88972579  1
  O2-  O107  1  0.96531802  -0.01662977  0.10911807  1
  O2-  O108  1  0.94590864  -0.03193787  0.39481274  1
  O2-  O109  1  0.76386085  0.01590281  0.62402085  1
  O2-  O110  1  0.90893568  -0.00807250  0.87317322  1
  O2-  O111  1  0.84820775  0.51551707  0.13587328  1
  O2-  O112  1  0.84076773  0.51788503  0.36647544  1
  O2-  O113  1  0.81897868  0.52502683  0.61217940  1
  O2-  O114  1  0.87723739  0.50825356  0.89528570  1
  O2-  O115  1  0.12145838  0.25459823  0.08605946  1
  O2-  O116  1  0.08996179  0.26004634  0.39031205  1
  O2-  O117  1  0.11432370  0.26004476  0.62042240  1
  O2-  O118  1  0.12584569  0.24879488  0.89509271  1
  O2-  O119  1  0.12160153  0.75433270  0.10742931  1
  O2-  O120  1  0.10306684  0.75220090  0.37760149  1
  O2-  O121  1  0.12220732  0.76450956  0.63526313  1
  O2-  O122  1  0.15268404  0.74904945  0.88182303  1
  O2-  O123  1  0.39313471  0.25861369  0.14889370  1
  O2-  O124  1  0.37677110  0.23500152  0.34861065  1
  O2-  O125  1  0.42451715  0.27529106  0.59842378  1
  O2-  O126  1  0.33327772  0.25710728  0.86030981  1
  O2-  O127  1  0.42316308  0.75364231  0.12867907  1
  O2-  O128  1  0.39504703  0.75469319  0.33824287  1
  O2-  O129  1  0.38856452  0.74595801  0.61591213  1
  O2-  O130  1  0.35091697  0.76087708  0.87098167  1
  O2-  O131  1  0.60382548  0.23587342  0.13455717  1
  O2-  O132  1  0.56340728  0.18230609  0.37722305  1
  O2-  O133  1  0.68714757  0.27496562  0.61292012  1
  O2-  O134  1  0.67797612  0.24110317  0.85311385  1
  O2-  O135  1  0.66684601  0.74132359  0.12363048  1
  O2-  O136  1  0.67956628  0.73968656  0.39049055  1
  O2-  O137  1  0.63383931  0.69766650  0.60149922  1
  O2-  O138  1  0.71670188  0.65777831  0.86132502  1
  O2-  O139  1  0.92652760  0.24461232  0.13589956  1
  O2-  O140  1  0.89473435  0.27025031  0.40630593  1
  O2-  O141  1  0.87576916  0.28651404  0.60301589  1
  O2-  O142  1  0.85581899  0.25646921  0.86052309  1
  O2-  O143  1  0.83990728  0.76267526  0.11200994  1
  O2-  O144  1  0.93628179  0.77558738  0.38647834  1
  O2-  O145  1  0.85895504  0.72918413  0.63119809  1
  O2-  O146  1  0.85269679  0.75810233  0.87770270  1
  O2-  O147  1  0.07305636  0.11722872  -0.00043247  1
  O2-  O148  1  0.03209365  0.12373180  0.18384951  1
  O2-  O149  1  0.07415336  0.12572868  0.52924959  1
  O2-  O150  1  0.10667671  0.13454627  0.74265683  1
  O2-  O151  1  0.17652389  0.62740917  0.00364719  1
  O2-  O152  1  0.10367906  0.64437071  0.24474060  1
  O2-  O153  1  0.12485827  0.64216901  0.50267047  1
  O2-  O154  1  0.13188033  0.62598224  0.75502742  1
  O2-  O155  1  0.36405346  0.15768690  -0.00629934  1
  O2-  O156  1  0.40481611  0.11199615  0.24031063  1
  O2-  O157  1  0.41025854  0.13507148  0.48430288  1
  O2-  O158  1  0.40091883  0.13840391  0.74442445  1
  O2-  O159  1  0.36797856  0.64881153  0.00364364  1
  O2-  O160  1  0.29434933  0.65278279  0.21772790  1
  O2-  O161  1  0.32829271  0.65827224  0.47839235  1
  O2-  O162  1  0.33680208  0.62851759  0.74139244  1
  O2-  O163  1  0.67032518  0.13104594  -0.00539192  1
  O2-  O164  1  0.63363671  0.10269792  0.23900670  1
  O2-  O165  1  0.66493332  0.10684399  0.50614975  1
  O2-  O166  1  0.66654527  0.11619263  0.73797025  1
  O2-  O167  1  0.61069942  0.63778783  -0.00056782  1
  O2-  O168  1  0.65402752  0.63432029  0.24883224  1
  O2-  O169  1  0.54442972  0.61178436  0.48037326  1
  O2-  O170  1  0.59431256  0.58705096  0.73364224  1
  O2-  O171  1  0.87862834  0.14081488  0.01346308  1
  O2-  O172  1  0.87441485  0.12104109  0.24973626  1
  O2-  O173  1  0.86789176  0.10364911  0.49959710  1
  O2-  O174  1  0.87289260  0.12844347  0.72925837  1
  O2-  O175  1  0.82723199  0.63921432  0.00013581  1
  O2-  O176  1  0.88848394  0.66323569  0.24113418  1
  O2-  O177  1  0.94244240  0.63318079  0.51472416  1
  O2-  O178  1  0.87155691  0.62724498  0.76247434  1
  O2-  O179  1  0.07908180  0.39196007  0.00356368  1
  O2-  O180  1  0.10476166  0.34934279  0.23613880  1
  O2-  O181  1  0.09061922  0.38813840  0.51285608  1
  O2-  O182  1  0.15334710  0.37351763  0.74799274  1
  O2-  O183  1  0.17969427  0.88777453  -0.02025098  1
  O2-  O184  1  0.11573289  0.87003398  0.25086299  1
  O2-  O185  1  0.14733793  0.86338882  0.50440226  1
  O2-  O186  1  0.18315757  0.88053921  0.76145410  1
  O2-  O187  1  0.37005550  0.36134176  -0.00502407  1
  O2-  O188  1  0.37224775  0.39669065  0.25592204  1
  O2-  O189  1  0.39426730  0.40341883  0.45881170  1
  O2-  O190  1  0.38550861  0.39148487  0.73568257  1
  O2-  O191  1  0.38078039  0.85916090  0.00065222  1
  O2-  O192  1  0.31093288  0.86633675  0.22170779  1
  O2-  O193  1  0.35493732  0.85766910  0.47960206  1
  O2-  O194  1  0.37893786  0.88980944  0.74738025  1
  O2-  O195  1  0.62608707  0.34259583  -0.00320398  1
  O2-  O196  1  0.58993013  0.35118382  0.26616106  1
  O2-  O197  1  0.58892562  0.34990721  0.47631739  1
  O2-  O198  1  0.62069001  0.37877174  0.73668876  1
  O2-  O199  1  0.60084558  0.84159735  0.00457325  1
  O2-  O200  1  0.65233051  0.85760066  0.25181224  1
  O2-  O201  1  0.57550629  0.83773925  0.50003531  1
  O2-  O202  1  0.55521881  0.78684763  0.73799953  1
  O2-  O203  1  0.87899989  0.35532464  -0.00444266  1
  O2-  O204  1  0.92582983  0.38217623  0.27348874  1
  O2-  O205  1  0.91616300  0.41576850  0.49437943  1
  O2-  O206  1  0.84530750  0.38480597  0.73985819  1
  O2-  O207  1  0.83207271  0.88432158  -0.00471968  1
  O2-  O208  1  0.87952396  0.86582628  0.24145540  1
  O2-  O209  1  0.82935914  0.86398693  0.50207906  1
  O2-  O210  1  0.84181327  0.87342210  0.75107239  1
  O2-  O211  1  0.00888989  -0.14704281  -0.04538129  1
  O2-  O212  1  -0.00604554  0.12345648  0.36787074  1
  O2-  O213  1  -0.04175506  -0.03949292  0.60453406  1
  O2-  O214  1  0.01202973  -0.14831546  0.79226980  1
  O2-  O215  1  0.00668535  0.63683041  -0.09953394  1
  O2-  O216  1  -0.00109413  0.61903109  0.09100339  1
  O2-  O217  1  -0.02377842  0.49342522  0.65786937  1
  O2-  O218  1  -0.00402431  0.37512024  0.84872457  1
  O2-  O219  1  0.25274683  0.16519430  0.12367693  1
  O2-  O220  1  0.23010863  0.14254764  0.30350424  1
  O2-  O221  1  0.24565912  0.12040474  0.46641711  1
  O2-  O222  1  0.27083351  0.16461759  0.63165262  1
  O2-  O223  1  0.25213468  0.35547361  0.12009501  1
  O2-  O224  1  0.23760972  0.37409975  0.36006856  1
  O2-  O225  1  0.23746536  0.54331645  0.37238421  1
  O2-  O226  1  0.27082064  0.36011843  0.58902884  1
  O2-  O227  1  0.50229391  0.10346898  0.09263316  1
  O2-  O228  1  0.50032323  -0.09084179  0.16812904  1
  O2-  O229  1  0.52461485  0.12429227  0.61962210  1
  O2-  O230  1  0.51957177  0.15439180  0.88302530  1
  O2-  O231  1  0.50624385  0.39769787  0.11706504  1
  O2-  O232  1  0.50294497  0.60373911  0.14500536  1
  O2-  O233  1  0.50965501  0.45315254  0.60650664  1
  O2-  O234  1  0.48884462  0.64371028  0.87055288  1
  O2-  O235  1  0.81028414  0.01405443  0.13052310  1
  O2-  O236  1  0.76001446  0.15077058  0.37139418  1
  O2-  O237  1  0.78605411  -0.01386046  0.35399968  1
  O2-  O238  1  0.71962071  -0.16375742  0.62947518  1
  O2-  O239  1  0.75091290  0.33157563  0.11592434  1
  O2-  O240  1  0.75661744  0.36286418  0.30128155  1
  O2-  O241  1  0.75086595  0.37125950  0.46024206  1
  O2-  O242  1  0.74519597  0.39337333  0.88360062  1
