# generated using pymatgen
data_Gd19Ta56(WO20)8
_symmetry_space_group_name_H-M   'P 1'
_cell_length_a   15.53120554
_cell_length_b   15.46777657
_cell_length_c   15.28427558
_cell_angle_alpha   90.22122191
_cell_angle_beta   89.92849036
_cell_angle_gamma   89.96674699
_symmetry_Int_Tables_number   1
_chemical_formula_structural   Gd19Ta56(WO20)8
_chemical_formula_sum   'Gd19 Ta56 W8 O160'
_cell_volume   3671.75983620
_cell_formula_units_Z   1
loop_
 _symmetry_equiv_pos_site_id
 _symmetry_equiv_pos_as_xyz
  1  'x, y, z'
loop_
 _atom_type_symbol
 _atom_type_oxidation_number
  Gd3+  3.0
  Ta5+  5.0
  W6+  6.0
  O2-  -2.0
loop_
 _atom_site_type_symbol
 _atom_site_label
 _atom_site_symmetry_multiplicity
 _atom_site_fract_x
 _atom_site_fract_y
 _atom_site_fract_z
 _atom_site_occupancy
  Gd3+  Gd0  1  0.74756039  0.73093808  0.22562333  1
  Gd3+  Gd1  1  0.47951699  0.21098690  0.26124732  1
  Gd3+  Gd2  1  0.24410131  0.27299992  0.00426198  1
  Gd3+  Gd3  1  -0.01405852  0.24604828  0.76671848  1
  Gd3+  Gd4  1  0.01935693  0.74194724  0.50329572  1
  Gd3+  Gd5  1  0.74954976  0.75762656  0.48291277  1
  Gd3+  Gd6  1  -0.00437856  0.76341499  -0.00959948  1
  Gd3+  Gd7  1  0.24486509  0.71926538  0.00749550  1
  Gd3+  Gd8  1  0.25488949  0.26765552  0.74534247  1
  Gd3+  Gd9  1  0.48421712  0.25512433  0.74556230  1
  Gd3+  Gd10  1  0.47460680  0.22415362  0.50952250  1
  Gd3+  Gd11  1  0.25297940  0.75024723  0.27155161  1
  Gd3+  Gd12  1  0.22601406  0.25512006  0.24980176  1
  Gd3+  Gd13  1  0.00701609  0.26665200  0.01984717  1
  Gd3+  Gd14  1  0.50402598  0.76455934  0.48900107  1
  Gd3+  Gd15  1  0.74068974  0.75274231  0.76651013  1
  Gd3+  Gd16  1  0.50353146  0.75494541  0.23985385  1
  Gd3+  Gd17  1  0.72228258  0.26086371  0.25192730  1
  Gd3+  Gd18  1  0.01301199  0.80748062  0.72486411  1
  Ta5+  Ta19  1  0.90652651  0.88988522  0.38326923  1
  Ta5+  Ta20  1  0.19824248  0.89165356  0.63374935  1
  Ta5+  Ta21  1  0.88060893  0.87997969  0.13793583  1
  Ta5+  Ta22  1  0.62806049  0.36505543  0.86793632  1
  Ta5+  Ta23  1  0.10310973  0.37197556  0.61363653  1
  Ta5+  Ta24  1  0.34096540  0.08569753  0.60639793  1
  Ta5+  Ta25  1  0.37557444  0.62344379  0.86785037  1
  Ta5+  Ta26  1  0.63109015  0.91080819  0.36285181  1
  Ta5+  Ta27  1  0.85556718  0.36486198  0.63111880  1
  Ta5+  Ta28  1  0.58712674  0.52871347  0.12548942  1
  Ta5+  Ta29  1  0.35864655  0.10363019  0.12429106  1
  Ta5+  Ta30  1  0.14731629  0.87898544  0.87581255  1
  Ta5+  Ta31  1  0.63289307  0.88573575  0.11475225  1
  Ta5+  Ta32  1  0.15872663  0.89898948  0.39290023  1
  Ta5+  Ta33  1  0.86647177  0.39459584  0.12715213  1
  Ta5+  Ta34  1  0.61728278  0.87631897  0.62750340  1
  Ta5+  Ta35  1  0.61160937  0.12351346  0.11321904  1
  Ta5+  Ta36  1  0.10756255  0.38904113  0.87735270  1
  Ta5+  Ta37  1  0.34926636  0.08181701  0.37407505  1
  Ta5+  Ta38  1  0.65043632  0.11414424  0.63181900  1
  Ta5+  Ta39  1  0.87064792  0.12655761  0.12747137  1
  Ta5+  Ta40  1  0.57929871  0.85837938  0.87749661  1
  Ta5+  Ta41  1  0.38138171  0.64219683  0.61761103  1
  Ta5+  Ta42  1  0.34688993  0.43909269  0.61470204  1
  Ta5+  Ta43  1  0.87174268  0.12647211  0.62347997  1
  Ta5+  Ta44  1  0.35685082  0.11506313  0.87704016  1
  Ta5+  Ta45  1  0.88116235  0.89494874  0.87838181  1
  Ta5+  Ta46  1  0.63014630  0.62289171  0.62362263  1
  Ta5+  Ta47  1  0.40480648  0.59767254  0.12001188  1
  Ta5+  Ta48  1  0.39510479  0.92352878  0.36303014  1
  Ta5+  Ta49  1  0.10621921  0.13589995  0.40008919  1
  Ta5+  Ta50  1  0.86674079  0.11838990  0.88436268  1
  Ta5+  Ta51  1  0.11095822  0.11714491  0.87911482  1
  Ta5+  Ta52  1  0.87060811  0.61135882  0.63064497  1
  Ta5+  Ta53  1  0.38785882  0.86368798  0.10907020  1
  Ta5+  Ta54  1  0.85817185  0.37045878  0.38048449  1
  Ta5+  Ta55  1  0.93677007  0.62164870  0.13343474  1
  Ta5+  Ta56  1  0.42272503  0.40959030  0.12877287  1
  Ta5+  Ta57  1  0.63359871  0.59782614  0.36419876  1
  Ta5+  Ta58  1  0.58582885  0.35810354  0.11372024  1
  Ta5+  Ta59  1  0.10692453  0.43988620  0.13214871  1
  Ta5+  Ta60  1  0.14060456  0.62042727  0.38708057  1
  Ta5+  Ta61  1  0.36818743  0.89246694  0.61250499  1
  Ta5+  Ta62  1  0.11593688  0.12090849  0.13771395  1
  Ta5+  Ta63  1  0.61851711  0.61134164  0.89481641  1
  Ta5+  Ta64  1  0.63305521  0.10333279  0.38500718  1
  Ta5+  Ta65  1  0.88968412  0.61741908  0.37499135  1
  Ta5+  Ta66  1  0.10368698  0.63477157  0.85790919  1
  Ta5+  Ta67  1  0.12947506  0.88240444  0.13573173  1
  Ta5+  Ta68  1  0.38883997  0.60715760  0.37118650  1
  Ta5+  Ta69  1  0.14541280  0.12179826  0.62055161  1
  Ta5+  Ta70  1  0.59109511  0.10734497  0.86232850  1
  Ta5+  Ta71  1  0.15735871  0.56267568  0.62412414  1
  Ta5+  Ta72  1  0.83630106  0.93510507  0.62520593  1
  Ta5+  Ta73  1  0.86060080  0.38415463  0.88524288  1
  Ta5+  Ta74  1  0.56588968  0.35907957  0.37412868  1
  W6+  W75  1  0.88448398  0.63339197  0.87895054  1
  W6+  W76  1  0.60722432  0.36939315  0.62395759  1
  W6+  W77  1  0.39560123  0.35681003  0.37548618  1
  W6+  W78  1  0.10483055  0.64344427  0.13366529  1
  W6+  W79  1  0.36893410  0.38462597  0.87782212  1
  W6+  W80  1  0.11456756  0.37041539  0.38075203  1
  W6+  W81  1  0.31313309  0.86404884  0.86079757  1
  W6+  W82  1  0.84914795  0.13068463  0.37159137  1
  O2-  O83  1  0.15330639  0.00095897  0.11775873  1
  O2-  O84  1  0.11130509  0.01436388  0.39799322  1
  O2-  O85  1  0.13537713  0.00156054  0.62756122  1
  O2-  O86  1  0.14689271  0.00345469  0.89733147  1
  O2-  O87  1  0.17023681  0.52806097  0.08600336  1
  O2-  O88  1  0.12416481  0.50451295  0.38923610  1
  O2-  O89  1  0.05675843  0.49462616  0.62170439  1
  O2-  O90  1  0.12030143  0.50781506  0.87736841  1
  O2-  O91  1  0.34514865  -0.01393316  0.12326063  1
  O2-  O92  1  0.43679999  0.02746365  0.29606163  1
  O2-  O93  1  0.41304379  0.00191614  0.65967437  1
  O2-  O94  1  0.33592853  0.00042386  0.86148277  1
  O2-  O95  1  0.33060285  0.50843695  0.14680447  1
  O2-  O96  1  0.39248329  0.49277940  0.36824103  1
  O2-  O97  1  0.43692422  0.51850915  0.62049649  1
  O2-  O98  1  0.33323934  0.51355697  0.86600867  1
  O2-  O99  1  0.66222405  0.01273331  0.11065516  1
  O2-  O100  1  0.71708715  0.00072734  0.36155947  1
  O2-  O101  1  0.60206088  -0.00351630  0.62966233  1
  O2-  O102  1  0.58378139  -0.01635603  0.87154027  1
  O2-  O103  1  0.67618780  0.44799844  0.15277199  1
  O2-  O104  1  0.60589198  0.48304708  0.36924522  1
  O2-  O105  1  0.62539123  0.50521241  0.61280407  1
  O2-  O106  1  0.64570896  0.49455394  0.86710298  1
  O2-  O107  1  0.86246346  -0.00129167  0.14530461  1
  O2-  O108  1  0.90703147  0.00577194  0.36157950  1
  O2-  O109  1  0.93141985  0.01417501  0.63512118  1
  O2-  O110  1  0.98290200  0.08855132  0.88591041  1
  O2-  O111  1  0.86141742  0.51346284  0.13686369  1
  O2-  O112  1  0.88510960  0.49627962  0.36219903  1
  O2-  O113  1  0.87200234  0.49073813  0.64528222  1
  O2-  O114  1  0.85660600  0.50007340  0.87297222  1
  O2-  O115  1  0.11701614  0.24921689  0.13610354  1
  O2-  O116  1  0.17169056  0.24132675  0.38627104  1
  O2-  O117  1  0.15450587  0.25701572  0.63532526  1
  O2-  O118  1  0.08456854  0.25087414  0.88490469  1
  O2-  O119  1  0.19096391  0.76654144  0.13778485  1
  O2-  O120  1  0.16076002  0.76669799  0.39251928  1
  O2-  O121  1  0.08781688  0.81873765  0.60299516  1
  O2-  O122  1  0.08541332  0.75962501  0.84852945  1
  O2-  O123  1  0.24627847  0.15472090  0.10222333  1
  O2-  O124  1  0.39376459  0.21449267  0.38468526  1
  O2-  O125  1  0.39717498  0.19983503  0.63659718  1
  O2-  O126  1  0.37179837  0.24508905  0.84385299  1
  O2-  O127  1  0.41735940  0.74049369  0.11504519  1
  O2-  O128  1  0.51092818  0.84222721  0.36050102  1
  O2-  O129  1  0.40045968  0.76358592  0.60602432  1
  O2-  O130  1  0.30201381  0.72392009  0.86903158  1
  O2-  O131  1  0.66885913  0.23344493  0.11284904  1
  O2-  O132  1  0.57306174  0.22024351  0.38654129  1
  O2-  O133  1  0.58910310  0.22437130  0.63698738  1
  O2-  O134  1  0.58911847  0.24063126  0.85189350  1
  O2-  O135  1  0.61894064  0.76648521  0.15421072  1
  O2-  O136  1  0.69840876  0.79979911  0.34704451  1
  O2-  O137  1  0.58214954  0.74818301  0.62104964  1
  O2-  O138  1  0.64483007  0.73780568  0.88235379  1
  O2-  O139  1  0.88767292  0.25090061  0.11235559  1
  O2-  O140  1  0.80032853  0.26034423  0.38067906  1
  O2-  O141  1  0.91580388  0.24813285  0.63021700  1
  O2-  O142  1  0.89816394  0.24246302  0.90141600  1
  O2-  O143  1  0.90708431  0.74827074  0.11899087  1
  O2-  O144  1  0.88209391  0.75544383  0.41714092  1
  O2-  O145  1  0.96325863  0.69399436  0.63724903  1
  O2-  O146  1  0.84510942  0.77630050  0.87524366  1
  O2-  O147  1  0.09701442  0.14066440  0.00642700  1
  O2-  O148  1  0.13650292  0.12976653  0.26269193  1
  O2-  O149  1  0.06802633  0.14488279  0.52147550  1
  O2-  O150  1  0.09080731  0.13464078  0.75175300  1
  O2-  O151  1  0.10847803  0.66124308  -0.01454111  1
  O2-  O152  1  0.15387112  0.64169565  0.26600535  1
  O2-  O153  1  0.12603010  0.63507445  0.52507334  1
  O2-  O154  1  0.14157681  0.61944067  0.73047397  1
  O2-  O155  1  0.38169429  0.12694619  -0.00336413  1
  O2-  O156  1  0.33344106  0.14393018  0.24480882  1
  O2-  O157  1  0.40316753  0.09191744  0.49123026  1
  O2-  O158  1  0.47356986  0.11465408  0.81993445  1
  O2-  O159  1  0.35923541  0.62853090  0.00093300  1
  O2-  O160  1  0.37574467  0.65674122  0.25105972  1
  O2-  O161  1  0.42165424  0.63971520  0.49003552  1
  O2-  O162  1  0.38177717  0.63825074  0.74079876  1
  O2-  O163  1  0.60520694  0.12359634  -0.01414606  1
  O2-  O164  1  0.62127449  0.13272421  0.25030091  1
  O2-  O165  1  0.66403496  0.12234960  0.50695392  1
  O2-  O166  1  0.66606794  0.10939244  0.76463833  1
  O2-  O167  1  0.62621585  0.60048864  0.01602088  1
  O2-  O168  1  0.65181746  0.61405060  0.24044242  1
  O2-  O169  1  0.62049540  0.65391672  0.48556344  1
  O2-  O170  1  0.64487656  0.63436618  0.74746297  1
  O2-  O171  1  0.82812334  0.11515905  0.00895903  1
  O2-  O172  1  0.81047951  0.14340440  0.23366599  1
  O2-  O173  1  0.85796912  0.12825481  0.50579814  1
  O2-  O174  1  0.86209770  0.14330871  0.76079512  1
  O2-  O175  1  0.93152523  0.62340601  0.00996385  1
  O2-  O176  1  0.87345830  0.64909902  0.25270089  1
  O2-  O177  1  0.89107078  0.61143175  0.50446919  1
  O2-  O178  1  0.83475173  0.64387491  0.74681578  1
  O2-  O179  1  0.13047758  0.37117737  0.01610875  1
  O2-  O180  1  0.15631314  0.39427875  0.23370148  1
  O2-  O181  1  0.06135996  0.35005211  0.50468720  1
  O2-  O182  1  0.08491754  0.36636337  0.75474010  1
  O2-  O183  1  0.11955525  0.84897802  0.00637045  1
  O2-  O184  1  0.16010769  0.88134213  0.25976310  1
  O2-  O185  1  0.20828152  0.89646687  0.50528870  1
  O2-  O186  1  0.13528351  0.88597434  0.75237433  1
  O2-  O187  1  0.35964398  0.36189246  0.01815730  1
  O2-  O188  1  0.39051970  0.33810814  0.22868583  1
  O2-  O189  1  0.37726141  0.36641128  0.52469258  1
  O2-  O190  1  0.36212281  0.37474355  0.72306953  1
  O2-  O191  1  0.31875245  0.84901233  0.00757691  1
  O2-  O192  1  0.37180020  0.85264181  0.24085595  1
  O2-  O193  1  0.39959176  0.89061357  0.48369517  1
  O2-  O194  1  0.30236180  0.86364273  0.71983572  1
  O2-  O195  1  0.59585717  0.36014687  -0.01464915  1
  O2-  O196  1  0.58724221  0.32417031  0.24828588  1
  O2-  O197  1  0.58098280  0.35045450  0.49690422  1
  O2-  O198  1  0.56406506  0.38010612  0.75930494  1
  O2-  O199  1  0.63591476  0.86911926  -0.00965115  1
  O2-  O200  1  0.60858133  0.91364745  0.24161614  1
  O2-  O201  1  0.63342291  0.86127856  0.49483115  1
  O2-  O202  1  0.62899528  0.85793369  0.75853437  1
  O2-  O203  1  0.82555176  0.37909835  0.01082586  1
  O2-  O204  1  0.83212504  0.36551694  0.24535564  1
  O2-  O205  1  0.86495153  0.37536882  0.50595303  1
  O2-  O206  1  0.89314118  0.35917344  0.75983451  1
  O2-  O207  1  0.89199011  0.88545562  0.00556376  1
  O2-  O208  1  0.87113240  0.85279110  0.26794390  1
  O2-  O209  1  0.84706557  0.89795066  0.50160555  1
  O2-  O210  1  0.87132879  0.87760941  0.73691540  1
  O2-  O211  1  -0.00791568  0.11004501  0.14191656  1
  O2-  O212  1  0.01047122  -0.11536813  0.14864452  1
  O2-  O213  1  0.02381119  -0.13393564  0.40925097  1
  O2-  O214  1  0.00064395  -0.10283213  0.86464928  1
  O2-  O215  1  -0.01098650  0.38677403  0.10970260  1
  O2-  O216  1  0.02684585  0.53162006  0.17519252  1
  O2-  O217  1  0.01252754  0.64551060  0.38096318  1
  O2-  O218  1  -0.01277714  0.38434181  0.91795659  1
  O2-  O219  1  0.23489836  0.16084356  -0.11104926  1
  O2-  O220  1  0.27158864  -0.03132704  0.35980294  1
  O2-  O221  1  0.23725137  0.11691538  0.53419354  1
  O2-  O222  1  0.25749564  0.12527164  0.70318958  1
  O2-  O223  1  0.22814410  0.34779434  -0.12859965  1
  O2-  O224  1  0.26942936  0.62732633  0.39415792  1
  O2-  O225  1  0.28352518  0.55992655  0.58322159  1
  O2-  O226  1  0.21426222  0.43745955  0.64909294  1
  O2-  O227  1  0.48727051  0.12036744  0.13517917  1
  O2-  O228  1  0.50333729  -0.10209276  0.10068506  1
  O2-  O229  1  0.56268828  0.00790843  0.41351523  1
  O2-  O230  1  0.46491421  -0.16515206  0.87818968  1
  O2-  O231  1  0.47693599  0.51497524  0.04686784  1
  O2-  O232  1  0.48545565  0.52160596  0.20559813  1
  O2-  O233  1  0.51785130  0.65393278  0.34979996  1
  O2-  O234  1  0.49857968  0.61973602  0.87911433  1
  O2-  O235  1  0.81698491  -0.00019515  -0.13056978  1
  O2-  O236  1  0.75768894  -0.14840205  0.13333309  1
  O2-  O237  1  0.74483349  -0.16768122  0.62854334  1
  O2-  O238  1  0.76661635  0.03663070  0.63766672  1
  O2-  O239  1  0.74524149  0.33940798  -0.14374124  1
  O2-  O240  1  0.75546255  0.63040068  0.38421174  1
  O2-  O241  1  0.75213240  0.64964489  0.59694336  1
  O2-  O242  1  0.74187183  0.34661021  0.64693435  1
