# generated using pymatgen
data_Gd19Ta56(WO20)8
_symmetry_space_group_name_H-M   'P 1'
_cell_length_a   15.46679663
_cell_length_b   15.43230640
_cell_length_c   15.39867119
_cell_angle_alpha   90.01377809
_cell_angle_beta   90.15082672
_cell_angle_gamma   89.80470874
_symmetry_Int_Tables_number   1
_chemical_formula_structural   Gd19Ta56(WO20)8
_chemical_formula_sum   'Gd19 Ta56 W8 O160'
_cell_volume   3675.44915058
_cell_formula_units_Z   1
loop_
 _symmetry_equiv_pos_site_id
 _symmetry_equiv_pos_as_xyz
  1  'x, y, z'
loop_
 _atom_type_symbol
 _atom_type_oxidation_number
  Gd3+  3.0
  Ta5+  5.0
  W6+  6.0
  O2-  -2.0
loop_
 _atom_site_type_symbol
 _atom_site_label
 _atom_site_symmetry_multiplicity
 _atom_site_fract_x
 _atom_site_fract_y
 _atom_site_fract_z
 _atom_site_occupancy
  Gd3+  Gd0  1  0.45994781  0.24759336  -0.01092421  1
  Gd3+  Gd1  1  -0.01114789  0.28566080  0.20413153  1
  Gd3+  Gd2  1  0.48052294  0.76356899  0.01232970  1
  Gd3+  Gd3  1  0.75018036  0.24102417  0.49783869  1
  Gd3+  Gd4  1  0.74778889  0.24188144  0.24286960  1
  Gd3+  Gd5  1  0.78440373  0.25221994  -0.00306819  1
  Gd3+  Gd6  1  0.47811383  0.75269503  0.75930527  1
  Gd3+  Gd7  1  0.01382885  0.75452668  0.51072265  1
  Gd3+  Gd8  1  -0.00278045  0.74477760  0.21840822  1
  Gd3+  Gd9  1  0.00396959  0.24478727  0.49752939  1
  Gd3+  Gd10  1  0.79479346  0.24881218  0.76858217  1
  Gd3+  Gd11  1  0.48696091  0.24756638  0.26536352  1
  Gd3+  Gd12  1  0.24057969  0.25746239  0.24845755  1
  Gd3+  Gd13  1  0.03401778  0.23258326  -0.04044864  1
  Gd3+  Gd14  1  0.49333311  0.75141200  0.50563156  1
  Gd3+  Gd15  1  0.48875366  0.76373560  0.24742186  1
  Gd3+  Gd16  1  0.49524176  0.24427691  0.51637842  1
  Gd3+  Gd17  1  0.46218378  0.25271921  0.75597273  1
  Gd3+  Gd18  1  0.73997383  0.72687162  -0.04245760  1
  Ta5+  Ta19  1  0.86830093  0.37774373  0.37097821  1
  Ta5+  Ta20  1  0.88479704  0.37627028  0.62800348  1
  Ta5+  Ta21  1  0.15488106  0.39237126  0.86300570  1
  Ta5+  Ta22  1  0.65123091  0.85679850  0.12898609  1
  Ta5+  Ta23  1  0.11661050  0.12303647  0.37317021  1
  Ta5+  Ta24  1  0.91846484  0.06156979  0.87145990  1
  Ta5+  Ta25  1  0.63338262  0.62505988  0.38353324  1
  Ta5+  Ta26  1  0.19445433  0.63698673  0.87514621  1
  Ta5+  Ta27  1  0.13136846  0.12464297  0.11696405  1
  Ta5+  Ta28  1  0.38022550  0.11752526  0.13129490  1
  Ta5+  Ta29  1  0.34254742  0.11769019  0.87609634  1
  Ta5+  Ta30  1  0.63645828  0.11043670  0.64329654  1
  Ta5+  Ta31  1  0.35933768  0.12412792  0.39922161  1
  Ta5+  Ta32  1  0.14918311  0.62537892  0.62928267  1
  Ta5+  Ta33  1  0.81908794  0.63640005  0.13905672  1
  Ta5+  Ta34  1  0.18144576  0.86795452  0.88055180  1
  Ta5+  Ta35  1  0.90015425  0.39573474  0.88420848  1
  Ta5+  Ta36  1  0.87021720  0.86272810  0.37581355  1
  Ta5+  Ta37  1  0.57234265  0.61302419  0.88664602  1
  Ta5+  Ta38  1  0.32006308  0.07256622  0.64516998  1
  Ta5+  Ta39  1  0.32036326  0.87548189  0.12938327  1
  Ta5+  Ta40  1  0.38512834  0.38527268  0.13187990  1
  Ta5+  Ta41  1  0.36606566  0.62220041  0.88557910  1
  Ta5+  Ta42  1  0.81947956  0.85358213  0.12669142  1
  Ta5+  Ta43  1  0.87056928  0.10567397  0.37487236  1
  Ta5+  Ta44  1  0.34940523  0.87703539  0.88172614  1
  Ta5+  Ta45  1  0.17610924  0.63718849  0.12579398  1
  Ta5+  Ta46  1  0.61310226  0.12056958  0.89306457  1
  Ta5+  Ta47  1  0.64348382  0.37283516  0.88961631  1
  Ta5+  Ta48  1  0.86342027  0.87644599  0.87552295  1
  Ta5+  Ta49  1  0.59876437  0.38361115  0.12899762  1
  Ta5+  Ta50  1  0.37170260  0.61850346  0.62899099  1
  Ta5+  Ta51  1  0.34455016  0.63342456  0.13013507  1
  Ta5+  Ta52  1  0.15054413  0.88342157  0.63037124  1
  Ta5+  Ta53  1  0.13229619  0.62499514  0.37697012  1
  Ta5+  Ta54  1  0.92216513  0.62085151  0.88789819  1
  Ta5+  Ta55  1  0.36495088  0.38077973  0.39430309  1
  Ta5+  Ta56  1  0.60516085  0.87640054  0.63700064  1
  Ta5+  Ta57  1  0.39292702  0.40517370  0.64007444  1
  Ta5+  Ta58  1  0.62395468  0.11126451  0.38047945  1
  Ta5+  Ta59  1  0.11592421  0.38131442  0.38106625  1
  Ta5+  Ta60  1  0.13859494  0.39799039  0.11360296  1
  Ta5+  Ta61  1  0.87447473  0.86218727  0.63627342  1
  Ta5+  Ta62  1  0.37556803  0.61765309  0.37397970  1
  Ta5+  Ta63  1  0.87663820  0.62696166  0.38383187  1
  Ta5+  Ta64  1  0.12421831  0.88242437  0.37570717  1
  Ta5+  Ta65  1  0.32504353  0.38533459  0.88631562  1
  Ta5+  Ta66  1  0.62743186  0.87193517  0.38067261  1
  Ta5+  Ta67  1  0.64003009  0.38271588  0.64103324  1
  Ta5+  Ta68  1  0.89000744  0.11131724  0.63434071  1
  Ta5+  Ta69  1  0.35434845  0.87592708  0.63065847  1
  Ta5+  Ta70  1  0.62677670  0.37897148  0.37849216  1
  Ta5+  Ta71  1  0.59578477  0.10508600  0.13035220  1
  Ta5+  Ta72  1  0.64753233  0.63087613  0.13224320  1
  Ta5+  Ta73  1  0.36702008  0.88599568  0.38068846  1
  Ta5+  Ta74  1  0.10811873  0.11217243  0.62754288  1
  W6+  W75  1  0.15727570  0.87101334  0.13220868  1
  W6+  W76  1  0.92620406  0.62513066  0.64749522  1
  W6+  W77  1  0.93043422  0.51165617  0.06524861  1
  W6+  W78  1  0.17348188  0.12154726  0.85672872  1
  W6+  W79  1  0.88128905  0.08828198  0.12168542  1
  W6+  W80  1  0.11095397  0.37684273  0.63379143  1
  W6+  W81  1  0.61895863  0.62417357  0.63896455  1
  W6+  W82  1  0.60265982  0.87744804  0.88164448  1
  O2-  O83  1  0.14012701  0.00761692  0.13726073  1
  O2-  O84  1  0.09736352  0.00133672  0.35405139  1
  O2-  O85  1  0.07981490  -0.01159513  0.64523546  1
  O2-  O86  1  0.16907970  -0.01237163  0.86304829  1
  O2-  O87  1  0.15940068  0.51414473  0.15051218  1
  O2-  O88  1  0.09781467  0.50339687  0.36685735  1
  O2-  O89  1  0.10854766  0.51345539  0.63960039  1
  O2-  O90  1  0.15944351  0.51974237  0.86221838  1
  O2-  O91  1  0.34803073  -0.00004645  0.13943134  1
  O2-  O92  1  0.39669444  0.00623825  0.37888049  1
  O2-  O93  1  0.40876039  -0.01128991  0.65559131  1
  O2-  O94  1  0.37129563  -0.00107991  0.87032433  1
  O2-  O95  1  0.36436542  0.50494061  0.13673295  1
  O2-  O96  1  0.39746871  0.49785928  0.35961148  1
  O2-  O97  1  0.44772969  0.52327368  0.63834632  1
  O2-  O98  1  0.37090559  0.49777998  0.89769818  1
  O2-  O99  1  0.62540665  -0.01224477  0.12404058  1
  O2-  O100  1  0.59319322  -0.00860785  0.38552298  1
  O2-  O101  1  0.59962400  0.00083384  0.61120556  1
  O2-  O102  1  0.62328837  0.00598203  0.91402077  1
  O2-  O103  1  0.62896051  0.50058601  0.12693398  1
  O2-  O104  1  0.61030339  0.50229804  0.39061561  1
  O2-  O105  1  0.66575423  0.49626396  0.63018651  1
  O2-  O106  1  0.59964735  0.48370785  0.88920917  1
  O2-  O107  1  0.82352674  -0.02420625  0.12304742  1
  O2-  O108  1  0.89987932  -0.01753073  0.38309568  1
  O2-  O109  1  0.88516063  -0.01202736  0.62956566  1
  O2-  O110  1  0.80975573  -0.01283590  0.86968715  1
  O2-  O111  1  0.82708561  0.51510313  0.15216053  1
  O2-  O112  1  0.88402935  0.50163356  0.37646874  1
  O2-  O113  1  0.90517138  0.49211439  0.62223923  1
  O2-  O114  1  0.86065782  0.51476396  0.86634709  1
  O2-  O115  1  0.10910374  0.26753051  0.10299179  1
  O2-  O116  1  0.13555659  0.24876042  0.39922821  1
  O2-  O117  1  0.09388188  0.23590120  0.62624385  1
  O2-  O118  1  0.14871516  0.26102074  0.87987409  1
  O2-  O119  1  0.10996062  0.74694432  0.11974131  1
  O2-  O120  1  0.12038783  0.75216923  0.39447202  1
  O2-  O121  1  0.13245729  0.75838326  0.60300095  1
  O2-  O122  1  0.13714045  0.74696282  0.88214258  1
  O2-  O123  1  0.40723357  0.24905379  0.13308124  1
  O2-  O124  1  0.36485353  0.25287712  0.42609157  1
  O2-  O125  1  0.39547948  0.28166335  0.62163349  1
  O2-  O126  1  0.36343380  0.25685470  0.87073468  1
  O2-  O127  1  0.38600256  0.76004118  0.13352373  1
  O2-  O128  1  0.39794299  0.75553930  0.38210734  1
  O2-  O129  1  0.38664478  0.74790981  0.61731255  1
  O2-  O130  1  0.39575850  0.75433591  0.88776284  1
  O2-  O131  1  0.60419688  0.24905141  0.15972002  1
  O2-  O132  1  0.64804051  0.24554950  0.36970657  1
  O2-  O133  1  0.54822673  0.19532908  0.64981706  1
  O2-  O134  1  0.55479226  0.28827355  0.87919013  1
  O2-  O135  1  0.57706323  0.74185605  0.12938670  1
  O2-  O136  1  0.57805580  0.74925272  0.37644556  1
  O2-  O137  1  0.57149794  0.75233882  0.64064752  1
  O2-  O138  1  0.57555985  0.74245622  0.87953263  1
  O2-  O139  1  0.83607781  0.21699465  0.12661886  1
  O2-  O140  1  0.83284199  0.23776887  0.37484556  1
  O2-  O141  1  0.91032064  0.24073643  0.64098556  1
  O2-  O142  1  0.89592782  0.26180266  0.89348266  1
  O2-  O143  1  0.89113122  0.74406996  0.11200658  1
  O2-  O144  1  0.94006817  0.75117412  0.37351280  1
  O2-  O145  1  0.95005620  0.76444900  0.64771257  1
  O2-  O146  1  0.86961779  0.73752850  0.88160249  1
  O2-  O147  1  0.13561645  0.12655754  -0.00578245  1
  O2-  O148  1  0.12561785  0.15601948  0.25193191  1
  O2-  O149  1  0.09224064  0.10801815  0.50417205  1
  O2-  O150  1  0.20559691  0.10457019  0.70880115  1
  O2-  O151  1  0.19173499  0.63070912  0.00627929  1
  O2-  O152  1  0.10449978  0.64554172  0.25662566  1
  O2-  O153  1  0.09315407  0.62482796  0.49845925  1
  O2-  O154  1  0.18362262  0.64771383  0.74218689  1
  O2-  O155  1  0.34576985  0.13500662  -0.00067786  1
  O2-  O156  1  0.35450109  0.15726737  0.27592127  1
  O2-  O157  1  0.36058623  0.11311365  0.53469684  1
  O2-  O158  1  0.36957692  0.13673881  0.74211644  1
  O2-  O159  1  0.38399018  0.64136359  0.01394915  1
  O2-  O160  1  0.40487777  0.63980783  0.25440547  1
  O2-  O161  1  0.41477795  0.62380599  0.49291849  1
  O2-  O162  1  0.37372263  0.63572069  0.75227837  1
  O2-  O163  1  0.64886935  0.14894237  0.02059561  1
  O2-  O164  1  0.65060508  0.11583187  0.25646313  1
  O2-  O165  1  0.62555055  0.14994956  0.51093455  1
  O2-  O166  1  0.63495000  0.10246860  0.76540790  1
  O2-  O167  1  0.63092807  0.62976155  0.00107039  1
  O2-  O168  1  0.61585750  0.63418395  0.26072261  1
  O2-  O169  1  0.60690897  0.64372496  0.50535969  1
  O2-  O170  1  0.57347908  0.61601170  0.76273818  1
  O2-  O171  1  0.89168551  0.10771882  -0.01889918  1
  O2-  O172  1  0.84840865  0.10792976  0.25542023  1
  O2-  O173  1  0.88503046  0.13306370  0.50843627  1
  O2-  O174  1  0.87078115  0.11573581  0.76562275  1
  O2-  O175  1  0.83566210  0.61827449  0.00753557  1
  O2-  O176  1  0.87655278  0.64920318  0.25868789  1
  O2-  O177  1  0.90568727  0.64195968  0.50290324  1
  O2-  O178  1  0.97047131  0.62287225  0.77809633  1
  O2-  O179  1  0.15786311  0.40601160  -0.00430360  1
  O2-  O180  1  0.12047682  0.35265759  0.25420844  1
  O2-  O181  1  0.08064498  0.37605631  0.50258192  1
  O2-  O182  1  0.17512296  0.37450863  0.74375359  1
  O2-  O183  1  0.18057396  0.87355402  0.00377061  1
  O2-  O184  1  0.08881705  0.85512634  0.25875794  1
  O2-  O185  1  0.08637189  0.88752700  0.49543996  1
  O2-  O186  1  0.16635688  0.85879140  0.74477553  1
  O2-  O187  1  0.34671318  0.35864062  0.00702860  1
  O2-  O188  1  0.36276611  0.34115207  0.27057854  1
  O2-  O189  1  0.37346232  0.41622075  0.51455593  1
  O2-  O190  1  0.36336757  0.39052903  0.76011212  1
  O2-  O191  1  0.36637068  0.87214940  0.01263254  1
  O2-  O192  1  0.37750306  0.87140196  0.25521763  1
  O2-  O193  1  0.40030767  0.87801210  0.50302459  1
  O2-  O194  1  0.35938267  0.85164038  0.75243880  1
  O2-  O195  1  0.66388745  0.34899581  0.01555611  1
  O2-  O196  1  0.65719338  0.37696843  0.25895225  1
  O2-  O197  1  0.61696765  0.33734840  0.52193201  1
  O2-  O198  1  0.66293922  0.34201599  0.75838340  1
  O2-  O199  1  0.64036838  0.83712763  0.00565914  1
  O2-  O200  1  0.61051651  0.86248434  0.25563521  1
  O2-  O201  1  0.60751642  0.85662992  0.50622337  1
  O2-  O202  1  0.55985716  0.88724917  0.75116905  1
  O2-  O203  1  0.88019727  0.39410520  0.00683842  1
  O2-  O204  1  0.85414302  0.34986765  0.25249942  1
  O2-  O205  1  0.88999669  0.34459458  0.50075288  1
  O2-  O206  1  0.87968464  0.37051368  0.75389301  1
  O2-  O207  1  0.81907499  0.85066463  -0.00786558  1
  O2-  O208  1  0.86732437  0.84950079  0.25162303  1
  O2-  O209  1  0.87940901  0.84701994  0.50657722  1
  O2-  O210  1  0.83596561  0.85611949  0.75289858  1
  O2-  O211  1  -0.03188779  -0.05642337  -0.11911364  1
  O2-  O212  1  0.00216133  0.14971963  0.12617018  1
  O2-  O213  1  -0.01138798  0.15089568  0.37044581  1
  O2-  O214  1  0.02548501  0.12124718  0.85757142  1
  O2-  O215  1  0.00185312  0.58105733  -0.02925853  1
  O2-  O216  1  0.01236269  0.41091290  0.12680203  1
  O2-  O217  1  -0.01093530  0.33895809  0.35861521  1
  O2-  O218  1  0.02186197  0.39110377  0.87967347  1
  O2-  O219  1  0.25447971  0.15645736  0.13987579  1
  O2-  O220  1  0.24005645  0.10208601  0.39724955  1
  O2-  O221  1  0.24624131  -0.11225828  0.38484544  1
  O2-  O222  1  0.25408181  -0.04205184  0.59588050  1
  O2-  O223  1  0.25876253  0.36004525  0.14681115  1
  O2-  O224  1  0.24133230  0.39123159  0.38866718  1
  O2-  O225  1  0.25412163  0.61930922  0.37841703  1
  O2-  O226  1  0.26004026  0.60561650  0.57661899  1
  O2-  O227  1  0.49139981  0.11297127  0.05484464  1
  O2-  O228  1  0.49051519  0.10747020  0.20760097  1
  O2-  O229  1  0.49939443  0.15170674  0.39273894  1
  O2-  O230  1  0.49072670  0.13870535  0.87346058  1
  O2-  O231  1  0.49945280  0.37995311  0.04990590  1
  O2-  O232  1  0.49727066  0.38981620  0.20595273  1
  O2-  O233  1  0.50270953  0.34691271  0.39105401  1
  O2-  O234  1  0.51982100  0.37904548  0.66976993  1
  O2-  O235  1  0.71484270  0.19628462  -0.12230088  1
  O2-  O236  1  0.74732405  -0.13426061  0.38276108  1
  O2-  O237  1  0.74588871  0.09293270  0.40937940  1
  O2-  O238  1  0.75679407  0.14757507  0.63360330  1
  O2-  O239  1  0.76633571  0.36453669  -0.11723849  1
  O2-  O240  1  0.75408181  0.63896663  0.39126157  1
  O2-  O241  1  0.74719759  0.38216013  0.41759239  1
  O2-  O242  1  0.76071356  0.33201263  0.62091318  1
