# generated using pymatgen
data_Gd19Ta56(WO20)8
_symmetry_space_group_name_H-M   'P 1'
_cell_length_a   15.50514607
_cell_length_b   15.46097146
_cell_length_c   15.21660903
_cell_angle_alpha   90.02719764
_cell_angle_beta   90.13587144
_cell_angle_gamma   89.86801311
_symmetry_Int_Tables_number   1
_chemical_formula_structural   Gd19Ta56(WO20)8
_chemical_formula_sum   'Gd19 Ta56 W8 O160'
_cell_volume   3647.77549402
_cell_formula_units_Z   1
loop_
 _symmetry_equiv_pos_site_id
 _symmetry_equiv_pos_as_xyz
  1  'x, y, z'
loop_
 _atom_type_symbol
 _atom_type_oxidation_number
  Gd3+  3.0
  Ta5+  5.0
  W6+  6.0
  O2-  -2.0
loop_
 _atom_site_type_symbol
 _atom_site_label
 _atom_site_symmetry_multiplicity
 _atom_site_fract_x
 _atom_site_fract_y
 _atom_site_fract_z
 _atom_site_occupancy
  Gd3+  Gd0  1  -0.00314954  0.25020256  0.26181362  1
  Gd3+  Gd1  1  0.26843009  0.25320307  0.25348876  1
  Gd3+  Gd2  1  0.25275469  0.75046233  0.25362824  1
  Gd3+  Gd3  1  0.23544315  0.25408717  -0.00941060  1
  Gd3+  Gd4  1  0.49150883  0.25963809  0.76005216  1
  Gd3+  Gd5  1  0.75341338  0.73075771  0.52352444  1
  Gd3+  Gd6  1  0.26210013  0.26427664  0.77719216  1
  Gd3+  Gd7  1  0.76296018  0.74926587  0.25137184  1
  Gd3+  Gd8  1  0.01168102  0.24456004  0.52019051  1
  Gd3+  Gd9  1  0.01970744  0.76151911  0.52872459  1
  Gd3+  Gd10  1  -0.01522000  0.25437623  -0.02137043  1
  Gd3+  Gd11  1  0.26372109  0.75033924  -0.00718226  1
  Gd3+  Gd12  1  0.48603520  0.25412430  0.51584516  1
  Gd3+  Gd13  1  0.70118346  0.72244608  0.74536481  1
  Gd3+  Gd14  1  0.48200028  0.26034376  -0.00289651  1
  Gd3+  Gd15  1  0.75891504  0.23518008  0.74923117  1
  Gd3+  Gd16  1  -0.02138551  0.75695523  -0.01768328  1
  Gd3+  Gd17  1  0.51586539  0.24086702  0.26422557  1
  Gd3+  Gd18  1  0.54079914  0.76189514  0.26798174  1
  Ta5+  Ta19  1  0.90514921  0.60999544  0.85804527  1
  Ta5+  Ta20  1  0.40363229  0.45064471  0.88116468  1
  Ta5+  Ta21  1  0.63359489  0.37843783  0.87817985  1
  Ta5+  Ta22  1  0.55828016  0.61560734  0.61219212  1
  Ta5+  Ta23  1  0.34156066  0.12593227  0.63645136  1
  Ta5+  Ta24  1  0.66024358  0.11876166  0.40626688  1
  Ta5+  Ta25  1  0.13094640  0.62925392  0.38214525  1
  Ta5+  Ta26  1  0.56545940  0.85722506  0.61822646  1
  Ta5+  Ta27  1  0.42984989  0.89776005  0.87016509  1
  Ta5+  Ta28  1  0.11827492  0.12404694  0.86700354  1
  Ta5+  Ta29  1  0.58201830  0.61260814  0.87260396  1
  Ta5+  Ta30  1  0.39176167  0.64692767  0.62711996  1
  Ta5+  Ta31  1  0.62567601  0.38264505  0.62259953  1
  Ta5+  Ta32  1  0.87103262  0.37565549  0.13244289  1
  Ta5+  Ta33  1  0.11815873  0.63236166  0.11897938  1
  Ta5+  Ta34  1  0.12576531  0.87386459  0.38279424  1
  Ta5+  Ta35  1  0.62533934  0.62685515  0.12517064  1
  Ta5+  Ta36  1  0.85487412  0.36661871  0.38879682  1
  Ta5+  Ta37  1  0.59764418  0.86664671  0.86723598  1
  Ta5+  Ta38  1  0.84059618  0.38583001  0.87614356  1
  Ta5+  Ta39  1  0.14028211  0.38833474  0.12898619  1
  Ta5+  Ta40  1  0.39409818  0.88515007  0.62264477  1
  Ta5+  Ta41  1  0.41391143  0.65294082  0.87295717  1
  Ta5+  Ta42  1  0.83457990  0.11295347  0.60070648  1
  Ta5+  Ta43  1  0.62557812  0.38359113  0.13365794  1
  Ta5+  Ta44  1  0.65696640  0.36982426  0.38243878  1
  Ta5+  Ta45  1  0.59252624  0.10334694  0.63421591  1
  Ta5+  Ta46  1  0.36816201  0.39959745  0.63795550  1
  Ta5+  Ta47  1  0.88134507  0.87393624  0.11687699  1
  Ta5+  Ta48  1  0.13445910  0.38247127  0.38033364  1
  Ta5+  Ta49  1  0.11264650  0.60768416  0.85913579  1
  Ta5+  Ta50  1  0.35090124  0.39333110  0.12299159  1
  Ta5+  Ta51  1  0.88809032  0.61415283  0.38394097  1
  Ta5+  Ta52  1  0.40822076  0.62492633  0.39216089  1
  Ta5+  Ta53  1  0.17240958  0.12929781  0.62792272  1
  Ta5+  Ta54  1  0.36670386  0.09631479  0.88910184  1
  Ta5+  Ta55  1  0.87658031  0.87459415  0.64727793  1
  Ta5+  Ta56  1  0.35669032  0.11584667  0.12523697  1
  Ta5+  Ta57  1  0.38794411  0.63250342  0.13324125  1
  Ta5+  Ta58  1  0.37851751  0.88809275  0.16041953  1
  Ta5+  Ta59  1  0.11746333  0.87464420  0.86895249  1
  Ta5+  Ta60  1  0.14558516  0.12069851  0.12721342  1
  Ta5+  Ta61  1  0.62634659  0.61235598  0.40470423  1
  Ta5+  Ta62  1  0.85159143  0.38443637  0.61933264  1
  Ta5+  Ta63  1  0.60560360  0.86314832  0.06866451  1
  Ta5+  Ta64  1  0.13439995  0.88383444  0.12180065  1
  Ta5+  Ta65  1  0.37943159  0.38791823  0.37847383  1
  Ta5+  Ta66  1  0.37362429  0.12011953  0.38401406  1
  Ta5+  Ta67  1  0.18240862  0.88026213  0.63428578  1
  Ta5+  Ta68  1  0.13184611  0.12028205  0.37959265  1
  Ta5+  Ta69  1  0.65237136  0.09050117  0.13149223  1
  Ta5+  Ta70  1  0.13049521  0.39241960  0.63107842  1
  Ta5+  Ta71  1  0.86363538  0.11495613  0.37780127  1
  Ta5+  Ta72  1  0.17577192  0.63829105  0.63062552  1
  Ta5+  Ta73  1  0.91916566  0.61989249  0.65601231  1
  Ta5+  Ta74  1  0.63217466  0.87351487  0.42111227  1
  W6+  W75  1  0.86954361  0.61849647  0.11891408  1
  W6+  W76  1  0.07854533  0.40403856  0.87650625  1
  W6+  W77  1  0.89178228  0.09202891  0.85833045  1
  W6+  W78  1  0.41123566  0.87997245  0.40064136  1
  W6+  W79  1  0.87272703  0.86624169  0.38538342  1
  W6+  W80  1  0.59490265  0.10286474  0.88506876  1
  W6+  W81  1  0.87692778  0.87242625  0.84275040  1
  W6+  W82  1  0.89185395  0.12013121  0.11964782  1
  O2-  O83  1  0.10623185  0.00399181  0.11387483  1
  O2-  O84  1  0.12774906  -0.00206468  0.37165364  1
  O2-  O85  1  0.17510634  -0.00011783  0.63276974  1
  O2-  O86  1  0.12075903  0.00367369  0.87424987  1
  O2-  O87  1  0.11462461  0.50869821  0.12683209  1
  O2-  O88  1  0.13888524  0.50470909  0.37434814  1
  O2-  O89  1  0.15844399  0.51400676  0.61870167  1
  O2-  O90  1  0.17106899  0.50135726  0.87262621  1
  O2-  O91  1  0.41059861  0.00809702  0.14767594  1
  O2-  O92  1  0.42829061  0.01637774  0.37318421  1
  O2-  O93  1  0.37209785  0.01100573  0.64780659  1
  O2-  O94  1  0.33109345  -0.01858977  0.91595208  1
  O2-  O95  1  0.39090557  0.50641556  0.14212927  1
  O2-  O96  1  0.42109665  0.49872996  0.36166759  1
  O2-  O97  1  0.36926410  0.51763192  0.64478461  1
  O2-  O98  1  0.33702375  0.54623635  0.85336455  1
  O2-  O99  1  0.65268898  -0.03432728  0.12387952  1
  O2-  O100  1  0.63311585  0.00147069  0.39992817  1
  O2-  O101  1  0.58245604  -0.01381659  0.62632604  1
  O2-  O102  1  0.63633910  -0.01937465  0.86665705  1
  O2-  O103  1  0.60255338  0.50113891  0.14543931  1
  O2-  O104  1  0.65325636  0.49105838  0.37527701  1
  O2-  O105  1  0.56202500  0.48289906  0.62562527  1
  O2-  O106  1  0.65169910  0.49602662  0.86913337  1
  O2-  O107  1  0.85611878  -0.01016585  0.11733635  1
  O2-  O108  1  0.88954361  0.00041000  0.38859595  1
  O2-  O109  1  0.83754040  -0.00856753  0.60855454  1
  O2-  O110  1  0.82839631  -0.00336309  0.82789650  1
  O2-  O111  1  0.90786285  0.48625292  0.12056447  1
  O2-  O112  1  0.88058569  0.49124537  0.38981786  1
  O2-  O113  1  0.90965383  0.49253190  0.63933959  1
  O2-  O114  1  0.83741020  0.50368939  0.86532260  1
  O2-  O115  1  0.16297994  0.25506724  0.13793952  1
  O2-  O116  1  0.08914385  0.25291881  0.38704285  1
  O2-  O117  1  0.12128262  0.25945208  0.61921398  1
  O2-  O118  1  0.14337522  0.27316565  0.86906878  1
  O2-  O119  1  0.17479091  0.75094667  0.12038435  1
  O2-  O120  1  0.17703112  0.75037960  0.38186617  1
  O2-  O121  1  0.12722365  0.75776290  0.63472007  1
  O2-  O122  1  0.09729815  0.73888825  0.87806273  1
  O2-  O123  1  0.34695415  0.25713264  0.10987681  1
  O2-  O124  1  0.41440258  0.25462126  0.38325206  1
  O2-  O125  1  0.39447583  0.26194887  0.63698232  1
  O2-  O126  1  0.35818070  0.24279692  0.90532942  1
  O2-  O127  1  0.35296349  0.76039277  0.12940808  1
  O2-  O128  1  0.43741869  0.74663610  0.38084093  1
  O2-  O129  1  0.36629406  0.76591148  0.60258411  1
  O2-  O130  1  0.38901499  0.77664156  0.90956987  1
  O2-  O131  1  0.54782655  0.28304794  0.12815248  1
  O2-  O132  1  0.61259925  0.23660376  0.38189658  1
  O2-  O133  1  0.58059231  0.25610093  0.63292326  1
  O2-  O134  1  0.57360645  0.24069997  0.88704575  1
  O2-  O135  1  0.64469682  0.75976246  0.13482050  1
  O2-  O136  1  0.63366842  0.73963950  0.42111704  1
  O2-  O137  1  0.61045516  0.73397013  0.60883761  1
  O2-  O138  1  0.61782666  0.73240885  0.86804317  1
  O2-  O139  1  0.93525863  0.26066119  0.12252110  1
  O2-  O140  1  0.90565668  0.24776814  0.38865283  1
  O2-  O141  1  0.81892452  0.25780951  0.61012278  1
  O2-  O142  1  0.74294913  0.30480174  0.88878406  1
  O2-  O143  1  0.83537619  0.75061610  0.12344789  1
  O2-  O144  1  0.82717892  0.73145962  0.39042188  1
  O2-  O145  1  0.93195011  0.74667900  0.65005803  1
  O2-  O146  1  0.90763303  0.73536652  0.85201782  1
  O2-  O147  1  0.10137355  0.15880594  0.00035590  1
  O2-  O148  1  0.09757506  0.13838416  0.25056945  1
  O2-  O149  1  0.12020447  0.12626186  0.50357396  1
  O2-  O150  1  0.12017477  0.13826175  0.74410739  1
  O2-  O151  1  0.15596092  0.63313398  -0.00503928  1
  O2-  O152  1  0.14977561  0.63828209  0.24614284  1
  O2-  O153  1  0.11726744  0.64186476  0.50752226  1
  O2-  O154  1  0.17656016  0.63319033  0.75462583  1
  O2-  O155  1  0.41585450  0.12380218  0.00986240  1
  O2-  O156  1  0.39310413  0.15820723  0.24862097  1
  O2-  O157  1  0.37564218  0.13818178  0.50827778  1
  O2-  O158  1  0.37341565  0.15217651  0.76621543  1
  O2-  O159  1  0.35735474  0.63469511  0.01127677  1
  O2-  O160  1  0.35290087  0.63892400  0.26629642  1
  O2-  O161  1  0.34700269  0.62351626  0.49454182  1
  O2-  O162  1  0.40306423  0.67408530  0.75260650  1
  O2-  O163  1  0.59511642  0.12163045  0.02926148  1
  O2-  O164  1  0.59406551  0.11933044  0.23568517  1
  O2-  O165  1  0.57345876  0.13200297  0.50942513  1
  O2-  O166  1  0.56059088  0.12866833  0.75280048  1
  O2-  O167  1  0.61943650  0.62105606  0.00561234  1
  O2-  O168  1  0.64216492  0.64639933  0.27006381  1
  O2-  O169  1  0.67722486  0.60123777  0.52342748  1
  O2-  O170  1  0.59509308  0.61397210  0.74031726  1
  O2-  O171  1  0.90712083  0.13218879  -0.01823246  1
  O2-  O172  1  0.91397249  0.12897025  0.26417290  1
  O2-  O173  1  0.92069724  0.12900907  0.50829523  1
  O2-  O174  1  0.87588910  0.13518494  0.71622830  1
  O2-  O175  1  0.89359737  0.63218239  -0.01799958  1
  O2-  O176  1  0.85215124  0.62062932  0.26275542  1
  O2-  O177  1  0.89254290  0.63510793  0.52104742  1
  O2-  O178  1  0.82689665  0.62586487  0.74020651  1
  O2-  O179  1  0.07595955  0.36451770  0.02205205  1
  O2-  O180  1  0.09167201  0.37118957  0.25588327  1
  O2-  O181  1  0.09420290  0.38452782  0.49998241  1
  O2-  O182  1  0.07563479  0.39959191  0.73719615  1
  O2-  O183  1  0.15743957  0.86281610  -0.01021527  1
  O2-  O184  1  0.13808231  0.86547887  0.24756638  1
  O2-  O185  1  0.13974020  0.87181204  0.50842663  1
  O2-  O186  1  0.17871130  0.86708558  0.76225777  1
  O2-  O187  1  0.40829664  0.39493680  0.00158361  1
  O2-  O188  1  0.39745835  0.35131733  0.24704578  1
  O2-  O189  1  0.38261693  0.38740135  0.50744628  1
  O2-  O190  1  0.36150167  0.37927858  0.77591527  1
  O2-  O191  1  0.26053419  0.90473371  0.11900107  1
  O2-  O192  1  0.34219808  0.87188384  0.27858773  1
  O2-  O193  1  0.34426845  0.91093917  0.50544676  1
  O2-  O194  1  0.40012199  0.87586580  0.75577732  1
  O2-  O195  1  0.61057366  0.37663656  0.00680145  1
  O2-  O196  1  0.59865266  0.36638270  0.26378620  1
  O2-  O197  1  0.58950953  0.36306672  0.49488754  1
  O2-  O198  1  0.65078329  0.34889342  0.74747136  1
  O2-  O199  1  0.67968552  0.84529575  -0.02342101  1
  O2-  O200  1  0.65690890  0.85017200  0.29767734  1
  O2-  O201  1  0.68758979  0.86686545  0.53617244  1
  O2-  O202  1  0.60915443  0.84442372  0.74023496  1
  O2-  O203  1  0.87496530  0.35984665  -0.00178123  1
  O2-  O204  1  0.90228505  0.36849081  0.25715610  1
  O2-  O205  1  0.91892854  0.36305535  0.51161429  1
  O2-  O206  1  0.85416358  0.35467495  0.74804722  1
  O2-  O207  1  0.86693609  0.85481803  -0.00717801  1
  O2-  O208  1  0.85735424  0.86332577  0.24638788  1
  O2-  O209  1  0.88413962  0.83962624  0.52204749  1
  O2-  O210  1  0.79118673  0.83851848  0.72766373  1
  O2-  O211  1  0.00043645  -0.11698898  -0.10014671  1
  O2-  O212  1  0.00649840  -0.14456776  0.11088057  1
  O2-  O213  1  0.01142724  -0.16528936  0.39043734  1
  O2-  O214  1  -0.04017537  -0.09293173  0.72572445  1
  O2-  O215  1  0.01270168  0.53692493  -0.10004418  1
  O2-  O216  1  0.00544567  0.66601279  0.11565926  1
  O2-  O217  1  0.00597039  0.64005907  0.36865101  1
  O2-  O218  1  -0.00057835  0.61347662  0.76093508  1
  O2-  O219  1  0.25250831  0.11673855  0.04735900  1
  O2-  O220  1  0.24979805  0.10507023  0.20268665  1
  O2-  O221  1  0.25027775  0.15679983  0.37456519  1
  O2-  O222  1  0.24228777  0.13236896  0.87125444  1
  O2-  O223  1  0.24431304  0.39282426  0.04544017  1
  O2-  O224  1  0.24823877  0.39859229  0.20510662  1
  O2-  O225  1  0.25309510  0.34926071  0.38006373  1
  O2-  O226  1  0.24847993  0.36144463  0.65231085  1
  O2-  O227  1  0.51380220  -0.11606745  -0.01707426  1
  O2-  O228  1  0.50126788  -0.14600675  0.15777236  1
  O2-  O229  1  0.52326314  -0.12881902  0.48690293  1
  O2-  O230  1  0.47368559  0.03248885  0.86525382  1
  O2-  O231  1  0.48336933  0.54292755  -0.07478189  1
  O2-  O232  1  0.50457072  0.65892915  0.15932627  1
  O2-  O233  1  0.51915279  0.60179748  0.47017896  1
  O2-  O234  1  0.51063327  0.38898898  0.84325666  1
  O2-  O235  1  0.75353558  0.15105924  0.12802172  1
  O2-  O236  1  0.75247495  0.12321188  0.32010642  1
  O2-  O237  1  0.75883090  0.12656630  0.48295463  1
  O2-  O238  1  0.71312171  0.12394377  0.65094801  1
  O2-  O239  1  0.74787006  0.37136212  0.13463941  1
  O2-  O240  1  0.75696818  0.32839495  0.31668778  1
  O2-  O241  1  0.75897837  0.37356613  0.46864959  1
  O2-  O242  1  0.73906340  0.43131572  0.62338931  1
