# generated using pymatgen
data_Gd19Ta56(WO20)8
_symmetry_space_group_name_H-M   'P 1'
_cell_length_a   15.51656865
_cell_length_b   15.41989142
_cell_length_c   15.31159866
_cell_angle_alpha   90.10439186
_cell_angle_beta   90.15033168
_cell_angle_gamma   89.92958936
_symmetry_Int_Tables_number   1
_chemical_formula_structural   Gd19Ta56(WO20)8
_chemical_formula_sum   'Gd19 Ta56 W8 O160'
_cell_volume   3663.48990040
_cell_formula_units_Z   1
loop_
 _symmetry_equiv_pos_site_id
 _symmetry_equiv_pos_as_xyz
  1  'x, y, z'
loop_
 _atom_type_symbol
 _atom_type_oxidation_number
  Gd3+  3.0
  Ta5+  5.0
  W6+  6.0
  O2-  -2.0
loop_
 _atom_site_type_symbol
 _atom_site_label
 _atom_site_symmetry_multiplicity
 _atom_site_fract_x
 _atom_site_fract_y
 _atom_site_fract_z
 _atom_site_occupancy
  Gd3+  Gd0  1  0.01374151  0.74660982  0.76391271  1
  Gd3+  Gd1  1  0.03207539  0.74146776  -0.01353871  1
  Gd3+  Gd2  1  0.52979675  0.76288008  0.80463557  1
  Gd3+  Gd3  1  0.73236403  0.24451277  0.48756762  1
  Gd3+  Gd4  1  0.48985368  0.27069604  0.53897720  1
  Gd3+  Gd5  1  0.22433977  0.23036437  0.50222501  1
  Gd3+  Gd6  1  0.74849467  0.76162271  0.73590893  1
  Gd3+  Gd7  1  0.50736621  0.26425512  0.01666402  1
  Gd3+  Gd8  1  0.72820667  0.23249156  0.23614817  1
  Gd3+  Gd9  1  0.24017036  0.24909997  0.26726729  1
  Gd3+  Gd10  1  0.74465152  0.74316267  0.01563276  1
  Gd3+  Gd11  1  0.25518977  0.75247168  0.24488412  1
  Gd3+  Gd12  1  0.27063435  0.26423864  0.72653439  1
  Gd3+  Gd13  1  0.75564072  0.73263650  0.47819680  1
  Gd3+  Gd14  1  0.73819724  0.25299157  0.01807839  1
  Gd3+  Gd15  1  0.72137607  0.23481875  0.72721240  1
  Gd3+  Gd16  1  0.24421936  0.75778973  0.51637942  1
  Gd3+  Gd17  1  -0.00901151  0.23730377  0.49676760  1
  Gd3+  Gd18  1  -0.01802996  0.26348454  0.00446614  1
  Ta5+  Ta19  1  0.60679653  0.84785484  0.35911327  1
  Ta5+  Ta20  1  0.55542777  0.63830853  0.36588158  1
  Ta5+  Ta21  1  0.57361180  0.64066272  0.61751082  1
  Ta5+  Ta22  1  0.41785545  0.86906609  0.62740227  1
  Ta5+  Ta23  1  0.86275379  0.37729923  0.61647469  1
  Ta5+  Ta24  1  0.35549632  0.13778166  0.87770597  1
  Ta5+  Ta25  1  0.37766321  0.11200114  0.61161715  1
  Ta5+  Ta26  1  0.66997556  0.91507274  0.90882100  1
  Ta5+  Ta27  1  0.12425663  0.39969572  0.36985741  1
  Ta5+  Ta28  1  0.87534504  0.10620506  0.11367546  1
  Ta5+  Ta29  1  0.56082559  0.85582330  0.11633543  1
  Ta5+  Ta30  1  0.14533572  0.89460564  0.87529997  1
  Ta5+  Ta31  1  0.93214350  0.61983016  0.61785195  1
  Ta5+  Ta32  1  0.41222057  0.62206615  0.14997950  1
  Ta5+  Ta33  1  0.08506042  0.88237340  0.62001299  1
  Ta5+  Ta34  1  0.87266001  0.88052803  0.87753541  1
  Ta5+  Ta35  1  0.91131379  0.84532669  0.37224271  1
  Ta5+  Ta36  1  0.08984897  0.09650968  0.36503126  1
  Ta5+  Ta37  1  0.36402596  0.38819103  0.38633298  1
  Ta5+  Ta38  1  0.60591164  0.08141370  0.35785266  1
  Ta5+  Ta39  1  0.87348941  0.61117816  0.86948544  1
  Ta5+  Ta40  1  0.58900451  0.39202038  0.36392760  1
  Ta5+  Ta41  1  0.08075109  0.12139781  0.67528020  1
  Ta5+  Ta42  1  0.62251041  0.43295335  0.12647922  1
  Ta5+  Ta43  1  0.86497603  0.38291807  0.14456702  1
  Ta5+  Ta44  1  0.66699862  0.61007312  0.86323520  1
  Ta5+  Ta45  1  0.90083423  0.12472938  0.85179775  1
  Ta5+  Ta46  1  0.93160832  0.86327706  0.12240206  1
  Ta5+  Ta47  1  0.10151343  0.87130724  0.13132190  1
  Ta5+  Ta48  1  0.35722008  0.38459848  0.13034247  1
  Ta5+  Ta49  1  0.39848569  0.45031873  0.63542485  1
  Ta5+  Ta50  1  0.93618577  0.65896682  0.37181214  1
  Ta5+  Ta51  1  0.37346286  0.88130290  0.38285068  1
  Ta5+  Ta52  1  0.39005815  0.89638801  0.88237741  1
  Ta5+  Ta53  1  0.83125196  0.37376893  0.86933854  1
  Ta5+  Ta54  1  0.12101089  0.12742562  0.88488670  1
  Ta5+  Ta55  1  0.11165699  0.37512440  0.13849715  1
  Ta5+  Ta56  1  0.35140696  0.40604788  0.88007599  1
  Ta5+  Ta57  1  0.36532017  0.13193068  0.12913337  1
  Ta5+  Ta58  1  0.15235192  0.56548935  0.88200742  1
  Ta5+  Ta59  1  0.08025915  0.84498204  0.37659487  1
  Ta5+  Ta60  1  0.38578210  0.63665881  0.89730164  1
  Ta5+  Ta61  1  0.39018876  0.63512464  0.38827011  1
  Ta5+  Ta62  1  0.92325246  0.40796886  0.37179863  1
  Ta5+  Ta63  1  0.11759184  0.12230841  0.13364366  1
  Ta5+  Ta64  1  0.58576649  0.84866030  0.59829710  1
  Ta5+  Ta65  1  0.10184686  0.37621738  0.63632907  1
  Ta5+  Ta66  1  0.91612590  0.86260309  0.61571871  1
  Ta5+  Ta67  1  0.85199575  0.10503288  0.61295680  1
  Ta5+  Ta68  1  0.60185706  0.62555520  0.11223700  1
  Ta5+  Ta69  1  0.86129462  0.09132237  0.36267687  1
  Ta5+  Ta70  1  0.10194486  0.62614345  0.13386156  1
  Ta5+  Ta71  1  0.93099178  0.62433889  0.12276394  1
  Ta5+  Ta72  1  0.39346931  0.65355108  0.64102076  1
  Ta5+  Ta73  1  0.63266679  0.40871046  0.61877055  1
  Ta5+  Ta74  1  0.10405439  0.64713899  0.38058451  1
  W6+  W75  1  0.66471264  0.37188795  0.87388827  1
  W6+  W76  1  0.13273938  0.35724975  0.88369496  1
  W6+  W77  1  0.60400327  0.10575451  0.60371036  1
  W6+  W78  1  0.36281932  0.11042294  0.39247188  1
  W6+  W79  1  0.62329938  0.09828535  0.86379612  1
  W6+  W80  1  0.61935166  0.09705206  0.09985755  1
  W6+  W81  1  0.09719272  0.62658656  0.63276374  1
  W6+  W82  1  0.39956010  0.87700336  0.12781525  1
  O2-  O83  1  0.10829473  0.00060609  0.14361702  1
  O2-  O84  1  0.07662551  -0.02092563  0.37149699  1
  O2-  O85  1  0.10032958  0.01584131  0.62356814  1
  O2-  O86  1  0.09244730  0.00837703  0.88880278  1
  O2-  O87  1  0.10469617  0.49713365  0.13457136  1
  O2-  O88  1  0.11181232  0.52214815  0.38011032  1
  O2-  O89  1  0.08242642  0.49180114  0.63107305  1
  O2-  O90  1  0.07116465  0.47610853  0.87791278  1
  O2-  O91  1  0.39668165  0.01842455  0.12778899  1
  O2-  O92  1  0.31521652  -0.01342540  0.38033817  1
  O2-  O93  1  0.39769284  -0.00733153  0.63286778  1
  O2-  O94  1  0.39490868  0.02164886  0.87344033  1
  O2-  O95  1  0.35741795  0.50747886  0.13618265  1
  O2-  O96  1  0.39915265  0.50586748  0.38213407  1
  O2-  O97  1  0.31831499  0.54219638  0.64965697  1
  O2-  O98  1  0.41297177  0.51003976  0.87112607  1
  O2-  O99  1  0.58642836  -0.02882085  0.11921430  1
  O2-  O100  1  0.65515319  -0.03153070  0.35826564  1
  O2-  O101  1  0.58361807  -0.03018718  0.59393602  1
  O2-  O102  1  0.57744558  -0.03437737  0.84702153  1
  O2-  O103  1  0.68608328  0.54179342  0.14994489  1
  O2-  O104  1  0.58346986  0.51355352  0.35174120  1
  O2-  O105  1  0.64494686  0.52711319  0.61958075  1
  O2-  O106  1  0.62150226  0.50160615  0.86731516  1
  O2-  O107  1  0.89492513  -0.01242602  0.10622462  1
  O2-  O108  1  0.87875840  -0.02390194  0.38037578  1
  O2-  O109  1  0.88526886  -0.01130842  0.61397760  1
  O2-  O110  1  0.88488408  0.00570972  0.87194512  1
  O2-  O111  1  0.88494857  0.50143724  0.12803238  1
  O2-  O112  1  0.90810028  0.52401297  0.38333619  1
  O2-  O113  1  0.89267689  0.49649738  0.60818104  1
  O2-  O114  1  0.87473938  0.48640960  0.87136601  1
  O2-  O115  1  0.12576260  0.24698945  0.16911539  1
  O2-  O116  1  0.13703184  0.26295641  0.37794518  1
  O2-  O117  1  0.12774170  0.22702032  0.62576932  1
  O2-  O118  1  0.06259472  0.23987100  0.87883555  1
  O2-  O119  1  0.14010613  0.74707265  0.10721712  1
  O2-  O120  1  0.17797122  0.75584336  0.37957249  1
  O2-  O121  1  0.11097136  0.76108145  0.64754232  1
  O2-  O122  1  0.10921819  0.77388122  0.87083012  1
  O2-  O123  1  0.41383326  0.26476534  0.12928084  1
  O2-  O124  1  0.32684699  0.25649280  0.39895584  1
  O2-  O125  1  0.33886224  0.24354941  0.60330913  1
  O2-  O126  1  0.33343438  0.27498694  0.86457806  1
  O2-  O127  1  0.37026493  0.73741816  0.13405187  1
  O2-  O128  1  0.33747459  0.75629697  0.38239998  1
  O2-  O129  1  0.34012037  0.76530359  0.65055093  1
  O2-  O130  1  0.40548781  0.76186130  0.89630655  1
  O2-  O131  1  0.62694098  0.23598833  0.11332856  1
  O2-  O132  1  0.68605672  0.31574806  0.35451847  1
  O2-  O133  1  0.63554940  0.25321619  0.60156429  1
  O2-  O134  1  0.69134891  0.22678015  0.87648519  1
  O2-  O135  1  0.64404098  0.74413470  0.12652850  1
  O2-  O136  1  0.65262866  0.73120425  0.34792484  1
  O2-  O137  1  0.67512036  0.72273562  0.60644151  1
  O2-  O138  1  0.67122280  0.74718321  0.86918823  1
  O2-  O139  1  0.84723745  0.24791170  0.13236035  1
  O2-  O140  1  0.74744482  0.14402085  0.37040418  1
  O2-  O141  1  0.82577252  0.24493873  0.61219138  1
  O2-  O142  1  0.88333882  0.25269712  0.86367845  1
  O2-  O143  1  0.88241548  0.74472559  0.08994881  1
  O2-  O144  1  0.83932922  0.74113364  0.35357266  1
  O2-  O145  1  0.88172980  0.73747514  0.65426362  1
  O2-  O146  1  0.87265188  0.74626314  0.86418458  1
  O2-  O147  1  0.09740222  0.14365996  0.01063984  1
  O2-  O148  1  0.16338698  0.11608785  0.26800589  1
  O2-  O149  1  0.10254711  0.13231042  0.48176247  1
  O2-  O150  1  0.17037455  0.14415273  0.76465248  1
  O2-  O151  1  0.12166297  0.61392924  -0.00799278  1
  O2-  O152  1  0.13496600  0.64654905  0.25197063  1
  O2-  O153  1  0.13220589  0.65249051  0.50562339  1
  O2-  O154  1  0.11897634  0.61903708  0.77865808  1
  O2-  O155  1  0.39550132  0.16102270  -0.00334851  1
  O2-  O156  1  0.35462445  0.15061664  0.25193488  1
  O2-  O157  1  0.43878246  0.13653079  0.49830489  1
  O2-  O158  1  0.34959936  0.13967927  0.74863894  1
  O2-  O159  1  0.41631940  0.62280007  0.01705064  1
  O2-  O160  1  0.34429642  0.62974791  0.26085784  1
  O2-  O161  1  0.36688182  0.64886603  0.51190044  1
  O2-  O162  1  0.41982096  0.65290186  0.77066363  1
  O2-  O163  1  0.57090165  0.14045181  -0.02096862  1
  O2-  O164  1  0.63245794  0.12273826  0.24349965  1
  O2-  O165  1  0.60658468  0.15333553  0.46177312  1
  O2-  O166  1  0.64369085  0.11286113  0.73725299  1
  O2-  O167  1  0.60985413  0.63528466  -0.01019789  1
  O2-  O168  1  0.52002765  0.64590401  0.21634147  1
  O2-  O169  1  0.57043472  0.63831607  0.48749004  1
  O2-  O170  1  0.59982557  0.64300846  0.75208110  1
  O2-  O171  1  0.90169489  0.13770787  -0.01564545  1
  O2-  O172  1  0.84147789  0.10632468  0.23875097  1
  O2-  O173  1  0.88026120  0.13690085  0.48352935  1
  O2-  O174  1  0.83496599  0.12357679  0.74200376  1
  O2-  O175  1  0.93933167  0.62198673  -0.02223427  1
  O2-  O176  1  0.93397028  0.64320873  0.24243817  1
  O2-  O177  1  0.90240814  0.65061676  0.50254855  1
  O2-  O178  1  0.93847568  0.61492823  0.75820351  1
  O2-  O179  1  0.10530351  0.34841050  0.01642264  1
  O2-  O180  1  0.17579572  0.38582851  0.25255414  1
  O2-  O181  1  0.18968341  0.36545923  0.55708570  1
  O2-  O182  1  0.15666068  0.36045433  0.74559426  1
  O2-  O183  1  0.13015853  0.88111998  0.00200748  1
  O2-  O184  1  0.12187903  0.84714110  0.25426587  1
  O2-  O185  1  0.13198736  0.86318141  0.50505081  1
  O2-  O186  1  0.11601352  0.89706917  0.75282538  1
  O2-  O187  1  0.39361821  0.38174841  -0.00255793  1
  O2-  O188  1  0.35559576  0.37099300  0.25837265  1
  O2-  O189  1  0.38752308  0.39862652  0.52271517  1
  O2-  O190  1  0.35583942  0.39243897  0.74321764  1
  O2-  O191  1  0.43322515  0.89559612  -0.00468798  1
  O2-  O192  1  0.35556277  0.86539333  0.25804420  1
  O2-  O193  1  0.35681034  0.86294318  0.51268473  1
  O2-  O194  1  0.43278591  0.87213185  0.76506701  1
  O2-  O195  1  0.61264007  0.37811184  0.01436107  1
  O2-  O196  1  0.57832985  0.38394231  0.22925848  1
  O2-  O197  1  0.59567386  0.38862227  0.49206164  1
  O2-  O198  1  0.66769492  0.37342298  0.73222184  1
  O2-  O199  1  0.60934513  0.84353348  -0.00762938  1
  O2-  O200  1  0.56254487  0.84222539  0.24082302  1
  O2-  O201  1  0.65029198  0.83771243  0.48205458  1
  O2-  O202  1  0.61786897  0.83405852  0.71682001  1
  O2-  O203  1  0.85363489  0.35792906  0.00070849  1
  O2-  O204  1  0.85070152  0.37167924  0.27141842  1
  O2-  O205  1  0.87169002  0.32946734  0.46028109  1
  O2-  O206  1  0.84478568  0.37156095  0.73701350  1
  O2-  O207  1  0.95202849  0.86723942  -0.02499433  1
  O2-  O208  1  0.91298616  0.85632185  0.24143605  1
  O2-  O209  1  0.86687786  0.83657624  0.50191462  1
  O2-  O210  1  0.92611834  0.87049603  0.75789933  1
  O2-  O211  1  -0.00802002  0.14242814  0.14261668  1
  O2-  O212  1  -0.02205701  0.14825784  0.34695559  1
  O2-  O213  1  -0.02682576  0.15322892  0.62182465  1
  O2-  O214  1  0.00827213  0.11246811  0.78730239  1
  O2-  O215  1  -0.01431501  0.35125253  0.12883250  1
  O2-  O216  1  0.01760897  0.39183940  0.29210275  1
  O2-  O217  1  0.02830045  0.38080136  0.45512189  1
  O2-  O218  1  -0.01608452  0.33181627  0.61549872  1
  O2-  O219  1  0.24151163  0.11740628  -0.08679870  1
  O2-  O220  1  0.24637314  0.13204725  0.10918541  1
  O2-  O221  1  0.28650357  0.09877234  0.52289582  1
  O2-  O222  1  0.26740508  -0.10661031  0.87543880  1
  O2-  O223  1  0.24010598  0.45725408  -0.10653412  1
  O2-  O224  1  0.24543537  0.36058829  0.10600193  1
  O2-  O225  1  0.24597373  0.41156668  0.40328528  1
  O2-  O226  1  0.26799922  0.62723377  0.89013203  1
  O2-  O227  1  0.68804161  0.02440698  -0.03957595  1
  O2-  O228  1  0.49037607  0.06534910  0.34565755  1
  O2-  O229  1  0.49382114  -0.12134381  0.39679555  1
  O2-  O230  1  0.48830188  0.16350904  0.64642511  1
  O2-  O231  1  0.52683450  0.51661443  0.10745715  1
  O2-  O232  1  0.48436585  0.32931513  0.38136088  1
  O2-  O233  1  0.47878822  0.54620432  0.62351115  1
  O2-  O234  1  0.51006347  0.38029037  0.64603092  1
  O2-  O235  1  0.78328688  -0.12649107  -0.02675031  1
  O2-  O236  1  0.75318218  0.12249124  0.08688626  1
  O2-  O237  1  0.73863075  0.09781979  0.57010224  1
  O2-  O238  1  0.75620122  -0.10704981  0.81323983  1
  O2-  O239  1  0.76820006  0.61220916  -0.05172386  1
  O2-  O240  1  0.73666550  0.37351500  0.13854871  1
  O2-  O241  1  0.74878641  0.38800640  0.56538337  1
  O2-  O242  1  0.76657831  0.61742921  0.78377902  1
