# generated using pymatgen
data_Gd19Ta56(WO20)8
_symmetry_space_group_name_H-M   'P 1'
_cell_length_a   15.52121351
_cell_length_b   15.54145316
_cell_length_c   15.27974322
_cell_angle_alpha   90.08270660
_cell_angle_beta   89.86749561
_cell_angle_gamma   89.95991402
_symmetry_Int_Tables_number   1
_chemical_formula_structural   Gd19Ta56(WO20)8
_chemical_formula_sum   'Gd19 Ta56 W8 O160'
_cell_volume   3685.79886270
_cell_formula_units_Z   1
loop_
 _symmetry_equiv_pos_site_id
 _symmetry_equiv_pos_as_xyz
  1  'x, y, z'
loop_
 _atom_type_symbol
 _atom_type_oxidation_number
  Gd3+  3.0
  Ta5+  5.0
  W6+  6.0
  O2-  -2.0
loop_
 _atom_site_type_symbol
 _atom_site_label
 _atom_site_symmetry_multiplicity
 _atom_site_fract_x
 _atom_site_fract_y
 _atom_site_fract_z
 _atom_site_occupancy
  Gd3+  Gd0  1  0.77713509  0.74709915  0.48100807  1
  Gd3+  Gd1  1  0.73471799  0.75640247  0.23763462  1
  Gd3+  Gd2  1  0.48422547  0.76326584  0.74943427  1
  Gd3+  Gd3  1  0.50712282  0.24345226  0.74378788  1
  Gd3+  Gd4  1  0.22903590  0.25546418  0.50147188  1
  Gd3+  Gd5  1  0.76545816  0.75364060  0.74663250  1
  Gd3+  Gd6  1  0.27007832  0.74097637  -0.02504755  1
  Gd3+  Gd7  1  -0.01054355  0.24704889  0.00908616  1
  Gd3+  Gd8  1  0.72966003  0.25115497  0.51061378  1
  Gd3+  Gd9  1  -0.00324706  0.24948132  0.49425425  1
  Gd3+  Gd10  1  0.46937891  0.75253048  0.49743187  1
  Gd3+  Gd11  1  0.51294328  0.24065892  0.00953074  1
  Gd3+  Gd12  1  0.48558647  0.26280860  0.50245522  1
  Gd3+  Gd13  1  0.03559365  0.74221374  0.49947606  1
  Gd3+  Gd14  1  0.01352148  0.23916305  0.74035675  1
  Gd3+  Gd15  1  0.00749274  0.26080700  0.24888199  1
  Gd3+  Gd16  1  0.24083440  0.25236532  -0.00320170  1
  Gd3+  Gd17  1  -0.02052469  0.75195699  0.01173891  1
  Gd3+  Gd18  1  0.26950915  0.22842614  0.73729989  1
  Ta5+  Ta19  1  0.88912102  0.88876917  0.14594296  1
  Ta5+  Ta20  1  0.83567141  0.12559876  0.12192534  1
  Ta5+  Ta21  1  0.12138638  0.86896066  0.87890305  1
  Ta5+  Ta22  1  0.64374990  0.88464790  0.87300901  1
  Ta5+  Ta23  1  0.36696118  0.11845401  0.37713732  1
  Ta5+  Ta24  1  0.35620689  0.38774900  0.62929834  1
  Ta5+  Ta25  1  0.63137621  0.12377100  0.37185826  1
  Ta5+  Ta26  1  0.61299860  0.39077301  0.62985203  1
  Ta5+  Ta27  1  0.32131723  0.86538357  0.62790543  1
  Ta5+  Ta28  1  0.64654858  0.11274072  0.64712320  1
  Ta5+  Ta29  1  0.34500752  0.63327398  0.62860678  1
  Ta5+  Ta30  1  0.32062489  0.87221581  0.37371887  1
  Ta5+  Ta31  1  0.11579962  0.39288850  0.37823277  1
  Ta5+  Ta32  1  0.12864038  0.61780208  0.12181920  1
  Ta5+  Ta33  1  0.36352322  0.10291359  0.59065257  1
  Ta5+  Ta34  1  0.62547993  0.87657014  0.61576446  1
  Ta5+  Ta35  1  0.38170430  0.37549135  0.88811378  1
  Ta5+  Ta36  1  0.87998772  0.62002447  0.61699820  1
  Ta5+  Ta37  1  0.39595332  0.88744151  0.87739314  1
  Ta5+  Ta38  1  0.86336113  0.12236957  0.36867566  1
  Ta5+  Ta39  1  0.13842830  0.37840369  0.86688983  1
  Ta5+  Ta40  1  0.36233701  0.10397056  0.91150442  1
  Ta5+  Ta41  1  0.14198953  0.11631488  0.36391630  1
  Ta5+  Ta42  1  0.87679718  0.09331051  0.62291222  1
  Ta5+  Ta43  1  0.35955558  0.38737882  0.37396317  1
  Ta5+  Ta44  1  0.32236707  0.37362363  0.13323565  1
  Ta5+  Ta45  1  0.63461087  0.63756715  0.61707206  1
  Ta5+  Ta46  1  0.60586151  0.38200558  0.36723406  1
  Ta5+  Ta47  1  0.86082379  0.38675232  0.62299005  1
  Ta5+  Ta48  1  0.66537344  0.12995094  0.11951932  1
  Ta5+  Ta49  1  0.12030153  0.09860533  0.62676687  1
  Ta5+  Ta50  1  0.63246753  0.63478050  0.86968019  1
  Ta5+  Ta51  1  0.61163131  0.62569895  0.11430870  1
  Ta5+  Ta52  1  0.34110055  0.63566910  0.37064854  1
  Ta5+  Ta53  1  0.37066979  0.87774897  0.12788377  1
  Ta5+  Ta54  1  0.11356092  0.61887919  0.88024590  1
  Ta5+  Ta55  1  0.36049803  0.11744379  0.13785539  1
  Ta5+  Ta56  1  0.87999967  0.87386681  0.61648871  1
  Ta5+  Ta57  1  0.14404595  0.39457775  0.63604282  1
  Ta5+  Ta58  1  0.86656437  0.62400483  0.87966656  1
  Ta5+  Ta59  1  0.88922637  0.88062381  0.35217156  1
  Ta5+  Ta60  1  0.36884309  0.61811492  0.12435229  1
  Ta5+  Ta61  1  0.13004736  0.87433919  0.11994365  1
  Ta5+  Ta62  1  0.86390881  0.38011024  0.87667172  1
  Ta5+  Ta63  1  0.15197263  0.37483001  0.12547876  1
  Ta5+  Ta64  1  0.86832751  0.38085557  0.12272467  1
  Ta5+  Ta65  1  0.17438063  0.64013252  0.63462287  1
  Ta5+  Ta66  1  0.63626738  0.37536009  0.12908963  1
  Ta5+  Ta67  1  0.61462293  0.88830811  0.11481371  1
  Ta5+  Ta68  1  0.88149251  0.61767713  0.34845310  1
  Ta5+  Ta69  1  0.62659316  0.38565532  0.88245510  1
  Ta5+  Ta70  1  0.88836331  0.62094306  0.14265795  1
  Ta5+  Ta71  1  0.17014006  0.63219835  0.37333293  1
  Ta5+  Ta72  1  0.87353635  0.88532082  0.88132218  1
  Ta5+  Ta73  1  0.59963369  0.62547477  0.36752543  1
  Ta5+  Ta74  1  0.10365293  0.11522197  0.12424143  1
  W6+  W75  1  0.86882165  0.13329500  0.87473062  1
  W6+  W76  1  0.15659374  0.11347458  0.88419773  1
  W6+  W77  1  0.15874449  0.86314853  0.36812609  1
  W6+  W78  1  0.86543756  0.37675867  0.36303922  1
  W6+  W79  1  0.65582508  0.13515160  0.85868712  1
  W6+  W80  1  0.15883312  0.84860188  0.63425959  1
  W6+  W81  1  0.61575590  0.87979208  0.37359939  1
  W6+  W82  1  0.41200480  0.61664637  0.87185569  1
  O2-  O83  1  0.14005882  0.00003773  0.11991676  1
  O2-  O84  1  0.15056629  -0.00014466  0.37351051  1
  O2-  O85  1  0.12567906  -0.01708710  0.62345184  1
  O2-  O86  1  0.13768104  -0.01574028  0.88630321  1
  O2-  O87  1  0.14150348  0.49565623  0.10885257  1
  O2-  O88  1  0.14349764  0.50903614  0.38622626  1
  O2-  O89  1  0.13768770  0.51479818  0.63612468  1
  O2-  O90  1  0.10812607  0.49571188  0.88646926  1
  O2-  O91  1  0.33201401  -0.00264889  0.13097786  1
  O2-  O92  1  0.35835507  -0.00448755  0.37581667  1
  O2-  O93  1  0.35573918  -0.01274229  0.61507288  1
  O2-  O94  1  0.42890246  0.01111904  0.87279345  1
  O2-  O95  1  0.34828276  0.50019184  0.13034163  1
  O2-  O96  1  0.34511117  0.50645085  0.36904946  1
  O2-  O97  1  0.35977273  0.50626551  0.64216282  1
  O2-  O98  1  0.42877668  0.48153693  0.87322430  1
  O2-  O99  1  0.63627963  0.00619507  0.11910000  1
  O2-  O100  1  0.59072644  0.01219115  0.37642110  1
  O2-  O101  1  0.60246947  -0.00637410  0.62643405  1
  O2-  O102  1  0.66702144  0.00000708  0.85832760  1
  O2-  O103  1  0.62511595  0.49968971  0.13367792  1
  O2-  O104  1  0.62841753  0.50499295  0.37759315  1
  O2-  O105  1  0.61732143  0.50856600  0.62035381  1
  O2-  O106  1  0.62246584  0.50394683  0.86892934  1
  O2-  O107  1  0.84607205  -0.00176014  0.11998988  1
  O2-  O108  1  0.87775039  0.00125822  0.38878999  1
  O2-  O109  1  0.93274530  -0.01496475  0.60782591  1
  O2-  O110  1  0.85337494  0.00120763  0.88125773  1
  O2-  O111  1  0.85676909  0.50540610  0.11798189  1
  O2-  O112  1  0.84046457  0.50909490  0.37370473  1
  O2-  O113  1  0.90446108  0.49613914  0.60070059  1
  O2-  O114  1  0.85629601  0.50098737  0.89162200  1
  O2-  O115  1  0.12498487  0.24081219  0.13155597  1
  O2-  O116  1  0.09863894  0.24889447  0.37278434  1
  O2-  O117  1  0.14510080  0.25466387  0.64151143  1
  O2-  O118  1  0.16973297  0.25043332  0.85325248  1
  O2-  O119  1  0.10822306  0.74640616  0.10518917  1
  O2-  O120  1  0.10341538  0.73686287  0.36523223  1
  O2-  O121  1  0.08818353  0.73159501  0.64010549  1
  O2-  O122  1  0.09981024  0.74313751  0.91557811  1
  O2-  O123  1  0.31777787  0.23363496  0.12485948  1
  O2-  O124  1  0.38029892  0.24682036  0.39680666  1
  O2-  O125  1  0.34675861  0.25492976  0.59206474  1
  O2-  O126  1  0.37498820  0.23223243  0.90162782  1
  O2-  O127  1  0.33820830  0.75677031  0.10461620  1
  O2-  O128  1  0.37749994  0.75969974  0.37882012  1
  O2-  O129  1  0.39258941  0.75834601  0.62923664  1
  O2-  O130  1  0.38572370  0.75592219  0.87980290  1
  O2-  O131  1  0.59795657  0.25423879  0.13045147  1
  O2-  O132  1  0.58550949  0.24484818  0.38731576  1
  O2-  O133  1  0.59542780  0.23886027  0.61927501  1
  O2-  O134  1  0.57533768  0.26239867  0.87461507  1
  O2-  O135  1  0.64391799  0.74970334  0.11642033  1
  O2-  O136  1  0.66917306  0.74016870  0.37396820  1
  O2-  O137  1  0.57227426  0.74920952  0.62989291  1
  O2-  O138  1  0.67364655  0.75411386  0.87289952  1
  O2-  O139  1  0.89232818  0.25140651  0.13246938  1
  O2-  O140  1  0.91662524  0.24159952  0.36604951  1
  O2-  O141  1  0.95572970  0.31086092  0.62530779  1
  O2-  O142  1  0.93172994  0.26660892  0.86841125  1
  O2-  O143  1  0.88355405  0.75300339  0.14716613  1
  O2-  O144  1  0.85358179  0.74971499  0.34903309  1
  O2-  O145  1  0.88575162  0.74630075  0.62733428  1
  O2-  O146  1  0.85697561  0.75214488  0.86406109  1
  O2-  O147  1  0.07627227  0.12710338  0.00024230  1
  O2-  O148  1  0.07443808  0.12015947  0.25579852  1
  O2-  O149  1  0.11969167  0.13937306  0.49295269  1
  O2-  O150  1  0.09696072  0.11761906  0.75037266  1
  O2-  O151  1  0.17687538  0.62271204  -0.00553397  1
  O2-  O152  1  0.15847537  0.62373553  0.23865462  1
  O2-  O153  1  0.15900258  0.64362279  0.50465032  1
  O2-  O154  1  0.16473327  0.63356288  0.77271051  1
  O2-  O155  1  0.43039886  0.11783539  0.03156590  1
  O2-  O156  1  0.40799757  0.12479598  0.25063037  1
  O2-  O157  1  0.28783936  0.12018651  0.48132438  1
  O2-  O158  1  0.40555718  0.14812352  0.69738783  1
  O2-  O159  1  0.35328172  0.62202005  -0.00169355  1
  O2-  O160  1  0.34396823  0.64475512  0.24221467  1
  O2-  O161  1  0.36353134  0.63838093  0.50534045  1
  O2-  O162  1  0.42168861  0.63585194  0.73679617  1
  O2-  O163  1  0.62210649  0.14175181  -0.00087030  1
  O2-  O164  1  0.64957426  0.13079118  0.24987016  1
  O2-  O165  1  0.64985878  0.12829352  0.51112380  1
  O2-  O166  1  0.71373789  0.17165472  0.73147288  1
  O2-  O167  1  0.64884917  0.62013622  -0.00223354  1
  O2-  O168  1  0.62687106  0.63812245  0.24385322  1
  O2-  O169  1  0.59170035  0.64707447  0.49508417  1
  O2-  O170  1  0.65763233  0.63551817  0.74356169  1
  O2-  O171  1  0.88970402  0.13812436  0.00876850  1
  O2-  O172  1  0.87219910  0.12035433  0.24722837  1
  O2-  O173  1  0.86064892  0.15772226  0.51348787  1
  O2-  O174  1  0.89271896  0.14271877  0.73434630  1
  O2-  O175  1  0.86578872  0.64810324  0.00854821  1
  O2-  O176  1  0.80051059  0.62437171  0.23879808  1
  O2-  O177  1  0.90216036  0.64624575  0.47931798  1
  O2-  O178  1  0.85546138  0.61690970  0.74485692  1
  O2-  O179  1  0.11210221  0.34543108  -0.00817448  1
  O2-  O180  1  0.11451168  0.37582153  0.25302499  1
  O2-  O181  1  0.10121823  0.35954615  0.51552241  1
  O2-  O182  1  0.07662275  0.37599564  0.75339122  1
  O2-  O183  1  0.17967045  0.86230378  0.00113438  1
  O2-  O184  1  0.17603031  0.86224197  0.23005460  1
  O2-  O185  1  0.12883938  0.84914864  0.50050214  1
  O2-  O186  1  0.17018580  0.84175722  0.77415141  1
  O2-  O187  1  0.39139319  0.35655713  0.01587171  1
  O2-  O188  1  0.34986983  0.35853876  0.25170083  1
  O2-  O189  1  0.40072499  0.38739346  0.49729767  1
  O2-  O190  1  0.38919243  0.33561880  0.75988647  1
  O2-  O191  1  0.34887201  0.88821963  -0.00798999  1
  O2-  O192  1  0.36488787  0.86794885  0.24817194  1
  O2-  O193  1  0.33355570  0.85985178  0.50098612  1
  O2-  O194  1  0.36620890  0.87560904  0.75497203  1
  O2-  O195  1  0.58927267  0.37718829  0.00461824  1
  O2-  O196  1  0.65813744  0.36710555  0.25772559  1
  O2-  O197  1  0.62260748  0.36438639  0.49706874  1
  O2-  O198  1  0.61016786  0.37077841  0.75354396  1
  O2-  O199  1  0.66158026  0.87872943  -0.00132941  1
  O2-  O200  1  0.63339911  0.86898193  0.23613387  1
  O2-  O201  1  0.57171583  0.86065683  0.50285345  1
  O2-  O202  1  0.65513588  0.85913255  0.74226830  1
  O2-  O203  1  0.91245980  0.37505075  0.00104661  1
  O2-  O204  1  0.91910770  0.38376626  0.23542262  1
  O2-  O205  1  0.84524637  0.34690845  0.49949450  1
  O2-  O206  1  0.86448813  0.38585597  0.75152573  1
  O2-  O207  1  0.86929598  0.85949909  0.00660176  1
  O2-  O208  1  0.80789711  0.88530699  0.24973365  1
  O2-  O209  1  0.90036422  0.84635656  0.48472370  1
  O2-  O210  1  0.85568703  0.87803021  0.74495008  1
  O2-  O211  1  0.00829666  -0.11832604  0.09216743  1
  O2-  O212  1  -0.03328945  -0.11215983  0.25690331  1
  O2-  O213  1  0.00221661  0.14583832  0.60687403  1
  O2-  O214  1  -0.00377481  -0.12868301  0.87693855  1
  O2-  O215  1  0.00630087  0.61614648  0.09027688  1
  O2-  O216  1  -0.03838482  0.61009046  0.25558054  1
  O2-  O217  1  -0.00468633  0.39302509  0.39307318  1
  O2-  O218  1  -0.01023977  0.62469170  0.87486545  1
  O2-  O219  1  0.26338611  0.10890588  -0.00601153  1
  O2-  O220  1  0.25126429  0.14598906  0.32022207  1
  O2-  O221  1  0.24287632  0.12003393  0.63757047  1
  O2-  O222  1  0.27765280  0.10430695  0.81900779  1
  O2-  O223  1  0.25957002  0.38883233  -0.10078898  1
  O2-  O224  1  0.23910867  0.35369980  0.39085651  1
  O2-  O225  1  0.24979181  0.39366529  0.55971667  1
  O2-  O226  1  0.24363324  0.37833587  0.71697900  1
  O2-  O227  1  0.52180542  -0.13212089  -0.13013131  1
  O2-  O228  1  0.49211807  -0.11853681  0.10859037  1
  O2-  O229  1  0.44912189  0.11875835  0.49450951  1
  O2-  O230  1  0.56865262  0.11022037  0.74897667  1
  O2-  O231  1  0.49195098  0.63008340  0.11675743  1
  O2-  O232  1  0.48245615  0.62915402  0.36210253  1
  O2-  O233  1  0.49008082  0.38952714  0.34851994  1
  O2-  O234  1  0.48935725  0.36408963  0.62920524  1
  O2-  O235  1  0.75929941  0.19166212  -0.09533442  1
  O2-  O236  1  0.75092139  0.17368407  0.38117014  1
  O2-  O237  1  0.75119830  -0.15033045  0.59451803  1
  O2-  O238  1  0.76259042  0.05360047  0.62529867  1
  O2-  O239  1  0.74493770  0.36305265  -0.10540553  1
  O2-  O240  1  0.75056109  0.36024212  0.09473858  1
  O2-  O241  1  0.75683991  0.61957380  0.58236733  1
  O2-  O242  1  0.73733669  0.35527817  0.62870115  1
