# generated using pymatgen
data_Gd19Ta56(WO20)8
_symmetry_space_group_name_H-M   'P 1'
_cell_length_a   15.56024746
_cell_length_b   15.46172126
_cell_length_c   15.28157451
_cell_angle_alpha   90.01517064
_cell_angle_beta   89.76506721
_cell_angle_gamma   90.00590870
_symmetry_Int_Tables_number   1
_chemical_formula_structural   Gd19Ta56(WO20)8
_chemical_formula_sum   'Gd19 Ta56 W8 O160'
_cell_volume   3676.53558823
_cell_formula_units_Z   1
loop_
 _symmetry_equiv_pos_site_id
 _symmetry_equiv_pos_as_xyz
  1  'x, y, z'
loop_
 _atom_type_symbol
 _atom_type_oxidation_number
  Gd3+  3.0
  Ta5+  5.0
  W6+  6.0
  O2-  -2.0
loop_
 _atom_site_type_symbol
 _atom_site_label
 _atom_site_symmetry_multiplicity
 _atom_site_fract_x
 _atom_site_fract_y
 _atom_site_fract_z
 _atom_site_occupancy
  Gd3+  Gd0  1  0.79037253  0.26367887  0.26416974  1
  Gd3+  Gd1  1  0.01091320  0.74193478  0.00921960  1
  Gd3+  Gd2  1  0.74574341  0.25261102  0.49572407  1
  Gd3+  Gd3  1  -0.01125253  0.25152558  0.49119829  1
  Gd3+  Gd4  1  0.73178708  0.76362312  0.48614148  1
  Gd3+  Gd5  1  0.50553464  0.24900428  0.48185495  1
  Gd3+  Gd6  1  0.26684510  0.25435880  0.75192003  1
  Gd3+  Gd7  1  0.24237179  0.75383715  0.73111333  1
  Gd3+  Gd8  1  0.24007100  0.26373830  -0.00448603  1
  Gd3+  Gd9  1  -0.04006926  0.74198970  0.78304972  1
  Gd3+  Gd10  1  0.48554796  0.73323877  -0.02978186  1
  Gd3+  Gd11  1  0.72653400  0.74675110  0.24508570  1
  Gd3+  Gd12  1  0.74290637  0.77345111  0.74347068  1
  Gd3+  Gd13  1  0.75724598  0.26984375  -0.00635043  1
  Gd3+  Gd14  1  0.02162373  0.22720174  0.24141632  1
  Gd3+  Gd15  1  0.49773409  0.74905500  0.21765404  1
  Gd3+  Gd16  1  0.52249484  0.23616803  0.02959147  1
  Gd3+  Gd17  1  0.51741523  0.24766473  0.76467989  1
  Gd3+  Gd18  1  0.24792534  0.74652547  0.47880524  1
  Ta5+  Ta19  1  0.62078967  0.38717036  0.88329629  1
  Ta5+  Ta20  1  0.40719209  0.62231957  0.37866856  1
  Ta5+  Ta21  1  0.86699152  0.61375955  0.34608858  1
  Ta5+  Ta22  1  0.84291785  0.88271936  0.91570644  1
  Ta5+  Ta23  1  0.63761793  0.37161451  0.14585066  1
  Ta5+  Ta24  1  0.14810642  0.12476091  0.62811302  1
  Ta5+  Ta25  1  0.85631780  0.12126268  0.13066464  1
  Ta5+  Ta26  1  0.57872237  0.88037646  0.36304889  1
  Ta5+  Ta27  1  0.64493905  0.61349245  0.11255307  1
  Ta5+  Ta28  1  0.89388850  0.42004059  0.38040980  1
  Ta5+  Ta29  1  0.35433555  0.38194394  0.61037399  1
  Ta5+  Ta30  1  0.41154062  0.87042599  0.36934447  1
  Ta5+  Ta31  1  0.87110522  0.39271365  0.87597597  1
  Ta5+  Ta32  1  0.61847399  0.90769609  0.61283691  1
  Ta5+  Ta33  1  0.11135377  0.38467433  0.86254002  1
  Ta5+  Ta34  1  0.38846037  0.87420618  0.61264489  1
  Ta5+  Ta35  1  0.09159849  0.38047467  0.12020622  1
  Ta5+  Ta36  1  0.38569076  0.62026862  0.62211669  1
  Ta5+  Ta37  1  0.08698065  0.88251652  0.39973151  1
  Ta5+  Ta38  1  0.89784331  0.63050999  0.58575495  1
  Ta5+  Ta39  1  0.64358310  0.11764784  0.36629208  1
  Ta5+  Ta40  1  0.07932982  0.61390716  0.39756887  1
  Ta5+  Ta41  1  0.88056295  0.86646832  0.34668644  1
  Ta5+  Ta42  1  0.38257261  0.37107296  0.11350013  1
  Ta5+  Ta43  1  0.61816520  0.62932210  0.62350560  1
  Ta5+  Ta44  1  0.31724170  0.61685815  0.87471470  1
  Ta5+  Ta45  1  0.36274072  0.60837784  0.12481909  1
  Ta5+  Ta46  1  0.91117230  0.86853715  0.59199219  1
  Ta5+  Ta47  1  0.92048114  0.37722430  0.12596493  1
  Ta5+  Ta48  1  0.63370547  0.11916114  0.88015905  1
  Ta5+  Ta49  1  0.60699801  0.88174177  0.87106641  1
  Ta5+  Ta50  1  0.86335647  0.38868365  0.62294677  1
  Ta5+  Ta51  1  0.11165704  0.88176368  0.61781621  1
  Ta5+  Ta52  1  0.87748762  0.06184667  0.37968917  1
  Ta5+  Ta53  1  0.81939259  0.63121984  0.91408108  1
  Ta5+  Ta54  1  0.38390670  0.11735782  0.87054407  1
  Ta5+  Ta55  1  0.15048407  0.38252281  0.62067179  1
  Ta5+  Ta56  1  0.10444832  0.62334039  0.61669700  1
  Ta5+  Ta57  1  0.15056468  0.12237029  0.38927558  1
  Ta5+  Ta58  1  0.86237218  0.87633165  0.12281198  1
  Ta5+  Ta59  1  0.35343921  0.11637865  0.61297953  1
  Ta5+  Ta60  1  0.39498579  0.12196299  0.35705524  1
  Ta5+  Ta61  1  0.58848856  0.62704298  0.37519111  1
  Ta5+  Ta62  1  0.61809684  0.10480616  0.62356454  1
  Ta5+  Ta63  1  0.68863763  0.11945624  0.12821054  1
  Ta5+  Ta64  1  0.38964007  0.37272637  0.36061226  1
  Ta5+  Ta65  1  0.33361304  0.11730426  0.11594694  1
  Ta5+  Ta66  1  0.12897614  0.88201544  0.88020281  1
  Ta5+  Ta67  1  0.38564536  0.38533109  0.87328876  1
  Ta5+  Ta68  1  0.16125124  0.12146671  0.12656443  1
  Ta5+  Ta69  1  0.36862532  0.87200883  0.86578597  1
  Ta5+  Ta70  1  0.13962567  0.37461697  0.37612243  1
  Ta5+  Ta71  1  0.65241268  0.88470412  0.10850478  1
  Ta5+  Ta72  1  0.10389120  0.12908474  0.87037827  1
  Ta5+  Ta73  1  0.86031719  0.61502298  0.12315182  1
  Ta5+  Ta74  1  0.86674525  0.13060227  0.87372004  1
  W6+  W75  1  0.64936785  0.63420998  0.88021523  1
  W6+  W76  1  0.11885774  0.87832991  0.14466817  1
  W6+  W77  1  0.15375988  0.62528814  0.87738997  1
  W6+  W78  1  0.60882572  0.37553684  0.62348731  1
  W6+  W79  1  0.37304115  0.87208064  0.11473986  1
  W6+  W80  1  0.63987477  0.38334479  0.35915862  1
  W6+  W81  1  0.11944152  0.62898452  0.14428430  1
  W6+  W82  1  0.87477198  0.11567125  0.61990983  1
  O2-  O83  1  0.14009806  0.00335486  0.12380532  1
  O2-  O84  1  0.12248024  0.00883392  0.40725914  1
  O2-  O85  1  0.10877905  0.00448185  0.62315600  1
  O2-  O86  1  0.11495497  0.00554171  0.87081103  1
  O2-  O87  1  0.10685285  0.49830334  0.12609478  1
  O2-  O88  1  0.12208251  0.49276800  0.39504076  1
  O2-  O89  1  0.10609791  0.50041999  0.61255699  1
  O2-  O90  1  0.16830298  0.48790603  0.86835606  1
  O2-  O91  1  0.34659829  -0.00083090  0.12124046  1
  O2-  O92  1  0.41346286  0.00030258  0.36660731  1
  O2-  O93  1  0.36690183  -0.00671913  0.63294609  1
  O2-  O94  1  0.37686008  -0.00225714  0.85087688  1
  O2-  O95  1  0.40794678  0.49641083  0.11996163  1
  O2-  O96  1  0.38854765  0.49714536  0.37153880  1
  O2-  O97  1  0.39807633  0.49946250  0.63222397  1
  O2-  O98  1  0.35840139  0.50023856  0.84939158  1
  O2-  O99  1  0.63338456  0.00327439  0.11635029  1
  O2-  O100  1  0.61501668  0.00071705  0.36393883  1
  O2-  O101  1  0.69891075  0.01011174  0.61044654  1
  O2-  O102  1  0.59066720  0.00207412  0.88940427  1
  O2-  O103  1  0.61335787  0.49716168  0.12539676  1
  O2-  O104  1  0.60762409  0.51104180  0.37165561  1
  O2-  O105  1  0.61501033  0.51208367  0.62367332  1
  O2-  O106  1  0.61321626  0.50444030  0.89016447  1
  O2-  O107  1  0.88072029  0.00070493  0.13431372  1
  O2-  O108  1  0.80468971  -0.03820969  0.34955100  1
  O2-  O109  1  0.88373761  -0.02320742  0.62348806  1
  O2-  O110  1  0.85581761  0.00236675  0.89670513  1
  O2-  O111  1  0.87613022  0.49227131  0.12976924  1
  O2-  O112  1  0.80641879  0.50437561  0.35861069  1
  O2-  O113  1  0.85992238  0.52196874  0.62256742  1
  O2-  O114  1  0.85216189  0.51409480  0.88723202  1
  O2-  O115  1  0.11868801  0.24498964  0.12819404  1
  O2-  O116  1  0.08823562  0.24536510  0.37305358  1
  O2-  O117  1  0.15973456  0.25410615  0.63652069  1
  O2-  O118  1  0.15758383  0.25722017  0.85985203  1
  O2-  O119  1  0.07145422  0.75378836  0.14146653  1
  O2-  O120  1  0.08482152  0.75570888  0.41062759  1
  O2-  O121  1  0.14808670  0.75052525  0.61069538  1
  O2-  O122  1  0.08305152  0.76145309  0.86297949  1
  O2-  O123  1  0.38104151  0.24456771  0.08770273  1
  O2-  O124  1  0.38320138  0.24653245  0.39029281  1
  O2-  O125  1  0.34586596  0.25175794  0.61687260  1
  O2-  O126  1  0.34364413  0.25096561  0.88042045  1
  O2-  O127  1  0.40959891  0.73168881  0.10322188  1
  O2-  O128  1  0.36545529  0.74358292  0.38208607  1
  O2-  O129  1  0.33017511  0.75340555  0.60647004  1
  O2-  O130  1  0.36874558  0.73659426  0.87140688  1
  O2-  O131  1  0.65066609  0.24450063  0.15067864  1
  O2-  O132  1  0.67899065  0.25001521  0.35804415  1
  O2-  O133  1  0.56860686  0.23414317  0.62749977  1
  O2-  O134  1  0.64157815  0.24732824  0.87286374  1
  O2-  O135  1  0.64412224  0.74850754  0.12111787  1
  O2-  O136  1  0.63843651  0.75530541  0.36868237  1
  O2-  O137  1  0.66466949  0.77320169  0.61756198  1
  O2-  O138  1  0.57285715  0.76010214  0.85208407  1
  O2-  O139  1  0.90205732  0.24529080  0.14538227  1
  O2-  O140  1  0.85667296  0.29375873  0.40124866  1
  O2-  O141  1  0.88016766  0.26147464  0.59789256  1
  O2-  O142  1  0.85156387  0.25620853  0.87443415  1
  O2-  O143  1  0.84882229  0.74759470  0.12407913  1
  O2-  O144  1  0.83601496  0.74335964  0.34414485  1
  O2-  O145  1  0.85438542  0.74839098  0.62686181  1
  O2-  O146  1  0.87561846  0.75147544  0.92511567  1
  O2-  O147  1  0.15180689  0.13925423  -0.01036557  1
  O2-  O148  1  0.13051462  0.12519607  0.26210080  1
  O2-  O149  1  0.10006900  0.15333281  0.50966322  1
  O2-  O150  1  0.08885178  0.13661860  0.74572316  1
  O2-  O151  1  0.12061929  0.64601367  0.00997137  1
  O2-  O152  1  0.11269608  0.63075385  0.28457883  1
  O2-  O153  1  0.16319790  0.62592092  0.49535459  1
  O2-  O154  1  0.15711232  0.62917306  0.72922181  1
  O2-  O155  1  0.33027711  0.11678155  -0.01723753  1
  O2-  O156  1  0.37867078  0.13635759  0.23801231  1
  O2-  O157  1  0.42166623  0.12476631  0.51002182  1
  O2-  O158  1  0.40808544  0.14709639  0.74053609  1
  O2-  O159  1  0.35044009  0.61229452  -0.00638931  1
  O2-  O160  1  0.40542420  0.63194849  0.24817915  1
  O2-  O161  1  0.33908216  0.61799213  0.50672547  1
  O2-  O162  1  0.33364645  0.63326625  0.73524970  1
  O2-  O163  1  0.64186979  0.14512745  0.00739903  1
  O2-  O164  1  0.70317173  0.11336220  0.25651839  1
  O2-  O165  1  0.62952682  0.14594498  0.49880895  1
  O2-  O166  1  0.62065583  0.11935330  0.74853111  1
  O2-  O167  1  0.57931292  0.63235378  0.00830733  1
  O2-  O168  1  0.59408443  0.63974075  0.24255038  1
  O2-  O169  1  0.65723856  0.63872234  0.50356471  1
  O2-  O170  1  0.67118568  0.64417146  0.73376570  1
  O2-  O171  1  0.83781718  0.14137048  0.00517134  1
  O2-  O172  1  0.89866000  0.12733779  0.27547318  1
  O2-  O173  1  0.92804000  0.11192432  0.48082542  1
  O2-  O174  1  0.85268369  0.12021904  0.75456207  1
  O2-  O175  1  0.91987345  0.62003422  0.01172835  1
  O2-  O176  1  0.92174192  0.62808922  0.23466083  1
  O2-  O177  1  0.83907899  0.64402468  0.47786952  1
  O2-  O178  1  0.83411239  0.66426545  0.79177100  1
  O2-  O179  1  0.12928747  0.36164447  -0.00638360  1
  O2-  O180  1  0.10033200  0.36654135  0.25587530  1
  O2-  O181  1  0.10111398  0.35152514  0.50212097  1
  O2-  O182  1  0.09167498  0.37641108  0.73796961  1
  O2-  O183  1  0.11160382  0.86789091  0.00114541  1
  O2-  O184  1  0.11690556  0.88051119  0.28289050  1
  O2-  O185  1  0.17484716  0.87691097  0.50135749  1
  O2-  O186  1  0.15540699  0.87568904  0.73882810  1
  O2-  O187  1  0.33271948  0.38654792  -0.00865608  1
  O2-  O188  1  0.37490455  0.36025682  0.23592578  1
  O2-  O189  1  0.41759884  0.37125847  0.50309010  1
  O2-  O190  1  0.40617060  0.34921650  0.74674615  1
  O2-  O191  1  0.40962842  0.86893608  -0.01765567  1
  O2-  O192  1  0.39065007  0.85515293  0.24710027  1
  O2-  O193  1  0.35823769  0.87730831  0.49151802  1
  O2-  O194  1  0.35823458  0.85178347  0.73761260  1
  O2-  O195  1  0.62540416  0.35015755  0.01604489  1
  O2-  O196  1  0.71413697  0.39017678  0.24219215  1
  O2-  O197  1  0.62405322  0.34019313  0.49224094  1
  O2-  O198  1  0.59805810  0.37532212  0.76074385  1
  O2-  O199  1  0.58907763  0.85902339  0.00082646  1
  O2-  O200  1  0.58846088  0.86844099  0.23068170  1
  O2-  O201  1  0.63273828  0.88073445  0.48850246  1
  O2-  O202  1  0.63270600  0.89334961  0.73947029  1
  O2-  O203  1  0.87414566  0.36345208  0.00510321  1
  O2-  O204  1  0.91549592  0.37249434  0.26367966  1
  O2-  O205  1  0.92575800  0.40536497  0.50772725  1
  O2-  O206  1  0.87880013  0.38640110  0.74480705  1
  O2-  O207  1  0.93087626  0.87823032  0.01286055  1
  O2-  O208  1  0.92739265  0.85904964  0.23270074  1
  O2-  O209  1  0.85539249  0.84728693  0.48046907  1
  O2-  O210  1  0.86806246  0.85542399  0.78966160  1
  O2-  O211  1  -0.01097929  0.14151445  -0.10196527  1
  O2-  O212  1  -0.03151923  -0.04651718  0.37839810  1
  O2-  O213  1  0.01527355  -0.11494335  0.52390618  1
  O2-  O214  1  0.00387209  -0.16533177  0.67495329  1
  O2-  O215  1  -0.00518206  0.39921784  -0.11548839  1
  O2-  O216  1  -0.03277292  0.54110153  0.37860375  1
  O2-  O217  1  0.00425269  0.62609723  0.51985569  1
  O2-  O218  1  -0.00711792  0.64394622  0.67776441  1
  O2-  O219  1  0.24772694  -0.13701724  -0.11527719  1
  O2-  O220  1  0.26825992  0.11887288  0.37916030  1
  O2-  O221  1  0.24896071  0.10176355  0.54905835  1
  O2-  O222  1  0.24884321  0.11642764  0.70847973  1
  O2-  O223  1  0.24955645  0.60672433  0.15107385  1
  O2-  O224  1  0.25604962  0.36420544  0.36822188  1
  O2-  O225  1  0.25364352  0.40822376  0.54504641  1
  O2-  O226  1  0.25197011  0.39069348  0.70174583  1
  O2-  O227  1  0.50010567  0.15532380  -0.09937543  1
  O2-  O228  1  0.52354629  0.15170708  0.35718903  1
  O2-  O229  1  0.50374682  -0.14894798  0.61393579  1
  O2-  O230  1  0.53856622  0.01459823  0.61421586  1
  O2-  O231  1  0.49668453  0.33874871  -0.09001946  1
  O2-  O232  1  0.51015985  0.35189247  0.35374198  1
  O2-  O233  1  0.49791015  0.65013028  0.46081078  1
  O2-  O234  1  0.49964234  0.66103543  0.64065446  1
  O2-  O235  1  0.76499941  -0.11062700  0.03048152  1
  O2-  O236  1  0.75277360  -0.11803287  0.19477747  1
  O2-  O237  1  0.77194917  0.11772700  0.41461878  1
  O2-  O238  1  0.72590883  -0.14963129  0.87612049  1
  O2-  O239  1  0.75252042  0.61361519  0.03019576  1
  O2-  O240  1  0.75059786  0.61006765  0.19538986  1
  O2-  O241  1  0.74821901  0.37184514  0.60613835  1
  O2-  O242  1  0.74373487  0.38365383  0.88651153  1
