# generated using pymatgen
data_Gd19Ta56(WO20)8
_symmetry_space_group_name_H-M   'P 1'
_cell_length_a   15.53782586
_cell_length_b   15.57085141
_cell_length_c   15.43025252
_cell_angle_alpha   90.00831191
_cell_angle_beta   90.02611435
_cell_angle_gamma   90.04652018
_symmetry_Int_Tables_number   1
_chemical_formula_structural   Gd19Ta56(WO20)8
_chemical_formula_sum   'Gd19 Ta56 W8 O160'
_cell_volume   3733.15008790
_cell_formula_units_Z   1
loop_
 _symmetry_equiv_pos_site_id
 _symmetry_equiv_pos_as_xyz
  1  'x, y, z'
loop_
 _atom_type_symbol
 _atom_type_oxidation_number
  Gd3+  3.0
  Ta5+  5.0
  W6+  6.0
  O2-  -2.0
loop_
 _atom_site_type_symbol
 _atom_site_label
 _atom_site_symmetry_multiplicity
 _atom_site_fract_x
 _atom_site_fract_y
 _atom_site_fract_z
 _atom_site_occupancy
  Gd3+  Gd0  1  0.49736290  0.24776925  0.49241374  1
  Gd3+  Gd1  1  0.01471078  0.76550350  -0.00921359  1
  Gd3+  Gd2  1  -0.00075207  0.75827290  0.49433194  1
  Gd3+  Gd3  1  -0.00211569  0.25608073  0.73989889  1
  Gd3+  Gd4  1  0.74330563  0.24441793  0.26866408  1
  Gd3+  Gd5  1  0.25851517  0.77418123  0.74380053  1
  Gd3+  Gd6  1  0.25076561  0.25555178  0.52030078  1
  Gd3+  Gd7  1  0.74164468  0.24145951  0.53065835  1
  Gd3+  Gd8  1  0.25447933  0.74671902  -0.01650026  1
  Gd3+  Gd9  1  -0.00227848  0.75760033  0.74951079  1
  Gd3+  Gd10  1  0.50587095  0.74651705  0.75652793  1
  Gd3+  Gd11  1  0.27297765  0.75533088  0.49759703  1
  Gd3+  Gd12  1  0.75751732  0.24530347  -0.01413854  1
  Gd3+  Gd13  1  0.76097119  0.74307201  0.75453117  1
  Gd3+  Gd14  1  0.50564621  0.74216824  0.49666634  1
  Gd3+  Gd15  1  0.25379477  0.25703117  0.24925630  1
  Gd3+  Gd16  1  0.74336814  0.73693636  -0.00847580  1
  Gd3+  Gd17  1  0.75773500  0.73847012  0.23496090  1
  Gd3+  Gd18  1  0.00901397  0.76386574  0.24485219  1
  Ta5+  Ta19  1  0.07669170  0.37431754  0.87594181  1
  Ta5+  Ta20  1  0.11457199  0.37575530  0.38564950  1
  Ta5+  Ta21  1  0.90338055  0.36711526  0.87967231  1
  Ta5+  Ta22  1  0.88691522  0.13747893  0.13318831  1
  Ta5+  Ta23  1  0.08913717  0.12744147  0.61777618  1
  Ta5+  Ta24  1  0.86645915  0.89172710  0.36893082  1
  Ta5+  Ta25  1  0.11983252  0.13909490  0.12332720  1
  Ta5+  Ta26  1  0.62553763  0.37231122  0.12917564  1
  Ta5+  Ta27  1  0.37425886  0.61731208  0.12204250  1
  Ta5+  Ta28  1  0.62909208  0.60731487  0.61536685  1
  Ta5+  Ta29  1  0.42416636  0.37787019  0.63764594  1
  Ta5+  Ta30  1  0.38838442  0.88383362  0.87598014  1
  Ta5+  Ta31  1  0.12285928  0.38181733  0.12344237  1
  Ta5+  Ta32  1  0.87395116  0.89074300  0.87954319  1
  Ta5+  Ta33  1  0.59284042  0.36621853  0.63792101  1
  Ta5+  Ta34  1  0.86439778  0.89084554  0.61956574  1
  Ta5+  Ta35  1  0.39331243  0.36992179  0.12005683  1
  Ta5+  Ta36  1  0.39547811  0.86150933  0.12214933  1
  Ta5+  Ta37  1  0.44199881  0.36590289  0.87263106  1
  Ta5+  Ta38  1  0.38497822  0.37742199  0.37629646  1
  Ta5+  Ta39  1  0.63095407  0.87976102  0.11426750  1
  Ta5+  Ta40  1  0.87544181  0.90172032  0.13302954  1
  Ta5+  Ta41  1  0.57229247  0.11122216  0.62930495  1
  Ta5+  Ta42  1  0.91660518  0.12300222  0.62318401  1
  Ta5+  Ta43  1  0.36943613  0.88139443  0.35343402  1
  Ta5+  Ta44  1  0.12287184  0.90303996  0.12071408  1
  Ta5+  Ta45  1  0.13186633  0.89203603  0.85862563  1
  Ta5+  Ta46  1  0.35793977  0.61832873  0.36815671  1
  Ta5+  Ta47  1  0.90004811  0.37479821  0.62056020  1
  Ta5+  Ta48  1  0.60432944  0.60688045  0.87368053  1
  Ta5+  Ta49  1  0.83647570  0.60916441  0.60409143  1
  Ta5+  Ta50  1  0.11544645  0.61901763  0.37034279  1
  Ta5+  Ta51  1  0.87596092  0.12823365  0.39346495  1
  Ta5+  Ta52  1  0.61132355  0.12511734  0.12785466  1
  Ta5+  Ta53  1  0.87324464  0.58461300  0.10882530  1
  Ta5+  Ta54  1  0.13957332  0.88846927  0.37419016  1
  Ta5+  Ta55  1  0.90750444  0.13691152  0.87628940  1
  Ta5+  Ta56  1  0.37293308  0.11137683  0.12658060  1
  Ta5+  Ta57  1  0.09298160  0.38058845  0.61841249  1
  Ta5+  Ta58  1  0.37126513  0.60568361  0.86725730  1
  Ta5+  Ta59  1  0.12151992  0.61698730  0.85896824  1
  Ta5+  Ta60  1  0.07902442  0.13433126  0.87452654  1
  Ta5+  Ta61  1  0.60931082  0.35822306  0.87374758  1
  Ta5+  Ta62  1  0.35333979  0.61060252  0.62017854  1
  Ta5+  Ta63  1  0.10376640  0.60936281  0.11739150  1
  Ta5+  Ta64  1  0.14361368  0.61990222  0.61239617  1
  Ta5+  Ta65  1  0.62570712  0.86598340  0.36200756  1
  Ta5+  Ta66  1  0.88727417  0.35607031  0.13694724  1
  Ta5+  Ta67  1  0.61250486  0.61803545  0.12276506  1
  Ta5+  Ta68  1  0.60582244  0.12891111  0.87213259  1
  Ta5+  Ta69  1  0.87803552  0.37673306  0.39462297  1
  Ta5+  Ta70  1  0.66038511  0.88989467  0.61249830  1
  Ta5+  Ta71  1  0.11903973  0.13044667  0.38297295  1
  Ta5+  Ta72  1  0.60999084  0.11168435  0.37949955  1
  Ta5+  Ta73  1  0.63197354  0.38273157  0.38411483  1
  Ta5+  Ta74  1  0.40359803  0.12543847  0.63632210  1
  W6+  W75  1  0.36260911  0.12376457  0.37764666  1
  W6+  W76  1  0.13515150  0.88719761  0.59286987  1
  W6+  W77  1  0.88314158  0.61069903  0.91912132  1
  W6+  W78  1  0.36755853  0.13029587  0.87609608  1
  W6+  W79  1  0.87829850  0.62623426  0.36962540  1
  W6+  W80  1  0.64562505  0.61828534  0.38561628  1
  W6+  W81  1  0.38969189  0.88374157  0.61316042  1
  W6+  W82  1  0.63773358  0.88035576  0.86453002  1
  O2-  O83  1  0.16237263  0.01584066  0.13086984  1
  O2-  O84  1  0.12700696  0.00970698  0.35812795  1
  O2-  O85  1  0.10187810  0.01006453  0.61245941  1
  O2-  O86  1  0.10559227  0.00618396  0.87153276  1
  O2-  O87  1  0.16418312  0.50245687  0.13376184  1
  O2-  O88  1  0.10097728  0.49831886  0.37275964  1
  O2-  O89  1  0.09908483  0.50862834  0.61598691  1
  O2-  O90  1  0.08959906  0.50390812  0.86676831  1
  O2-  O91  1  0.37921435  -0.01515214  0.12827376  1
  O2-  O92  1  0.39878709  -0.00480021  0.36456377  1
  O2-  O93  1  0.41193902  0.00930038  0.60144362  1
  O2-  O94  1  0.39861958  -0.00007128  0.88592024  1
  O2-  O95  1  0.36069594  0.49447809  0.11855420  1
  O2-  O96  1  0.35861784  0.49406803  0.39296601  1
  O2-  O97  1  0.39198096  0.49982249  0.60485255  1
  O2-  O98  1  0.39844689  0.49297936  0.88839344  1
  O2-  O99  1  0.61460636  0.00000337  0.11896581  1
  O2-  O100  1  0.60047472  -0.01476095  0.37380572  1
  O2-  O101  1  0.58740121  -0.01407883  0.62660025  1
  O2-  O102  1  0.62185038  0.01197128  0.87370715  1
  O2-  O103  1  0.62195913  0.49672999  0.11845746  1
  O2-  O104  1  0.68139060  0.48934263  0.38724684  1
  O2-  O105  1  0.59722395  0.49354547  0.63193837  1
  O2-  O106  1  0.60211482  0.48834314  0.88383879  1
  O2-  O107  1  0.84580036  0.02413056  0.13621256  1
  O2-  O108  1  0.83908955  0.01132576  0.37910135  1
  O2-  O109  1  0.91882674  -0.00268833  0.63031685  1
  O2-  O110  1  0.88569894  0.00799836  0.88023842  1
  O2-  O111  1  0.84061126  0.46659617  0.14039448  1
  O2-  O112  1  0.88248759  0.49325303  0.38271120  1
  O2-  O113  1  0.88801288  0.50388800  0.61660126  1
  O2-  O114  1  0.89575837  0.48552494  0.89431651  1
  O2-  O115  1  0.16364814  0.25883137  0.12231048  1
  O2-  O116  1  0.15815211  0.25433012  0.39521943  1
  O2-  O117  1  0.11998499  0.25684267  0.60584616  1
  O2-  O118  1  0.10845498  0.25574267  0.87595207  1
  O2-  O119  1  0.09126562  0.74521228  0.11785594  1
  O2-  O120  1  0.11207415  0.75563451  0.37050211  1
  O2-  O121  1  0.14699365  0.74763692  0.58395384  1
  O2-  O122  1  0.15188056  0.75255961  0.86885930  1
  O2-  O123  1  0.35244420  0.25316764  0.13335349  1
  O2-  O124  1  0.32806635  0.26047209  0.37800375  1
  O2-  O125  1  0.42100704  0.25311337  0.64272136  1
  O2-  O126  1  0.40390161  0.25251065  0.86826187  1
  O2-  O127  1  0.33545863  0.74384622  0.12871572  1
  O2-  O128  1  0.35054586  0.74417696  0.36680735  1
  O2-  O129  1  0.36586590  0.74310967  0.61654371  1
  O2-  O130  1  0.34254079  0.74349720  0.86624590  1
  O2-  O131  1  0.64758676  0.24406349  0.14442654  1
  O2-  O132  1  0.64937034  0.24302869  0.38934808  1
  O2-  O133  1  0.60267756  0.23736064  0.60691786  1
  O2-  O134  1  0.66684129  0.23927442  0.87058466  1
  O2-  O135  1  0.66079036  0.74216046  0.11881598  1
  O2-  O136  1  0.58132096  0.74916223  0.37277305  1
  O2-  O137  1  0.56841677  0.72042741  0.62403604  1
  O2-  O138  1  0.66030522  0.73426417  0.86600738  1
  O2-  O139  1  0.81576053  0.24616625  0.13320899  1
  O2-  O140  1  0.82632171  0.24513060  0.40374065  1
  O2-  O141  1  0.89046317  0.25031681  0.60378205  1
  O2-  O142  1  0.84637382  0.25022129  0.86842160  1
  O2-  O143  1  0.88601848  0.78410374  0.17025565  1
  O2-  O144  1  0.91714709  0.76916983  0.36135738  1
  O2-  O145  1  0.97180691  0.82313010  0.62159166  1
  O2-  O146  1  0.84533207  0.75304700  0.88107744  1
  O2-  O147  1  0.09695471  0.13328490  0.00640833  1
  O2-  O148  1  0.14223898  0.15434877  0.26042570  1
  O2-  O149  1  0.16786568  0.12860487  0.49921162  1
  O2-  O150  1  0.09720916  0.13781488  0.74368866  1
  O2-  O151  1  0.13377916  0.63443511  -0.00365957  1
  O2-  O152  1  0.08174214  0.62947427  0.24693201  1
  O2-  O153  1  0.07923672  0.62912023  0.48928065  1
  O2-  O154  1  0.09302917  0.64460107  0.73423027  1
  O2-  O155  1  0.33829423  0.12362795  0.01318124  1
  O2-  O156  1  0.32133400  0.12157236  0.23895364  1
  O2-  O157  1  0.37213424  0.16010264  0.50946086  1
  O2-  O158  1  0.35752921  0.11622259  0.74826080  1
  O2-  O159  1  0.34469806  0.62936083  0.00005294  1
  O2-  O160  1  0.39076338  0.61094924  0.25094598  1
  O2-  O161  1  0.39822319  0.63976203  0.48936113  1
  O2-  O162  1  0.40281453  0.62571746  0.74314779  1
  O2-  O163  1  0.62255137  0.14203459  0.00621989  1
  O2-  O164  1  0.65519712  0.11672663  0.25757295  1
  O2-  O165  1  0.63280976  0.11300529  0.50240746  1
  O2-  O166  1  0.58196181  0.13350628  0.74997118  1
  O2-  O167  1  0.63384689  0.63140748  -0.00129701  1
  O2-  O168  1  0.65497214  0.62644088  0.23839608  1
  O2-  O169  1  0.57243221  0.61215793  0.49787764  1
  O2-  O170  1  0.58785074  0.62041812  0.75166460  1
  O2-  O171  1  0.88591826  0.14745534  0.01019506  1
  O2-  O172  1  0.85979462  0.14850819  0.26720444  1
  O2-  O173  1  0.83563900  0.12141360  0.51230668  1
  O2-  O174  1  0.89840925  0.13692012  0.74608733  1
  O2-  O175  1  0.90830904  0.68578098  0.03488698  1
  O2-  O176  1  0.86280633  0.62441655  0.22489253  1
  O2-  O177  1  0.89386907  0.65876657  0.50763623  1
  O2-  O178  1  0.88827616  0.67872476  0.69406224  1
  O2-  O179  1  0.10112617  0.38440520  0.00620668  1
  O2-  O180  1  0.15218068  0.36765934  0.26385318  1
  O2-  O181  1  0.16885145  0.38609429  0.49971528  1
  O2-  O182  1  0.09252228  0.37619283  0.74212867  1
  O2-  O183  1  0.14691073  0.86618607  0.00042185  1
  O2-  O184  1  0.10956182  0.87052534  0.24096356  1
  O2-  O185  1  0.05353691  0.89101339  0.46600855  1
  O2-  O186  1  0.11325370  0.86060725  0.73856976  1
  O2-  O187  1  0.42374839  0.36572578  0.00476679  1
  O2-  O188  1  0.35348165  0.37599081  0.25466175  1
  O2-  O189  1  0.38410762  0.34926960  0.50543417  1
  O2-  O190  1  0.40553126  0.39336359  0.75505809  1
  O2-  O191  1  0.35072411  0.85807969  0.00016901  1
  O2-  O192  1  0.42175001  0.85318068  0.24538505  1
  O2-  O193  1  0.40086222  0.85415843  0.47582176  1
  O2-  O194  1  0.39531855  0.85752247  0.75080821  1
  O2-  O195  1  0.64947821  0.35320053  0.00759433  1
  O2-  O196  1  0.66294829  0.37201659  0.25427015  1
  O2-  O197  1  0.63155863  0.36339320  0.50790694  1
  O2-  O198  1  0.63168564  0.35443015  0.75247229  1
  O2-  O199  1  0.66915102  0.86595249  -0.00247112  1
  O2-  O200  1  0.60921699  0.86048735  0.24092886  1
  O2-  O201  1  0.62425076  0.85448553  0.49852422  1
  O2-  O202  1  0.62848378  0.84572186  0.72772816  1
  O2-  O203  1  0.88446031  0.34358389  0.01326289  1
  O2-  O204  1  0.85907990  0.34575534  0.27095142  1
  O2-  O205  1  0.82164661  0.37341783  0.50815394  1
  O2-  O206  1  0.89391513  0.36865403  0.74461600  1
  O2-  O207  1  0.87010091  0.87352782  0.00934872  1
  O2-  O208  1  0.92728502  0.91545246  0.26239584  1
  O2-  O209  1  0.87511745  0.87392707  0.49105002  1
  O2-  O210  1  0.86249955  0.86961598  0.75154015  1
  O2-  O211  1  0.00542515  -0.08698106  0.10098497  1
  O2-  O212  1  0.00413459  0.12084778  0.15943681  1
  O2-  O213  1  -0.00235952  0.13851442  0.39307785  1
  O2-  O214  1  0.00162380  -0.14438893  0.87372042  1
  O2-  O215  1  -0.00261575  0.55633665  0.10263184  1
  O2-  O216  1  0.00663912  0.36858878  0.15945906  1
  O2-  O217  1  -0.00220433  0.34276067  0.39786252  1
  O2-  O218  1  0.00324637  0.66821818  0.87847243  1
  O2-  O219  1  0.25458256  -0.11003594  -0.14625167  1
  O2-  O220  1  0.25636148  -0.11179907  0.31382401  1
  O2-  O221  1  0.21632308  -0.11536213  0.47286996  1
  O2-  O222  1  0.25800472  -0.12237411  0.64437690  1
  O2-  O223  1  0.24482646  0.60044664  -0.14010881  1
  O2-  O224  1  0.23580220  0.61665283  0.35900559  1
  O2-  O225  1  0.24807584  0.60810605  0.53614248  1
  O2-  O226  1  0.24700206  0.63166126  0.69061142  1
  O2-  O227  1  0.50878933  -0.15367259  0.08908003  1
  O2-  O228  1  0.49144862  0.13725970  0.14345541  1
  O2-  O229  1  0.49864870  0.15695601  0.37246147  1
  O2-  O230  1  0.50236999  -0.16004534  0.88214543  1
  O2-  O231  1  0.49317165  0.63927710  0.11204663  1
  O2-  O232  1  0.50761080  0.36165782  0.16053132  1
  O2-  O233  1  0.50568672  0.35487642  0.37169793  1
  O2-  O234  1  0.49040042  0.65042554  0.89293373  1
  O2-  O235  1  0.75345573  -0.11683443  0.15395008  1
  O2-  O236  1  0.74960031  -0.13994748  0.34515211  1
  O2-  O237  1  0.76439092  -0.19847583  0.62038480  1
  O2-  O238  1  0.75600727  -0.03853532  0.59839814  1
  O2-  O239  1  0.78886792  0.58402067  0.01766570  1
  O2-  O240  1  0.75765562  0.68390930  0.36832045  1
  O2-  O241  1  0.72863701  0.60364040  0.53428714  1
  O2-  O242  1  0.73644768  0.61597228  0.69000750  1
