# generated using pymatgen
data_Gd19Ta56(WO20)8
_symmetry_space_group_name_H-M   'P 1'
_cell_length_a   15.58328682
_cell_length_b   15.47886167
_cell_length_c   15.25386917
_cell_angle_alpha   90.03933930
_cell_angle_beta   90.03286465
_cell_angle_gamma   89.90279544
_symmetry_Int_Tables_number   1
_chemical_formula_structural   Gd19Ta56(WO20)8
_chemical_formula_sum   'Gd19 Ta56 W8 O160'
_cell_volume   3679.40252221
_cell_formula_units_Z   1
loop_
 _symmetry_equiv_pos_site_id
 _symmetry_equiv_pos_as_xyz
  1  'x, y, z'
loop_
 _atom_type_symbol
 _atom_type_oxidation_number
  Gd3+  3.0
  Ta5+  5.0
  W6+  6.0
  O2-  -2.0
loop_
 _atom_site_type_symbol
 _atom_site_label
 _atom_site_symmetry_multiplicity
 _atom_site_fract_x
 _atom_site_fract_y
 _atom_site_fract_z
 _atom_site_occupancy
  Gd3+  Gd0  1  0.73023511  0.25089859  0.01453034  1
  Gd3+  Gd1  1  0.23657981  0.21621006  0.45895719  1
  Gd3+  Gd2  1  0.25925064  0.24620879  0.71768870  1
  Gd3+  Gd3  1  0.01113945  0.25087998  0.26722665  1
  Gd3+  Gd4  1  -0.00372677  0.75989195  0.75897745  1
  Gd3+  Gd5  1  -0.03602866  0.24970567  0.00807317  1
  Gd3+  Gd6  1  0.73919637  0.74774601  0.74826864  1
  Gd3+  Gd7  1  0.48998328  0.77770762  0.49992463  1
  Gd3+  Gd8  1  0.51685667  0.76944137  0.23761630  1
  Gd3+  Gd9  1  0.76367331  0.74833572  0.24984815  1
  Gd3+  Gd10  1  0.25558203  0.24262560  -0.00760988  1
  Gd3+  Gd11  1  0.75708073  0.74236028  0.01399918  1
  Gd3+  Gd12  1  0.02314782  0.26211368  0.50057655  1
  Gd3+  Gd13  1  0.02281468  0.25249869  0.74251258  1
  Gd3+  Gd14  1  0.45900412  0.24672999  0.48070530  1
  Gd3+  Gd15  1  0.49820819  0.23393658  0.01534659  1
  Gd3+  Gd16  1  0.50844518  0.75829560  -0.03827725  1
  Gd3+  Gd17  1  0.72562416  0.24478769  0.50348227  1
  Gd3+  Gd18  1  0.75181002  0.24868360  0.75151478  1
  Ta5+  Ta19  1  0.59494358  0.37572664  0.87278081  1
  Ta5+  Ta20  1  0.13890500  0.86924684  0.13567644  1
  Ta5+  Ta21  1  0.39386631  0.11853930  0.84916916  1
  Ta5+  Ta22  1  0.67681713  0.88540452  0.88934244  1
  Ta5+  Ta23  1  0.89062597  0.38554442  0.86317491  1
  Ta5+  Ta24  1  0.36928419  0.11071672  0.12277691  1
  Ta5+  Ta25  1  0.91133335  0.64816900  0.38489530  1
  Ta5+  Ta26  1  0.45482825  0.60320013  0.10899914  1
  Ta5+  Ta27  1  0.84567698  0.38118164  0.17943828  1
  Ta5+  Ta28  1  0.89703594  0.87660940  0.12816524  1
  Ta5+  Ta29  1  0.61713505  0.40075144  0.13482554  1
  Ta5+  Ta30  1  0.34279233  0.05460226  0.35493328  1
  Ta5+  Ta31  1  0.33814568  0.84888540  0.35783686  1
  Ta5+  Ta32  1  0.88233934  0.61606932  0.12966163  1
  Ta5+  Ta33  1  0.83141099  0.05295902  0.37629918  1
  Ta5+  Ta34  1  0.63077069  0.88637176  0.63648133  1
  Ta5+  Ta35  1  0.60740919  0.62598292  0.37825213  1
  Ta5+  Ta36  1  0.12295466  0.63820395  0.62186557  1
  Ta5+  Ta37  1  0.90619952  0.83864174  0.38401414  1
  Ta5+  Ta38  1  0.60911249  0.12058009  0.86857030  1
  Ta5+  Ta39  1  0.85008308  0.10340997  0.18611907  1
  Ta5+  Ta40  1  0.12782935  0.40136579  0.62450719  1
  Ta5+  Ta41  1  0.16720641  0.86242040  0.39240032  1
  Ta5+  Ta42  1  0.88660293  0.62539574  0.87762121  1
  Ta5+  Ta43  1  0.60340013  0.37996018  0.63055847  1
  Ta5+  Ta44  1  0.34249264  0.39526787  0.36961780  1
  Ta5+  Ta45  1  0.36654316  0.09014565  0.60131181  1
  Ta5+  Ta46  1  0.87399759  0.62626233  0.62899909  1
  Ta5+  Ta47  1  0.12954140  0.38391370  0.11623122  1
  Ta5+  Ta48  1  0.07969806  0.63662104  0.37905817  1
  Ta5+  Ta49  1  0.38426419  0.86486041  0.10457992  1
  Ta5+  Ta50  1  0.62190076  0.62739428  0.63021771  1
  Ta5+  Ta51  1  0.89209965  0.11569327  0.86186668  1
  Ta5+  Ta52  1  0.12942344  0.86214555  0.62806097  1
  Ta5+  Ta53  1  0.13488270  0.86679539  0.88515718  1
  Ta5+  Ta54  1  0.61896793  0.12368946  0.14430146  1
  Ta5+  Ta55  1  0.37039210  0.37689209  0.13096935  1
  Ta5+  Ta56  1  0.10008174  0.11176065  0.87339110  1
  Ta5+  Ta57  1  0.39313530  0.39364117  0.86519563  1
  Ta5+  Ta58  1  0.87684802  0.87856451  0.62525969  1
  Ta5+  Ta59  1  0.64546842  0.88125807  0.12435141  1
  Ta5+  Ta60  1  0.65040755  0.60795433  0.87870237  1
  Ta5+  Ta61  1  0.62333504  0.10073958  0.39596256  1
  Ta5+  Ta62  1  0.62963436  0.60662035  0.13299667  1
  Ta5+  Ta63  1  0.63894730  0.89314110  0.38144522  1
  Ta5+  Ta64  1  0.14187039  0.40440697  0.36590969  1
  Ta5+  Ta65  1  0.37175312  0.39339882  0.61378884  1
  Ta5+  Ta66  1  0.87484883  0.11863167  0.61315358  1
  Ta5+  Ta67  1  0.12834236  0.64259563  0.88445536  1
  Ta5+  Ta68  1  0.86812334  0.40310195  0.37788409  1
  Ta5+  Ta69  1  0.86774582  0.38388899  0.62018884  1
  Ta5+  Ta70  1  0.43859640  0.61940094  0.36961290  1
  Ta5+  Ta71  1  0.59258650  0.12238561  0.65101864  1
  Ta5+  Ta72  1  0.84532280  0.87938380  0.87686222  1
  Ta5+  Ta73  1  0.09961801  0.39493436  0.87550856  1
  Ta5+  Ta74  1  0.11976433  0.10716963  0.61746283  1
  W6+  W75  1  0.38130907  0.64117261  0.62744294  1
  W6+  W76  1  0.35902345  0.62634218  0.87061633  1
  W6+  W77  1  0.60544432  0.37429314  0.37383904  1
  W6+  W78  1  0.14420627  0.02092180  0.28764321  1
  W6+  W79  1  0.34945290  0.87387726  0.86004987  1
  W6+  W80  1  0.13988738  0.63491361  0.13113092  1
  W6+  W81  1  0.30792363  0.84148263  0.61221379  1
  W6+  W82  1  0.12398532  0.12130176  0.11304615  1
  O2-  O83  1  0.16504037  -0.00412398  0.14911512  1
  O2-  O84  1  0.11467637  -0.02511464  0.40758873  1
  O2-  O85  1  0.10019182  -0.00964865  0.62909842  1
  O2-  O86  1  0.12050725  -0.00892801  0.86635029  1
  O2-  O87  1  0.10739208  0.50004040  0.11151639  1
  O2-  O88  1  0.07598350  0.50401934  0.37298293  1
  O2-  O89  1  0.09496962  0.51509826  0.65201233  1
  O2-  O90  1  0.11387108  0.51489914  0.87413722  1
  O2-  O91  1  0.35594629  -0.00846864  0.10925345  1
  O2-  O92  1  0.40703895  -0.04623362  0.38393578  1
  O2-  O93  1  0.37195416  -0.02549064  0.60186871  1
  O2-  O94  1  0.34396352  0.01358142  0.86236474  1
  O2-  O95  1  0.38716650  0.49475479  0.10275691  1
  O2-  O96  1  0.40131391  0.50474470  0.37478312  1
  O2-  O97  1  0.39986742  0.50660225  0.63166857  1
  O2-  O98  1  0.32986621  0.49321889  0.88084382  1
  O2-  O99  1  0.65036177  0.00668809  0.11843073  1
  O2-  O100  1  0.56461540  -0.00449425  0.38077361  1
  O2-  O101  1  0.58202270  0.00058405  0.64824638  1
  O2-  O102  1  0.65217744  0.01048993  0.88549017  1
  O2-  O103  1  0.54803571  0.50607441  0.09222586  1
  O2-  O104  1  0.61693598  0.50716459  0.37643781  1
  O2-  O105  1  0.60166885  0.50025439  0.62840422  1
  O2-  O106  1  0.65739164  0.48555433  0.89144929  1
  O2-  O107  1  0.90018339  0.00888891  0.12685820  1
  O2-  O108  1  0.91500131  -0.02870234  0.39179489  1
  O2-  O109  1  0.89966703  0.00232899  0.60378692  1
  O2-  O110  1  0.84452946  0.00767669  0.87544917  1
  O2-  O111  1  0.87634601  0.48493928  0.12423061  1
  O2-  O112  1  0.89801021  0.51637425  0.39864700  1
  O2-  O113  1  0.88965728  0.50107672  0.61594909  1
  O2-  O114  1  0.86765765  0.50069940  0.88110035  1
  O2-  O115  1  0.07790637  0.26385667  0.10236603  1
  O2-  O116  1  0.10819840  0.27818800  0.38012148  1
  O2-  O117  1  0.13511010  0.26410738  0.62123571  1
  O2-  O118  1  0.08400284  0.24802047  0.87895369  1
  O2-  O119  1  0.18521308  0.75990946  0.14547153  1
  O2-  O120  1  0.11393996  0.75788045  0.40501935  1
  O2-  O121  1  0.06775069  0.75214304  0.61058354  1
  O2-  O122  1  0.06658178  0.75691045  0.89608103  1
  O2-  O123  1  0.40467458  0.25607148  0.12758987  1
  O2-  O124  1  0.35985603  0.26834745  0.37704961  1
  O2-  O125  1  0.33639491  0.25518778  0.58683617  1
  O2-  O126  1  0.31162301  0.21542067  0.85551624  1
  O2-  O127  1  0.44603389  0.74556047  0.10042084  1
  O2-  O128  1  0.42938003  0.75098767  0.35525116  1
  O2-  O129  1  0.42263809  0.76508116  0.63003526  1
  O2-  O130  1  0.40071009  0.75277788  0.86513851  1
  O2-  O131  1  0.60372540  0.25093996  0.12462050  1
  O2-  O132  1  0.58729408  0.22750855  0.40604964  1
  O2-  O133  1  0.64751513  0.24653717  0.63616442  1
  O2-  O134  1  0.66247195  0.25071755  0.87159797  1
  O2-  O135  1  0.65475800  0.75031252  0.13059678  1
  O2-  O136  1  0.60340452  0.77149280  0.37375549  1
  O2-  O137  1  0.62753583  0.75687955  0.64103066  1
  O2-  O138  1  0.66215810  0.75041798  0.88282574  1
  O2-  O139  1  0.89465587  0.26759617  0.14606125  1
  O2-  O140  1  0.92742837  0.29585060  0.40159526  1
  O2-  O141  1  0.83051345  0.25043045  0.61582607  1
  O2-  O142  1  0.89684180  0.25101791  0.82521487  1
  O2-  O143  1  0.86573375  0.75059665  0.12639485  1
  O2-  O144  1  0.81948204  0.75005669  0.38903599  1
  O2-  O145  1  0.86455650  0.75246159  0.66320928  1
  O2-  O146  1  0.87148752  0.75210286  0.85699379  1
  O2-  O147  1  0.16960749  0.12721002  -0.02378049  1
  O2-  O148  1  0.07475529  0.12503619  0.24047012  1
  O2-  O149  1  0.10502143  0.14186716  0.49880039  1
  O2-  O150  1  0.14857045  0.14287486  0.74495425  1
  O2-  O151  1  0.17041214  0.64199384  -0.00189313  1
  O2-  O152  1  0.10478654  0.64086103  0.25948143  1
  O2-  O153  1  0.13174046  0.61912204  0.50238144  1
  O2-  O154  1  0.12785538  0.66202511  0.75494643  1
  O2-  O155  1  0.36759462  0.14724028  -0.00387179  1
  O2-  O156  1  0.38762813  0.10390876  0.25375857  1
  O2-  O157  1  0.36827015  0.11627808  0.46735403  1
  O2-  O158  1  0.35598609  0.12624670  0.72228345  1
  O2-  O159  1  0.43929874  0.62422241  -0.02214262  1
  O2-  O160  1  0.44266887  0.62462641  0.23233341  1
  O2-  O161  1  0.42335637  0.64324475  0.49704463  1
  O2-  O162  1  0.33677050  0.63260463  0.74956501  1
  O2-  O163  1  0.62927877  0.14651215  -0.00360900  1
  O2-  O164  1  0.62394129  0.11960424  0.26685374  1
  O2-  O165  1  0.64502308  0.11492500  0.52885473  1
  O2-  O166  1  0.67355044  0.12195568  0.75092614  1
  O2-  O167  1  0.62848124  0.64151557  -0.00002403  1
  O2-  O168  1  0.64922732  0.64996208  0.25648042  1
  O2-  O169  1  0.60690310  0.64704342  0.50856611  1
  O2-  O170  1  0.60221589  0.62574869  0.76246375  1
  O2-  O171  1  0.84081879  0.16619108  -0.03566701  1
  O2-  O172  1  0.89857964  0.14545471  0.29745294  1
  O2-  O173  1  0.83450185  0.12939676  0.48924738  1
  O2-  O174  1  0.83927676  0.12087966  0.73380917  1
  O2-  O175  1  0.90645642  0.63453887  -0.00057916  1
  O2-  O176  1  0.88137436  0.63238879  0.25412806  1
  O2-  O177  1  0.91154458  0.65335141  0.51816378  1
  O2-  O178  1  0.93068281  0.62022962  0.74881386  1
  O2-  O179  1  0.16403641  0.36924851  -0.01729712  1
  O2-  O180  1  0.11019625  0.36784510  0.24090000  1
  O2-  O181  1  0.09281291  0.39613498  0.50542289  1
  O2-  O182  1  0.15281655  0.36095439  0.76026622  1
  O2-  O183  1  0.15698841  0.87479918  0.00541679  1
  O2-  O184  1  0.12598596  0.88025379  0.26650357  1
  O2-  O185  1  0.20011056  0.88000139  0.52597254  1
  O2-  O186  1  0.11865792  0.85010051  0.75306982  1
  O2-  O187  1  0.37111772  0.34821711  -0.01572504  1
  O2-  O188  1  0.38719662  0.38545263  0.25042542  1
  O2-  O189  1  0.40497491  0.38735614  0.49162391  1
  O2-  O190  1  0.35792702  0.35793184  0.74836747  1
  O2-  O191  1  0.41771191  0.87630184  -0.02047737  1
  O2-  O192  1  0.37721799  0.84719742  0.22806565  1
  O2-  O193  1  0.35088573  0.82409235  0.48131956  1
  O2-  O194  1  0.30429416  0.86863726  0.74317422  1
  O2-  O195  1  0.60215897  0.36047635  0.00107137  1
  O2-  O196  1  0.56865124  0.37572068  0.24108944  1
  O2-  O197  1  0.63992358  0.36652519  0.51209195  1
  O2-  O198  1  0.64317519  0.36886726  0.75239812  1
  O2-  O199  1  0.60742998  0.86694915  0.00203139  1
  O2-  O200  1  0.67552917  0.87834445  0.25842464  1
  O2-  O201  1  0.61019795  0.87899845  0.51000032  1
  O2-  O202  1  0.65336296  0.87749925  0.76246405  1
  O2-  O203  1  0.83456748  0.34050512  -0.03630134  1
  O2-  O204  1  0.77888078  0.38665050  0.29186619  1
  O2-  O205  1  0.81929003  0.37975312  0.50156713  1
  O2-  O206  1  0.82555686  0.38314122  0.74098826  1
  O2-  O207  1  0.86616924  0.87130588  0.00345046  1
  O2-  O208  1  0.87955176  0.85961673  0.25662966  1
  O2-  O209  1  0.91616037  0.84379503  0.51384959  1
  O2-  O210  1  0.91269958  0.88840568  0.75098977  1
  O2-  O211  1  -0.00438671  0.11300616  -0.05027701  1
  O2-  O212  1  0.01685300  -0.13625056  0.12379037  1
  O2-  O213  1  -0.00824547  0.15838101  0.62052964  1
  O2-  O214  1  -0.00301833  0.10853339  0.78860548  1
  O2-  O215  1  -0.00612593  0.38205970  -0.04883935  1
  O2-  O216  1  -0.06101493  0.38979585  0.26568667  1
  O2-  O217  1  -0.01622356  0.34685592  0.62429948  1
  O2-  O218  1  -0.00355434  0.39269517  0.79064243  1
  O2-  O219  1  0.25628027  0.16245421  0.12892779  1
  O2-  O220  1  0.26453043  -0.04423227  0.32005423  1
  O2-  O221  1  0.23183930  0.11403442  0.35474450  1
  O2-  O222  1  0.24146081  0.11028790  0.59103371  1
  O2-  O223  1  0.24974554  0.36289868  0.12787336  1
  O2-  O224  1  0.24296922  0.44889524  0.30981853  1
  O2-  O225  1  0.23956191  0.36467625  0.44339110  1
  O2-  O226  1  0.24711026  0.41235628  0.61597331  1
  O2-  O227  1  0.49638980  0.10337105  -0.07866048  1
  O2-  O228  1  0.49860672  0.11090302  0.11656485  1
  O2-  O229  1  0.48240604  0.14508536  0.59198315  1
  O2-  O230  1  0.51704220  0.13590037  0.76948818  1
  O2-  O231  1  0.49349274  0.29563791  -0.12571796  1
  O2-  O232  1  0.68357769  0.49586232  0.17343873  1
  O2-  O233  1  0.49079298  0.33925432  0.63165164  1
  O2-  O234  1  0.49936809  0.45333689  0.84465838  1
  O2-  O235  1  0.75195312  0.15414029  0.13139159  1
  O2-  O236  1  0.78621254  0.03190500  0.25879369  1
  O2-  O237  1  0.72132103  0.00090926  0.41232686  1
  O2-  O238  1  0.75473790  -0.11049119  0.62177914  1
  O2-  O239  1  0.76237604  0.62474791  0.10884039  1
  O2-  O240  1  0.73696486  0.35203451  0.12423036  1
  O2-  O241  1  0.74871099  0.62300586  0.63641379  1
  O2-  O242  1  0.76481342  0.62193309  0.82993453  1
