# generated using pymatgen
data_Gd19Ta56(WO20)8
_symmetry_space_group_name_H-M   'P 1'
_cell_length_a   15.46645914
_cell_length_b   15.37422292
_cell_length_c   15.30946537
_cell_angle_alpha   89.78501972
_cell_angle_beta   89.77227121
_cell_angle_gamma   90.51362677
_symmetry_Int_Tables_number   1
_chemical_formula_structural   Gd19Ta56(WO20)8
_chemical_formula_sum   'Gd19 Ta56 W8 O160'
_cell_volume   3640.15687622
_cell_formula_units_Z   1
loop_
 _symmetry_equiv_pos_site_id
 _symmetry_equiv_pos_as_xyz
  1  'x, y, z'
loop_
 _atom_type_symbol
 _atom_type_oxidation_number
  Gd3+  3.0
  Ta5+  5.0
  W6+  6.0
  O2-  -2.0
loop_
 _atom_site_type_symbol
 _atom_site_label
 _atom_site_symmetry_multiplicity
 _atom_site_fract_x
 _atom_site_fract_y
 _atom_site_fract_z
 _atom_site_occupancy
  Gd3+  Gd0  1  0.74931242  0.19050965  -0.00076250  1
  Gd3+  Gd1  1  0.24254759  0.76379001  0.50848366  1
  Gd3+  Gd2  1  0.27132582  0.76618560  0.75393585  1
  Gd3+  Gd3  1  0.27692207  0.75800726  0.23366422  1
  Gd3+  Gd4  1  0.42717029  0.23672736  0.01560395  1
  Gd3+  Gd5  1  0.78346406  0.76133285  0.76338654  1
  Gd3+  Gd6  1  0.76956367  0.75691562  0.00122044  1
  Gd3+  Gd7  1  0.50694867  0.74624653  0.49675658  1
  Gd3+  Gd8  1  0.25054646  0.75795005  -0.01182399  1
  Gd3+  Gd9  1  0.54593980  0.74642637  0.76622581  1
  Gd3+  Gd10  1  -0.00892815  0.75315273  0.48362921  1
  Gd3+  Gd11  1  0.24443590  0.24259694  0.48514673  1
  Gd3+  Gd12  1  0.50605932  0.74327811  0.24733663  1
  Gd3+  Gd13  1  0.51390364  0.74284302  0.01030746  1
  Gd3+  Gd14  1  0.70239086  0.21433766  0.26877502  1
  Gd3+  Gd15  1  0.03896186  0.76039183  0.72964562  1
  Gd3+  Gd16  1  0.76173432  0.22167667  0.73569726  1
  Gd3+  Gd17  1  0.00188445  0.27460152  0.03051315  1
  Gd3+  Gd18  1  0.22435247  0.24221257  0.74050346  1
  Ta5+  Ta19  1  0.61831846  0.60224651  0.37360148  1
  Ta5+  Ta20  1  0.88535096  0.62976822  0.13498471  1
  Ta5+  Ta21  1  0.85307220  0.37702465  0.61319055  1
  Ta5+  Ta22  1  0.57370465  0.11955434  0.88659267  1
  Ta5+  Ta23  1  0.88938428  0.90181816  0.61681618  1
  Ta5+  Ta24  1  0.57956511  0.35304432  0.88184360  1
  Ta5+  Ta25  1  0.08956965  0.14179656  0.87504717  1
  Ta5+  Ta26  1  0.40216237  0.37741748  0.37650640  1
  Ta5+  Ta27  1  0.37152418  0.12490669  0.62854253  1
  Ta5+  Ta28  1  0.20066274  0.94175817  0.62987606  1
  Ta5+  Ta29  1  0.13988283  0.37694053  0.35093784  1
  Ta5+  Ta30  1  0.63424298  0.89634563  0.16558325  1
  Ta5+  Ta31  1  0.12267686  0.60003947  0.87848704  1
  Ta5+  Ta32  1  0.63767878  0.58884118  0.12916483  1
  Ta5+  Ta33  1  0.39188394  0.90116790  0.12403250  1
  Ta5+  Ta34  1  0.38440304  0.60997122  0.12324868  1
  Ta5+  Ta35  1  0.64889989  0.87164013  0.61394822  1
  Ta5+  Ta36  1  0.09426138  0.35807698  0.60784823  1
  Ta5+  Ta37  1  0.88406424  0.62450106  0.62674541  1
  Ta5+  Ta38  1  0.10332227  0.90859028  0.90111270  1
  Ta5+  Ta39  1  0.65037763  0.93193428  0.91837076  1
  Ta5+  Ta40  1  0.19222712  0.60648901  0.37008596  1
  Ta5+  Ta41  1  0.56085901  0.10479817  0.39009972  1
  Ta5+  Ta42  1  0.33145253  0.11264380  0.88126650  1
  Ta5+  Ta43  1  0.84601960  0.38170376  0.12427037  1
  Ta5+  Ta44  1  0.11909771  0.13253591  0.12970271  1
  Ta5+  Ta45  1  0.85952275  0.61904235  0.37315376  1
  Ta5+  Ta46  1  0.89816918  0.90248230  0.88196659  1
  Ta5+  Ta47  1  0.57972504  0.08442232  0.13397662  1
  Ta5+  Ta48  1  0.64888145  0.88077475  0.36594485  1
  Ta5+  Ta49  1  0.37942573  0.62210989  0.87228264  1
  Ta5+  Ta50  1  0.79726773  0.38095512  0.37120928  1
  Ta5+  Ta51  1  0.28746353  0.12515774  0.14469553  1
  Ta5+  Ta52  1  0.36200854  0.61778847  0.37924121  1
  Ta5+  Ta53  1  0.15098829  0.37616328  0.12813487  1
  Ta5+  Ta54  1  0.91835147  0.62106311  0.88692263  1
  Ta5+  Ta55  1  0.10368726  0.35841353  0.87081545  1
  Ta5+  Ta56  1  0.13143506  0.62045255  0.12812188  1
  Ta5+  Ta57  1  0.13475374  0.87934419  0.14397097  1
  Ta5+  Ta58  1  0.33236402  0.37355639  0.88142653  1
  Ta5+  Ta59  1  0.13094371  0.87554306  0.35171599  1
  Ta5+  Ta60  1  0.39003304  0.13083487  0.37281914  1
  Ta5+  Ta61  1  0.38731122  0.62196126  0.62375876  1
  Ta5+  Ta62  1  0.90508282  0.13701263  0.14555091  1
  Ta5+  Ta63  1  0.57117249  0.35395043  0.37312478  1
  Ta5+  Ta64  1  0.92438963  0.14527489  0.86903987  1
  Ta5+  Ta65  1  0.62295229  0.33939654  0.11939857  1
  Ta5+  Ta66  1  0.90296490  0.88719483  0.12528782  1
  Ta5+  Ta67  1  0.85899129  0.88760511  0.36915344  1
  Ta5+  Ta68  1  0.12806501  0.12317397  0.34899880  1
  Ta5+  Ta69  1  0.31784537  0.37009714  0.14446813  1
  Ta5+  Ta70  1  0.13904090  0.59621542  0.62044261  1
  Ta5+  Ta71  1  0.36169906  0.38232537  0.62874948  1
  Ta5+  Ta72  1  0.93551813  0.14425649  0.61101971  1
  Ta5+  Ta73  1  0.60062665  0.36096540  0.62530270  1
  Ta5+  Ta74  1  0.63645948  0.60314296  0.62702618  1
  W6+  W75  1  0.64689982  0.59609225  0.88626226  1
  W6+  W76  1  0.58388553  0.11604494  0.64020591  1
  W6+  W77  1  0.87713719  0.13699957  0.36836019  1
  W6+  W78  1  0.39289638  0.89291398  0.62338732  1
  W6+  W79  1  0.85029446  0.38505270  0.87043526  1
  W6+  W80  1  0.43743191  0.89579631  0.87069677  1
  W6+  W81  1  0.40737032  0.89395137  0.38283434  1
  W6+  W82  1  0.09935989  0.11370528  0.61199226  1
  O2-  O83  1  0.11785572  0.00034467  0.13489255  1
  O2-  O84  1  0.10698924  -0.00393836  0.36168204  1
  O2-  O85  1  0.24005892  0.06137145  0.62466441  1
  O2-  O86  1  0.14236199  0.01950529  0.87828092  1
  O2-  O87  1  0.15411445  0.50335571  0.09910744  1
  O2-  O88  1  0.20178570  0.48337793  0.37552894  1
  O2-  O89  1  0.14629864  0.47680061  0.62311876  1
  O2-  O90  1  0.14914694  0.48081258  0.86017925  1
  O2-  O91  1  0.34185216  0.00962648  0.12881464  1
  O2-  O92  1  0.46036534  0.01854096  0.37279103  1
  O2-  O93  1  0.43279291  0.02349538  0.64092792  1
  O2-  O94  1  0.34322540  -0.00640071  0.88068887  1
  O2-  O95  1  0.36143365  0.49287924  0.13103937  1
  O2-  O96  1  0.40290503  0.50342471  0.36567171  1
  O2-  O97  1  0.34421478  0.50551843  0.63931554  1
  O2-  O98  1  0.36875983  0.50224391  0.86968343  1
  O2-  O99  1  0.68187001  0.01593567  0.14239279  1
  O2-  O100  1  0.64270205  0.00042560  0.37747926  1
  O2-  O101  1  0.61222768  -0.01787880  0.63123742  1
  O2-  O102  1  0.54367849  -0.00318942  0.87058559  1
  O2-  O103  1  0.63613931  0.46883492  0.11966853  1
  O2-  O104  1  0.59815780  0.48294224  0.36668436  1
  O2-  O105  1  0.65263193  0.47903301  0.62829680  1
  O2-  O106  1  0.61028174  0.46477304  0.91204885  1
  O2-  O107  1  0.90939058  0.01275375  0.13014327  1
  O2-  O108  1  0.85034831  0.00748146  0.37753345  1
  O2-  O109  1  0.90600088  0.02170758  0.62291443  1
  O2-  O110  1  0.88268108  0.02705747  0.86953919  1
  O2-  O111  1  0.88030347  0.49883182  0.13534021  1
  O2-  O112  1  0.85890907  0.49376934  0.37012416  1
  O2-  O113  1  0.86632661  0.50772191  0.63621806  1
  O2-  O114  1  0.85208920  0.52412192  0.85535919  1
  O2-  O115  1  0.10613688  0.25742362  0.14849081  1
  O2-  O116  1  0.15138156  0.25221569  0.34258681  1
  O2-  O117  1  0.14858497  0.24696067  0.60645549  1
  O2-  O118  1  0.01191486  0.25936658  0.87748828  1
  O2-  O119  1  0.14609988  0.74999518  0.14992684  1
  O2-  O120  1  0.19482506  0.74726928  0.35910634  1
  O2-  O121  1  0.01938785  0.63755628  0.61576003  1
  O2-  O122  1  0.17381045  0.81312318  0.85465005  1
  O2-  O123  1  0.33376409  0.24235610  0.13466117  1
  O2-  O124  1  0.36711444  0.25217827  0.39263613  1
  O2-  O125  1  0.31582923  0.25888794  0.61910506  1
  O2-  O126  1  0.30248349  0.25006724  0.87843973  1
  O2-  O127  1  0.41636992  0.75420703  0.12376971  1
  O2-  O128  1  0.37323448  0.75619834  0.39580815  1
  O2-  O129  1  0.37780306  0.75250020  0.59747513  1
  O2-  O130  1  0.36101839  0.77343284  0.88336065  1
  O2-  O131  1  0.65233173  0.20483250  0.12212268  1
  O2-  O132  1  0.60383304  0.22679846  0.38189174  1
  O2-  O133  1  0.65416368  0.25001016  0.63157204  1
  O2-  O134  1  0.63161675  0.23901795  0.91580295  1
  O2-  O135  1  0.59690216  0.77723515  0.13553499  1
  O2-  O136  1  0.59205048  0.73755395  0.37027295  1
  O2-  O137  1  0.59348776  0.74429616  0.61738065  1
  O2-  O138  1  0.70805071  0.71574168  0.87471737  1
  O2-  O139  1  0.90650723  0.27340986  0.15187786  1
  O2-  O140  1  0.82027595  0.26151232  0.37100562  1
  O2-  O141  1  0.85531192  0.25101189  0.61247164  1
  O2-  O142  1  0.81971682  0.23698590  0.87552055  1
  O2-  O143  1  0.86228940  0.75605645  0.12500316  1
  O2-  O144  1  0.87476540  0.75492984  0.38809679  1
  O2-  O145  1  0.92962763  0.77416571  0.61924533  1
  O2-  O146  1  0.87640943  0.77070153  0.88670900  1
  O2-  O147  1  0.10006233  0.14911569  0.00624155  1
  O2-  O148  1  0.19647323  0.11585737  0.24444583  1
  O2-  O149  1  0.14151911  0.13198366  0.47258444  1
  O2-  O150  1  0.10865522  0.14551360  0.74966360  1
  O2-  O151  1  0.14670598  0.65009217  -0.00710440  1
  O2-  O152  1  0.14740732  0.60529842  0.25174689  1
  O2-  O153  1  0.14322955  0.63246184  0.49526055  1
  O2-  O154  1  0.12934558  0.62970476  0.74535720  1
  O2-  O155  1  0.31916634  0.12925226  0.00604846  1
  O2-  O156  1  0.35750596  0.12622672  0.25823774  1
  O2-  O157  1  0.34681117  0.12560209  0.50254987  1
  O2-  O158  1  0.32672746  0.13328955  0.75198649  1
  O2-  O159  1  0.37441440  0.64148951  -0.00309453  1
  O2-  O160  1  0.38880340  0.64139700  0.25071446  1
  O2-  O161  1  0.40827142  0.61701289  0.49997737  1
  O2-  O162  1  0.50855834  0.59863839  0.63978653  1
  O2-  O163  1  0.53111390  0.12467028  0.02352752  1
  O2-  O164  1  0.57329028  0.12032445  0.25151491  1
  O2-  O165  1  0.56191731  0.10795693  0.50948212  1
  O2-  O166  1  0.62649480  0.13524937  0.77468590  1
  O2-  O167  1  0.64739743  0.64872168  0.01703084  1
  O2-  O168  1  0.59649266  0.61818182  0.24488172  1
  O2-  O169  1  0.61720553  0.61437918  0.49969249  1
  O2-  O170  1  0.64028573  0.61789954  0.75057171  1
  O2-  O171  1  0.89928391  0.15820760  0.01138373  1
  O2-  O172  1  0.82181173  0.13704039  0.23803196  1
  O2-  O173  1  0.93268100  0.14644676  0.49056836  1
  O2-  O174  1  0.90552513  0.16132116  0.74370942  1
  O2-  O175  1  0.86514861  0.63802540  0.00035338  1
  O2-  O176  1  0.90679629  0.63323645  0.26026465  1
  O2-  O177  1  0.89989244  0.62672101  0.49621675  1
  O2-  O178  1  0.90008933  0.65950615  0.75103226  1
  O2-  O179  1  0.12730323  0.35298816  -0.00452928  1
  O2-  O180  1  0.09357852  0.40333818  0.24184548  1
  O2-  O181  1  0.12211987  0.36212816  0.48269215  1
  O2-  O182  1  0.10353153  0.34632722  0.74026450  1
  O2-  O183  1  0.14986189  0.86860514  0.01198848  1
  O2-  O184  1  0.05254959  0.84277628  0.27042313  1
  O2-  O185  1  0.11064774  0.83589593  0.47162717  1
  O2-  O186  1  0.16166121  0.80662970  0.65140804  1
  O2-  O187  1  0.33419588  0.36737802  0.00678995  1
  O2-  O188  1  0.35221392  0.36730187  0.26311165  1
  O2-  O189  1  0.35087346  0.38357036  0.50429942  1
  O2-  O190  1  0.31065668  0.37164184  0.74932794  1
  O2-  O191  1  0.43990569  0.88235816  0.01068824  1
  O2-  O192  1  0.39171063  0.86268537  0.24760604  1
  O2-  O193  1  0.46305941  0.88261236  0.50572842  1
  O2-  O194  1  0.45913860  0.85696418  0.73944631  1
  O2-  O195  1  0.54119241  0.33473171  0.02895358  1
  O2-  O196  1  0.59691987  0.33313128  0.23949525  1
  O2-  O197  1  0.58129076  0.36039841  0.50594196  1
  O2-  O198  1  0.61148144  0.35105761  0.76540050  1
  O2-  O199  1  0.66474877  0.88599870  0.03113772  1
  O2-  O200  1  0.55914168  0.88263561  0.27468260  1
  O2-  O201  1  0.64049716  0.84761648  0.48795951  1
  O2-  O202  1  0.66272476  0.83618338  0.73341892  1
  O2-  O203  1  0.89221657  0.37143808  0.00302142  1
  O2-  O204  1  0.78503958  0.37596933  0.24133533  1
  O2-  O205  1  0.79526076  0.38862048  0.50528332  1
  O2-  O206  1  0.80278507  0.36508309  0.72833173  1
  O2-  O207  1  0.84371972  0.88802473  0.01224062  1
  O2-  O208  1  0.88394989  0.88373328  0.25022328  1
  O2-  O209  1  0.92255248  0.88527458  0.48833947  1
  O2-  O210  1  0.87021000  0.88415707  0.74251295  1
  O2-  O211  1  -0.00669565  -0.07197896  -0.03911535  1
  O2-  O212  1  0.01458977  -0.14593918  0.11070683  1
  O2-  O213  1  0.08366752  -0.02570764  0.62864870  1
  O2-  O214  1  0.01378918  -0.12260209  0.81260177  1
  O2-  O215  1  0.01001730  0.54967014  -0.07388121  1
  O2-  O216  1  0.00898690  0.62944260  0.11586893  1
  O2-  O217  1  -0.02314395  0.38362915  0.59677436  1
  O2-  O218  1  0.02955909  0.69050586  0.85879005  1
  O2-  O219  1  0.27618521  -0.14934012  0.10659378  1
  O2-  O220  1  0.21132805  -0.10789760  0.25230884  1
  O2-  O221  1  0.27486823  -0.09518222  0.53482751  1
  O2-  O222  1  0.28356147  -0.09119758  0.71845561  1
  O2-  O223  1  0.25157744  0.64212962  -0.13646894  1
  O2-  O224  1  0.26565322  0.65137099  0.12235354  1
  O2-  O225  1  0.25239595  0.65013232  0.62497604  1
  O2-  O226  1  0.38811775  0.66223284  0.74941168  1
  O2-  O227  1  0.56611204  -0.16674963  -0.10623520  1
  O2-  O228  1  0.52016595  -0.03240516  0.13698640  1
  O2-  O229  1  0.47281403  0.19263605  0.64471986  1
  O2-  O230  1  0.45484909  0.15903566  0.87764687  1
  O2-  O231  1  0.50708072  0.64912705  -0.11703946  1
  O2-  O232  1  0.50929275  0.60986524  0.10262235  1
  O2-  O233  1  0.48001006  0.37963438  0.65394107  1
  O2-  O234  1  0.45775195  0.34634561  0.87320954  1
  O2-  O235  1  0.67958657  0.05917390  -0.05751812  1
  O2-  O236  1  0.71664699  -0.14099073  0.25342731  1
  O2-  O237  1  0.77149407  -0.11737473  0.59512094  1
  O2-  O238  1  0.75608662  -0.09950014  0.87083115  1
  O2-  O239  1  0.73925876  0.33375681  0.06614013  1
  O2-  O240  1  0.75475431  0.61898138  0.15185877  1
  O2-  O241  1  0.74043416  0.62327875  0.36345510  1
  O2-  O242  1  0.76277027  0.65859174  0.62669224  1
