# generated using pymatgen
data_Gd19Ta56(WO20)8
_symmetry_space_group_name_H-M   'P 1'
_cell_length_a   15.61373816
_cell_length_b   15.47694073
_cell_length_c   15.17351259
_cell_angle_alpha   89.83710203
_cell_angle_beta   90.12887817
_cell_angle_gamma   90.04285170
_symmetry_Int_Tables_number   1
_chemical_formula_structural   Gd19Ta56(WO20)8
_chemical_formula_sum   'Gd19 Ta56 W8 O160'
_cell_volume   3666.69821873
_cell_formula_units_Z   1
loop_
 _symmetry_equiv_pos_site_id
 _symmetry_equiv_pos_as_xyz
  1  'x, y, z'
loop_
 _atom_type_symbol
 _atom_type_oxidation_number
  Gd3+  3.0
  Ta5+  5.0
  W6+  6.0
  O2-  -2.0
loop_
 _atom_site_type_symbol
 _atom_site_label
 _atom_site_symmetry_multiplicity
 _atom_site_fract_x
 _atom_site_fract_y
 _atom_site_fract_z
 _atom_site_occupancy
  Gd3+  Gd0  1  0.47737591  0.75921506  0.53004904  1
  Gd3+  Gd1  1  0.53812516  0.73085127  0.31853748  1
  Gd3+  Gd2  1  0.75631687  0.21952481  0.49793001  1
  Gd3+  Gd3  1  0.24604889  0.26893493  0.73952010  1
  Gd3+  Gd4  1  0.25642963  0.74686976  0.00131139  1
  Gd3+  Gd5  1  0.76719859  0.75083490  0.26487413  1
  Gd3+  Gd6  1  0.49346928  0.25991873  0.27259309  1
  Gd3+  Gd7  1  0.50656908  0.25733552  -0.00212850  1
  Gd3+  Gd8  1  0.73885785  0.75494860  -0.01156583  1
  Gd3+  Gd9  1  0.23447361  0.76758087  0.27450689  1
  Gd3+  Gd10  1  0.75552178  0.75450102  0.73371995  1
  Gd3+  Gd11  1  0.74607390  0.22120325  0.74799338  1
  Gd3+  Gd12  1  0.76134380  0.25931188  0.00318454  1
  Gd3+  Gd13  1  0.00379636  0.23848912  0.73586311  1
  Gd3+  Gd14  1  0.01324831  0.23836827  0.02202691  1
  Gd3+  Gd15  1  0.23612001  0.74697230  0.72113822  1
  Gd3+  Gd16  1  0.75248475  0.75946712  0.49504894  1
  Gd3+  Gd17  1  0.74736126  0.25923005  0.25238710  1
  Gd3+  Gd18  1  0.49008637  0.72953127  0.02708362  1
  Ta5+  Ta19  1  0.36872484  0.12164712  0.90756860  1
  Ta5+  Ta20  1  0.13234418  0.13005661  0.59619914  1
  Ta5+  Ta21  1  0.69720220  0.94059500  0.36987484  1
  Ta5+  Ta22  1  0.57265629  0.37491707  0.63422470  1
  Ta5+  Ta23  1  0.12957827  0.88271428  0.11659694  1
  Ta5+  Ta24  1  0.34527525  0.59086625  0.41593614  1
  Ta5+  Ta25  1  0.62553549  0.90283621  0.60236846  1
  Ta5+  Ta26  1  0.11484912  0.36737206  0.59030364  1
  Ta5+  Ta27  1  0.40211019  0.61926262  0.66448176  1
  Ta5+  Ta28  1  0.36063907  0.13058800  0.14192207  1
  Ta5+  Ta29  1  0.85701798  0.37358971  0.86735448  1
  Ta5+  Ta30  1  0.41956097  0.13226411  0.65203215  1
  Ta5+  Ta31  1  0.38622242  0.89136193  0.66152621  1
  Ta5+  Ta32  1  0.14693234  0.37778074  0.12159065  1
  Ta5+  Ta33  1  0.64751968  0.38595444  0.86541312  1
  Ta5+  Ta34  1  0.89051618  0.86417175  0.12055816  1
  Ta5+  Ta35  1  0.58446607  0.14218650  0.62900669  1
  Ta5+  Ta36  1  0.86897655  0.61313470  0.61719783  1
  Ta5+  Ta37  1  0.90829346  0.85982524  0.86945920  1
  Ta5+  Ta38  1  0.87573217  0.61733341  0.87088272  1
  Ta5+  Ta39  1  0.62736073  0.88865756  0.15536200  1
  Ta5+  Ta40  1  0.62878318  0.38795797  0.11785847  1
  Ta5+  Ta41  1  0.33845376  0.35293214  0.40714891  1
  Ta5+  Ta42  1  0.12877657  0.11998774  0.87405053  1
  Ta5+  Ta43  1  0.61698309  0.60743659  0.57729482  1
  Ta5+  Ta44  1  0.36546550  0.91920022  0.40866933  1
  Ta5+  Ta45  1  0.88160829  0.37277234  0.61781923  1
  Ta5+  Ta46  1  0.62043663  0.62869435  0.16208300  1
  Ta5+  Ta47  1  0.12301654  0.62561794  0.12878646  1
  Ta5+  Ta48  1  0.57915822  0.86590535  0.83511743  1
  Ta5+  Ta49  1  0.38723837  0.61506788  0.87987834  1
  Ta5+  Ta50  1  0.33814719  0.37467742  0.90949932  1
  Ta5+  Ta51  1  0.38779758  0.87489834  0.88480206  1
  Ta5+  Ta52  1  0.90126781  0.10317783  0.37284499  1
  Ta5+  Ta53  1  0.91273726  0.85822513  0.38046432  1
  Ta5+  Ta54  1  0.59127659  0.62154328  0.82290337  1
  Ta5+  Ta55  1  0.63858087  0.11986797  0.12212988  1
  Ta5+  Ta56  1  0.62078401  0.38086772  0.38975909  1
  Ta5+  Ta57  1  0.91549023  0.87177599  0.61657125  1
  Ta5+  Ta58  1  0.89512461  0.35433378  0.37158492  1
  Ta5+  Ta59  1  0.05601622  0.37792744  0.34454452  1
  Ta5+  Ta60  1  0.35915528  0.11712246  0.40351765  1
  Ta5+  Ta61  1  0.64471955  0.55625538  0.41562098  1
  Ta5+  Ta62  1  0.07941925  0.90110731  0.60750433  1
  Ta5+  Ta63  1  0.11524762  0.62674678  0.87125500  1
  Ta5+  Ta64  1  0.16259030  0.12500395  0.13104337  1
  Ta5+  Ta65  1  0.07685476  0.87192224  0.37475944  1
  Ta5+  Ta66  1  0.85094939  0.10629309  0.12817505  1
  Ta5+  Ta67  1  0.10763162  0.60455399  0.61508942  1
  Ta5+  Ta68  1  0.63224426  0.10480034  0.87693658  1
  Ta5+  Ta69  1  0.88004061  0.59587636  0.37457402  1
  Ta5+  Ta70  1  0.12191741  0.61583463  0.37213766  1
  Ta5+  Ta71  1  0.90154773  0.06574596  0.62135287  1
  Ta5+  Ta72  1  0.35058133  0.37735287  0.12865178  1
  Ta5+  Ta73  1  0.38008441  0.88235464  0.15446861  1
  Ta5+  Ta74  1  0.88512768  0.62122904  0.11942976  1
  W6+  W75  1  0.06412088  0.12343253  0.35381335  1
  W6+  W76  1  0.09963871  0.37598519  0.87078894  1
  W6+  W77  1  0.88516150  0.11024478  0.87547129  1
  W6+  W78  1  0.88681756  0.37260665  0.12827456  1
  W6+  W79  1  0.14369773  0.87705846  0.85438729  1
  W6+  W80  1  0.62033597  0.11960816  0.37237425  1
  W6+  W81  1  0.41137604  0.36783898  0.65093710  1
  W6+  W82  1  0.37256571  0.62043714  0.16862040  1
  O2-  O83  1  0.17052844  -0.00444758  0.11937335  1
  O2-  O84  1  0.08095213  -0.00954960  0.36911745  1
  O2-  O85  1  0.15482244  0.01467284  0.61939315  1
  O2-  O86  1  0.10367070  0.00784379  0.84948226  1
  O2-  O87  1  0.14086895  0.50837131  0.11844844  1
  O2-  O88  1  0.08856716  0.50852800  0.33013747  1
  O2-  O89  1  0.14100787  0.48631745  0.62427015  1
  O2-  O90  1  0.13111001  0.51001138  0.87528983  1
  O2-  O91  1  0.37728307  0.00567401  0.14703931  1
  O2-  O92  1  0.44173260  0.00820395  0.40441992  1
  O2-  O93  1  0.38141691  0.01214387  0.66028116  1
  O2-  O94  1  0.37538069  -0.00530779  0.91022231  1
  O2-  O95  1  0.38462246  0.48613255  0.16041012  1
  O2-  O96  1  0.30017771  0.47852489  0.40804883  1
  O2-  O97  1  0.41184088  0.50306341  0.65624781  1
  O2-  O98  1  0.34437666  0.50340316  0.90390397  1
  O2-  O99  1  0.59325077  0.00612493  0.13707657  1
  O2-  O100  1  0.59287110  -0.01535179  0.34343818  1
  O2-  O101  1  0.61826668  0.01853588  0.63545789  1
  O2-  O102  1  0.60714596  -0.01707091  0.86311744  1
  O2-  O103  1  0.61489529  0.50911214  0.13379386  1
  O2-  O104  1  0.54822395  0.47941914  0.36916500  1
  O2-  O105  1  0.60548509  0.49501232  0.62652302  1
  O2-  O106  1  0.64114576  0.51472443  0.85194857  1
  O2-  O107  1  0.85185793  -0.02225599  0.12171146  1
  O2-  O108  1  0.90295003  -0.01864313  0.37607674  1
  O2-  O109  1  0.82533351  -0.02537219  0.63345905  1
  O2-  O110  1  0.90379475  -0.02276877  0.87334985  1
  O2-  O111  1  0.90092720  0.50579765  0.10802442  1
  O2-  O112  1  0.92103139  0.48118597  0.36548741  1
  O2-  O113  1  0.85028478  0.48828352  0.63508429  1
  O2-  O114  1  0.88750251  0.49689426  0.87199983  1
  O2-  O115  1  0.13471734  0.24775772  0.11350611  1
  O2-  O116  1  0.06448521  0.25769234  0.34647091  1
  O2-  O117  1  0.17966193  0.25747484  0.59678336  1
  O2-  O118  1  0.05910592  0.23548650  0.87843101  1
  O2-  O119  1  0.17032394  0.75687827  0.12890440  1
  O2-  O120  1  0.08474775  0.73337393  0.35133074  1
  O2-  O121  1  0.19899443  0.68090591  0.59684219  1
  O2-  O122  1  0.18585953  0.73913299  0.86693120  1
  O2-  O123  1  0.41100249  0.25748769  0.14275382  1
  O2-  O124  1  0.30310313  0.23277808  0.40297686  1
  O2-  O125  1  0.36275287  0.24039578  0.65834265  1
  O2-  O126  1  0.38057208  0.24931602  0.91907652  1
  O2-  O127  1  0.34265359  0.75887316  0.17074175  1
  O2-  O128  1  0.45148952  0.82000123  0.39812178  1
  O2-  O129  1  0.38382213  0.75766639  0.65415240  1
  O2-  O130  1  0.37567086  0.74679427  0.89011199  1
  O2-  O131  1  0.63144362  0.25110942  0.09567485  1
  O2-  O132  1  0.66795995  0.25319825  0.37802974  1
  O2-  O133  1  0.63523983  0.26182717  0.64710870  1
  O2-  O134  1  0.64862736  0.25150966  0.89399205  1
  O2-  O135  1  0.63283787  0.76506040  0.19636553  1
  O2-  O136  1  0.67229371  0.80425413  0.37090383  1
  O2-  O137  1  0.62182612  0.76615027  0.56946292  1
  O2-  O138  1  0.63491690  0.74957991  0.86152689  1
  O2-  O139  1  0.84954138  0.23758972  0.13085057  1
  O2-  O140  1  0.84248149  0.22693211  0.36986400  1
  O2-  O141  1  0.81356575  0.26948408  0.62841463  1
  O2-  O142  1  0.83954586  0.24251906  0.86905137  1
  O2-  O143  1  0.82132129  0.74938096  0.12085943  1
  O2-  O144  1  0.85799296  0.72959550  0.38365488  1
  O2-  O145  1  0.85003048  0.74294287  0.61711055  1
  O2-  O146  1  0.82689243  0.74553733  0.86715388  1
  O2-  O147  1  0.10782732  0.12093773  0.00105931  1
  O2-  O148  1  0.07969022  0.11388941  0.21895194  1
  O2-  O149  1  0.11759658  0.13101349  0.47632423  1
  O2-  O150  1  0.13900243  0.16079009  0.74378892  1
  O2-  O151  1  0.14370135  0.64545132  0.00183147  1
  O2-  O152  1  0.17965462  0.63251987  0.24205973  1
  O2-  O153  1  0.08562626  0.60216037  0.49007762  1
  O2-  O154  1  0.12915255  0.63609501  0.74698335  1
  O2-  O155  1  0.43145220  0.12684110  0.02370944  1
  O2-  O156  1  0.40703702  0.14223104  0.28439632  1
  O2-  O157  1  0.40172477  0.13350020  0.51905654  1
  O2-  O158  1  0.41360203  0.12778457  0.79328597  1
  O2-  O159  1  0.36574782  0.64492184  0.02453063  1
  O2-  O160  1  0.40698016  0.62559691  0.31591865  1
  O2-  O161  1  0.38437307  0.63051359  0.52805097  1
  O2-  O162  1  0.31882669  0.62825549  0.76889439  1
  O2-  O163  1  0.58868904  0.11965107  -0.00628698  1
  O2-  O164  1  0.58645140  0.15615699  0.23278479  1
  O2-  O165  1  0.62536447  0.14371751  0.50842224  1
  O2-  O166  1  0.59462211  0.14424812  0.76610315  1
  O2-  O167  1  0.62972306  0.67675118  0.04371070  1
  O2-  O168  1  0.64033732  0.62386486  0.28857176  1
  O2-  O169  1  0.74411739  0.62504145  0.57733105  1
  O2-  O170  1  0.64497656  0.65274872  0.71498666  1
  O2-  O171  1  0.91535870  0.12155950  0.01829717  1
  O2-  O172  1  0.90163314  0.10797974  0.24230512  1
  O2-  O173  1  0.87064763  0.11821481  0.50794309  1
  O2-  O174  1  0.88162497  0.13041810  0.73383984  1
  O2-  O175  1  0.83646714  0.63220857  -0.00494364  1
  O2-  O176  1  0.85109701  0.62168711  0.24103226  1
  O2-  O177  1  0.90393245  0.60328312  0.49813847  1
  O2-  O178  1  0.83177895  0.62340232  0.75322253  1
  O2-  O179  1  0.08503120  0.37191636  0.01061782  1
  O2-  O180  1  0.06287194  0.38059714  0.21049065  1
  O2-  O181  1  0.10522638  0.38788493  0.47004002  1
  O2-  O182  1  0.11499641  0.34463848  0.73158659  1
  O2-  O183  1  0.16807048  0.86845915  -0.00346724  1
  O2-  O184  1  0.13201684  0.86832691  0.24694646  1
  O2-  O185  1  0.11146966  0.85478855  0.49860350  1
  O2-  O186  1  0.12684590  0.85238708  0.71621139  1
  O2-  O187  1  0.42083180  0.37775499  0.01299967  1
  O2-  O188  1  0.39503150  0.36151977  0.29908624  1
  O2-  O189  1  0.39784707  0.35924514  0.51010436  1
  O2-  O190  1  0.37280770  0.36851813  0.79059519  1
  O2-  O191  1  0.35946042  0.85868533  0.02863892  1
  O2-  O192  1  0.33506882  0.88821549  0.27997436  1
  O2-  O193  1  0.34721259  0.88667475  0.52983870  1
  O2-  O194  1  0.31371805  0.87406017  0.77304147  1
  O2-  O195  1  0.59470988  0.38749105  -0.00937939  1
  O2-  O196  1  0.61569969  0.35626100  0.24581187  1
  O2-  O197  1  0.59554406  0.35826085  0.50865611  1
  O2-  O198  1  0.57029682  0.37171697  0.77032323  1
  O2-  O199  1  0.67496119  0.87279946  0.04658671  1
  O2-  O200  1  0.72001540  0.90881749  0.23667901  1
  O2-  O201  1  0.69588516  0.91576408  0.49969633  1
  O2-  O202  1  0.64981672  0.86216956  0.72463265  1
  O2-  O203  1  0.90566646  0.34218613  -0.01454742  1
  O2-  O204  1  0.84247306  0.36926605  0.25674675  1
  O2-  O205  1  0.85686181  0.35997707  0.49380316  1
  O2-  O206  1  0.91644924  0.35921369  0.75157533  1
  O2-  O207  1  0.86253774  0.84668482  -0.00623493  1
  O2-  O208  1  0.89472578  0.83829354  0.24484899  1
  O2-  O209  1  0.86725980  0.85894798  0.50026931  1
  O2-  O210  1  0.88167072  0.84489952  0.74662563  1
  O2-  O211  1  0.01882661  -0.17440413  -0.11502539  1
  O2-  O212  1  0.00955874  -0.13122031  0.09994648  1
  O2-  O213  1  0.01310307  0.14455460  0.62067125  1
  O2-  O214  1  -0.01237846  -0.02066760  0.66709263  1
  O2-  O215  1  -0.00663899  0.64489032  -0.12103165  1
  O2-  O216  1  0.00242164  0.65828194  0.12665963  1
  O2-  O217  1  -0.00212212  0.32537941  0.60072713  1
  O2-  O218  1  -0.01046454  0.62343702  0.65110380  1
  O2-  O219  1  0.27617106  0.14387622  0.05338822  1
  O2-  O220  1  0.25724911  0.13233408  0.21413373  1
  O2-  O221  1  0.28124827  0.02353196  0.40333985  1
  O2-  O222  1  0.24932801  0.12830714  0.87850554  1
  O2-  O223  1  0.26409432  0.38650184  0.03755560  1
  O2-  O224  1  0.24844700  0.35865291  0.19881203  1
  O2-  O225  1  0.24562735  0.65914596  0.39998810  1
  O2-  O226  1  0.22828518  0.32856121  0.87696484  1
  O2-  O227  1  0.50652829  -0.14835477  -0.05880270  1
  O2-  O228  1  0.49941669  -0.14095027  0.15236750  1
  O2-  O229  1  0.50215654  -0.11186540  0.60282642  1
  O2-  O230  1  0.47171146  -0.12065195  0.77514118  1
  O2-  O231  1  0.50667612  0.62155043  -0.07239728  1
  O2-  O232  1  0.50070280  0.66697099  0.16956633  1
  O2-  O233  1  0.55563133  0.65275920  0.45406908  1
  O2-  O234  1  0.47494030  0.64475208  0.77254598  1
  O2-  O235  1  0.74352447  0.11439775  0.04198294  1
  O2-  O236  1  0.73947448  0.11780163  0.20095433  1
  O2-  O237  1  0.75089566  0.05341749  0.38074112  1
  O2-  O238  1  0.74823581  0.09679119  0.85526903  1
  O2-  O239  1  0.75569790  0.39847458  -0.05963975  1
  O2-  O240  1  0.74724096  0.37425145  0.11707458  1
  O2-  O241  1  0.76507831  0.56549279  0.39249319  1
  O2-  O242  1  0.74724820  0.36576169  0.78296930  1
