# generated using pymatgen
data_Gd19Ta56(WO20)8
_symmetry_space_group_name_H-M   'P 1'
_cell_length_a   15.45769228
_cell_length_b   15.47976481
_cell_length_c   15.33481871
_cell_angle_alpha   89.96602521
_cell_angle_beta   90.21530337
_cell_angle_gamma   89.98362441
_symmetry_Int_Tables_number   1
_chemical_formula_structural   Gd19Ta56(WO20)8
_chemical_formula_sum   'Gd19 Ta56 W8 O160'
_cell_volume   3669.31081305
_cell_formula_units_Z   1
loop_
 _symmetry_equiv_pos_site_id
 _symmetry_equiv_pos_as_xyz
  1  'x, y, z'
loop_
 _atom_type_symbol
 _atom_type_oxidation_number
  Gd3+  3.0
  Ta5+  5.0
  W6+  6.0
  O2-  -2.0
loop_
 _atom_site_type_symbol
 _atom_site_label
 _atom_site_symmetry_multiplicity
 _atom_site_fract_x
 _atom_site_fract_y
 _atom_site_fract_z
 _atom_site_occupancy
  Gd3+  Gd0  1  0.25176836  0.25244189  0.25810460  1
  Gd3+  Gd1  1  0.50352667  0.25325152  0.76790532  1
  Gd3+  Gd2  1  0.24564133  0.24868692  0.49925236  1
  Gd3+  Gd3  1  0.48964124  0.75249993  0.00037595  1
  Gd3+  Gd4  1  0.24662541  0.25134453  0.00195631  1
  Gd3+  Gd5  1  0.76151766  0.26383902  0.50050994  1
  Gd3+  Gd6  1  0.73293652  0.76712187  0.02341002  1
  Gd3+  Gd7  1  -0.01834128  0.24150216  0.01195385  1
  Gd3+  Gd8  1  0.01610144  0.73840902  -0.01252131  1
  Gd3+  Gd9  1  0.75111810  0.25176242  0.74642297  1
  Gd3+  Gd10  1  0.28692720  0.75148928  0.52749054  1
  Gd3+  Gd11  1  0.03249767  0.73938807  0.25820926  1
  Gd3+  Gd12  1  0.02782596  0.24247354  0.77844825  1
  Gd3+  Gd13  1  0.50180374  0.74810149  0.76341065  1
  Gd3+  Gd14  1  0.26573320  0.25467795  0.74688094  1
  Gd3+  Gd15  1  0.73336434  0.75915461  0.74146890  1
  Gd3+  Gd16  1  0.49432866  0.24842611  0.26261712  1
  Gd3+  Gd17  1  -0.00646062  0.26321062  0.25394877  1
  Gd3+  Gd18  1  0.48134550  0.75669694  0.25791935  1
  Ta5+  Ta19  1  0.61108956  0.38413929  0.38748356  1
  Ta5+  Ta20  1  0.37015139  0.11576799  0.38181632  1
  Ta5+  Ta21  1  0.32792003  0.85777525  0.11738243  1
  Ta5+  Ta22  1  0.12216647  0.10930090  0.35528979  1
  Ta5+  Ta23  1  0.62502944  0.12733485  0.89998575  1
  Ta5+  Ta24  1  0.87190528  0.62745774  0.37837407  1
  Ta5+  Ta25  1  0.34485635  0.63495894  0.12162130  1
  Ta5+  Ta26  1  0.17383376  0.63364038  0.12247640  1
  Ta5+  Ta27  1  0.40081590  0.39119823  0.61613666  1
  Ta5+  Ta28  1  0.36906372  0.39206000  0.37290200  1
  Ta5+  Ta29  1  0.14756537  0.87268980  0.62877791  1
  Ta5+  Ta30  1  0.87650300  0.11953705  0.37439536  1
  Ta5+  Ta31  1  0.87719878  0.38413607  0.87371098  1
  Ta5+  Ta32  1  0.59975135  0.62184718  0.62748143  1
  Ta5+  Ta33  1  0.17519941  0.63223622  0.87284909  1
  Ta5+  Ta34  1  0.12961959  0.39564754  0.88788538  1
  Ta5+  Ta35  1  0.32599478  0.43095955  0.13450036  1
  Ta5+  Ta36  1  0.61089484  0.08453072  0.62236304  1
  Ta5+  Ta37  1  0.34090321  0.87097684  0.37130999  1
  Ta5+  Ta38  1  0.64129000  0.87663796  0.37358389  1
  Ta5+  Ta39  1  0.86178745  0.87868656  0.88065728  1
  Ta5+  Ta40  1  0.42421685  0.87599496  0.61728121  1
  Ta5+  Ta41  1  0.90502925  0.38803522  0.62541670  1
  Ta5+  Ta42  1  0.84688022  0.62424189  0.62985774  1
  Ta5+  Ta43  1  0.34859370  0.63158590  0.37389988  1
  Ta5+  Ta44  1  0.85338328  0.37673092  0.12485888  1
  Ta5+  Ta45  1  0.62046070  0.88993568  0.88387780  1
  Ta5+  Ta46  1  0.65159572  0.62551110  0.88751857  1
  Ta5+  Ta47  1  0.12342050  0.41653705  0.14160601  1
  Ta5+  Ta48  1  0.37707912  0.38057059  0.88888952  1
  Ta5+  Ta49  1  0.61958049  0.61616983  0.13265223  1
  Ta5+  Ta50  1  0.87019075  0.11805775  0.87526302  1
  Ta5+  Ta51  1  0.87840876  0.88546453  0.12247168  1
  Ta5+  Ta52  1  0.42847727  0.61463604  0.62140434  1
  Ta5+  Ta53  1  0.61703821  0.12554062  0.40009324  1
  Ta5+  Ta54  1  0.34742388  0.05350851  0.14934944  1
  Ta5+  Ta55  1  0.17076495  0.86282986  0.36971646  1
  Ta5+  Ta56  1  0.15702893  0.03901305  0.13768091  1
  Ta5+  Ta57  1  0.62797726  0.62813539  0.37544371  1
  Ta5+  Ta58  1  0.62853940  0.38073604  0.88459128  1
  Ta5+  Ta59  1  0.10309345  0.10560902  0.59891187  1
  Ta5+  Ta60  1  0.83050864  0.62598876  0.88485002  1
  Ta5+  Ta61  1  0.60743426  0.39565286  0.62031871  1
  Ta5+  Ta62  1  0.82529854  0.12644307  0.13137708  1
  Ta5+  Ta63  1  0.41213893  0.08857184  0.61776999  1
  Ta5+  Ta64  1  0.13647390  0.85756367  0.84797739  1
  Ta5+  Ta65  1  0.62297015  0.89370091  0.14034161  1
  Ta5+  Ta66  1  0.35259516  0.62833689  0.86977527  1
  Ta5+  Ta67  1  0.65766519  0.13425551  0.15155351  1
  Ta5+  Ta68  1  0.17880673  0.63557175  0.38531725  1
  Ta5+  Ta69  1  0.11004333  0.39697825  0.62950663  1
  Ta5+  Ta70  1  0.86137305  0.62379821  0.11754166  1
  Ta5+  Ta71  1  0.12119515  0.39413622  0.38145294  1
  Ta5+  Ta72  1  0.12614312  0.10075679  0.90359585  1
  Ta5+  Ta73  1  0.89962993  0.12283180  0.61643224  1
  Ta5+  Ta74  1  0.59357167  0.86937157  0.61690177  1
  W6+  W75  1  0.89625434  0.86964960  0.37264044  1
  W6+  W76  1  0.16129770  0.85141492  0.11024580  1
  W6+  W77  1  0.60744066  0.36477848  0.13438043  1
  W6+  W78  1  0.39213282  0.10907115  0.93277814  1
  W6+  W79  1  0.86097747  0.87631240  0.62240855  1
  W6+  W80  1  0.88526793  0.39048714  0.37538733  1
  W6+  W81  1  0.19502449  0.62529242  0.64940926  1
  W6+  W82  1  0.37121154  0.88500085  0.86995244  1
  O2-  O83  1  0.06742564  -0.03604534  0.12482103  1
  O2-  O84  1  0.12827446  -0.00979892  0.36579447  1
  O2-  O85  1  0.15559418  0.00224890  0.63125407  1
  O2-  O86  1  0.13077633  -0.01387896  0.87596078  1
  O2-  O87  1  0.08162329  0.52842363  0.12833480  1
  O2-  O88  1  0.14092608  0.51187576  0.39074378  1
  O2-  O89  1  0.17924915  0.49060124  0.64850488  1
  O2-  O90  1  0.15540619  0.50987930  0.85688483  1
  O2-  O91  1  0.42238933  -0.03714941  0.13755111  1
  O2-  O92  1  0.37283083  -0.00301820  0.36895561  1
  O2-  O93  1  0.35016735  -0.01302382  0.62130057  1
  O2-  O94  1  0.34123397  0.01538095  0.87728101  1
  O2-  O95  1  0.40966752  0.51489157  0.14533752  1
  O2-  O96  1  0.38164216  0.50838396  0.34860290  1
  O2-  O97  1  0.37028707  0.50254967  0.65028212  1
  O2-  O98  1  0.36354739  0.49925049  0.87938156  1
  O2-  O99  1  0.64230485  0.01287877  0.15727445  1
  O2-  O100  1  0.63243059  0.00315071  0.38452591  1
  O2-  O101  1  0.66727339  -0.02131323  0.62741373  1
  O2-  O102  1  0.60552484  0.01037467  0.86365931  1
  O2-  O103  1  0.62738375  0.49958628  0.13648374  1
  O2-  O104  1  0.60786436  0.50521871  0.35963832  1
  O2-  O105  1  0.64857450  0.50640570  0.64985290  1
  O2-  O106  1  0.63555386  0.50181967  0.87755662  1
  O2-  O107  1  0.85830111  0.00562520  0.12701031  1
  O2-  O108  1  0.87285919  0.00104660  0.37095611  1
  O2-  O109  1  0.86223607  0.01192890  0.63700591  1
  O2-  O110  1  0.89312932  -0.00062059  0.86629165  1
  O2-  O111  1  0.84554675  0.50096799  0.11551606  1
  O2-  O112  1  0.92244280  0.52199800  0.36535667  1
  O2-  O113  1  0.85149828  0.50345887  0.64332157  1
  O2-  O114  1  0.86493041  0.50308349  0.87755914  1
  O2-  O115  1  0.04378451  0.31799572  0.12285014  1
  O2-  O116  1  0.12237386  0.25724282  0.34745464  1
  O2-  O117  1  0.17225963  0.20316611  0.62999821  1
  O2-  O118  1  0.11006829  0.25604706  0.92784786  1
  O2-  O119  1  0.07737796  0.73552659  0.11866903  1
  O2-  O120  1  0.11777026  0.74752932  0.38575185  1
  O2-  O121  1  0.20115992  0.76515665  0.65052198  1
  O2-  O122  1  0.10071609  0.73382965  0.84470398  1
  O2-  O123  1  0.22330380  0.31646193  0.12691199  1
  O2-  O124  1  0.35786765  0.25280669  0.37729031  1
  O2-  O125  1  0.30202300  0.31168405  0.61715160  1
  O2-  O126  1  0.35668301  0.23780267  0.89746610  1
  O2-  O127  1  0.41343865  0.75139698  0.12362184  1
  O2-  O128  1  0.39723096  0.75019264  0.38411449  1
  O2-  O129  1  0.40537701  0.74608379  0.62689731  1
  O2-  O130  1  0.40312789  0.75073583  0.86925757  1
  O2-  O131  1  0.57121236  0.23406846  0.14234797  1
  O2-  O132  1  0.63241497  0.25484455  0.41726877  1
  O2-  O133  1  0.68895532  0.29857808  0.62396902  1
  O2-  O134  1  0.63327226  0.24701747  0.85950102  1
  O2-  O135  1  0.60256726  0.76098232  0.12336129  1
  O2-  O136  1  0.59838271  0.75056006  0.36232445  1
  O2-  O137  1  0.62238608  0.74861341  0.62870617  1
  O2-  O138  1  0.63031226  0.75779373  0.90704169  1
  O2-  O139  1  0.88959836  0.24352220  0.13487587  1
  O2-  O140  1  0.87016844  0.25399542  0.37613836  1
  O2-  O141  1  0.85329747  0.24488408  0.61969975  1
  O2-  O142  1  0.90545273  0.25077860  0.87471685  1
  O2-  O143  1  0.86670235  0.75472152  0.09402120  1
  O2-  O144  1  0.93031518  0.73465643  0.36984991  1
  O2-  O145  1  0.81123693  0.74766761  0.61956804  1
  O2-  O146  1  0.83681827  0.75335828  0.90425304  1
  O2-  O147  1  0.15749180  0.11522238  0.02748239  1
  O2-  O148  1  0.12207803  0.13439158  0.22316123  1
  O2-  O149  1  0.14389704  0.13733192  0.47964664  1
  O2-  O150  1  0.17204402  0.15303421  0.80412631  1
  O2-  O151  1  0.13862576  0.64301372  -0.00822212  1
  O2-  O152  1  0.15800103  0.64269476  0.24848185  1
  O2-  O153  1  0.18449070  0.63955102  0.51244640  1
  O2-  O154  1  0.25693227  0.64435365  0.77559211  1
  O2-  O155  1  0.33947798  0.13961313  0.05233926  1
  O2-  O156  1  0.38040959  0.14742983  0.23846860  1
  O2-  O157  1  0.34529331  0.13231444  0.50652161  1
  O2-  O158  1  0.38027898  0.16710528  0.70564133  1
  O2-  O159  1  0.38135571  0.64140608  -0.00707248  1
  O2-  O160  1  0.35781732  0.65201135  0.24680507  1
  O2-  O161  1  0.38433953  0.62210217  0.50239770  1
  O2-  O162  1  0.42672882  0.62328298  0.75792180  1
  O2-  O163  1  0.63782423  0.12859751  0.01833899  1
  O2-  O164  1  0.64951565  0.14785540  0.28204670  1
  O2-  O165  1  0.67450124  0.12681584  0.51664885  1
  O2-  O166  1  0.63756355  0.15465842  0.71937759  1
  O2-  O167  1  0.57950133  0.62867977  0.01272890  1
  O2-  O168  1  0.56878090  0.63323779  0.24691875  1
  O2-  O169  1  0.61894270  0.62302635  0.49604421  1
  O2-  O170  1  0.62505810  0.64839354  0.76265562  1
  O2-  O171  1  0.86742720  0.13908348  0.00213424  1
  O2-  O172  1  0.82935835  0.13202459  0.25863612  1
  O2-  O173  1  0.84068674  0.13284176  0.49543138  1
  O2-  O174  1  0.86249150  0.14750425  0.74983638  1
  O2-  O175  1  0.92069363  0.62237228  0.00471548  1
  O2-  O176  1  0.91401315  0.63745682  0.22691482  1
  O2-  O177  1  0.86027793  0.62402992  0.49976190  1
  O2-  O178  1  0.83951187  0.64462503  0.75875143  1
  O2-  O179  1  0.13621535  0.41085846  0.00849373  1
  O2-  O180  1  0.07289825  0.39730232  0.26555714  1
  O2-  O181  1  0.13735444  0.35695925  0.51214651  1
  O2-  O182  1  0.13862824  0.34549685  0.74761187  1
  O2-  O183  1  0.12561360  0.84217974  -0.02714538  1
  O2-  O184  1  0.14742194  0.84480644  0.24845264  1
  O2-  O185  1  0.16230154  0.86662173  0.50647272  1
  O2-  O186  1  0.07531798  0.87775086  0.73656267  1
  O2-  O187  1  0.35056568  0.37594521  0.01998294  1
  O2-  O188  1  0.37470419  0.35218426  0.23374576  1
  O2-  O189  1  0.35619182  0.39729002  0.49450076  1
  O2-  O190  1  0.38407025  0.35488995  0.75896323  1
  O2-  O191  1  0.37483486  0.85727631  -0.00002184  1
  O2-  O192  1  0.35259246  0.85015547  0.24525656  1
  O2-  O193  1  0.37768091  0.86952993  0.49754563  1
  O2-  O194  1  0.42205557  0.87567243  0.74587217  1
  O2-  O195  1  0.62060362  0.36849994  0.00278656  1
  O2-  O196  1  0.62052754  0.34747340  0.26983233  1
  O2-  O197  1  0.66781439  0.40097302  0.49846323  1
  O2-  O198  1  0.60508281  0.37007742  0.75031861  1
  O2-  O199  1  0.59245861  0.89484647  0.01708511  1
  O2-  O200  1  0.57284412  0.88081291  0.25772196  1
  O2-  O201  1  0.61066329  0.86651685  0.49153563  1
  O2-  O202  1  0.61866651  0.86255432  0.75810066  1
  O2-  O203  1  0.89839464  0.36580446  0.00318125  1
  O2-  O204  1  0.74166599  0.34629571  0.12948754  1
  O2-  O205  1  0.85817543  0.38067640  0.51267654  1
  O2-  O206  1  0.86160800  0.36493689  0.74423004  1
  O2-  O207  1  0.92360895  0.87979336  0.00164619  1
  O2-  O208  1  0.92929546  0.85800280  0.23103766  1
  O2-  O209  1  0.88418551  0.86889789  0.50365943  1
  O2-  O210  1  0.84566236  0.86129958  0.75662658  1
  O2-  O211  1  0.00749486  0.12341889  -0.11010232  1
  O2-  O212  1  -0.00297767  0.13250539  0.34671620  1
  O2-  O213  1  -0.00564725  0.09754077  0.53454672  1
  O2-  O214  1  0.01454565  0.12778916  0.68892331  1
  O2-  O215  1  0.00783157  0.38454684  -0.14365191  1
  O2-  O216  1  -0.09984509  0.37884903  0.23845513  1
  O2-  O217  1  0.00758952  0.46129602  0.60342946  1
  O2-  O218  1  0.00629539  0.31106520  0.65080174  1
  O2-  O219  1  0.25316983  -0.03109545  0.07498892  1
  O2-  O220  1  0.25180951  0.02723880  0.22324101  1
  O2-  O221  1  0.24770922  0.13358176  0.35227704  1
  O2-  O222  1  0.25042745  -0.15000667  0.81939752  1
  O2-  O223  1  0.25947957  0.53791686  0.07962043  1
  O2-  O224  1  0.22671120  0.44813949  0.21200705  1
  O2-  O225  1  0.24317075  0.36799226  0.36423475  1
  O2-  O226  1  0.24767215  0.35130987  0.87616169  1
  O2-  O227  1  0.50085437  0.14505006  -0.12817357  1
  O2-  O228  1  0.49616788  0.14035344  0.37087000  1
  O2-  O229  1  0.51349401  0.11883525  0.54267188  1
  O2-  O230  1  0.50750116  0.04126476  0.68593824  1
  O2-  O231  1  0.49749889  0.35862309  -0.11442973  1
  O2-  O232  1  0.49088704  0.35828978  0.38315917  1
  O2-  O233  1  0.50736285  0.44396536  0.55712569  1
  O2-  O234  1  0.49880712  0.30715939  0.63121036  1
  O2-  O235  1  0.74399148  -0.10578305  -0.07595229  1
  O2-  O236  1  0.74795172  -0.12919796  0.13497675  1
  O2-  O237  1  0.75459905  -0.14604687  0.35471537  1
  O2-  O238  1  0.74731911  0.11978149  0.86990991  1
  O2-  O239  1  0.74668732  0.62158942  -0.01414559  1
  O2-  O240  1  0.73918432  0.64898995  0.14833988  1
  O2-  O241  1  0.74946019  0.63273127  0.34980986  1
  O2-  O242  1  0.75505376  0.35717724  0.87385064  1
