# generated using pymatgen
data_Gd19Ta56(WO20)8
_symmetry_space_group_name_H-M   'P 1'
_cell_length_a   15.49962612
_cell_length_b   15.50842598
_cell_length_c   15.26643396
_cell_angle_alpha   90.10873356
_cell_angle_beta   89.88110173
_cell_angle_gamma   90.03880989
_symmetry_Int_Tables_number   1
_chemical_formula_structural   Gd19Ta56(WO20)8
_chemical_formula_sum   'Gd19 Ta56 W8 O160'
_cell_volume   3669.65073530
_cell_formula_units_Z   1
loop_
 _symmetry_equiv_pos_site_id
 _symmetry_equiv_pos_as_xyz
  1  'x, y, z'
loop_
 _atom_type_symbol
 _atom_type_oxidation_number
  Gd3+  3.0
  Ta5+  5.0
  W6+  6.0
  O2-  -2.0
loop_
 _atom_site_type_symbol
 _atom_site_label
 _atom_site_symmetry_multiplicity
 _atom_site_fract_x
 _atom_site_fract_y
 _atom_site_fract_z
 _atom_site_occupancy
  Gd3+  Gd0  1  0.49559390  0.73546518  0.49696194  1
  Gd3+  Gd1  1  0.25222784  0.73058275  0.49321745  1
  Gd3+  Gd2  1  0.75302165  0.74731593  0.23621689  1
  Gd3+  Gd3  1  0.24047126  0.74860770  -0.00732671  1
  Gd3+  Gd4  1  0.49933446  0.25937095  0.49572527  1
  Gd3+  Gd5  1  0.01145946  0.74710420  0.22137605  1
  Gd3+  Gd6  1  0.00655637  0.24091066  0.72145181  1
  Gd3+  Gd7  1  0.48853612  0.75193733  0.03746869  1
  Gd3+  Gd8  1  0.52551254  0.23836087  0.01218520  1
  Gd3+  Gd9  1  0.00241890  0.23690356  0.48594880  1
  Gd3+  Gd10  1  0.02471789  0.25077363  0.23258702  1
  Gd3+  Gd11  1  0.74290696  0.75607005  0.00137728  1
  Gd3+  Gd12  1  0.75984539  0.74673739  0.48558208  1
  Gd3+  Gd13  1  0.74437783  0.74982055  0.75960530  1
  Gd3+  Gd14  1  0.22597143  0.25568400  0.77172557  1
  Gd3+  Gd15  1  0.46695609  0.77057382  0.74735240  1
  Gd3+  Gd16  1  0.23162249  0.25233034  0.50345044  1
  Gd3+  Gd17  1  0.77745578  0.26799432  0.74002909  1
  Gd3+  Gd18  1  0.76185985  0.22495583  -0.01740005  1
  Ta5+  Ta19  1  0.84783558  0.12787871  0.59816329  1
  Ta5+  Ta20  1  0.65026066  0.36704156  0.13163962  1
  Ta5+  Ta21  1  0.87991219  0.62691979  0.62053366  1
  Ta5+  Ta22  1  0.62780874  0.55486686  0.11923033  1
  Ta5+  Ta23  1  0.06677574  0.04733776  0.67631399  1
  Ta5+  Ta24  1  0.63253265  0.10628366  0.85095312  1
  Ta5+  Ta25  1  0.89445262  0.60835307  0.11084301  1
  Ta5+  Ta26  1  0.08815943  0.38022468  0.88179654  1
  Ta5+  Ta27  1  0.87575281  0.61082632  0.87423185  1
  Ta5+  Ta28  1  0.37371283  0.89949258  0.60547470  1
  Ta5+  Ta29  1  0.62945913  0.88136272  0.36306278  1
  Ta5+  Ta30  1  0.87975386  0.36682471  0.11245199  1
  Ta5+  Ta31  1  0.64645908  0.37403098  0.37557458  1
  Ta5+  Ta32  1  0.07554800  0.38925061  0.60987800  1
  Ta5+  Ta33  1  0.63325956  0.37644648  0.61559292  1
  Ta5+  Ta34  1  0.90015279  0.87003873  0.87584856  1
  Ta5+  Ta35  1  0.88716901  0.87643692  0.12256729  1
  Ta5+  Ta36  1  0.14807640  0.10457310  0.34543528  1
  Ta5+  Ta37  1  0.16528265  0.12481434  0.09562688  1
  Ta5+  Ta38  1  0.06623480  0.62125992  0.37719726  1
  Ta5+  Ta39  1  0.87526319  0.89017296  0.62682490  1
  Ta5+  Ta40  1  0.04294182  0.88302808  0.37247262  1
  Ta5+  Ta41  1  0.38033549  0.37492028  0.66800838  1
  Ta5+  Ta42  1  0.89748666  0.61922643  0.36445484  1
  Ta5+  Ta43  1  0.62488684  0.87798511  0.61730471  1
  Ta5+  Ta44  1  0.63327894  0.90954119  0.10910168  1
  Ta5+  Ta45  1  0.88451789  0.37589995  0.35964457  1
  Ta5+  Ta46  1  0.62597564  0.62301097  0.63464853  1
  Ta5+  Ta47  1  0.37884018  0.88695762  0.38538259  1
  Ta5+  Ta48  1  0.35360031  0.88664765  0.15011564  1
  Ta5+  Ta49  1  0.40340909  0.62064234  0.88819311  1
  Ta5+  Ta50  1  0.11222806  0.63224953  0.62283693  1
  Ta5+  Ta51  1  0.18618297  0.37439469  0.11374559  1
  Ta5+  Ta52  1  0.90317711  0.38341925  0.61159853  1
  Ta5+  Ta53  1  0.34262046  0.12282861  0.36819646  1
  Ta5+  Ta54  1  0.33040782  0.13283677  0.90981779  1
  Ta5+  Ta55  1  0.62521522  0.12544832  0.61938251  1
  Ta5+  Ta56  1  0.14786125  0.88424449  0.86634556  1
  Ta5+  Ta57  1  0.86644012  0.12211498  0.34828423  1
  Ta5+  Ta58  1  0.64762676  0.12133291  0.41151244  1
  Ta5+  Ta59  1  0.11518580  0.87582154  0.61343760  1
  Ta5+  Ta60  1  0.14339629  0.61568692  0.13026863  1
  Ta5+  Ta61  1  0.36351734  0.61893897  0.63378393  1
  Ta5+  Ta62  1  0.91301782  0.11263268  0.85579080  1
  Ta5+  Ta63  1  0.11701583  0.61337416  0.87388452  1
  Ta5+  Ta64  1  0.90291162  0.37298754  0.87397221  1
  Ta5+  Ta65  1  0.66274596  0.13406913  0.19929159  1
  Ta5+  Ta66  1  0.89541033  0.12144267  0.10805793  1
  Ta5+  Ta67  1  0.39204577  0.89411633  0.90358980  1
  Ta5+  Ta68  1  0.13157638  0.88270198  0.12513747  1
  Ta5+  Ta69  1  0.07879769  0.11958885  0.87420531  1
  Ta5+  Ta70  1  0.61056270  0.60846985  0.88368604  1
  Ta5+  Ta71  1  0.63420923  0.36177523  0.86972900  1
  Ta5+  Ta72  1  0.34838453  0.37810625  0.91758092  1
  Ta5+  Ta73  1  0.38081756  0.61073822  0.36344217  1
  Ta5+  Ta74  1  0.63236949  0.61821149  0.36356531  1
  W6+  W75  1  0.36097703  0.14866541  0.63885194  1
  W6+  W76  1  0.59416339  0.94027957  0.90612049  1
  W6+  W77  1  0.13008688  0.38192655  0.35959022  1
  W6+  W78  1  0.40159519  0.39230988  0.14992602  1
  W6+  W79  1  0.35394707  0.63849197  0.15107444  1
  W6+  W80  1  0.38932676  0.13499086  0.12980173  1
  W6+  W81  1  0.87915564  0.87046606  0.36865383  1
  W6+  W82  1  0.33182371  0.36491807  0.33849395  1
  O2-  O83  1  0.16630788  -0.00266494  0.12673101  1
  O2-  O84  1  0.07305127  0.01348058  0.36492382  1
  O2-  O85  1  0.16685253  -0.00972623  0.62245758  1
  O2-  O86  1  0.14901376  0.00363396  0.87384044  1
  O2-  O87  1  0.18356378  0.50432535  0.13549204  1
  O2-  O88  1  0.09587313  0.50599378  0.37122238  1
  O2-  O89  1  0.09109953  0.51390660  0.60978280  1
  O2-  O90  1  0.15599030  0.49743646  0.86660066  1
  O2-  O91  1  0.38881173  -0.00220254  0.13819017  1
  O2-  O92  1  0.38785956  0.00657832  0.40813993  1
  O2-  O93  1  0.38428505  0.01472326  0.61810602  1
  O2-  O94  1  0.35577964  0.00826104  0.89939732  1
  O2-  O95  1  0.38498669  0.50934000  0.14411354  1
  O2-  O96  1  0.36725313  0.49571655  0.34732505  1
  O2-  O97  1  0.38059987  0.49749270  0.64996511  1
  O2-  O98  1  0.37282537  0.50333037  0.89162279  1
  O2-  O99  1  0.63072744  0.03530845  0.13798953  1
  O2-  O100  1  0.65792840  -0.00645572  0.39889656  1
  O2-  O101  1  0.63036021  -0.00304416  0.62092872  1
  O2-  O102  1  0.68940549  0.00594472  0.82598364  1
  O2-  O103  1  0.55586192  0.45450867  0.10021095  1
  O2-  O104  1  0.66348861  0.50383384  0.37943380  1
  O2-  O105  1  0.62701547  0.50576290  0.61866741  1
  O2-  O106  1  0.62685457  0.48807483  0.88607964  1
  O2-  O107  1  0.89716503  -0.00024987  0.11361866  1
  O2-  O108  1  0.86901564  0.00659712  0.36105791  1
  O2-  O109  1  0.83791087  0.00302669  0.61106781  1
  O2-  O110  1  0.87271530  -0.01510613  0.86644411  1
  O2-  O111  1  0.90948374  0.48692959  0.09679900  1
  O2-  O112  1  0.88748431  0.49672618  0.37037777  1
  O2-  O113  1  0.87896197  0.50959468  0.62189210  1
  O2-  O114  1  0.83853249  0.49830393  0.86227549  1
  O2-  O115  1  0.17689715  0.24827009  0.10184128  1
  O2-  O116  1  0.10423933  0.22639113  0.36988533  1
  O2-  O117  1  0.10689194  0.25840769  0.60137301  1
  O2-  O118  1  0.10443571  0.25136229  0.86958147  1
  O2-  O119  1  0.16151250  0.75089871  0.12999102  1
  O2-  O120  1  0.04785423  0.75612855  0.36976300  1
  O2-  O121  1  0.16564545  0.76329612  0.61149001  1
  O2-  O122  1  0.15736776  0.73225522  0.87365529  1
  O2-  O123  1  0.42099095  0.26954583  0.11059718  1
  O2-  O124  1  0.28780246  0.23646027  0.35598677  1
  O2-  O125  1  0.29872605  0.28302545  0.63539968  1
  O2-  O126  1  0.29561327  0.25938852  0.91172710  1
  O2-  O127  1  0.41341335  0.77405454  0.16079180  1
  O2-  O128  1  0.37871680  0.75646565  0.40744031  1
  O2-  O129  1  0.37221421  0.74452794  0.59223450  1
  O2-  O130  1  0.41902270  0.75714944  0.88920360  1
  O2-  O131  1  0.61599077  0.23422781  0.14390702  1
  O2-  O132  1  0.61914001  0.24883626  0.40082732  1
  O2-  O133  1  0.61543265  0.25138368  0.59480512  1
  O2-  O134  1  0.68045173  0.23751672  0.84946988  1
  O2-  O135  1  0.62099965  0.78223246  0.09446596  1
  O2-  O136  1  0.65672958  0.74882095  0.35450884  1
  O2-  O137  1  0.60642258  0.76362774  0.68124878  1
  O2-  O138  1  0.65747711  0.72737446  0.88426089  1
  O2-  O139  1  0.93656811  0.24937265  0.10739978  1
  O2-  O140  1  0.92612595  0.24789996  0.35218068  1
  O2-  O141  1  0.88477425  0.25062766  0.60851450  1
  O2-  O142  1  0.86262852  0.24517238  0.86685169  1
  O2-  O143  1  0.85715333  0.74064696  0.12144790  1
  O2-  O144  1  0.83803119  0.73657713  0.35694712  1
  O2-  O145  1  0.75347791  0.67202146  0.61936888  1
  O2-  O146  1  0.83749639  0.74494777  0.87971775  1
  O2-  O147  1  0.08522133  0.11879450  0.00628823  1
  O2-  O148  1  0.11817481  0.13633440  0.21940177  1
  O2-  O149  1  -0.01113044  0.11122572  0.60604463  1
  O2-  O150  1  0.12786775  0.14129907  0.73863513  1
  O2-  O151  1  0.15456702  0.62168222  0.00057464  1
  O2-  O152  1  0.10271920  0.63551686  0.25146647  1
  O2-  O153  1  0.12140944  0.64993162  0.49127743  1
  O2-  O154  1  0.11498736  0.62645696  0.74697759  1
  O2-  O155  1  0.42894592  0.14036316  -0.01681920  1
  O2-  O156  1  0.40795135  0.13813017  0.26902888  1
  O2-  O157  1  0.37543239  0.17616831  0.49174928  1
  O2-  O158  1  0.32652951  0.14696247  0.78323902  1
  O2-  O159  1  0.35182057  0.65029468  0.00089620  1
  O2-  O160  1  0.30623758  0.65577230  0.28163650  1
  O2-  O161  1  0.36561611  0.61097276  0.49210930  1
  O2-  O162  1  0.35986826  0.65014320  0.75791044  1
  O2-  O163  1  0.63551568  0.14041229  -0.02577368  1
  O2-  O164  1  0.58857779  0.11422982  0.29546042  1
  O2-  O165  1  0.55704291  0.11887343  0.50169598  1
  O2-  O166  1  0.57712269  0.13355110  0.73424276  1
  O2-  O167  1  0.66227304  0.61501444  0.01711492  1
  O2-  O168  1  0.63721507  0.61888573  0.22950858  1
  O2-  O169  1  0.62927416  0.65215718  0.50129847  1
  O2-  O170  1  0.66771259  0.61599433  0.75566956  1
  O2-  O171  1  0.87597011  0.12540435  -0.01609251  1
  O2-  O172  1  0.92901512  0.12743260  0.23804223  1
  O2-  O173  1  0.88970751  0.13861540  0.47380305  1
  O2-  O174  1  0.88185131  0.14680617  0.73397820  1
  O2-  O175  1  0.83589444  0.62490111  -0.00394285  1
  O2-  O176  1  0.86786120  0.61385906  0.23297930  1
  O2-  O177  1  0.87206187  0.64171245  0.49496659  1
  O2-  O178  1  0.85804090  0.64321980  0.75123266  1
  O2-  O179  1  0.11973689  0.38302164  0.00826647  1
  O2-  O180  1  0.10972071  0.36784299  0.21478611  1
  O2-  O181  1  0.07773116  0.37079958  0.48174303  1
  O2-  O182  1  0.09779047  0.36743019  0.74311895  1
  O2-  O183  1  0.15009034  0.86853240  -0.00059935  1
  O2-  O184  1  0.09298125  0.87438439  0.25247586  1
  O2-  O185  1  0.09252277  0.87849694  0.48840636  1
  O2-  O186  1  0.12715315  0.87040686  0.74487257  1
  O2-  O187  1  0.46136648  0.34393153  -0.07168737  1
  O2-  O188  1  0.44051895  0.35698683  0.26876623  1
  O2-  O189  1  0.49098213  0.35684914  0.62536491  1
  O2-  O190  1  0.32775441  0.37045858  0.78501666  1
  O2-  O191  1  0.33963310  0.85736044  0.02605031  1
  O2-  O192  1  0.32382977  0.88263841  0.27839584  1
  O2-  O193  1  0.30406536  0.87892826  0.49678022  1
  O2-  O194  1  0.34836331  0.85990538  0.71534445  1
  O2-  O195  1  0.65272515  0.33695399  0.00063893  1
  O2-  O196  1  0.62020074  0.37652336  0.25620973  1
  O2-  O197  1  0.58711708  0.38916424  0.48796663  1
  O2-  O198  1  0.62922550  0.36682757  0.74096374  1
  O2-  O199  1  0.69474140  0.91223318  0.00327658  1
  O2-  O200  1  0.64662267  0.88496270  0.23989348  1
  O2-  O201  1  0.63354587  0.83696960  0.49664164  1
  O2-  O202  1  0.74824825  0.85178720  0.63666912  1
  O2-  O203  1  0.84474509  0.35633724  -0.01001205  1
  O2-  O204  1  0.92105146  0.37299975  0.23593789  1
  O2-  O205  1  0.90010839  0.35999337  0.48289374  1
  O2-  O206  1  0.89672694  0.36553834  0.74448730  1
  O2-  O207  1  0.85955359  0.85919967  -0.00399876  1
  O2-  O208  1  0.83220007  0.87321634  0.23377948  1
  O2-  O209  1  0.88100815  0.83702978  0.51665270  1
  O2-  O210  1  0.87860335  0.84198502  0.74627537  1
  O2-  O211  1  0.01752149  -0.13926630  -0.11498573  1
  O2-  O212  1  0.00671340  -0.15421010  0.10383154  1
  O2-  O213  1  -0.00290649  -0.07278469  0.63480909  1
  O2-  O214  1  0.00592852  0.03372184  0.78340048  1
  O2-  O215  1  -0.00516368  0.62599207  -0.10853605  1
  O2-  O216  1  0.01246816  0.64056907  0.10555406  1
  O2-  O217  1  -0.00835757  0.67771870  0.62564725  1
  O2-  O218  1  -0.00765131  0.45670836  0.89627972  1
  O2-  O219  1  0.27209457  0.11482370  0.03180982  1
  O2-  O220  1  0.25317330  0.06174409  0.29951971  1
  O2-  O221  1  0.21386055  0.11376963  0.45261452  1
  O2-  O222  1  0.27134955  -0.14285464  0.87379772  1
  O2-  O223  1  0.30041086  0.39410343  0.03184957  1
  O2-  O224  1  0.28439558  0.35888461  0.20220433  1
  O2-  O225  1  0.24266278  0.38155067  0.43688976  1
  O2-  O226  1  0.24353734  0.61751593  0.61431999  1
  O2-  O227  1  0.49394768  -0.11216707  -0.01393331  1
  O2-  O228  1  0.50266360  -0.13240149  0.38049559  1
  O2-  O229  1  0.49375750  -0.13484224  0.59169861  1
  O2-  O230  1  0.48582110  -0.09819577  0.81717713  1
  O2-  O231  1  0.50967924  0.61744389  -0.03364921  1
  O2-  O232  1  0.50671113  0.63622355  0.37089430  1
  O2-  O233  1  0.50138629  0.64175874  0.62355868  1
  O2-  O234  1  0.51086849  0.62872330  0.80776517  1
  O2-  O235  1  0.77464031  0.14487573  0.13107125  1
  O2-  O236  1  0.74896710  0.14678938  0.31313126  1
  O2-  O237  1  0.72787074  0.12476493  0.51024741  1
  O2-  O238  1  0.73935941  0.14648722  0.66906545  1
  O2-  O239  1  0.72167063  0.48116183  0.13284617  1
  O2-  O240  1  0.76917266  0.32231881  0.14415073  1
  O2-  O241  1  0.76466251  0.34800612  0.36508466  1
  O2-  O242  1  0.75467723  0.36858470  0.61513870  1
