# generated using pymatgen
data_Gd19Ta56(WO20)8
_symmetry_space_group_name_H-M   'P 1'
_cell_length_a   15.52054997
_cell_length_b   15.48658079
_cell_length_c   15.33527212
_cell_angle_alpha   89.91149297
_cell_angle_beta   90.00360904
_cell_angle_gamma   90.27433026
_symmetry_Int_Tables_number   1
_chemical_formula_structural   Gd19Ta56(WO20)8
_chemical_formula_sum   'Gd19 Ta56 W8 O160'
_cell_volume   3685.94320195
_cell_formula_units_Z   1
loop_
 _symmetry_equiv_pos_site_id
 _symmetry_equiv_pos_as_xyz
  1  'x, y, z'
loop_
 _atom_type_symbol
 _atom_type_oxidation_number
  Gd3+  3.0
  Ta5+  5.0
  W6+  6.0
  O2-  -2.0
loop_
 _atom_site_type_symbol
 _atom_site_label
 _atom_site_symmetry_multiplicity
 _atom_site_fract_x
 _atom_site_fract_y
 _atom_site_fract_z
 _atom_site_occupancy
  Gd3+  Gd0  1  0.72647962  0.76088343  -0.00049689  1
  Gd3+  Gd1  1  0.76964244  0.24041407  -0.00132157  1
  Gd3+  Gd2  1  0.49916807  0.23882331  0.75858166  1
  Gd3+  Gd3  1  0.74840963  0.74721769  0.73142172  1
  Gd3+  Gd4  1  -0.00224340  0.74262029  0.27035111  1
  Gd3+  Gd5  1  0.75771284  0.74053848  0.26215449  1
  Gd3+  Gd6  1  0.01249459  0.75025699  0.03296971  1
  Gd3+  Gd7  1  0.27062492  0.23707105  0.47499196  1
  Gd3+  Gd8  1  0.75020247  0.25807308  0.75254676  1
  Gd3+  Gd9  1  0.74728329  0.26946995  0.47803198  1
  Gd3+  Gd10  1  0.04368239  0.75613500  0.49038347  1
  Gd3+  Gd11  1  0.49353436  0.74819452  0.25778458  1
  Gd3+  Gd12  1  0.48589225  0.75740751  -0.00447899  1
  Gd3+  Gd13  1  0.46671206  0.24524428  0.22033173  1
  Gd3+  Gd14  1  0.22566605  0.73466522  0.24697162  1
  Gd3+  Gd15  1  0.76057797  0.73140674  0.49812979  1
  Gd3+  Gd16  1  -0.00500298  0.25253023  -0.02660858  1
  Gd3+  Gd17  1  0.01692106  0.25839526  0.73427593  1
  Gd3+  Gd18  1  0.25045340  0.74884926  -0.00010450  1
  Ta5+  Ta19  1  0.36809280  0.87678768  0.38792704  1
  Ta5+  Ta20  1  0.41293063  0.37149410  0.37886633  1
  Ta5+  Ta21  1  0.42711841  0.61169358  0.63327833  1
  Ta5+  Ta22  1  0.86941567  0.40008022  0.86869105  1
  Ta5+  Ta23  1  0.86385354  0.06103795  0.87776685  1
  Ta5+  Ta24  1  0.07753962  0.16071695  0.37435604  1
  Ta5+  Ta25  1  0.59309091  0.13803022  0.37500321  1
  Ta5+  Ta26  1  0.16468406  0.61880724  0.61311214  1
  Ta5+  Ta27  1  0.11138476  0.87568178  0.86542225  1
  Ta5+  Ta28  1  0.09953128  0.34120731  0.37465972  1
  Ta5+  Ta29  1  0.38746978  0.86597986  0.63204512  1
  Ta5+  Ta30  1  0.15199044  0.37877927  0.87507812  1
  Ta5+  Ta31  1  0.90848612  0.14066248  0.38103571  1
  Ta5+  Ta32  1  0.38572912  0.11664403  0.62780276  1
  Ta5+  Ta33  1  0.14509433  0.37290917  0.61705980  1
  Ta5+  Ta34  1  0.61299799  0.88069188  0.85317471  1
  Ta5+  Ta35  1  0.37686407  0.61982069  0.12847156  1
  Ta5+  Ta36  1  0.62416696  0.13484982  0.12703726  1
  Ta5+  Ta37  1  0.59546828  0.61622957  0.62345849  1
  Ta5+  Ta38  1  0.62345222  0.60828074  0.11104051  1
  Ta5+  Ta39  1  0.42699995  0.11547115  0.37963927  1
  Ta5+  Ta40  1  0.89358583  0.87158724  0.87998003  1
  Ta5+  Ta41  1  0.62163108  0.88745061  0.14228417  1
  Ta5+  Ta42  1  0.58251865  0.36517732  0.36783181  1
  Ta5+  Ta43  1  0.91890190  0.38907781  0.12628033  1
  Ta5+  Ta44  1  0.37873763  0.61673080  0.38870195  1
  Ta5+  Ta45  1  0.62299212  0.60890416  0.37498666  1
  Ta5+  Ta46  1  0.37740223  0.61220743  0.86791778  1
  Ta5+  Ta47  1  0.61171203  0.62732094  0.86025192  1
  Ta5+  Ta48  1  0.64413377  0.89520978  0.35741537  1
  Ta5+  Ta49  1  0.07471147  0.12162826  0.12981391  1
  Ta5+  Ta50  1  0.87279983  0.59152303  0.63198419  1
  Ta5+  Ta51  1  0.87210401  0.12908090  0.62688293  1
  Ta5+  Ta52  1  0.87607451  0.87748912  0.62560146  1
  Ta5+  Ta53  1  0.59845536  0.37089635  0.61892132  1
  Ta5+  Ta54  1  0.12948039  0.90986310  0.36471666  1
  Ta5+  Ta55  1  0.88207896  0.59717306  0.37643621  1
  Ta5+  Ta56  1  0.37363719  0.88555216  0.12865722  1
  Ta5+  Ta57  1  0.88515011  0.88708980  0.38491160  1
  Ta5+  Ta58  1  0.62799390  0.12543859  0.88043509  1
  Ta5+  Ta59  1  0.83675527  0.61177734  0.11859414  1
  Ta5+  Ta60  1  0.33519285  0.37740631  0.13161524  1
  Ta5+  Ta61  1  0.92889947  0.35033264  0.37569979  1
  Ta5+  Ta62  1  0.09586938  0.37129512  0.12752794  1
  Ta5+  Ta63  1  0.84430744  0.88972731  0.13192601  1
  Ta5+  Ta64  1  0.63221933  0.13002705  0.61263360  1
  Ta5+  Ta65  1  0.36250549  0.12662623  0.89142703  1
  Ta5+  Ta66  1  0.31526761  0.12126336  0.14335771  1
  Ta5+  Ta67  1  0.88860575  0.63202070  0.87899018  1
  Ta5+  Ta68  1  0.90234146  0.39859865  0.62288967  1
  Ta5+  Ta69  1  0.14598779  0.93224404  0.11979367  1
  Ta5+  Ta70  1  0.13302349  0.58837418  0.37955302  1
  Ta5+  Ta71  1  0.62838157  0.88246236  0.60343578  1
  Ta5+  Ta72  1  0.13268650  0.11420976  0.87055956  1
  Ta5+  Ta73  1  0.11719268  0.12169500  0.61535595  1
  Ta5+  Ta74  1  0.37220987  0.88078324  0.86501419  1
  W6+  W75  1  0.14756426  0.88124735  0.62072621  1
  W6+  W76  1  0.63605486  0.37990804  0.88496962  1
  W6+  W77  1  0.90700141  0.13256591  0.12774447  1
  W6+  W78  1  0.40310506  0.36406448  0.89245856  1
  W6+  W79  1  0.13874409  0.62943807  0.86544418  1
  W6+  W80  1  0.39491305  0.36217257  0.62258992  1
  W6+  W81  1  0.12724492  0.58421343  0.12054743  1
  W6+  W82  1  0.64046356  0.36156282  0.12230158  1
  O2-  O83  1  0.04294690  -0.00463829  0.10574764  1
  O2-  O84  1  0.12025699  0.02477282  0.37197967  1
  O2-  O85  1  0.16722907  0.01490872  0.62947610  1
  O2-  O86  1  0.15652292  -0.00878314  0.88717090  1
  O2-  O87  1  0.02493270  0.47798432  0.12264196  1
  O2-  O88  1  0.12267205  0.47227087  0.39489902  1
  O2-  O89  1  0.17474116  0.49022700  0.60242039  1
  O2-  O90  1  0.13965294  0.49586963  0.87823363  1
  O2-  O91  1  0.37161837  0.00454665  0.13012926  1
  O2-  O92  1  0.42787542  -0.01874328  0.38084593  1
  O2-  O93  1  0.36303285  -0.00150060  0.63598770  1
  O2-  O94  1  0.38537100  0.00468198  0.87680746  1
  O2-  O95  1  0.35701404  0.50362973  0.14867729  1
  O2-  O96  1  0.38278866  0.49887512  0.37311583  1
  O2-  O97  1  0.41352741  0.49351824  0.62771496  1
  O2-  O98  1  0.39674259  0.49688343  0.87861596  1
  O2-  O99  1  0.62410376  0.00925063  0.13473321  1
  O2-  O100  1  0.63877838  0.01279252  0.36488646  1
  O2-  O101  1  0.64094461  0.00514765  0.60874908  1
  O2-  O102  1  0.61376677  -0.00056922  0.86605911  1
  O2-  O103  1  0.60693745  0.49300169  0.10334209  1
  O2-  O104  1  0.62215707  0.49008174  0.35816893  1
  O2-  O105  1  0.60213481  0.49271615  0.62430873  1
  O2-  O106  1  0.61835265  0.51271744  0.88467400  1
  O2-  O107  1  0.86381644  0.00369279  0.14124864  1
  O2-  O108  1  0.88443861  0.00566453  0.39080037  1
  O2-  O109  1  0.87613948  -0.00136831  0.62547739  1
  O2-  O110  1  0.79694593  -0.05188654  0.89224223  1
  O2-  O111  1  0.84224909  0.49176555  0.12637168  1
  O2-  O112  1  0.89243881  0.47959012  0.37280533  1
  O2-  O113  1  0.80750738  0.48684272  0.63922578  1
  O2-  O114  1  0.84186469  0.52146570  0.89336057  1
  O2-  O115  1  0.07376217  0.24764141  0.10944687  1
  O2-  O116  1  0.18046532  0.23983494  0.35588298  1
  O2-  O117  1  0.14946563  0.23700780  0.65434510  1
  O2-  O118  1  0.09206231  0.24749021  0.86148584  1
  O2-  O119  1  0.07934334  0.71379226  0.15805782  1
  O2-  O120  1  0.12093579  0.74180977  0.35763889  1
  O2-  O121  1  0.14873320  0.74421042  0.59687572  1
  O2-  O122  1  0.18386375  0.77936178  0.86995333  1
  O2-  O123  1  0.32326001  0.24408763  0.14385925  1
  O2-  O124  1  0.39665484  0.24234798  0.36955681  1
  O2-  O125  1  0.33472698  0.23098940  0.61532809  1
  O2-  O126  1  0.43638359  0.22547858  0.89707880  1
  O2-  O127  1  0.39316113  0.75302177  0.11089654  1
  O2-  O128  1  0.41942727  0.76553717  0.38842816  1
  O2-  O129  1  0.40270629  0.74759561  0.63529795  1
  O2-  O130  1  0.36885034  0.75597001  0.89695510  1
  O2-  O131  1  0.69729660  0.23477790  0.13233076  1
  O2-  O132  1  0.64270913  0.25462519  0.36727796  1
  O2-  O133  1  0.67755377  0.25831519  0.61909920  1
  O2-  O134  1  0.66722752  0.24825307  0.88265961  1
  O2-  O135  1  0.63362414  0.75687099  0.13899794  1
  O2-  O136  1  0.76098027  0.85286397  0.39948233  1
  O2-  O137  1  0.64870984  0.74741596  0.61465382  1
  O2-  O138  1  0.66780793  0.75230317  0.85777563  1
  O2-  O139  1  0.88905264  0.27033196  0.09401510  1
  O2-  O140  1  0.84742553  0.25519779  0.36972834  1
  O2-  O141  1  0.87193986  0.26363468  0.65973290  1
  O2-  O142  1  0.86618077  0.26998747  0.87883513  1
  O2-  O143  1  0.82224487  0.74788614  0.12374245  1
  O2-  O144  1  0.88539551  0.74091219  0.38980239  1
  O2-  O145  1  0.85067347  0.73341812  0.61569519  1
  O2-  O146  1  0.83799591  0.74970319  0.89670822  1
  O2-  O147  1  0.09088592  0.12778352  -0.01330498  1
  O2-  O148  1  0.08948670  0.13129515  0.24752993  1
  O2-  O149  1  0.13692211  0.14220423  0.49703739  1
  O2-  O150  1  0.07804016  0.11076852  0.76109775  1
  O2-  O151  1  0.11556669  0.65739553  -0.00052870  1
  O2-  O152  1  0.15629592  0.59366658  0.25640065  1
  O2-  O153  1  0.09355312  0.61791358  0.50343709  1
  O2-  O154  1  0.14674137  0.61850638  0.72949706  1
  O2-  O155  1  0.33261149  0.12378639  0.01069136  1
  O2-  O156  1  0.37060943  0.11744664  0.25548701  1
  O2-  O157  1  0.38298090  0.11855529  0.49640180  1
  O2-  O158  1  0.39474644  0.13372409  0.75698367  1
  O2-  O159  1  0.26423205  0.62451004  -0.08676778  1
  O2-  O160  1  0.35800255  0.66260358  0.25818593  1
  O2-  O161  1  0.40616938  0.62731392  0.50564562  1
  O2-  O162  1  0.36297530  0.62251306  0.74776470  1
  O2-  O163  1  0.59777951  0.13355176  0.00255824  1
  O2-  O164  1  0.57872748  0.14568649  0.24368016  1
  O2-  O165  1  0.65670079  0.14489593  0.49120356  1
  O2-  O166  1  0.63424880  0.14260824  0.74875499  1
  O2-  O167  1  0.59687943  0.66327612  -0.00569822  1
  O2-  O168  1  0.62947381  0.74132657  0.33813503  1
  O2-  O169  1  0.62611665  0.63018891  0.49510708  1
  O2-  O170  1  0.65552693  0.62649603  0.74310724  1
  O2-  O171  1  0.90384965  0.11953549  -0.02197099  1
  O2-  O172  1  0.90085496  0.13461868  0.26195430  1
  O2-  O173  1  0.85190398  0.15230512  0.50674032  1
  O2-  O174  1  0.87173722  0.11362089  0.76654260  1
  O2-  O175  1  0.91205008  0.63718663  0.01799026  1
  O2-  O176  1  0.88029910  0.63775604  0.24096547  1
  O2-  O177  1  0.86431625  0.60794291  0.50349611  1
  O2-  O178  1  0.84880495  0.63424974  0.75647245  1
  O2-  O179  1  0.09629919  0.36085859  -0.01248914  1
  O2-  O180  1  0.10813002  0.36189470  0.24823276  1
  O2-  O181  1  0.16193111  0.33618634  0.50001716  1
  O2-  O182  1  0.12466954  0.37236907  0.74912981  1
  O2-  O183  1  0.12396814  0.86088782  0.01663109  1
  O2-  O184  1  0.11554848  0.88735265  0.23199494  1
  O2-  O185  1  0.13006568  0.87724999  0.48468249  1
  O2-  O186  1  0.10166635  0.88362092  0.74841947  1
  O2-  O187  1  0.39856294  0.36922731  0.03159873  1
  O2-  O188  1  0.38755988  0.36675429  0.24795310  1
  O2-  O189  1  0.35777210  0.35952301  0.48985993  1
  O2-  O190  1  0.41034865  0.34619228  0.75880883  1
  O2-  O191  1  0.34256021  0.88085570  -0.00622214  1
  O2-  O192  1  0.38607901  0.85976653  0.25114355  1
  O2-  O193  1  0.34680942  0.87352494  0.51259941  1
  O2-  O194  1  0.32838614  0.87111025  0.75030358  1
  O2-  O195  1  0.70581576  0.36781797  0.00403228  1
  O2-  O196  1  0.57465923  0.34753729  0.23833822  1
  O2-  O197  1  0.61889519  0.36493799  0.49574725  1
  O2-  O198  1  0.60544633  0.34798711  0.74817661  1
  O2-  O199  1  0.60756252  0.85141129  -0.02278326  1
  O2-  O200  1  0.56026617  0.88189355  0.26255636  1
  O2-  O201  1  0.60720143  0.86902866  0.47652117  1
  O2-  O202  1  0.66144496  0.87371893  0.73665812  1
  O2-  O203  1  0.92049989  0.39399928  -0.01617323  1
  O2-  O204  1  0.92118293  0.36585036  0.24492192  1
  O2-  O205  1  0.87889224  0.36364179  0.50707502  1
  O2-  O206  1  0.93498297  0.39506426  0.76421136  1
  O2-  O207  1  0.90455521  0.86602659  0.02268598  1
  O2-  O208  1  0.88283371  0.85163478  0.25146565  1
  O2-  O209  1  0.92369371  0.86375510  0.50714350  1
  O2-  O210  1  0.87099708  0.85394569  0.75389681  1
  O2-  O211  1  0.00617320  -0.19085272  -0.10771205  1
  O2-  O212  1  0.00828925  -0.13348839  0.36139256  1
  O2-  O213  1  -0.00606212  0.14348827  0.61662918  1
  O2-  O214  1  -0.03619657  -0.02350044  0.87123699  1
  O2-  O215  1  0.00048202  0.62654541  -0.14866817  1
  O2-  O216  1  0.00541606  0.61940580  0.35988221  1
  O2-  O217  1  0.02082891  0.35224815  0.61261247  1
  O2-  O218  1  -0.03250872  0.51844154  0.63111916  1
  O2-  O219  1  0.20379579  0.04354345  0.12936550  1
  O2-  O220  1  0.24941420  -0.15552976  0.13680366  1
  O2-  O221  1  0.25009861  -0.12711110  0.34829291  1
  O2-  O222  1  0.24768368  0.15006626  0.85229456  1
  O2-  O223  1  0.21942521  0.39476659  0.10668622  1
  O2-  O224  1  0.25307317  0.65427574  0.11852662  1
  O2-  O225  1  0.25320115  0.62701445  0.40113279  1
  O2-  O226  1  0.26539992  0.35236688  0.88850993  1
  O2-  O227  1  0.49257162  -0.13687096  -0.16160753  1
  O2-  O228  1  0.50036023  -0.12439186  0.10409038  1
  O2-  O229  1  0.50966918  0.13786463  0.62164864  1
  O2-  O230  1  0.50761012  -0.11124492  0.63374406  1
  O2-  O231  1  0.40991041  0.62322987  0.00810212  1
  O2-  O232  1  0.50737497  0.63147717  0.15813088  1
  O2-  O233  1  0.50385201  0.62358938  0.34429493  1
  O2-  O234  1  0.49839744  0.66629116  0.85530837  1
  O2-  O235  1  0.73416259  -0.10901976  0.07352922  1
  O2-  O236  1  0.71777744  -0.11507031  0.23758121  1
  O2-  O237  1  0.75877538  -0.13061614  0.58535277  1
  O2-  O238  1  0.75133442  0.11112637  0.90160607  1
  O2-  O239  1  0.74061882  0.61741498  0.03683775  1
  O2-  O240  1  0.71370790  0.61214911  0.19892965  1
  O2-  O241  1  0.75372333  0.62779916  0.37296980  1
  O2-  O242  1  0.75793424  0.38818460  0.81709291  1
