# generated using pymatgen
data_Gd19Ta56(WO20)8
_symmetry_space_group_name_H-M   'P 1'
_cell_length_a   15.48644519
_cell_length_b   15.40914192
_cell_length_c   15.34193248
_cell_angle_alpha   89.97056702
_cell_angle_beta   90.12447437
_cell_angle_gamma   90.03635383
_symmetry_Int_Tables_number   1
_chemical_formula_structural   Gd19Ta56(WO20)8
_chemical_formula_sum   'Gd19 Ta56 W8 O160'
_cell_volume   3661.07893416
_cell_formula_units_Z   1
loop_
 _symmetry_equiv_pos_site_id
 _symmetry_equiv_pos_as_xyz
  1  'x, y, z'
loop_
 _atom_type_symbol
 _atom_type_oxidation_number
  Gd3+  3.0
  Ta5+  5.0
  W6+  6.0
  O2-  -2.0
loop_
 _atom_site_type_symbol
 _atom_site_label
 _atom_site_symmetry_multiplicity
 _atom_site_fract_x
 _atom_site_fract_y
 _atom_site_fract_z
 _atom_site_occupancy
  Gd3+  Gd0  1  0.48579330  0.25346302  0.00298429  1
  Gd3+  Gd1  1  0.82915399  0.74363714  0.74726139  1
  Gd3+  Gd2  1  0.51113454  0.74899224  0.51134953  1
  Gd3+  Gd3  1  0.52886655  0.24255631  0.76157966  1
  Gd3+  Gd4  1  -0.00039174  0.73429404  -0.01790693  1
  Gd3+  Gd5  1  0.24029508  0.21979768  -0.02371249  1
  Gd3+  Gd6  1  0.24416509  0.75180324  0.51021936  1
  Gd3+  Gd7  1  0.26871460  0.74672203  -0.04001937  1
  Gd3+  Gd8  1  0.77003483  0.74369666  0.51724181  1
  Gd3+  Gd9  1  0.77265673  0.26706800  0.76282752  1
  Gd3+  Gd10  1  -0.00181399  0.75579311  0.51704427  1
  Gd3+  Gd11  1  0.49223003  0.75839550  0.77715057  1
  Gd3+  Gd12  1  0.75138943  0.75288915  0.24259029  1
  Gd3+  Gd13  1  0.23928653  0.74580455  0.23218830  1
  Gd3+  Gd14  1  0.48687217  0.73841399  0.24923921  1
  Gd3+  Gd15  1  0.01756827  0.25418833  0.03069875  1
  Gd3+  Gd16  1  0.49536370  0.77345513  0.00736075  1
  Gd3+  Gd17  1  0.20816899  0.24397698  0.70829966  1
  Gd3+  Gd18  1  0.78101575  0.25865052  0.48722607  1
  Ta5+  Ta19  1  0.36444445  0.61753507  0.63102842  1
  Ta5+  Ta20  1  0.39946606  0.14034686  0.60130084  1
  Ta5+  Ta21  1  0.63112789  0.62598240  0.65592368  1
  Ta5+  Ta22  1  0.61914045  0.37971196  0.62438632  1
  Ta5+  Ta23  1  0.94768613  0.38864860  0.88021540  1
  Ta5+  Ta24  1  0.35254865  0.37542109  0.86430210  1
  Ta5+  Ta25  1  0.87323823  0.89180653  0.89411021  1
  Ta5+  Ta26  1  0.13328466  0.90009899  0.61902110  1
  Ta5+  Ta27  1  0.88564828  0.13345604  0.63243678  1
  Ta5+  Ta28  1  0.34363138  0.13991779  0.36794969  1
  Ta5+  Ta29  1  0.60884355  0.89530346  0.15351576  1
  Ta5+  Ta30  1  0.62458434  0.38513591  0.37272047  1
  Ta5+  Ta31  1  0.63228393  0.38085176  0.12121289  1
  Ta5+  Ta32  1  0.66487915  0.88666051  0.90611948  1
  Ta5+  Ta33  1  0.86914398  0.13882378  0.13637227  1
  Ta5+  Ta34  1  0.64098563  0.88072813  0.64587479  1
  Ta5+  Ta35  1  0.84347735  0.89023250  0.11071331  1
  Ta5+  Ta36  1  0.88978477  0.58020074  0.87961682  1
  Ta5+  Ta37  1  0.60646040  0.88999132  0.38875985  1
  Ta5+  Ta38  1  0.39387857  0.60934156  0.38337432  1
  Ta5+  Ta39  1  0.11355506  0.58249162  0.36890667  1
  Ta5+  Ta40  1  0.82504351  0.61251449  0.10823013  1
  Ta5+  Ta41  1  0.90538708  0.38838708  0.13466652  1
  Ta5+  Ta42  1  0.35515561  0.12428275  0.12952223  1
  Ta5+  Ta43  1  0.36112570  0.89357716  0.12525731  1
  Ta5+  Ta44  1  0.13203005  0.10532420  0.12227246  1
  Ta5+  Ta45  1  0.94143452  0.36447694  0.37747647  1
  Ta5+  Ta46  1  0.89102243  0.58231065  0.61819812  1
  Ta5+  Ta47  1  0.11070410  0.87000422  0.11484319  1
  Ta5+  Ta48  1  0.93076783  0.12831707  0.38045625  1
  Ta5+  Ta49  1  0.07637624  0.11908612  0.85922096  1
  Ta5+  Ta50  1  0.10972658  0.34503183  0.35829417  1
  Ta5+  Ta51  1  0.35025609  0.36050509  0.12772604  1
  Ta5+  Ta52  1  0.12092903  0.60401373  0.61888174  1
  Ta5+  Ta53  1  0.12462165  0.60009826  0.86443521  1
  Ta5+  Ta54  1  0.05756274  0.12368491  0.60828248  1
  Ta5+  Ta55  1  0.36101463  0.61214177  0.11542143  1
  Ta5+  Ta56  1  0.64311023  0.13190968  0.89400442  1
  Ta5+  Ta57  1  0.17942587  0.36281339  0.12643611  1
  Ta5+  Ta58  1  0.38792787  0.12471408  0.85814319  1
  Ta5+  Ta59  1  0.60002717  0.60650447  0.39997937  1
  Ta5+  Ta60  1  0.09711360  0.12218855  0.36640995  1
  Ta5+  Ta61  1  0.64873026  0.12739088  0.62211841  1
  Ta5+  Ta62  1  0.11687518  0.87671381  0.36690277  1
  Ta5+  Ta63  1  0.11490400  0.36361426  0.86153327  1
  Ta5+  Ta64  1  0.39410903  0.89114538  0.37516634  1
  Ta5+  Ta65  1  0.11553670  0.87125951  0.85837673  1
  Ta5+  Ta66  1  0.36488090  0.56487760  0.86983423  1
  Ta5+  Ta67  1  0.88107909  0.60893544  0.36450781  1
  Ta5+  Ta68  1  0.88918360  0.92490965  0.62508694  1
  Ta5+  Ta69  1  0.61538571  0.61954486  0.10889769  1
  Ta5+  Ta70  1  0.38552953  0.36912018  0.36316989  1
  Ta5+  Ta71  1  0.89022214  0.38411793  0.62959219  1
  Ta5+  Ta72  1  0.37731091  0.36770843  0.61617019  1
  Ta5+  Ta73  1  0.64507556  0.39638077  0.89090726  1
  Ta5+  Ta74  1  0.64120848  0.14212430  0.13635722  1
  W6+  W75  1  0.65165792  0.13808921  0.37208617  1
  W6+  W76  1  0.10935148  0.60514655  0.12231538  1
  W6+  W77  1  0.91337728  0.14009283  0.88531265  1
  W6+  W78  1  0.65063348  0.58581383  0.90241392  1
  W6+  W79  1  0.36807922  0.91306363  0.86392908  1
  W6+  W80  1  0.06503712  0.37283587  0.60447927  1
  W6+  W81  1  0.37741459  0.89087523  0.61441654  1
  W6+  W82  1  0.87133157  0.88194883  0.36884462  1
  O2-  O83  1  0.07503269  -0.01334050  0.11290240  1
  O2-  O84  1  0.13848644  -0.00438535  0.36010882  1
  O2-  O85  1  0.14312413  0.01927656  0.61231049  1
  O2-  O86  1  0.10097807  -0.00468099  0.86550335  1
  O2-  O87  1  0.15081559  0.48006924  0.12634916  1
  O2-  O88  1  0.15327523  0.47014080  0.36538181  1
  O2-  O89  1  0.14161051  0.48669899  0.59398963  1
  O2-  O90  1  0.15490976  0.47941175  0.85597602  1
  O2-  O91  1  0.40019953  0.00720738  0.15400514  1
  O2-  O92  1  0.37220899  0.00886756  0.36742343  1
  O2-  O93  1  0.36580969  0.02703243  0.60758158  1
  O2-  O94  1  0.30931590  0.03649435  0.84707251  1
  O2-  O95  1  0.35330467  0.49287339  0.11655793  1
  O2-  O96  1  0.35646778  0.49440124  0.36744604  1
  O2-  O97  1  0.37577165  0.49476612  0.62645039  1
  O2-  O98  1  0.42401880  0.46988992  0.81490821  1
  O2-  O99  1  0.60888835  0.01617160  0.15608194  1
  O2-  O100  1  0.62763164  0.00506042  0.39074727  1
  O2-  O101  1  0.62713558  0.00004607  0.62097141  1
  O2-  O102  1  0.65346950  0.00482028  0.88126324  1
  O2-  O103  1  0.59118226  0.49893044  0.11461267  1
  O2-  O104  1  0.66793557  0.50868611  0.37777897  1
  O2-  O105  1  0.61429142  0.50627233  0.64197110  1
  O2-  O106  1  0.56309847  0.47645870  0.92312066  1
  O2-  O107  1  0.84354801  0.01098900  0.12393984  1
  O2-  O108  1  0.91012808  0.00927514  0.37870896  1
  O2-  O109  1  0.81048691  0.02090133  0.62057182  1
  O2-  O110  1  0.88573882  0.00534313  0.87722183  1
  O2-  O111  1  0.83458801  0.48624372  0.13658148  1
  O2-  O112  1  0.89998925  0.49019009  0.36938607  1
  O2-  O113  1  0.81100566  0.48600133  0.61963057  1
  O2-  O114  1  0.85081382  0.47149056  0.91465741  1
  O2-  O115  1  0.16633253  0.22891930  0.11097446  1
  O2-  O116  1  0.14071692  0.23304087  0.40075158  1
  O2-  O117  1  0.10140259  0.23946422  0.59424332  1
  O2-  O118  1  0.15369623  0.23191126  0.85399555  1
  O2-  O119  1  0.06852558  0.74663702  0.11545986  1
  O2-  O120  1  0.20389345  0.78153191  0.36865490  1
  O2-  O121  1  0.11952833  0.73527302  0.59431075  1
  O2-  O122  1  0.10905025  0.73086393  0.87243910  1
  O2-  O123  1  0.40549459  0.23694783  0.13273576  1
  O2-  O124  1  0.32647173  0.26200200  0.36978519  1
  O2-  O125  1  0.32245911  0.24560384  0.60363334  1
  O2-  O126  1  0.42527254  0.26562986  0.86350143  1
  O2-  O127  1  0.36171756  0.75971322  0.09882661  1
  O2-  O128  1  0.41481500  0.74279117  0.38613944  1
  O2-  O129  1  0.40066069  0.74260231  0.60982080  1
  O2-  O130  1  0.39963235  0.77862854  0.89364728  1
  O2-  O131  1  0.59449842  0.25782864  0.11306281  1
  O2-  O132  1  0.67204099  0.27310374  0.38345159  1
  O2-  O133  1  0.67024347  0.26193986  0.61878000  1
  O2-  O134  1  0.60737077  0.26121797  0.90140947  1
  O2-  O135  1  0.48752740  0.85714983  0.13947307  1
  O2-  O136  1  0.60045900  0.73352622  0.36704491  1
  O2-  O137  1  0.58367384  0.75667731  0.64619233  1
  O2-  O138  1  0.58040902  0.79588291  0.88940198  1
  O2-  O139  1  0.87038406  0.26742199  0.12170611  1
  O2-  O140  1  0.87862446  0.25539399  0.37144371  1
  O2-  O141  1  0.84666900  0.25992654  0.63241223  1
  O2-  O142  1  0.92223093  0.27366608  0.91199076  1
  O2-  O143  1  0.83226268  0.73695791  0.11095527  1
  O2-  O144  1  0.82674299  0.74021438  0.37500034  1
  O2-  O145  1  0.89244702  0.71967636  0.61508288  1
  O2-  O146  1  0.88348466  0.71029418  0.88337681  1
  O2-  O147  1  0.10847996  0.13272015  -0.01252603  1
  O2-  O148  1  0.10657078  0.12559076  0.23920790  1
  O2-  O149  1  0.04497282  0.09901968  0.48355334  1
  O2-  O150  1  0.09231969  0.13354354  0.73530694  1
  O2-  O151  1  0.09820092  0.60917450  -0.01301590  1
  O2-  O152  1  0.14435231  0.63122238  0.26028879  1
  O2-  O153  1  0.15982847  0.62457413  0.47139861  1
  O2-  O154  1  0.09708889  0.60927883  0.73800367  1
  O2-  O155  1  0.38044146  0.13967973  -0.00955792  1
  O2-  O156  1  0.31543316  0.13251619  0.24706595  1
  O2-  O157  1  0.41271957  0.14770346  0.47790817  1
  O2-  O158  1  0.39581947  0.15756471  0.73422201  1
  O2-  O159  1  0.38167262  0.62509256  -0.01578062  1
  O2-  O160  1  0.35105456  0.64507651  0.24930529  1
  O2-  O161  1  0.33573462  0.62670567  0.49576119  1
  O2-  O162  1  0.39780254  0.63372420  0.75429861  1
  O2-  O163  1  0.67426091  0.12868466  0.01345038  1
  O2-  O164  1  0.68558434  0.16020340  0.24734937  1
  O2-  O165  1  0.68221115  0.13288970  0.50474848  1
  O2-  O166  1  0.65964042  0.15200964  0.75692823  1
  O2-  O167  1  0.57661325  0.65760343  -0.00524837  1
  O2-  O168  1  0.60909193  0.74542541  0.15900448  1
  O2-  O169  1  0.64242702  0.65136888  0.51832599  1
  O2-  O170  1  0.59921557  0.63528179  0.77507723  1
  O2-  O171  1  0.93082936  0.13253865  0.02749914  1
  O2-  O172  1  0.90782452  0.13766984  0.24936373  1
  O2-  O173  1  0.87775395  0.14675199  0.50248472  1
  O2-  O174  1  0.86214601  0.15001207  0.75674866  1
  O2-  O175  1  0.90891766  0.60648415  0.01517336  1
  O2-  O176  1  0.86978061  0.62562639  0.24198320  1
  O2-  O177  1  0.84391034  0.61203737  0.49246186  1
  O2-  O178  1  0.88357095  0.59831919  0.74683050  1
  O2-  O179  1  0.14917306  0.34199152  -0.00957525  1
  O2-  O180  1  0.12766726  0.33499857  0.23856182  1
  O2-  O181  1  0.03934612  0.38122248  0.46629260  1
  O2-  O182  1  0.11030415  0.35022144  0.73325080  1
  O2-  O183  1  0.12443873  0.85192497  -0.00791590  1
  O2-  O184  1  0.11600738  0.85064109  0.24277758  1
  O2-  O185  1  0.14004761  0.86993924  0.49315070  1
  O2-  O186  1  0.10600857  0.86616871  0.73623307  1
  O2-  O187  1  0.35023351  0.32876483  -0.00351329  1
  O2-  O188  1  0.40517409  0.37040293  0.24279559  1
  O2-  O189  1  0.39860633  0.36980370  0.49636311  1
  O2-  O190  1  0.31880040  0.35042295  0.73892882  1
  O2-  O191  1  0.36183740  0.90961914  0.00487055  1
  O2-  O192  1  0.34766565  0.85090009  0.25963545  1
  O2-  O193  1  0.32991488  0.87002461  0.47918122  1
  O2-  O194  1  0.42168266  0.88051133  0.74167640  1
  O2-  O195  1  0.69256181  0.37654292  0.01001346  1
  O2-  O196  1  0.62358366  0.38117345  0.24779998  1
  O2-  O197  1  0.60092705  0.38768197  0.50229918  1
  O2-  O198  1  0.63422617  0.35120577  0.75909287  1
  O2-  O199  1  0.60345313  0.88715726  0.02339291  1
  O2-  O200  1  0.66450941  0.87261561  0.27591338  1
  O2-  O201  1  0.65012991  0.84273948  0.50214395  1
  O2-  O202  1  0.62282189  0.88659211  0.76280668  1
  O2-  O203  1  0.96497425  0.39686237  0.02468600  1
  O2-  O204  1  0.94621691  0.37125832  0.24977726  1
  O2-  O205  1  0.87823906  0.36898786  0.50305371  1
  O2-  O206  1  0.88914126  0.36854085  0.76162964  1
  O2-  O207  1  0.92833084  0.86490264  0.02092734  1
  O2-  O208  1  0.87134408  0.86278749  0.22901120  1
  O2-  O209  1  0.86393132  0.86750142  0.51111988  1
  O2-  O210  1  0.89144017  0.88118932  0.74011979  1
  O2-  O211  1  -0.01013048  -0.15186029  -0.12416533  1
  O2-  O212  1  0.00330346  -0.16385049  0.38619687  1
  O2-  O213  1  0.00694757  -0.12164338  0.59609469  1
  O2-  O214  1  -0.03219368  0.02856516  0.64493929  1
  O2-  O215  1  0.00154664  0.53639600  -0.13561063  1
  O2-  O216  1  0.00001691  0.64196088  0.38175228  1
  O2-  O217  1  0.00524999  0.61178233  0.56449489  1
  O2-  O218  1  -0.02653589  0.47926642  0.64450024  1
  O2-  O219  1  0.24653978  0.07494977  0.07996167  1
  O2-  O220  1  0.23421917  -0.12149986  0.12949565  1
  O2-  O221  1  0.24775191  -0.14692076  0.63076702  1
  O2-  O222  1  0.23930250  -0.14671208  0.86454067  1
  O2-  O223  1  0.30468793  0.47440260  -0.07272043  1
  O2-  O224  1  0.24028924  0.64999607  0.10178996  1
  O2-  O225  1  0.24754322  0.63292881  0.64419794  1
  O2-  O226  1  0.25033748  0.63138975  0.86437399  1
  O2-  O227  1  0.51817770  0.12028315  -0.12896871  1
  O2-  O228  1  0.50658376  -0.11824070  0.30451034  1
  O2-  O229  1  0.49550977  -0.11143283  0.46284738  1
  O2-  O230  1  0.52519093  0.15225945  0.62436932  1
  O2-  O231  1  0.48432732  0.63654752  0.13478298  1
  O2-  O232  1  0.50611707  0.59724336  0.31237260  1
  O2-  O233  1  0.49369005  0.60028347  0.47324305  1
  O2-  O234  1  0.49435435  0.34748171  0.65258565  1
  O2-  O235  1  0.77533116  -0.09778274  -0.01771951  1
  O2-  O236  1  0.72588500  -0.13855043  0.13260452  1
  O2-  O237  1  0.75787743  -0.15555168  0.64239665  1
  O2-  O238  1  0.76494531  -0.16033641  0.84105196  1
  O2-  O239  1  0.72419026  0.59616280  0.02894566  1
  O2-  O240  1  0.71229769  0.61783476  0.19136897  1
  O2-  O241  1  0.74870410  0.65135288  0.65337424  1
  O2-  O242  1  0.70866189  0.48398383  0.83452859  1
