# generated using pymatgen
data_Gd19Ta56(WO20)8
_symmetry_space_group_name_H-M   'P 1'
_cell_length_a   15.50022793
_cell_length_b   15.47580771
_cell_length_c   15.25324608
_cell_angle_alpha   89.96624946
_cell_angle_beta   89.93001196
_cell_angle_gamma   89.99710443
_symmetry_Int_Tables_number   1
_chemical_formula_structural   Gd19Ta56(WO20)8
_chemical_formula_sum   'Gd19 Ta56 W8 O160'
_cell_volume   3658.92313594
_cell_formula_units_Z   1
loop_
 _symmetry_equiv_pos_site_id
 _symmetry_equiv_pos_as_xyz
  1  'x, y, z'
loop_
 _atom_type_symbol
 _atom_type_oxidation_number
  Gd3+  3.0
  Ta5+  5.0
  W6+  6.0
  O2-  -2.0
loop_
 _atom_site_type_symbol
 _atom_site_label
 _atom_site_symmetry_multiplicity
 _atom_site_fract_x
 _atom_site_fract_y
 _atom_site_fract_z
 _atom_site_occupancy
  Gd3+  Gd0  1  0.24002707  0.74055272  0.49076574  1
  Gd3+  Gd1  1  -0.00928242  0.25115886  0.53170154  1
  Gd3+  Gd2  1  0.73623649  0.73790030  0.03513667  1
  Gd3+  Gd3  1  0.51167017  0.25583258  0.76609703  1
  Gd3+  Gd4  1  0.77789459  0.22841715  0.25763810  1
  Gd3+  Gd5  1  0.24089247  0.75365626  0.75034446  1
  Gd3+  Gd6  1  -0.00458716  0.24746166  0.77978760  1
  Gd3+  Gd7  1  0.24954213  0.25288247  0.75274288  1
  Gd3+  Gd8  1  0.25882262  0.75006687  0.24025788  1
  Gd3+  Gd9  1  0.73296478  0.75316016  0.46852266  1
  Gd3+  Gd10  1  -0.00771260  0.74161717  0.50268152  1
  Gd3+  Gd11  1  0.24715559  0.74782604  0.00696089  1
  Gd3+  Gd12  1  0.28243434  0.24812560  0.47021963  1
  Gd3+  Gd13  1  -0.01701914  0.76165568  0.02834368  1
  Gd3+  Gd14  1  0.52700886  0.76221309  0.26097813  1
  Gd3+  Gd15  1  0.43832568  0.25164516  0.26132392  1
  Gd3+  Gd16  1  0.22467723  0.25792524  0.24279882  1
  Gd3+  Gd17  1  0.49097997  0.24700968  0.02700429  1
  Gd3+  Gd18  1  -0.03520907  0.75207608  0.75901987  1
  Ta5+  Ta19  1  0.12036193  0.61547274  0.86688910  1
  Ta5+  Ta20  1  0.64516453  0.12031100  0.65285538  1
  Ta5+  Ta21  1  0.63001177  0.62556483  0.62832562  1
  Ta5+  Ta22  1  0.86360336  0.11842041  0.89232502  1
  Ta5+  Ta23  1  0.10116743  0.88925321  0.37884547  1
  Ta5+  Ta24  1  0.38969084  0.63032208  0.87504161  1
  Ta5+  Ta25  1  0.68113416  0.08653583  0.06994179  1
  Ta5+  Ta26  1  0.41526800  0.89786131  0.37617025  1
  Ta5+  Ta27  1  0.07649991  0.35960014  0.37348931  1
  Ta5+  Ta28  1  0.65976651  0.38422241  0.87591459  1
  Ta5+  Ta29  1  0.92084770  0.13191943  0.38590633  1
  Ta5+  Ta30  1  0.85760668  0.37610168  0.88894011  1
  Ta5+  Ta31  1  0.38696853  0.87502165  0.87697253  1
  Ta5+  Ta32  1  0.62397828  0.37949352  0.12965628  1
  Ta5+  Ta33  1  0.11172560  0.88369591  0.61196618  1
  Ta5+  Ta34  1  0.86585768  0.62095153  0.62999843  1
  Ta5+  Ta35  1  0.87242020  0.60961345  0.36802399  1
  Ta5+  Ta36  1  0.58883405  0.90626461  0.38689748  1
  Ta5+  Ta37  1  0.62599777  0.87167531  0.63374970  1
  Ta5+  Ta38  1  0.36226289  0.38683939  0.62772131  1
  Ta5+  Ta39  1  0.36499916  0.11293920  0.86255923  1
  Ta5+  Ta40  1  0.31732508  0.43486500  0.07533729  1
  Ta5+  Ta41  1  0.86780226  0.90563827  0.14416404  1
  Ta5+  Ta42  1  0.63068438  0.58012329  0.38093481  1
  Ta5+  Ta43  1  0.90990668  0.35560533  0.12636563  1
  Ta5+  Ta44  1  0.13930861  0.12163403  0.62621235  1
  Ta5+  Ta45  1  0.09411140  0.13562781  0.12341523  1
  Ta5+  Ta46  1  0.63402589  0.37257367  0.62774727  1
  Ta5+  Ta47  1  0.08299466  0.61000439  0.36475805  1
  Ta5+  Ta48  1  0.63740078  0.90047296  0.13589782  1
  Ta5+  Ta49  1  0.89133249  0.88676975  0.37843474  1
  Ta5+  Ta50  1  0.15939786  0.11165235  0.88930351  1
  Ta5+  Ta51  1  0.42427975  0.63510802  0.11674968  1
  Ta5+  Ta52  1  0.85071253  0.12491431  0.64605872  1
  Ta5+  Ta53  1  0.86418995  0.61560872  0.88695790  1
  Ta5+  Ta54  1  0.11483307  0.60843467  0.62092961  1
  Ta5+  Ta55  1  0.92856283  0.14271437  0.12791172  1
  Ta5+  Ta56  1  0.62925243  0.87098839  0.88224718  1
  Ta5+  Ta57  1  0.88489731  0.60388958  0.13159192  1
  Ta5+  Ta58  1  0.08806221  0.13984625  0.37415777  1
  Ta5+  Ta59  1  0.90877868  0.36421763  0.37840381  1
  Ta5+  Ta60  1  0.39086467  0.63163128  0.63038687  1
  Ta5+  Ta61  1  0.38109644  0.11990292  0.61414736  1
  Ta5+  Ta62  1  0.07519136  0.35709627  0.12203866  1
  Ta5+  Ta63  1  0.38743656  0.87209849  0.62073475  1
  Ta5+  Ta64  1  0.86746828  0.38013335  0.64967969  1
  Ta5+  Ta65  1  0.11418288  0.88504261  0.13627898  1
  Ta5+  Ta66  1  0.62781018  0.62786673  0.87631648  1
  Ta5+  Ta67  1  0.42582386  0.42780964  0.40707689  1
  Ta5+  Ta68  1  0.13214218  0.59522149  0.12534033  1
  Ta5+  Ta69  1  0.63794522  0.34799471  0.37446328  1
  Ta5+  Ta70  1  0.59115467  0.11149782  0.41197205  1
  Ta5+  Ta71  1  0.86793250  0.88165418  0.62467705  1
  Ta5+  Ta72  1  0.14796665  0.37478369  0.89059512  1
  Ta5+  Ta73  1  0.38621792  0.06706510  0.37001724  1
  Ta5+  Ta74  1  0.15463903  0.37733205  0.61884671  1
  W6+  W75  1  0.36158351  0.38010718  0.87291985  1
  W6+  W76  1  0.65826535  0.12612370  0.86685394  1
  W6+  W77  1  0.85307148  0.87091132  0.88339858  1
  W6+  W78  1  0.58908106  0.62862123  0.13118244  1
  W6+  W79  1  0.11929979  0.87377547  0.86789275  1
  W6+  W80  1  0.34602589  0.08333892  0.07938382  1
  W6+  W81  1  0.39761799  0.62492360  0.37727152  1
  W6+  W82  1  0.37397536  0.88992835  0.12505383  1
  O2-  O83  1  0.10696081  0.00220929  0.13322181  1
  O2-  O84  1  0.10557836  0.00908785  0.37657917  1
  O2-  O85  1  0.09926578  0.00517306  0.61666075  1
  O2-  O86  1  0.10689699  0.00833315  0.86390381  1
  O2-  O87  1  0.08140229  0.48582497  0.13155957  1
  O2-  O88  1  0.09065223  0.48946542  0.37013475  1
  O2-  O89  1  0.09963486  0.48786554  0.63079670  1
  O2-  O90  1  0.11515114  0.49330323  0.86473563  1
  O2-  O91  1  0.42934646  -0.01607751  0.06344301  1
  O2-  O92  1  0.30450102  -0.02162102  0.36937728  1
  O2-  O93  1  0.39644776  -0.00686382  0.61890712  1
  O2-  O94  1  0.40047995  -0.00636943  0.85284074  1
  O2-  O95  1  0.40952364  0.51130558  0.10595453  1
  O2-  O96  1  0.33550619  0.49982819  0.37949527  1
  O2-  O97  1  0.38401780  0.51181493  0.63663833  1
  O2-  O98  1  0.38041585  0.51358923  0.87117809  1
  O2-  O99  1  0.59083784  0.00842349  0.10048667  1
  O2-  O100  1  0.66413722  0.02274431  0.38350476  1
  O2-  O101  1  0.64292090  -0.00649897  0.64498553  1
  O2-  O102  1  0.64508330  -0.01186933  0.87867485  1
  O2-  O103  1  0.59881457  0.49096051  0.14280790  1
  O2-  O104  1  0.67783419  0.46750059  0.36929508  1
  O2-  O105  1  0.63729791  0.50230897  0.61230653  1
  O2-  O106  1  0.62073017  0.50343933  0.87918357  1
  O2-  O107  1  0.91285422  0.01457743  0.14585381  1
  O2-  O108  1  0.88632641  0.00690682  0.38528921  1
  O2-  O109  1  0.84954940  0.00063520  0.64357604  1
  O2-  O110  1  0.84697720  0.00144744  0.87404806  1
  O2-  O111  1  0.88991852  0.48278946  0.12720146  1
  O2-  O112  1  0.87103299  0.49048085  0.38295913  1
  O2-  O113  1  0.85009289  0.50067810  0.65174756  1
  O2-  O114  1  0.88944240  0.49955857  0.87874618  1
  O2-  O115  1  0.15433703  0.24986169  0.11390551  1
  O2-  O116  1  0.16355549  0.25340413  0.38500740  1
  O2-  O117  1  0.17645014  0.24867919  0.61729682  1
  O2-  O118  1  0.17553081  0.24597087  0.88260285  1
  O2-  O119  1  0.15683847  0.73907868  0.12975459  1
  O2-  O120  1  0.10280890  0.74419095  0.39678697  1
  O2-  O121  1  0.11874803  0.74779486  0.60924100  1
  O2-  O122  1  0.09131549  0.73742075  0.83727045  1
  O2-  O123  1  0.40539520  0.18408984  0.13712542  1
  O2-  O124  1  0.36118584  0.32463459  0.37247064  1
  O2-  O125  1  0.35873394  0.25353605  0.61314517  1
  O2-  O126  1  0.36320442  0.24235435  0.85587086  1
  O2-  O127  1  0.35088462  0.75327754  0.11857444  1
  O2-  O128  1  0.28712486  0.70041716  0.36625578  1
  O2-  O129  1  0.31956219  0.75401942  0.62357803  1
  O2-  O130  1  0.32791189  0.75130340  0.87429959  1
  O2-  O131  1  0.52662879  0.31314062  0.15945162  1
  O2-  O132  1  0.65450616  0.21976491  0.37675955  1
  O2-  O133  1  0.60126687  0.24938692  0.64549668  1
  O2-  O134  1  0.62617988  0.26420453  0.86026888  1
  O2-  O135  1  0.63116147  0.77013185  0.15056297  1
  O2-  O136  1  0.62148095  0.78552285  0.37069437  1
  O2-  O137  1  0.67724251  0.74792068  0.61214019  1
  O2-  O138  1  0.68451140  0.74614028  0.88778206  1
  O2-  O139  1  0.84465671  0.24439757  0.12167900  1
  O2-  O140  1  0.85822351  0.24636737  0.40683844  1
  O2-  O141  1  0.90363050  0.24873944  0.65551331  1
  O2-  O142  1  0.86627398  0.24919660  0.86616033  1
  O2-  O143  1  0.86027018  0.73718552  0.12004413  1
  O2-  O144  1  0.87827413  0.75076819  0.40098799  1
  O2-  O145  1  0.88551192  0.74991237  0.60969965  1
  O2-  O146  1  0.90734170  0.73896977  0.90034436  1
  O2-  O147  1  0.10348292  0.13162404  -0.00388740  1
  O2-  O148  1  0.12181621  0.14600628  0.25166048  1
  O2-  O149  1  0.09790025  0.14462738  0.50973605  1
  O2-  O150  1  0.10427812  0.14943210  0.74588023  1
  O2-  O151  1  0.13478049  0.63129326  -0.00751076  1
  O2-  O152  1  0.15094157  0.61897665  0.25360862  1
  O2-  O153  1  0.15193209  0.61487620  0.49915460  1
  O2-  O154  1  0.16801967  0.61916154  0.73562517  1
  O2-  O155  1  0.42061157  0.13220815  -0.02698269  1
  O2-  O156  1  0.31878352  0.16717655  0.31913534  1
  O2-  O157  1  0.39044227  0.13524175  0.48583931  1
  O2-  O158  1  0.41086183  0.13687188  0.73498974  1
  O2-  O159  1  0.36238254  0.64418367  -0.00285735  1
  O2-  O160  1  0.40694554  0.64814848  0.23998593  1
  O2-  O161  1  0.36034823  0.63832361  0.51185500  1
  O2-  O162  1  0.35162305  0.64770033  0.75011410  1
  O2-  O163  1  0.60170932  0.14932515  -0.00051428  1
  O2-  O164  1  0.69093864  0.15139645  0.16947595  1
  O2-  O165  1  0.58304245  0.11895063  0.53389432  1
  O2-  O166  1  0.57396732  0.12051316  0.75769122  1
  O2-  O167  1  0.63832762  0.63081592  0.00074561  1
  O2-  O168  1  0.58867902  0.62868291  0.27795596  1
  O2-  O169  1  0.62128708  0.63545100  0.49358580  1
  O2-  O170  1  0.65886025  0.62567789  0.74883142  1
  O2-  O171  1  0.92797295  0.12750321  -0.00635146  1
  O2-  O172  1  0.90451156  0.14597082  0.26055271  1
  O2-  O173  1  0.91414169  0.12328975  0.53403659  1
  O2-  O174  1  0.91475527  0.12232328  0.76563739  1
  O2-  O175  1  0.82802724  0.61128879  0.01253730  1
  O2-  O176  1  0.83353704  0.60692933  0.24281530  1
  O2-  O177  1  0.81197084  0.62352952  0.51963525  1
  O2-  O178  1  0.85324885  0.64867134  0.75863771  1
  O2-  O179  1  0.08511671  0.36053836  -0.00887987  1
  O2-  O180  1  0.10591967  0.35011055  0.24897340  1
  O2-  O181  1  0.09305364  0.35909155  0.50881621  1
  O2-  O182  1  0.11559926  0.34191826  0.75624211  1
  O2-  O183  1  0.11197661  0.85283550  0.01014686  1
  O2-  O184  1  0.15874344  0.86534515  0.25973604  1
  O2-  O185  1  0.17111611  0.87711300  0.49622396  1
  O2-  O186  1  0.16380039  0.87791439  0.72392988  1
  O2-  O187  1  0.39801663  0.36202166  0.00870449  1
  O2-  O188  1  0.31000541  0.36380960  0.17339147  1
  O2-  O189  1  0.44236232  0.39522330  0.52498265  1
  O2-  O190  1  0.41485459  0.36378424  0.73926977  1
  O2-  O191  1  0.32289082  0.87621034  -0.01613361  1
  O2-  O192  1  0.39606050  0.85001611  0.25944223  1
  O2-  O193  1  0.37479609  0.85689950  0.49678455  1
  O2-  O194  1  0.35723632  0.85960908  0.75079960  1
  O2-  O195  1  0.60385574  0.35709989  0.00685894  1
  O2-  O196  1  0.68299216  0.34295707  0.24133727  1
  O2-  O197  1  0.62158380  0.35629716  0.49799052  1
  O2-  O198  1  0.59303290  0.38788245  0.74509516  1
  O2-  O199  1  0.65652099  0.86272047  0.00896744  1
  O2-  O200  1  0.59767581  0.91146914  0.25406562  1
  O2-  O201  1  0.63613258  0.88151012  0.50715629  1
  O2-  O202  1  0.64240596  0.85099249  0.75723289  1
  O2-  O203  1  0.91389648  0.35705565  -0.00259375  1
  O2-  O204  1  0.88054143  0.34671044  0.25837405  1
  O2-  O205  1  0.90771569  0.37606236  0.53113442  1
  O2-  O206  1  0.92659886  0.37779600  0.76247465  1
  O2-  O207  1  0.86524166  0.87287452  0.02236026  1
  O2-  O208  1  0.83326965  0.87618571  0.26505967  1
  O2-  O209  1  0.82537629  0.87655668  0.50298692  1
  O2-  O210  1  0.84652023  0.84716420  0.74409116  1
  O2-  O211  1  -0.00675113  -0.14364471  0.14289847  1
  O2-  O212  1  -0.00415317  -0.12602602  0.31272388  1
  O2-  O213  1  0.00298320  -0.11580179  0.47404060  1
  O2-  O214  1  -0.00722063  -0.12970217  0.65057901  1
  O2-  O215  1  0.00320673  0.63837933  0.11073729  1
  O2-  O216  1  -0.01797601  0.63151602  0.29622247  1
  O2-  O217  1  -0.02092548  0.60849178  0.45362367  1
  O2-  O218  1  -0.00615544  0.62893672  0.64472210  1
  O2-  O219  1  0.26618362  0.08042918  -0.04770968  1
  O2-  O220  1  0.29640002  -0.00681495  0.15455106  1
  O2-  O221  1  0.25895872  0.09785266  0.60684287  1
  O2-  O222  1  0.25668748  0.10958167  0.79325008  1
  O2-  O223  1  0.25081524  0.41036776  -0.04034706  1
  O2-  O224  1  0.24020653  0.53867533  0.10253261  1
  O2-  O225  1  0.26226828  0.38178213  0.53783545  1
  O2-  O226  1  0.25719201  0.40077648  0.70006787  1
  O2-  O227  1  0.50578917  -0.15145133  -0.10945785  1
  O2-  O228  1  0.49976817  0.13966320  0.32863476  1
  O2-  O229  1  0.49634274  0.00311608  0.42980157  1
  O2-  O230  1  0.50650655  -0.15504776  0.63392927  1
  O2-  O231  1  0.50878493  0.65710389  -0.13741847  1
  O2-  O232  1  0.52136697  0.36023704  0.33972355  1
  O2-  O233  1  0.50850260  0.52680546  0.39904769  1
  O2-  O234  1  0.51082630  0.65111528  0.64299116  1
  O2-  O235  1  0.75843589  0.11983697  -0.03312406  1
  O2-  O236  1  0.74818516  -0.03392990  0.12573968  1
  O2-  O237  1  0.74878882  0.15400381  0.58287394  1
  O2-  O238  1  0.73997770  0.12728448  0.74221693  1
  O2-  O239  1  0.75402195  0.39480961  -0.04089606  1
  O2-  O240  1  0.74327253  0.63643281  0.37168126  1
  O2-  O241  1  0.75124609  0.34834430  0.63042563  1
  O2-  O242  1  0.75740920  0.38538507  0.79840150  1
