# generated using pymatgen
data_Gd19Ta56(WO20)8
_symmetry_space_group_name_H-M   'P 1'
_cell_length_a   15.77562058
_cell_length_b   15.58086207
_cell_length_c   15.11140800
_cell_angle_alpha   90.12584409
_cell_angle_beta   89.85728912
_cell_angle_gamma   90.10086828
_symmetry_Int_Tables_number   1
_chemical_formula_structural   Gd19Ta56(WO20)8
_chemical_formula_sum   'Gd19 Ta56 W8 O160'
_cell_volume   3714.32416143
_cell_formula_units_Z   1
loop_
 _symmetry_equiv_pos_site_id
 _symmetry_equiv_pos_as_xyz
  1  'x, y, z'
loop_
 _atom_type_symbol
 _atom_type_oxidation_number
  Gd3+  3.0
  Ta5+  5.0
  W6+  6.0
  O2-  -2.0
loop_
 _atom_site_type_symbol
 _atom_site_label
 _atom_site_symmetry_multiplicity
 _atom_site_fract_x
 _atom_site_fract_y
 _atom_site_fract_z
 _atom_site_occupancy
  Gd3+  Gd0  1  0.46811908  0.26247318  0.72800320  1
  Gd3+  Gd1  1  0.73997763  0.22406494  0.76445051  1
  Gd3+  Gd2  1  0.28047327  0.74268970  0.70421101  1
  Gd3+  Gd3  1  0.75905810  0.22478195  -0.01217976  1
  Gd3+  Gd4  1  0.23883790  0.24610328  0.74484415  1
  Gd3+  Gd5  1  0.25656026  0.26324281  0.23317066  1
  Gd3+  Gd6  1  0.74997225  0.71558020  0.51159200  1
  Gd3+  Gd7  1  0.02242457  0.75624350  0.22874252  1
  Gd3+  Gd8  1  -0.01102927  0.22769078  0.76307063  1
  Gd3+  Gd9  1  0.69003040  0.73927762  0.01733715  1
  Gd3+  Gd10  1  0.75181628  0.73284683  0.26722978  1
  Gd3+  Gd11  1  0.48550951  0.25025302  0.25645535  1
  Gd3+  Gd12  1  0.26824483  0.27723240  -0.00474503  1
  Gd3+  Gd13  1  -0.01151689  0.21648374  -0.00551183  1
  Gd3+  Gd14  1  0.49737912  0.74045637  0.24183880  1
  Gd3+  Gd15  1  -0.00844543  0.24104901  0.50685687  1
  Gd3+  Gd16  1  0.24203916  0.24204805  0.50487830  1
  Gd3+  Gd17  1  0.50758415  0.74713191  0.76395734  1
  Gd3+  Gd18  1  0.52717053  0.75132893  0.47511044  1
  Ta5+  Ta19  1  0.56436359  0.60830998  0.89492492  1
  Ta5+  Ta20  1  0.14799436  0.87180877  0.37112826  1
  Ta5+  Ta21  1  0.64148627  0.38091701  0.63928008  1
  Ta5+  Ta22  1  0.88943920  0.38340467  0.89064974  1
  Ta5+  Ta23  1  0.84378645  0.11262777  0.38148835  1
  Ta5+  Ta24  1  0.88557796  0.87591823  0.38959397  1
  Ta5+  Ta25  1  0.60079513  0.58825226  0.14987595  1
  Ta5+  Ta26  1  0.14501252  0.41296647  0.12162001  1
  Ta5+  Ta27  1  0.11631650  0.61880172  0.63102236  1
  Ta5+  Ta28  1  0.11456995  0.11207835  0.61834981  1
  Ta5+  Ta29  1  0.38835738  0.87536353  0.86964923  1
  Ta5+  Ta30  1  0.43317565  0.87462828  0.61320990  1
  Ta5+  Ta31  1  0.08966676  0.38839550  0.88144082  1
  Ta5+  Ta32  1  0.42946182  0.63021811  0.60858217  1
  Ta5+  Ta33  1  0.87778862  0.38800788  0.63968977  1
  Ta5+  Ta34  1  0.33939172  0.12261617  0.36302727  1
  Ta5+  Ta35  1  0.38455574  0.88441527  0.36382003  1
  Ta5+  Ta36  1  0.86343065  0.36203955  0.37753386  1
  Ta5+  Ta37  1  0.57688374  0.12576092  0.90133123  1
  Ta5+  Ta38  1  0.61630015  0.37852090  0.88647016  1
  Ta5+  Ta39  1  0.35537900  0.40281531  0.59813934  1
  Ta5+  Ta40  1  0.59854411  0.86557532  0.63808120  1
  Ta5+  Ta41  1  0.11460427  0.38214744  0.63210738  1
  Ta5+  Ta42  1  0.90795833  0.37257367  0.13029936  1
  Ta5+  Ta43  1  0.55897495  0.87949691  0.90249028  1
  Ta5+  Ta44  1  0.12174458  0.10392576  0.87512596  1
  Ta5+  Ta45  1  0.62428712  0.35650901  0.39186793  1
  Ta5+  Ta46  1  0.89948588  0.11075358  0.15668017  1
  Ta5+  Ta47  1  0.59320817  0.61928598  0.63388017  1
  Ta5+  Ta48  1  0.17681281  0.86547102  0.11448345  1
  Ta5+  Ta49  1  0.86446288  0.61784519  0.11093503  1
  Ta5+  Ta50  1  0.61096647  0.11133134  0.64226541  1
  Ta5+  Ta51  1  0.63927205  0.35033674  0.13438731  1
  Ta5+  Ta52  1  0.36055293  0.63094478  0.37728727  1
  Ta5+  Ta53  1  0.85781916  0.07765319  0.63030499  1
  Ta5+  Ta54  1  0.83694040  0.61899468  0.90783429  1
  Ta5+  Ta55  1  0.62994173  0.59812969  0.36015578  1
  Ta5+  Ta56  1  0.38581133  0.42437182  0.85986361  1
  Ta5+  Ta57  1  0.88547066  0.63551256  0.65224827  1
  Ta5+  Ta58  1  0.39410201  0.40016389  0.11977099  1
  Ta5+  Ta59  1  0.36631034  0.10928008  0.62195139  1
  Ta5+  Ta60  1  0.21463383  0.87205219  0.86379794  1
  Ta5+  Ta61  1  0.34976321  0.63844366  0.11974346  1
  Ta5+  Ta62  1  0.13506268  0.10723406  0.13050371  1
  Ta5+  Ta63  1  0.60783782  0.13735817  0.39996327  1
  Ta5+  Ta64  1  0.40347262  0.12580322  0.10182095  1
  Ta5+  Ta65  1  0.18447123  0.65342655  0.11421995  1
  Ta5+  Ta66  1  0.39111282  0.62590163  0.87629031  1
  Ta5+  Ta67  1  0.36740569  0.11910331  0.88951617  1
  Ta5+  Ta68  1  0.65504680  0.94588270  0.40031142  1
  Ta5+  Ta69  1  0.40566833  0.87910141  0.10702467  1
  Ta5+  Ta70  1  0.89123568  0.87745347  0.64531927  1
  Ta5+  Ta71  1  0.63659432  0.88538335  0.15376866  1
  Ta5+  Ta72  1  0.12544020  0.86734369  0.62596937  1
  Ta5+  Ta73  1  0.64027031  0.12946492  0.14705126  1
  Ta5+  Ta74  1  0.37333455  0.38653254  0.39018269  1
  W6+  W75  1  0.17337505  0.11683643  0.36547210  1
  W6+  W76  1  0.79486835  0.86094043  0.87443370  1
  W6+  W77  1  0.12933104  0.38659108  0.37377200  1
  W6+  W78  1  0.86503451  0.04937572  0.83269078  1
  W6+  W79  1  0.13070510  0.63446254  0.37273063  1
  W6+  W80  1  0.88278311  0.61428056  0.38338638  1
  W6+  W81  1  0.19518297  0.61597616  0.86100867  1
  W6+  W82  1  0.83390595  0.86854376  0.13474036  1
  O2-  O83  1  0.15943165  -0.00921023  0.11031853  1
  O2-  O84  1  0.12715696  -0.01330424  0.36792395  1
  O2-  O85  1  0.10525954  -0.00532706  0.62416172  1
  O2-  O86  1  0.16145430  -0.00678140  0.86179544  1
  O2-  O87  1  0.16712535  0.52696155  0.12611669  1
  O2-  O88  1  0.13362766  0.50630539  0.36006787  1
  O2-  O89  1  0.08123424  0.49648316  0.64958496  1
  O2-  O90  1  0.13102917  0.49794001  0.87386211  1
  O2-  O91  1  0.39409843  0.00727052  0.12069122  1
  O2-  O92  1  0.36467122  0.00619988  0.35123623  1
  O2-  O93  1  0.38081888  -0.00678311  0.63144913  1
  O2-  O94  1  0.36636072  0.00662020  0.86083073  1
  O2-  O95  1  0.37761740  0.51455252  0.14627096  1
  O2-  O96  1  0.35602842  0.50650894  0.36931198  1
  O2-  O97  1  0.36554566  0.52078420  0.59785069  1
  O2-  O98  1  0.30750487  0.51584399  0.84798866  1
  O2-  O99  1  0.66210690  0.01245923  0.14903917  1
  O2-  O100  1  0.55792578  0.02646864  0.40495305  1
  O2-  O101  1  0.60314487  -0.00492815  0.62874441  1
  O2-  O102  1  0.57308649  0.00582263  0.89984423  1
  O2-  O103  1  0.61791857  0.47021838  0.13650077  1
  O2-  O104  1  0.61183054  0.47570104  0.37828324  1
  O2-  O105  1  0.59326548  0.48961177  0.64105801  1
  O2-  O106  1  0.62785275  0.49639495  0.90654159  1
  O2-  O107  1  0.87415410  -0.00152486  0.15061895  1
  O2-  O108  1  0.90215220  0.01090304  0.36905987  1
  O2-  O109  1  0.81054976  -0.03473761  0.59988748  1
  O2-  O110  1  0.76244561  -0.03518722  0.82541584  1
  O2-  O111  1  0.87718750  0.49879004  0.12330546  1
  O2-  O112  1  0.88556109  0.47744711  0.38075871  1
  O2-  O113  1  0.89232260  0.50322913  0.65284596  1
  O2-  O114  1  0.83376574  0.49253700  0.89174311  1
  O2-  O115  1  0.17381470  0.22734256  0.10900393  1
  O2-  O116  1  0.17925691  0.26214501  0.36707188  1
  O2-  O117  1  0.24075070  0.11586682  0.62083114  1
  O2-  O118  1  0.08591794  0.25166754  0.88632607  1
  O2-  O119  1  0.10642558  0.76408863  0.10074258  1
  O2-  O120  1  0.07477592  0.76880159  0.37281568  1
  O2-  O121  1  0.15242754  0.74396292  0.63091896  1
  O2-  O122  1  0.21237291  0.75035357  0.83914670  1
  O2-  O123  1  0.38789412  0.26063011  0.10076353  1
  O2-  O124  1  0.36138578  0.25631035  0.37560580  1
  O2-  O125  1  0.34524236  0.26345369  0.62103028  1
  O2-  O126  1  0.31141763  0.32304463  0.85267668  1
  O2-  O127  1  0.41602017  0.75220115  0.10949771  1
  O2-  O128  1  0.42105937  0.75614355  0.37379222  1
  O2-  O129  1  0.39342331  0.75400848  0.58739062  1
  O2-  O130  1  0.39206528  0.74797373  0.88455662  1
  O2-  O131  1  0.70989281  0.23816540  0.13484840  1
  O2-  O132  1  0.54850901  0.25060125  0.39361428  1
  O2-  O133  1  0.60428132  0.26487276  0.67423581  1
  O2-  O134  1  0.64235391  0.24499104  0.87934699  1
  O2-  O135  1  0.62695206  0.75034836  0.16588456  1
  O2-  O136  1  0.61068980  0.72627050  0.35174747  1
  O2-  O137  1  0.64435808  0.74428709  0.62858551  1
  O2-  O138  1  0.57790213  0.74472580  0.90659956  1
  O2-  O139  1  0.94221814  0.25200990  0.13298932  1
  O2-  O140  1  0.90107738  0.23190300  0.38476727  1
  O2-  O141  1  0.98922937  0.32772817  0.64682953  1
  O2-  O142  1  0.89357850  0.25694586  0.88970633  1
  O2-  O143  1  0.80166110  0.73076615  0.12685802  1
  O2-  O144  1  0.85140241  0.75240169  0.39626675  1
  O2-  O145  1  0.84850888  0.75538437  0.61934266  1
  O2-  O146  1  0.77613703  0.72484410  0.89360107  1
  O2-  O147  1  0.10161448  0.11652109  0.00234606  1
  O2-  O148  1  0.20934690  0.11584293  0.22866469  1
  O2-  O149  1  0.11106118  0.14251908  0.49474136  1
  O2-  O150  1  -0.00752831  0.14645919  0.62526228  1
  O2-  O151  1  0.18646518  0.64435112  -0.00775535  1
  O2-  O152  1  0.13331809  0.66256839  0.23908904  1
  O2-  O153  1  0.12782633  0.61046986  0.51223184  1
  O2-  O154  1  0.20626068  0.61020048  0.71594579  1
  O2-  O155  1  0.31164509  0.13254241  0.01212873  1
  O2-  O156  1  0.37483918  0.15101049  0.23443927  1
  O2-  O157  1  0.35810022  0.12691104  0.49486593  1
  O2-  O158  1  0.35349195  0.14980358  0.75031275  1
  O2-  O159  1  0.36716343  0.61030445  -0.00062601  1
  O2-  O160  1  0.36792774  0.65555068  0.25352985  1
  O2-  O161  1  0.44264507  0.62372415  0.47218318  1
  O2-  O162  1  0.39212007  0.64538781  0.73692467  1
  O2-  O163  1  0.64134417  0.13517760  0.01063923  1
  O2-  O164  1  0.63037196  0.15037385  0.27431466  1
  O2-  O165  1  0.62687679  0.15552372  0.52371893  1
  O2-  O166  1  0.61119476  0.12142072  0.77169606  1
  O2-  O167  1  0.58227792  0.62474676  0.03008995  1
  O2-  O168  1  0.69501925  0.60179671  0.23491215  1
  O2-  O169  1  0.62249418  0.62734258  0.49813453  1
  O2-  O170  1  0.59666083  0.62385097  0.76830912  1
  O2-  O171  1  0.86689979  0.13783148  0.03929346  1
  O2-  O172  1  0.83029678  0.14155263  0.25595344  1
  O2-  O173  1  0.86994277  0.12439368  0.51138330  1
  O2-  O174  1  0.86838442  0.15750292  0.73295303  1
  O2-  O175  1  0.92362569  0.63851028  -0.00646315  1
  O2-  O176  1  0.89517011  0.64472352  0.23564969  1
  O2-  O177  1  0.85089181  0.61455249  0.52882232  1
  O2-  O178  1  0.86048423  0.63020149  0.77520232  1
  O2-  O179  1  0.15540008  0.37260402  -0.00289974  1
  O2-  O180  1  0.16108656  0.37148297  0.23858267  1
  O2-  O181  1  0.14562290  0.25133116  0.62129889  1
  O2-  O182  1  0.12931358  0.35023339  0.76191499  1
  O2-  O183  1  0.19850907  0.86526373  -0.01385188  1
  O2-  O184  1  0.12387661  0.86410489  0.23899979  1
  O2-  O185  1  0.15043655  0.86895503  0.50344807  1
  O2-  O186  1  0.20611390  0.88096701  0.72096995  1
  O2-  O187  1  0.38698009  0.40744376  -0.01367396  1
  O2-  O188  1  0.39222399  0.36588688  0.25259472  1
  O2-  O189  1  0.28197048  0.38050868  0.47896514  1
  O2-  O190  1  0.40180144  0.39623045  0.71907993  1
  O2-  O191  1  0.44924022  0.88814474  -0.01003895  1
  O2-  O192  1  0.43186720  0.87578691  0.24556130  1
  O2-  O193  1  0.43611255  0.89161095  0.47756954  1
  O2-  O194  1  0.39120748  0.84722086  0.73768398  1
  O2-  O195  1  0.65795079  0.34956178  0.00427506  1
  O2-  O196  1  0.61134666  0.33499836  0.25942765  1
  O2-  O197  1  0.61585004  0.35692618  0.51798724  1
  O2-  O198  1  0.67406151  0.38007298  0.77493131  1
  O2-  O199  1  0.60737829  0.87224106  0.03182604  1
  O2-  O200  1  0.62923738  0.90054682  0.28913626  1
  O2-  O201  1  0.62718852  0.87033003  0.49495709  1
  O2-  O202  1  0.59140898  0.87034962  0.77287488  1
  O2-  O203  1  0.83988514  0.35436152  0.02180744  1
  O2-  O204  1  0.86443581  0.35934020  0.24695241  1
  O2-  O205  1  0.89132708  0.35135475  0.51126603  1
  O2-  O206  1  0.84658462  0.34497285  0.75720740  1
  O2-  O207  1  0.78671054  0.86140890  0.00171328  1
  O2-  O208  1  0.91180827  0.85062079  0.26548252  1
  O2-  O209  1  0.92801497  0.87827083  0.50526005  1
  O2-  O210  1  0.86169296  0.84509780  0.75973345  1
  O2-  O211  1  -0.00172505  0.10563550  -0.13871528  1
  O2-  O212  1  0.02253630  0.10411050  0.17500468  1
  O2-  O213  1  0.01072050  -0.15114948  0.65504650  1
  O2-  O214  1  -0.07389087  -0.00024437  0.70347985  1
  O2-  O215  1  -0.00992359  0.37508721  -0.02846907  1
  O2-  O216  1  0.02439688  0.40854560  0.13707017  1
  O2-  O217  1  0.00132615  0.65714577  0.65374797  1
  O2-  O218  1  -0.01670497  0.40970161  0.81302456  1
  O2-  O219  1  0.23958390  0.16109187  -0.12563650  1
  O2-  O220  1  0.28799123  -0.13808945  0.15171217  1
  O2-  O221  1  0.26716949  -0.14516863  0.35943533  1
  O2-  O222  1  0.12178877  0.14449313  0.74833183  1
  O2-  O223  1  0.26985694  0.37298521  0.11706683  1
  O2-  O224  1  0.25628341  0.66836721  0.41158976  1
  O2-  O225  1  0.08858367  0.36126477  0.50731259  1
  O2-  O226  1  0.23491237  0.39998813  0.63844597  1
  O2-  O227  1  0.46508956  0.10879346  -0.01662701  1
  O2-  O228  1  0.52070255  0.15005748  0.14411094  1
  O2-  O229  1  0.48690237  0.14190192  0.63520845  1
  O2-  O230  1  0.47334848  0.18217575  0.84929464  1
  O2-  O231  1  0.50204911  0.35674108  -0.14696328  1
  O2-  O232  1  0.53551299  0.59600476  0.26458273  1
  O2-  O233  1  0.43884958  0.38457588  0.49976825  1
  O2-  O234  1  0.47292870  0.52239127  0.86104143  1
  O2-  O235  1  0.77097441  0.13372588  -0.12671301  1
  O2-  O236  1  0.77001380  -0.09862206  0.39804518  1
  O2-  O237  1  0.72736533  0.07035971  0.39925078  1
  O2-  O238  1  0.73891256  0.12060815  0.64978337  1
  O2-  O239  1  0.76836530  0.60409762  0.02019586  1
  O2-  O240  1  0.74856290  0.62396835  0.38720307  1
  O2-  O241  1  0.74513346  0.34670525  0.38877428  1
  O2-  O242  1  0.75852477  0.37270452  0.61332895  1
