# generated using pymatgen
data_Gd19Ta56(WO20)8
_symmetry_space_group_name_H-M   'P 1'
_cell_length_a   15.47129873
_cell_length_b   15.42298937
_cell_length_c   15.37823754
_cell_angle_alpha   90.01499259
_cell_angle_beta   90.18194426
_cell_angle_gamma   90.20760003
_symmetry_Int_Tables_number   1
_chemical_formula_structural   Gd19Ta56(WO20)8
_chemical_formula_sum   'Gd19 Ta56 W8 O160'
_cell_volume   3669.41506223
_cell_formula_units_Z   1
loop_
 _symmetry_equiv_pos_site_id
 _symmetry_equiv_pos_as_xyz
  1  'x, y, z'
loop_
 _atom_type_symbol
 _atom_type_oxidation_number
  Gd3+  3.0
  Ta5+  5.0
  W6+  6.0
  O2-  -2.0
loop_
 _atom_site_type_symbol
 _atom_site_label
 _atom_site_symmetry_multiplicity
 _atom_site_fract_x
 _atom_site_fract_y
 _atom_site_fract_z
 _atom_site_occupancy
  Gd3+  Gd0  1  0.76706104  0.75943953  0.49096243  1
  Gd3+  Gd1  1  0.73165849  0.25291164  0.72600898  1
  Gd3+  Gd2  1  0.25128863  0.75074375  -0.00180598  1
  Gd3+  Gd3  1  0.26232691  0.76027826  0.74388945  1
  Gd3+  Gd4  1  0.00876363  0.75564113  0.73283310  1
  Gd3+  Gd5  1  0.73031655  0.26014949  0.25802179  1
  Gd3+  Gd6  1  0.50211850  0.75727431  0.51077779  1
  Gd3+  Gd7  1  0.70501061  0.24294071  -0.00022690  1
  Gd3+  Gd8  1  0.49945914  0.24546799  0.23792905  1
  Gd3+  Gd9  1  0.00310853  0.74183024  0.27154388  1
  Gd3+  Gd10  1  0.02095420  0.28098072  0.50656671  1
  Gd3+  Gd11  1  0.74362617  0.73877846  0.22388162  1
  Gd3+  Gd12  1  0.25917059  0.76193499  0.50052730  1
  Gd3+  Gd13  1  0.73431281  0.74275099  -0.01109314  1
  Gd3+  Gd14  1  0.51338987  0.75436692  0.23932203  1
  Gd3+  Gd15  1  0.75832714  0.74204904  0.75314782  1
  Gd3+  Gd16  1  0.27684525  0.24362100  0.74698860  1
  Gd3+  Gd17  1  -0.01477063  0.76069954  0.00418058  1
  Gd3+  Gd18  1  0.29084793  0.26374767  0.23321119  1
  Ta5+  Ta19  1  0.42653782  0.07294707  0.12522198  1
  Ta5+  Ta20  1  0.57575114  0.13881816  0.61774411  1
  Ta5+  Ta21  1  0.87091227  0.90279133  0.37133826  1
  Ta5+  Ta22  1  0.89290811  0.36194817  0.12283446  1
  Ta5+  Ta23  1  0.85765718  0.60746204  0.36784355  1
  Ta5+  Ta24  1  0.89208951  0.89653593  0.61200589  1
  Ta5+  Ta25  1  0.62681401  0.60207834  0.60771244  1
  Ta5+  Ta26  1  0.15564039  0.57686287  0.37424050  1
  Ta5+  Ta27  1  0.07513226  0.13880574  0.63857379  1
  Ta5+  Ta28  1  0.66413583  0.89527476  0.33178723  1
  Ta5+  Ta29  1  0.89411200  0.60394976  0.87770961  1
  Ta5+  Ta30  1  0.57260629  0.35667134  0.59762549  1
  Ta5+  Ta31  1  0.61868862  0.60105088  0.11458324  1
  Ta5+  Ta32  1  0.14975128  0.38003479  0.37645450  1
  Ta5+  Ta33  1  0.88846020  0.62859987  0.61018165  1
  Ta5+  Ta34  1  0.37305012  0.88393389  0.88726994  1
  Ta5+  Ta35  1  0.38656261  0.61360073  0.62743668  1
  Ta5+  Ta36  1  0.59358304  0.36023631  0.38469191  1
  Ta5+  Ta37  1  0.12748394  0.89386715  0.37777495  1
  Ta5+  Ta38  1  0.89953920  0.90575699  0.85222998  1
  Ta5+  Ta39  1  0.37089181  0.38639679  0.87639758  1
  Ta5+  Ta40  1  0.40879328  0.13960118  0.61870990  1
  Ta5+  Ta41  1  0.35178708  0.86311108  0.14128517  1
  Ta5+  Ta42  1  0.38490994  0.12394749  0.37775433  1
  Ta5+  Ta43  1  0.42628841  0.40141046  0.12168294  1
  Ta5+  Ta44  1  0.90193631  0.14554016  0.63026543  1
  Ta5+  Ta45  1  0.57099214  0.12373078  0.85780653  1
  Ta5+  Ta46  1  0.09467295  0.13415560  0.12647617  1
  Ta5+  Ta47  1  0.13764585  0.61688079  0.62049223  1
  Ta5+  Ta48  1  0.87508277  0.36319272  0.88010190  1
  Ta5+  Ta49  1  0.87188674  0.88553341  0.15741718  1
  Ta5+  Ta50  1  0.14938696  0.37564478  0.63477626  1
  Ta5+  Ta51  1  0.39149622  0.89082906  0.63669623  1
  Ta5+  Ta52  1  0.13047686  0.36992099  0.13194834  1
  Ta5+  Ta53  1  0.64602708  0.60143769  0.36755039  1
  Ta5+  Ta54  1  0.06476581  0.13280785  0.37576068  1
  Ta5+  Ta55  1  0.10969101  0.88728774  0.87285098  1
  Ta5+  Ta56  1  0.63601673  0.60572670  0.86071868  1
  Ta5+  Ta57  1  0.59508646  0.37906269  0.11990836  1
  Ta5+  Ta58  1  0.13633550  0.62141608  0.12758347  1
  Ta5+  Ta59  1  0.42640369  0.37636661  0.39031383  1
  Ta5+  Ta60  1  0.12383119  0.13470443  0.88179850  1
  Ta5+  Ta61  1  0.13640760  0.89812007  0.62859308  1
  Ta5+  Ta62  1  0.38502233  0.61817272  0.37459502  1
  Ta5+  Ta63  1  0.17081865  0.37079603  0.88556655  1
  Ta5+  Ta64  1  0.64274905  0.89935867  0.62256833  1
  Ta5+  Ta65  1  0.89243340  0.15069659  0.37844480  1
  Ta5+  Ta66  1  0.85374212  0.12986761  0.12962797  1
  Ta5+  Ta67  1  0.09863071  0.60854243  0.87393885  1
  Ta5+  Ta68  1  0.55537572  0.10321143  0.37408314  1
  Ta5+  Ta69  1  0.37667459  0.60563451  0.12579581  1
  Ta5+  Ta70  1  0.86793465  0.35948679  0.37815369  1
  Ta5+  Ta71  1  0.40347805  0.36594392  0.61555050  1
  Ta5+  Ta72  1  0.60245706  0.37613763  0.85488404  1
  Ta5+  Ta73  1  0.38905173  0.61749810  0.87489210  1
  Ta5+  Ta74  1  0.35968764  0.92309326  0.37365339  1
  W6+  W75  1  0.11410829  0.88129050  0.12403971  1
  W6+  W76  1  0.40807091  0.13394047  0.88065277  1
  W6+  W77  1  0.58838732  0.11147362  0.11165890  1
  W6+  W78  1  0.87737781  0.38066298  0.63082478  1
  W6+  W79  1  0.87882258  0.61279897  0.12868030  1
  W6+  W80  1  0.85179932  0.13417146  0.87808002  1
  W6+  W81  1  0.63706030  0.91516074  0.09303007  1
  W6+  W82  1  0.59396772  0.87103858  0.85482093  1
  O2-  O83  1  0.12835435  0.02074776  0.11352872  1
  O2-  O84  1  0.07541129  0.00417286  0.39120964  1
  O2-  O85  1  0.11102005  0.01464428  0.64310808  1
  O2-  O86  1  0.13904599  0.00662670  0.88137987  1
  O2-  O87  1  0.12131163  0.50054275  0.13085930  1
  O2-  O88  1  0.07316156  0.48122685  0.36217845  1
  O2-  O89  1  0.11454840  0.49814180  0.63959625  1
  O2-  O90  1  0.14546127  0.49788148  0.88431674  1
  O2-  O91  1  0.34002073  -0.01550719  0.15463947  1
  O2-  O92  1  0.45583309  0.00726533  0.37766381  1
  O2-  O93  1  0.40928733  0.00901609  0.62691306  1
  O2-  O94  1  0.38535079  0.00036254  0.88268325  1
  O2-  O95  1  0.33137288  0.49463301  0.13539759  1
  O2-  O96  1  0.43179741  0.50909421  0.39341008  1
  O2-  O97  1  0.41670111  0.49832887  0.62890005  1
  O2-  O98  1  0.33198420  0.51170400  0.86195887  1
  O2-  O99  1  0.69049161  0.02428927  0.13102686  1
  O2-  O100  1  0.61464462  -0.01168869  0.38584326  1
  O2-  O101  1  0.61240224  0.01422358  0.61577253  1
  O2-  O102  1  0.57374635  0.00539117  0.84504342  1
  O2-  O103  1  0.65933726  0.48670285  0.13293038  1
  O2-  O104  1  0.62887911  0.48578361  0.38828515  1
  O2-  O105  1  0.60730154  0.48608706  0.59419736  1
  O2-  O106  1  0.66505400  0.48436882  0.85939658  1
  O2-  O107  1  0.86530303  0.00853708  0.14509164  1
  O2-  O108  1  0.88140297  0.02276650  0.36659766  1
  O2-  O109  1  0.91007906  0.01483966  0.63171158  1
  O2-  O110  1  0.83453225  0.00284911  0.87063592  1
  O2-  O111  1  0.87053598  0.47769910  0.11571858  1
  O2-  O112  1  0.85792437  0.48627934  0.37268471  1
  O2-  O113  1  0.87143221  0.51344246  0.63695611  1
  O2-  O114  1  0.86669519  0.48772180  0.89623306  1
  O2-  O115  1  0.17021368  0.23753571  0.13894392  1
  O2-  O116  1  0.09954403  0.26497799  0.37424937  1
  O2-  O117  1  0.13848326  0.24971423  0.63466898  1
  O2-  O118  1  0.19074507  0.24012280  0.88058240  1
  O2-  O119  1  0.06999552  0.73144017  0.13076322  1
  O2-  O120  1  0.06064888  0.79539067  0.39758096  1
  O2-  O121  1  0.16470141  0.74742296  0.61413442  1
  O2-  O122  1  0.06220467  0.74673515  0.87185378  1
  O2-  O123  1  0.39184746  0.28413939  0.12834906  1
  O2-  O124  1  0.38292064  0.25088185  0.36349820  1
  O2-  O125  1  0.34570065  0.25115515  0.61344412  1
  O2-  O126  1  0.37373193  0.26344642  0.87813639  1
  O2-  O127  1  0.41025791  0.74832973  0.13310972  1
  O2-  O128  1  0.46145162  0.71836666  0.37336024  1
  O2-  O129  1  0.35739325  0.75868875  0.61873555  1
  O2-  O130  1  0.33511952  0.73316202  0.87711756  1
  O2-  O131  1  0.62307938  0.24729748  0.13385778  1
  O2-  O132  1  0.60846683  0.22846342  0.35125431  1
  O2-  O133  1  0.63868074  0.24779818  0.60072521  1
  O2-  O134  1  0.63226345  0.25291117  0.86513872  1
  O2-  O135  1  0.61012334  0.72981864  0.12806825  1
  O2-  O136  1  0.65211005  0.76394573  0.34575576  1
  O2-  O137  1  0.74622062  0.65060524  0.61255147  1
  O2-  O138  1  0.64388632  0.73881484  0.86076363  1
  O2-  O139  1  0.80715415  0.26375239  0.11886179  1
  O2-  O140  1  0.80128000  0.25404670  0.39312417  1
  O2-  O141  1  0.83733055  0.25617044  0.61760253  1
  O2-  O142  1  0.80480933  0.26008004  0.89039224  1
  O2-  O143  1  0.88476244  0.75021832  0.16564427  1
  O2-  O144  1  0.85604525  0.74888274  0.36070971  1
  O2-  O145  1  0.86779264  0.75902908  0.60111145  1
  O2-  O146  1  0.83991072  0.80660614  0.89772426  1
  O2-  O147  1  0.08081810  0.15226557  -0.00521474  1
  O2-  O148  1  0.08339461  0.13052001  0.25283451  1
  O2-  O149  1  0.08159612  0.14236955  0.50935039  1
  O2-  O150  1  0.07507112  0.14808937  0.77129932  1
  O2-  O151  1  0.15412083  0.63835463  -0.00102684  1
  O2-  O152  1  0.12276081  0.63316884  0.26495182  1
  O2-  O153  1  0.12901908  0.61608583  0.49017257  1
  O2-  O154  1  0.15042245  0.64669552  0.75628426  1
  O2-  O155  1  0.40430457  0.12107311  0.02018600  1
  O2-  O156  1  0.38329164  0.13687228  0.23104872  1
  O2-  O157  1  0.37060025  0.12553952  0.49718083  1
  O2-  O158  1  0.38587055  0.14369112  0.74508725  1
  O2-  O159  1  0.36564879  0.62952410  -0.00003199  1
  O2-  O160  1  0.39519722  0.62493322  0.25054580  1
  O2-  O161  1  0.38814615  0.64874548  0.50251434  1
  O2-  O162  1  0.36874035  0.64124108  0.74791927  1
  O2-  O163  1  0.61458306  0.12929535  -0.02336796  1
  O2-  O164  1  0.55722303  0.10441660  0.24410397  1
  O2-  O165  1  0.56267535  0.13353946  0.49212831  1
  O2-  O166  1  0.61941910  0.14836160  0.74139557  1
  O2-  O167  1  0.62888060  0.61129242  -0.01003005  1
  O2-  O168  1  0.58903170  0.61927847  0.25517579  1
  O2-  O169  1  0.59356898  0.63865369  0.48177719  1
  O2-  O170  1  0.64004520  0.61455434  0.73304119  1
  O2-  O171  1  0.81146685  0.13094830  0.01302268  1
  O2-  O172  1  0.83115897  0.15329724  0.25191504  1
  O2-  O173  1  0.89953115  0.15048931  0.50118441  1
  O2-  O174  1  0.85054838  0.14989757  0.74701562  1
  O2-  O175  1  0.86322272  0.66306669  -0.00608526  1
  O2-  O176  1  0.93019446  0.61224629  0.26471347  1
  O2-  O177  1  0.90809664  0.62357982  0.48731792  1
  O2-  O178  1  0.88253026  0.66763262  0.75204896  1
  O2-  O179  1  0.14900212  0.36322176  0.01273349  1
  O2-  O180  1  0.18710385  0.37174188  0.24781466  1
  O2-  O181  1  0.14817749  0.37614416  0.50270244  1
  O2-  O182  1  0.16822886  0.36629567  0.75914937  1
  O2-  O183  1  0.13372536  0.84030613  -0.00794583  1
  O2-  O184  1  0.11629428  0.88466607  0.25782253  1
  O2-  O185  1  0.16360595  0.88723103  0.50856062  1
  O2-  O186  1  0.13848428  0.84258507  0.74977846  1
  O2-  O187  1  0.40258740  0.40530160  -0.00386280  1
  O2-  O188  1  0.40371894  0.38184379  0.26021136  1
  O2-  O189  1  0.36224619  0.38044443  0.49966294  1
  O2-  O190  1  0.35826581  0.36793557  0.73995115  1
  O2-  O191  1  0.34496945  0.86916763  0.01578901  1
  O2-  O192  1  0.39897541  0.86537918  0.26949973  1
  O2-  O193  1  0.38224166  0.87164195  0.49122682  1
  O2-  O194  1  0.26323914  0.89623602  0.64793195  1
  O2-  O195  1  0.61134282  0.36802936  -0.00966448  1
  O2-  O196  1  0.60415533  0.36829446  0.25202153  1
  O2-  O197  1  0.52040672  0.32021863  0.48369225  1
  O2-  O198  1  0.62157608  0.36118339  0.72857317  1
  O2-  O199  1  0.65876953  0.87817910  -0.02782955  1
  O2-  O200  1  0.60025837  0.88154204  0.22389414  1
  O2-  O201  1  0.63766790  0.81015187  0.53249273  1
  O2-  O202  1  0.67095548  0.86736931  0.73768747  1
  O2-  O203  1  0.91738572  0.34432531  -0.00040361  1
  O2-  O204  1  0.86378159  0.34829202  0.25191955  1
  O2-  O205  1  0.90975474  0.37272936  0.49651830  1
  O2-  O206  1  0.83589079  0.36762356  0.76095121  1
  O2-  O207  1  0.97833417  0.88173703  0.09963854  1
  O2-  O208  1  0.94164220  0.87993446  0.26923886  1
  O2-  O209  1  0.91461268  0.88750778  0.48627770  1
  O2-  O210  1  0.86530769  0.85535526  0.73601212  1
  O2-  O211  1  -0.00929195  -0.10381956  -0.06100544  1
  O2-  O212  1  -0.02903879  0.15799948  0.12365892  1
  O2-  O213  1  0.01562151  -0.14430923  0.62270200  1
  O2-  O214  1  0.00873506  -0.08612411  0.78744710  1
  O2-  O215  1  -0.00016620  0.61034606  -0.04138603  1
  O2-  O216  1  0.01346693  0.34799660  0.15293281  1
  O2-  O217  1  0.01120387  0.64780443  0.62985535  1
  O2-  O218  1  -0.00053286  0.57620615  0.80643212  1
  O2-  O219  1  0.23977990  -0.17608126  0.14554597  1
  O2-  O220  1  0.25206845  -0.14981887  0.37547944  1
  O2-  O221  1  0.29339953  0.02245525  0.35612566  1
  O2-  O222  1  0.24398957  -0.13864532  0.86960353  1
  O2-  O223  1  0.25250255  0.65039027  0.13738219  1
  O2-  O224  1  0.26501644  0.65780229  0.38371187  1
  O2-  O225  1  0.23740124  0.48693584  0.37757454  1
  O2-  O226  1  0.26200189  0.60242317  0.61173536  1
  O2-  O227  1  0.48045448  -0.16391983  -0.08215979  1
  O2-  O228  1  0.51829497  -0.01284823  0.09686944  1
  O2-  O229  1  0.51392785  -0.13965926  0.62620100  1
  O2-  O230  1  0.38894339  -0.13622021  0.75922046  1
  O2-  O231  1  0.49079479  0.41286488  -0.15585818  1
  O2-  O232  1  0.49448272  0.56405114  0.10971065  1
  O2-  O233  1  0.51333061  0.65819181  0.62581073  1
  O2-  O234  1  0.50825376  0.60529375  0.86185204  1
  O2-  O235  1  0.76399304  -0.15305641  0.10018061  1
  O2-  O236  1  0.77888865  -0.11008773  0.26400346  1
  O2-  O237  1  0.75577023  -0.10871968  0.42288808  1
  O2-  O238  1  0.76642577  -0.09449792  0.59601504  1
  O2-  O239  1  0.74598612  0.64133882  0.11301182  1
  O2-  O240  1  0.75308478  0.60633826  0.28773652  1
  O2-  O241  1  0.74915128  0.62290888  0.44232478  1
  O2-  O242  1  0.76518057  0.63336744  0.86385597  1
