# generated using pymatgen
data_Gd19Ta56(WO20)8
_symmetry_space_group_name_H-M   'P 1'
_cell_length_a   15.51944816
_cell_length_b   15.48223862
_cell_length_c   15.33238244
_cell_angle_alpha   89.97760903
_cell_angle_beta   89.88169400
_cell_angle_gamma   90.11747065
_symmetry_Int_Tables_number   1
_chemical_formula_structural   Gd19Ta56(WO20)8
_chemical_formula_sum   'Gd19 Ta56 W8 O160'
_cell_volume   3683.98457062
_cell_formula_units_Z   1
loop_
 _symmetry_equiv_pos_site_id
 _symmetry_equiv_pos_as_xyz
  1  'x, y, z'
loop_
 _atom_type_symbol
 _atom_type_oxidation_number
  Gd3+  3.0
  Ta5+  5.0
  W6+  6.0
  O2-  -2.0
loop_
 _atom_site_type_symbol
 _atom_site_label
 _atom_site_symmetry_multiplicity
 _atom_site_fract_x
 _atom_site_fract_y
 _atom_site_fract_z
 _atom_site_occupancy
  Gd3+  Gd0  1  0.26420937  0.75076579  -0.01867615  1
  Gd3+  Gd1  1  0.76513772  0.24237347  0.00927611  1
  Gd3+  Gd2  1  0.74247236  0.24035050  0.24009733  1
  Gd3+  Gd3  1  0.01948390  0.24450253  0.50327765  1
  Gd3+  Gd4  1  0.00701240  0.73952565  0.50688505  1
  Gd3+  Gd5  1  0.27251340  0.76298082  0.51658775  1
  Gd3+  Gd6  1  0.74369577  0.76554373  0.00308537  1
  Gd3+  Gd7  1  0.47729377  0.76231003  0.72157405  1
  Gd3+  Gd8  1  0.27319527  0.25047454  0.00134501  1
  Gd3+  Gd9  1  0.75098982  0.25295645  0.75010600  1
  Gd3+  Gd10  1  0.49338939  0.24189841  0.25981909  1
  Gd3+  Gd11  1  0.50189473  0.72950740  0.24115367  1
  Gd3+  Gd12  1  0.47701416  0.24694492  0.50896381  1
  Gd3+  Gd13  1  0.52215355  0.25526168  -0.01722634  1
  Gd3+  Gd14  1  0.02881379  0.25375483  0.74803650  1
  Gd3+  Gd15  1  -0.01233516  0.24751271  0.24885276  1
  Gd3+  Gd16  1  0.26470216  0.75991770  0.26024593  1
  Gd3+  Gd17  1  0.71771624  0.75268012  0.76639164  1
  Gd3+  Gd18  1  0.03514596  0.77056857  0.73926363  1
  Ta5+  Ta19  1  0.37244599  0.61279848  0.11928052  1
  Ta5+  Ta20  1  0.13144620  0.62179104  0.37645155  1
  Ta5+  Ta21  1  0.88186707  0.64071457  0.12823699  1
  Ta5+  Ta22  1  0.90401950  0.87637376  0.88020971  1
  Ta5+  Ta23  1  0.90735228  0.86973165  0.37584513  1
  Ta5+  Ta24  1  0.86597491  0.10866392  0.38400585  1
  Ta5+  Ta25  1  0.61901601  0.87937801  0.61361686  1
  Ta5+  Ta26  1  0.38789702  0.38087885  0.12682046  1
  Ta5+  Ta27  1  0.37717580  0.61058732  0.38888009  1
  Ta5+  Ta28  1  0.62049593  0.11507858  0.86319623  1
  Ta5+  Ta29  1  0.32601551  0.37943751  0.62335536  1
  Ta5+  Ta30  1  0.87253843  0.09140617  0.12888510  1
  Ta5+  Ta31  1  0.37455560  0.12738563  0.86296654  1
  Ta5+  Ta32  1  0.36403136  0.60050617  0.63850733  1
  Ta5+  Ta33  1  0.64491368  0.12495384  0.61455897  1
  Ta5+  Ta34  1  0.84873483  0.37474456  0.39503420  1
  Ta5+  Ta35  1  0.41365998  0.87458117  0.38078623  1
  Ta5+  Ta36  1  0.14317869  0.38022323  0.62661945  1
  Ta5+  Ta37  1  0.13954649  0.87778876  0.12034358  1
  Ta5+  Ta38  1  0.12860417  0.12228944  0.88031997  1
  Ta5+  Ta39  1  0.58566117  0.63052709  0.88284050  1
  Ta5+  Ta40  1  0.61516068  0.61435727  0.37865668  1
  Ta5+  Ta41  1  0.11203270  0.62814759  0.87905197  1
  Ta5+  Ta42  1  0.62847511  0.38722353  0.12568468  1
  Ta5+  Ta43  1  0.13990646  0.12122359  0.12509915  1
  Ta5+  Ta44  1  0.57834140  0.87454176  0.88908143  1
  Ta5+  Ta45  1  0.12310148  0.37514754  0.36281170  1
  Ta5+  Ta46  1  0.14983439  0.11754762  0.62456918  1
  Ta5+  Ta47  1  0.61973194  0.11599387  0.38422423  1
  Ta5+  Ta48  1  0.63369589  0.62904075  0.61654812  1
  Ta5+  Ta49  1  0.61976445  0.11259604  0.12098545  1
  Ta5+  Ta50  1  0.88498419  0.57154476  0.88966034  1
  Ta5+  Ta51  1  0.57692545  0.87137703  0.10350140  1
  Ta5+  Ta52  1  0.33658889  0.10595174  0.36839606  1
  Ta5+  Ta53  1  0.40947161  0.86931634  0.10762675  1
  Ta5+  Ta54  1  0.87826191  0.38892240  0.13473020  1
  Ta5+  Ta55  1  0.87739619  0.38051483  0.88032907  1
  Ta5+  Ta56  1  0.39720345  0.37944801  0.85955066  1
  Ta5+  Ta57  1  0.87305570  0.61635651  0.64027054  1
  Ta5+  Ta58  1  0.14108896  0.91850971  0.37704796  1
  Ta5+  Ta59  1  0.35719957  0.37002764  0.37503133  1
  Ta5+  Ta60  1  0.88115246  0.62164720  0.37845186  1
  Ta5+  Ta61  1  0.62095612  0.61948171  0.11243678  1
  Ta5+  Ta62  1  0.41302553  0.88322098  0.88377303  1
  Ta5+  Ta63  1  0.87581261  0.11873655  0.61654837  1
  Ta5+  Ta64  1  0.41936944  0.62540639  0.88334473  1
  Ta5+  Ta65  1  0.38280981  0.93637413  0.62849616  1
  Ta5+  Ta66  1  0.89130124  0.37064185  0.62439028  1
  Ta5+  Ta67  1  0.86577659  0.87156132  0.62948681  1
  Ta5+  Ta68  1  0.12978012  0.59986028  0.63187267  1
  Ta5+  Ta69  1  0.90010174  0.89525282  0.12717645  1
  Ta5+  Ta70  1  0.37949184  0.11507883  0.12579939  1
  Ta5+  Ta71  1  0.13373153  0.11960515  0.36583373  1
  Ta5+  Ta72  1  0.12435123  0.62976632  0.12684283  1
  Ta5+  Ta73  1  0.15894804  0.94528039  0.62248611  1
  Ta5+  Ta74  1  0.31792485  0.13113233  0.61941390  1
  W6+  W75  1  0.88113538  0.12557739  0.87217994  1
  W6+  W76  1  0.64140574  0.36831006  0.39003958  1
  W6+  W77  1  0.13920715  0.37570634  0.10947440  1
  W6+  W78  1  0.64798249  0.39455143  0.86603938  1
  W6+  W79  1  0.15265903  0.88569608  0.86313938  1
  W6+  W80  1  0.57455945  0.87284695  0.36866792  1
  W6+  W81  1  0.62575314  0.38479426  0.61656826  1
  W6+  W82  1  0.11440315  0.38443495  0.89745036  1
  O2-  O83  1  0.16601677  -0.00359392  0.13519986  1
  O2-  O84  1  0.05902490  0.00944807  0.36947060  1
  O2-  O85  1  0.05780936  0.01179708  0.61453140  1
  O2-  O86  1  0.09641214  0.00726434  0.86789127  1
  O2-  O87  1  0.13054638  0.51398000  0.12371725  1
  O2-  O88  1  0.12912081  0.49880990  0.35742005  1
  O2-  O89  1  0.07365551  0.49421467  0.62303114  1
  O2-  O90  1  0.15055738  0.51709826  0.88122384  1
  O2-  O91  1  0.38476532  -0.00462814  0.12013093  1
  O2-  O92  1  0.38868044  -0.00831408  0.36804962  1
  O2-  O93  1  0.42905067  0.04541132  0.62566867  1
  O2-  O94  1  0.39574420  0.00936240  0.88006451  1
  O2-  O95  1  0.33311572  0.49075019  0.13341357  1
  O2-  O96  1  0.33986188  0.49476159  0.36977948  1
  O2-  O97  1  0.40366194  0.48845759  0.62007306  1
  O2-  O98  1  0.39942421  0.49671190  0.88774970  1
  O2-  O99  1  0.60579370  -0.00420026  0.13114194  1
  O2-  O100  1  0.58332214  0.00738675  0.35922893  1
  O2-  O101  1  0.64113497  -0.00242481  0.63245669  1
  O2-  O102  1  0.60972010  -0.00392368  0.85730291  1
  O2-  O103  1  0.66455469  0.50366389  0.13860759  1
  O2-  O104  1  0.65432847  0.50237017  0.37190854  1
  O2-  O105  1  0.59449607  0.51703311  0.61808993  1
  O2-  O106  1  0.59707041  0.51328178  0.86354482  1
  O2-  O107  1  0.80987637  -0.02085839  0.14164581  1
  O2-  O108  1  0.85692119  -0.01769278  0.39599260  1
  O2-  O109  1  0.86136850  -0.00926746  0.62059247  1
  O2-  O110  1  0.88927561  -0.00831750  0.86886188  1
  O2-  O111  1  0.88019920  0.50764032  0.12648318  1
  O2-  O112  1  0.86590360  0.50117780  0.38697686  1
  O2-  O113  1  0.87550580  0.49716116  0.62935290  1
  O2-  O114  1  0.79122353  0.47062122  0.88205236  1
  O2-  O115  1  0.17175937  0.24015185  0.11763344  1
  O2-  O116  1  0.07842989  0.24248032  0.36754465  1
  O2-  O117  1  0.11282358  0.25452611  0.62022293  1
  O2-  O118  1  0.08658896  0.24523733  0.88336331  1
  O2-  O119  1  0.18702370  0.75727682  0.13017395  1
  O2-  O120  1  0.18314105  0.74110756  0.39101641  1
  O2-  O121  1  0.10514868  0.72718988  0.61264363  1
  O2-  O122  1  0.17498026  0.73767054  0.85544010  1
  O2-  O123  1  0.35581419  0.25670288  0.13793423  1
  O2-  O124  1  0.39851119  0.24216537  0.37728982  1
  O2-  O125  1  0.34852906  0.25566786  0.61544376  1
  O2-  O126  1  0.35265759  0.25858241  0.87141561  1
  O2-  O127  1  0.36502308  0.74353348  0.11885616  1
  O2-  O128  1  0.36428658  0.74522307  0.39355521  1
  O2-  O129  1  0.37462436  0.72794554  0.62172119  1
  O2-  O130  1  0.39019479  0.75125491  0.87630422  1
  O2-  O131  1  0.63466635  0.25159555  0.09483949  1
  O2-  O132  1  0.57632865  0.23674254  0.38805792  1
  O2-  O133  1  0.63515473  0.24793509  0.62346662  1
  O2-  O134  1  0.66806108  0.24471404  0.88286767  1
  O2-  O135  1  0.62459740  0.74844049  0.10361442  1
  O2-  O136  1  0.56428449  0.73775318  0.37451443  1
  O2-  O137  1  0.58413540  0.74347179  0.61302049  1
  O2-  O138  1  0.63346624  0.75488382  0.89383932  1
  O2-  O139  1  0.87347997  0.23506497  0.15161246  1
  O2-  O140  1  0.88707767  0.24406563  0.37298513  1
  O2-  O141  1  0.92147335  0.24102523  0.62017895  1
  O2-  O142  1  0.83988023  0.25748113  0.87529381  1
  O2-  O143  1  0.84996886  0.76157817  0.12424139  1
  O2-  O144  1  0.86177663  0.75590590  0.38671547  1
  O2-  O145  1  0.92337399  0.73960830  0.64088491  1
  O2-  O146  1  0.81012839  0.79485536  0.86908961  1
  O2-  O147  1  0.10180775  0.11735082  0.00973991  1
  O2-  O148  1  0.08388953  0.12745370  0.23897670  1
  O2-  O149  1  0.13607810  0.13185659  0.48956856  1
  O2-  O150  1  0.13198509  0.14138566  0.75283411  1
  O2-  O151  1  0.14713207  0.65253684  0.00390396  1
  O2-  O152  1  0.16018330  0.64403787  0.24986609  1
  O2-  O153  1  0.13925242  0.61032168  0.50103403  1
  O2-  O154  1  0.08097389  0.62796656  0.75093321  1
  O2-  O155  1  0.39384495  0.14873769  0.00091938  1
  O2-  O156  1  0.39803803  0.12081289  0.25564742  1
  O2-  O157  1  0.35018788  0.12702408  0.48883944  1
  O2-  O158  1  0.34051498  0.12597163  0.74609453  1
  O2-  O159  1  0.34591819  0.62252479  -0.00242663  1
  O2-  O160  1  0.37197249  0.63801543  0.25809460  1
  O2-  O161  1  0.32928517  0.61642206  0.50442306  1
  O2-  O162  1  0.41493726  0.62136310  0.75139198  1
  O2-  O163  1  0.61887309  0.11656365  -0.00728929  1
  O2-  O164  1  0.62245101  0.14682894  0.25147635  1
  O2-  O165  1  0.57695092  0.11869637  0.50720666  1
  O2-  O166  1  0.66805097  0.12865455  0.74543188  1
  O2-  O167  1  0.66283466  0.62347424  -0.00415417  1
  O2-  O168  1  0.61673142  0.63448284  0.24946431  1
  O2-  O169  1  0.66260937  0.63725686  0.49218218  1
  O2-  O170  1  0.60482093  0.65432057  0.75056896  1
  O2-  O171  1  0.86884129  0.12908506  0.01150210  1
  O2-  O172  1  0.89435152  0.10572893  0.26183974  1
  O2-  O173  1  0.93012234  0.11645500  0.49161959  1
  O2-  O174  1  0.85632517  0.13613891  0.73726252  1
  O2-  O175  1  0.84820831  0.62726384  0.00122784  1
  O2-  O176  1  0.86318042  0.63086064  0.25313751  1
  O2-  O177  1  0.89771899  0.63498295  0.51116530  1
  O2-  O178  1  0.86715444  0.61556220  0.77534184  1
  O2-  O179  1  0.04974738  0.38210190  0.01661035  1
  O2-  O180  1  0.08989705  0.35783783  0.24254063  1
  O2-  O181  1  0.10447495  0.36811157  0.48656673  1
  O2-  O182  1  0.12010637  0.37099850  0.75121671  1
  O2-  O183  1  0.16442688  0.86976043  0.00095636  1
  O2-  O184  1  0.16317884  0.87309274  0.26050268  1
  O2-  O185  1  0.17382820  0.89308759  0.49603375  1
  O2-  O186  1  0.12048201  0.88689429  0.72672944  1
  O2-  O187  1  0.40019680  0.35315747  0.00054056  1
  O2-  O188  1  0.41068984  0.37010741  0.26036197  1
  O2-  O189  1  0.38348445  0.36672782  0.49515534  1
  O2-  O190  1  0.34250676  0.38645762  0.74940338  1
  O2-  O191  1  0.34463118  0.86986927  -0.00467654  1
  O2-  O192  1  0.38924135  0.84728020  0.25085798  1
  O2-  O193  1  0.36499878  0.87911014  0.50757820  1
  O2-  O194  1  0.37930950  0.88624771  0.74607995  1
  O2-  O195  1  0.62214756  0.38172098  0.00058982  1
  O2-  O196  1  0.60949448  0.33594139  0.24380311  1
  O2-  O197  1  0.56354108  0.36326463  0.50290760  1
  O2-  O198  1  0.68456613  0.37980824  0.73519563  1
  O2-  O199  1  0.66531195  0.88480015  -0.00119514  1
  O2-  O200  1  0.57295068  0.85523734  0.22992969  1
  O2-  O201  1  0.63029909  0.87790484  0.49511494  1
  O2-  O202  1  0.60731122  0.84847220  0.75477216  1
  O2-  O203  1  0.86898284  0.35745522  0.00943462  1
  O2-  O204  1  0.91154575  0.37688359  0.25580353  1
  O2-  O205  1  0.92633991  0.36643599  0.49870101  1
  O2-  O206  1  0.89903892  0.35922750  0.75187749  1
  O2-  O207  1  0.87849785  0.87285607  0.00460732  1
  O2-  O208  1  0.90738894  0.87660996  0.25441339  1
  O2-  O209  1  0.91931030  0.85751324  0.51740723  1
  O2-  O210  1  0.91559110  0.86743719  0.74300638  1
  O2-  O211  1  -0.03506968  0.00828222  0.11625654  1
  O2-  O212  1  0.02319968  -0.14994025  0.12237723  1
  O2-  O213  1  0.02853499  -0.15655654  0.38976200  1
  O2-  O214  1  0.01616372  -0.16898463  0.88107998  1
  O2-  O215  1  -0.00667809  0.64143905  -0.09493825  1
  O2-  O216  1  0.00342249  0.65346676  0.12695618  1
  O2-  O217  1  0.00863947  0.64547393  0.37444934  1
  O2-  O218  1  -0.03778766  0.47531541  0.87842745  1
  O2-  O219  1  0.24883208  0.12575746  -0.09699619  1
  O2-  O220  1  0.23888835  0.17332338  0.32672577  1
  O2-  O221  1  0.22448226  0.01791218  0.37044804  1
  O2-  O222  1  0.27071299  0.00216387  0.59393817  1
  O2-  O223  1  0.21100533  0.37653912  -0.00975241  1
  O2-  O224  1  0.24031269  0.34524801  0.36023504  1
  O2-  O225  1  0.23626325  0.44333062  0.56620668  1
  O2-  O226  1  0.24374222  0.59956888  0.67180949  1
  O2-  O227  1  0.49867029  -0.09699177  -0.00083421  1
  O2-  O228  1  0.50248577  0.16079061  0.12637934  1
  O2-  O229  1  0.49608518  -0.11791445  0.62161897  1
  O2-  O230  1  0.50341856  0.15713063  0.85901246  1
  O2-  O231  1  0.49620831  0.61729337  0.11944119  1
  O2-  O232  1  0.50545775  0.41141832  0.12550365  1
  O2-  O233  1  0.49405248  0.58392478  0.40209825  1
  O2-  O234  1  0.51512457  0.34502806  0.85954022  1
  O2-  O235  1  0.74504926  0.13226198  0.12931018  1
  O2-  O236  1  0.74588621  0.13371575  0.37431185  1
  O2-  O237  1  0.76121054  0.13278231  0.57177206  1
  O2-  O238  1  0.74782410  -0.16108907  0.64150314  1
  O2-  O239  1  0.75731549  0.35694159  0.13642544  1
  O2-  O240  1  0.75533750  0.36120795  0.31332089  1
  O2-  O241  1  0.75606367  0.36720320  0.47549817  1
  O2-  O242  1  0.75338208  0.65196785  0.64743981  1
