# generated using pymatgen
data_Gd19Ta56(WO20)8
_symmetry_space_group_name_H-M   'P 1'
_cell_length_a   15.55005519
_cell_length_b   15.53535868
_cell_length_c   15.21743759
_cell_angle_alpha   90.15758421
_cell_angle_beta   89.78663365
_cell_angle_gamma   89.86034537
_symmetry_Int_Tables_number   1
_chemical_formula_structural   Gd19Ta56(WO20)8
_chemical_formula_sum   'Gd19 Ta56 W8 O160'
_cell_volume   3676.11250133
_cell_formula_units_Z   1
loop_
 _symmetry_equiv_pos_site_id
 _symmetry_equiv_pos_as_xyz
  1  'x, y, z'
loop_
 _atom_type_symbol
 _atom_type_oxidation_number
  Gd3+  3.0
  Ta5+  5.0
  W6+  6.0
  O2-  -2.0
loop_
 _atom_site_type_symbol
 _atom_site_label
 _atom_site_symmetry_multiplicity
 _atom_site_fract_x
 _atom_site_fract_y
 _atom_site_fract_z
 _atom_site_occupancy
  Gd3+  Gd0  1  0.75544225  0.75674474  0.46892188  1
  Gd3+  Gd1  1  0.46430746  0.26018983  0.01143899  1
  Gd3+  Gd2  1  0.74123729  0.74923155  0.00471754  1
  Gd3+  Gd3  1  0.74107918  0.24890404  0.74489009  1
  Gd3+  Gd4  1  0.01305803  0.74486811  0.48941951  1
  Gd3+  Gd5  1  0.73717645  0.74461097  0.73637292  1
  Gd3+  Gd6  1  0.00278064  0.73591979  0.01681801  1
  Gd3+  Gd7  1  0.26841495  0.27909268  0.48899264  1
  Gd3+  Gd8  1  0.48482727  0.75942913  0.75359319  1
  Gd3+  Gd9  1  0.24359311  0.75553024  0.73531422  1
  Gd3+  Gd10  1  0.05562085  0.76633408  0.26379887  1
  Gd3+  Gd11  1  0.75783863  0.22798433  0.24706839  1
  Gd3+  Gd12  1  -0.01609829  0.26035928  0.77489293  1
  Gd3+  Gd13  1  -0.00740993  0.23918163  0.21278397  1
  Gd3+  Gd14  1  0.70679713  0.75267866  0.24999079  1
  Gd3+  Gd15  1  0.25385776  0.73552935  0.46599202  1
  Gd3+  Gd16  1  0.23223982  0.25113598  0.24312488  1
  Gd3+  Gd17  1  0.51206674  0.26063763  0.49796496  1
  Gd3+  Gd18  1  0.23965232  0.23936809  0.00233296  1
  Ta5+  Ta19  1  0.63314363  0.38583334  0.62951118  1
  Ta5+  Ta20  1  0.39223301  0.11713488  0.13940434  1
  Ta5+  Ta21  1  0.13287045  0.38037636  0.62001508  1
  Ta5+  Ta22  1  0.59252998  0.87628503  0.60602806  1
  Ta5+  Ta23  1  0.61168359  0.12080463  0.37596202  1
  Ta5+  Ta24  1  0.34544640  0.45122026  0.12176384  1
  Ta5+  Ta25  1  0.61837180  0.88515997  0.12590276  1
  Ta5+  Ta26  1  0.08161138  0.14945855  0.38244536  1
  Ta5+  Ta27  1  0.37758519  0.61119399  0.63345039  1
  Ta5+  Ta28  1  0.87648264  0.12746015  0.06654799  1
  Ta5+  Ta29  1  0.12522087  0.61895528  0.61458969  1
  Ta5+  Ta30  1  0.87507843  0.88625139  0.12959483  1
  Ta5+  Ta31  1  0.34916353  0.37683511  0.68099508  1
  Ta5+  Ta32  1  0.87245155  0.37782653  0.11277603  1
  Ta5+  Ta33  1  0.37362346  0.88818173  0.60347700  1
  Ta5+  Ta34  1  0.88286625  0.63272981  0.86499604  1
  Ta5+  Ta35  1  0.12839797  0.88651018  0.62357785  1
  Ta5+  Ta36  1  0.58298552  0.87649862  0.38279539  1
  Ta5+  Ta37  1  0.63070361  0.11766755  0.62691985  1
  Ta5+  Ta38  1  0.41892289  0.87644938  0.39352826  1
  Ta5+  Ta39  1  0.83864574  0.39027100  0.87469624  1
  Ta5+  Ta40  1  0.17952148  0.86861188  0.08097079  1
  Ta5+  Ta41  1  0.38098480  0.12282021  0.36126033  1
  Ta5+  Ta42  1  0.06832209  0.36825194  0.37767723  1
  Ta5+  Ta43  1  0.16497400  0.37942106  0.85988632  1
  Ta5+  Ta44  1  0.87828846  0.12401176  0.62533134  1
  Ta5+  Ta45  1  0.60365017  0.61778327  0.88084976  1
  Ta5+  Ta46  1  0.91889907  0.56302859  0.38363258  1
  Ta5+  Ta47  1  0.36358357  0.87745100  0.91178119  1
  Ta5+  Ta48  1  0.15084457  0.61095614  0.12923316  1
  Ta5+  Ta49  1  0.12209081  0.10455794  0.11967508  1
  Ta5+  Ta50  1  0.12598241  0.86980125  0.87291281  1
  Ta5+  Ta51  1  0.36884534  0.12675335  0.62695881  1
  Ta5+  Ta52  1  0.87854383  0.38979234  0.62358120  1
  Ta5+  Ta53  1  0.35545006  0.63286762  0.88825165  1
  Ta5+  Ta54  1  0.88478380  0.91105168  0.36546518  1
  Ta5+  Ta55  1  0.41118766  0.87825857  0.15253551  1
  Ta5+  Ta56  1  0.11639120  0.38085406  0.11745354  1
  Ta5+  Ta57  1  0.91354519  0.12944756  0.37211314  1
  Ta5+  Ta58  1  0.13083885  0.13211365  0.62384569  1
  Ta5+  Ta59  1  0.37937620  0.65312220  0.13563887  1
  Ta5+  Ta60  1  0.58613322  0.61968477  0.37321181  1
  Ta5+  Ta61  1  0.59635346  0.62215843  0.58292567  1
  Ta5+  Ta62  1  0.88254717  0.87655553  0.62246429  1
  Ta5+  Ta63  1  0.12910106  0.62463053  0.86983763  1
  Ta5+  Ta64  1  0.10517655  0.94687067  0.38353052  1
  Ta5+  Ta65  1  0.63308945  0.38133179  0.88050304  1
  Ta5+  Ta66  1  0.61143204  0.87833330  0.87787059  1
  Ta5+  Ta67  1  0.58898627  0.12907004  0.13013898  1
  Ta5+  Ta68  1  0.85811838  0.10919998  0.87156721  1
  Ta5+  Ta69  1  0.40598665  0.37934104  0.34905428  1
  Ta5+  Ta70  1  0.88034140  0.62416236  0.14441876  1
  Ta5+  Ta71  1  0.90036304  0.35050057  0.37912771  1
  Ta5+  Ta72  1  0.62928809  0.61182087  0.12126599  1
  Ta5+  Ta73  1  0.12250442  0.57048963  0.38295554  1
  Ta5+  Ta74  1  0.64360324  0.37749168  0.37016849  1
  W6+  W75  1  0.87599713  0.63359730  0.60145479  1
  W6+  W76  1  0.32664309  0.38291716  0.88599981  1
  W6+  W77  1  0.36469501  0.11215466  0.87796328  1
  W6+  W78  1  0.13065644  0.12088060  0.86733453  1
  W6+  W79  1  0.86994931  0.86361418  0.87148620  1
  W6+  W80  1  0.63373271  0.12655751  0.88467411  1
  W6+  W81  1  0.42330930  0.62643706  0.38362658  1
  W6+  W82  1  0.63222422  0.36281359  0.11954591  1
  O2-  O83  1  0.13934064  -0.02277022  0.12065362  1
  O2-  O84  1  0.17350191  0.04305600  0.38557473  1
  O2-  O85  1  0.10545677  0.00292178  0.63562636  1
  O2-  O86  1  0.12294184  -0.01309517  0.86356079  1
  O2-  O87  1  0.09483673  0.50334193  0.12807711  1
  O2-  O88  1  0.17756651  0.46509423  0.37182164  1
  O2-  O89  1  0.10943334  0.50175514  0.63700169  1
  O2-  O90  1  0.14019041  0.50440187  0.85568069  1
  O2-  O91  1  0.41875829  -0.00095276  0.16701361  1
  O2-  O92  1  0.39768017  0.00848973  0.38750614  1
  O2-  O93  1  0.39477238  0.00977393  0.59601335  1
  O2-  O94  1  0.35423688  -0.02374857  0.85037647  1
  O2-  O95  1  0.42979565  0.54177770  0.10226575  1
  O2-  O96  1  0.39629557  0.49433324  0.37246038  1
  O2-  O97  1  0.38938128  0.48902673  0.63611179  1
  O2-  O98  1  0.33628338  0.51846272  0.89450002  1
  O2-  O99  1  0.60530918  0.00545599  0.12238820  1
  O2-  O100  1  0.60111442  0.00060260  0.38486803  1
  O2-  O101  1  0.62492341  -0.00773543  0.62404066  1
  O2-  O102  1  0.62122620  -0.00509961  0.87255861  1
  O2-  O103  1  0.61648507  0.49579643  0.11927057  1
  O2-  O104  1  0.62629635  0.49843306  0.36981785  1
  O2-  O105  1  0.62703428  0.51250097  0.62283757  1
  O2-  O106  1  0.58422818  0.49821269  0.87976199  1
  O2-  O107  1  0.87121627  0.00300807  0.09930673  1
  O2-  O108  1  0.83063946  0.01670089  0.36806890  1
  O2-  O109  1  0.88435270  -0.00297503  0.62798178  1
  O2-  O110  1  0.88633313  -0.00431369  0.87986560  1
  O2-  O111  1  0.87659143  0.50127065  0.12863709  1
  O2-  O112  1  0.84348979  0.47221075  0.38815073  1
  O2-  O113  1  0.90615117  0.50234845  0.60332202  1
  O2-  O114  1  0.85773265  0.51622763  0.87608822  1
  O2-  O115  1  0.13510688  0.24209849  0.11146753  1
  O2-  O116  1  0.15525902  0.25822406  0.39004523  1
  O2-  O117  1  0.16547008  0.25293510  0.60585239  1
  O2-  O118  1  0.13788297  0.25807388  0.87909081  1
  O2-  O119  1  0.13019476  0.75605073  0.12831422  1
  O2-  O120  1  0.12204450  0.71731729  0.39146098  1
  O2-  O121  1  0.16134673  0.74987445  0.59096806  1
  O2-  O122  1  0.17313444  0.74422157  0.87675316  1
  O2-  O123  1  0.32890055  0.23033703  0.12428329  1
  O2-  O124  1  0.33760738  0.26612516  0.34307829  1
  O2-  O125  1  0.36128159  0.26271057  0.63108360  1
  O2-  O126  1  0.35960968  0.24627513  0.91088504  1
  O2-  O127  1  0.44361557  0.75533599  0.12975561  1
  O2-  O128  1  0.39993562  0.75365281  0.41381187  1
  O2-  O129  1  0.37189118  0.75707544  0.64284250  1
  O2-  O130  1  0.35349922  0.76918432  0.84076076  1
  O2-  O131  1  0.66119469  0.23157181  0.12808873  1
  O2-  O132  1  0.65580391  0.24526169  0.38880203  1
  O2-  O133  1  0.63112519  0.25426929  0.62020522  1
  O2-  O134  1  0.64853465  0.25890431  0.86157396  1
  O2-  O135  1  0.62854354  0.74934362  0.11334207  1
  O2-  O136  1  0.62196124  0.74692872  0.37875993  1
  O2-  O137  1  0.61298839  0.74470907  0.62135828  1
  O2-  O138  1  0.63385862  0.74828782  0.88970302  1
  O2-  O139  1  0.85080325  0.24327398  0.10591327  1
  O2-  O140  1  0.84740367  0.23511252  0.37705636  1
  O2-  O141  1  0.87773025  0.25215452  0.65682235  1
  O2-  O142  1  0.84945011  0.26114746  0.85143656  1
  O2-  O143  1  0.93153650  0.75023061  0.15296268  1
  O2-  O144  1  0.80136029  0.82443094  0.33811086  1
  O2-  O145  1  0.81011465  0.76472714  0.60600171  1
  O2-  O146  1  0.80720467  0.73543109  0.87194192  1
  O2-  O147  1  0.17277349  0.11033812  0.00343889  1
  O2-  O148  1  0.11711619  0.13924893  0.24772188  1
  O2-  O149  1  0.08107036  0.13230178  0.51221775  1
  O2-  O150  1  0.08530022  0.15469588  0.73731432  1
  O2-  O151  1  0.11940085  0.63133654  0.00678278  1
  O2-  O152  1  0.12263215  0.62491461  0.25341776  1
  O2-  O153  1  0.17852794  0.60104081  0.49658683  1
  O2-  O154  1  0.13556847  0.64853105  0.73844990  1
  O2-  O155  1  0.38626228  0.10664275  0.01350462  1
  O2-  O156  1  0.31322514  0.11778194  0.25600951  1
  O2-  O157  1  0.36922259  0.16353511  0.49075172  1
  O2-  O158  1  0.40417211  0.12484205  0.74046823  1
  O2-  O159  1  0.33965449  0.66967263  0.00480251  1
  O2-  O160  1  0.37041596  0.64466982  0.25640727  1
  O2-  O161  1  0.34288380  0.62862531  0.51752602  1
  O2-  O162  1  0.32504812  0.62771373  0.74945215  1
  O2-  O163  1  0.56700910  0.14665749  0.00490297  1
  O2-  O164  1  0.64825273  0.12001013  0.25456619  1
  O2-  O165  1  0.57556222  0.12744730  0.51298499  1
  O2-  O166  1  0.59400784  0.13148807  0.74085065  1
  O2-  O167  1  0.67024598  0.61790870  -0.00956809  1
  O2-  O168  1  0.60687923  0.63068462  0.24743964  1
  O2-  O169  1  0.67581167  0.63182408  0.48666545  1
  O2-  O170  1  0.65783906  0.62432453  0.77177653  1
  O2-  O171  1  0.94208770  0.15224322  -0.03947075  1
  O2-  O172  1  0.88391292  0.13833218  0.24099989  1
  O2-  O173  1  0.90282338  0.12845606  0.50708797  1
  O2-  O174  1  0.91623254  0.12388310  0.75416576  1
  O2-  O175  1  0.87613031  0.65053351  0.00894776  1
  O2-  O176  1  0.90381251  0.61997629  0.27088183  1
  O2-  O177  1  0.87331961  0.66520281  0.45258046  1
  O2-  O178  1  0.86140877  0.64087848  0.74356794  1
  O2-  O179  1  0.14709003  0.38306877  -0.00702681  1
  O2-  O180  1  0.09909317  0.34597474  0.24857310  1
  O2-  O181  1  0.07937134  0.37763993  0.50972749  1
  O2-  O182  1  0.08911331  0.35692501  0.73923284  1
  O2-  O183  1  0.07814142  0.85701149  -0.00502365  1
  O2-  O184  1  0.13725626  0.88225768  0.28439493  1
  O2-  O185  1  0.13480730  0.88759820  0.49144873  1
  O2-  O186  1  0.11562063  0.84663665  0.74575528  1
  O2-  O187  1  0.37608598  0.38345917  0.02483393  1
  O2-  O188  1  0.39447468  0.39679158  0.21885421  1
  O2-  O189  1  0.39893939  0.34863929  0.47473915  1
  O2-  O190  1  0.41885530  0.37123160  0.77724920  1
  O2-  O191  1  0.41141371  0.89637036  0.02055043  1
  O2-  O192  1  0.39085878  0.86242774  0.27581929  1
  O2-  O193  1  0.32023526  0.87303532  0.49236975  1
  O2-  O194  1  0.25747206  0.89234998  0.65446408  1
  O2-  O195  1  0.57036377  0.35337086  -0.01089683  1
  O2-  O196  1  0.68453523  0.36156004  0.25243791  1
  O2-  O197  1  0.59734137  0.37770468  0.50444685  1
  O2-  O198  1  0.59030930  0.37935480  0.74339063  1
  O2-  O199  1  0.66247480  0.87704151  -0.00270721  1
  O2-  O200  1  0.61311823  0.87115512  0.25506142  1
  O2-  O201  1  0.66211089  0.86755870  0.50036948  1
  O2-  O202  1  0.63074564  0.85218835  0.74898977  1
  O2-  O203  1  0.89196830  0.37720494  -0.01340359  1
  O2-  O204  1  0.87597017  0.34709723  0.24308105  1
  O2-  O205  1  0.89869648  0.34856438  0.50935346  1
  O2-  O206  1  0.90800607  0.39074793  0.75409134  1
  O2-  O207  1  0.88657860  0.83790652  0.01237177  1
  O2-  O208  1  0.93205962  0.89951082  0.24068535  1
  O2-  O209  1  0.86557831  0.87596339  0.49173582  1
  O2-  O210  1  0.83215648  0.86451930  0.73662564  1
  O2-  O211  1  0.00264381  0.11961172  0.11200488  1
  O2-  O212  1  -0.00034600  0.01423647  0.37418407  1
  O2-  O213  1  -0.00272004  -0.15501641  0.38608825  1
  O2-  O214  1  0.00219455  -0.15262723  0.60627950  1
  O2-  O215  1  -0.00493255  0.35106141  0.11302739  1
  O2-  O216  1  0.02034103  0.49386313  0.33617132  1
  O2-  O217  1  0.01924051  0.59674829  0.46059192  1
  O2-  O218  1  0.00286050  0.65135122  0.87514930  1
  O2-  O219  1  0.23994469  -0.12457054  -0.03609698  1
  O2-  O220  1  0.28433236  -0.14329282  0.13639046  1
  O2-  O221  1  0.24985106  0.10374556  0.62575750  1
  O2-  O222  1  0.25265848  0.12896636  0.82281490  1
  O2-  O223  1  0.26501673  0.56245836  0.12998659  1
  O2-  O224  1  0.23812318  0.38692140  0.15184739  1
  O2-  O225  1  0.25092536  0.39668780  0.58288811  1
  O2-  O226  1  0.24989006  0.37788821  0.75488579  1
  O2-  O227  1  0.49098333  -0.14283984  -0.12829294  1
  O2-  O228  1  0.49609793  0.17184860  0.36270401  1
  O2-  O229  1  0.49982648  -0.12420800  0.51336797  1
  O2-  O230  1  0.48086987  -0.11761914  0.67759390  1
  O2-  O231  1  0.48315985  0.64944842  -0.13286775  1
  O2-  O232  1  0.52273752  0.35052815  0.34383504  1
  O2-  O233  1  0.51325229  0.60090914  0.49535720  1
  O2-  O234  1  0.49401442  0.63267814  0.67025727  1
  O2-  O235  1  0.78301018  0.11723609  -0.01518883  1
  O2-  O236  1  0.75692897  -0.14055047  0.14673774  1
  O2-  O237  1  0.75409973  0.12577191  0.62568080  1
  O2-  O238  1  0.75040680  0.11765485  0.80895559  1
  O2-  O239  1  0.73156408  0.40301070  -0.04733767  1
  O2-  O240  1  0.75652647  0.64325888  0.14534433  1
  O2-  O241  1  0.75493728  0.38425849  0.62225218  1
  O2-  O242  1  0.73928550  0.38978108  0.79347769  1
