# generated using pymatgen
data_Gd19Ta56(WO20)8
_symmetry_space_group_name_H-M   'P 1'
_cell_length_a   15.47707855
_cell_length_b   15.41773950
_cell_length_c   15.32324594
_cell_angle_alpha   90.07348296
_cell_angle_beta   90.09647996
_cell_angle_gamma   90.18710223
_symmetry_Int_Tables_number   1
_chemical_formula_structural   Gd19Ta56(WO20)8
_chemical_formula_sum   'Gd19 Ta56 W8 O160'
_cell_volume   3656.42921872
_cell_formula_units_Z   1
loop_
 _symmetry_equiv_pos_site_id
 _symmetry_equiv_pos_as_xyz
  1  'x, y, z'
loop_
 _atom_type_symbol
 _atom_type_oxidation_number
  Gd3+  3.0
  Ta5+  5.0
  W6+  6.0
  O2-  -2.0
loop_
 _atom_site_type_symbol
 _atom_site_label
 _atom_site_symmetry_multiplicity
 _atom_site_fract_x
 _atom_site_fract_y
 _atom_site_fract_z
 _atom_site_occupancy
  Gd3+  Gd0  1  0.24111723  0.25906355  0.51914990  1
  Gd3+  Gd1  1  0.75200233  0.71824439  0.23866263  1
  Gd3+  Gd2  1  0.49132377  0.76165317  0.26189955  1
  Gd3+  Gd3  1  0.48509769  0.75388731  0.52411505  1
  Gd3+  Gd4  1  -0.01114420  0.74360485  0.25056737  1
  Gd3+  Gd5  1  0.51659541  0.26870260  0.75627955  1
  Gd3+  Gd6  1  0.77515428  0.27806929  0.01709188  1
  Gd3+  Gd7  1  -0.01179705  0.73559559  0.74862119  1
  Gd3+  Gd8  1  0.25197788  0.76008270  0.00927029  1
  Gd3+  Gd9  1  0.03454689  0.26176775  0.27408740  1
  Gd3+  Gd10  1  0.49796860  0.25656168  0.01366764  1
  Gd3+  Gd11  1  -0.02705573  0.73611028  0.51038607  1
  Gd3+  Gd12  1  0.01106910  0.27521738  -0.00591427  1
  Gd3+  Gd13  1  0.76959687  0.23556586  0.50655597  1
  Gd3+  Gd14  1  0.50773391  0.24503218  0.51979281  1
  Gd3+  Gd15  1  0.23349225  0.76375473  0.77055002  1
  Gd3+  Gd16  1  0.75342702  0.21717130  0.24567293  1
  Gd3+  Gd17  1  0.25157711  0.22959789  0.00835102  1
  Gd3+  Gd18  1  0.21264573  0.74861760  0.24063719  1
  Ta5+  Ta19  1  0.65074709  0.87188135  0.11321513  1
  Ta5+  Ta20  1  0.84285292  0.86538321  0.37937103  1
  Ta5+  Ta21  1  0.63927172  0.58740646  0.62249220  1
  Ta5+  Ta22  1  0.14655960  0.38334178  0.87400799  1
  Ta5+  Ta23  1  0.92990279  0.36464298  0.62901513  1
  Ta5+  Ta24  1  0.62833520  0.37874749  0.38499482  1
  Ta5+  Ta25  1  0.92290310  0.59700378  0.87939432  1
  Ta5+  Ta26  1  0.39028386  0.08176581  0.63772804  1
  Ta5+  Ta27  1  0.39899236  0.93311585  0.12384394  1
  Ta5+  Ta28  1  0.09034346  0.62409826  0.89815607  1
  Ta5+  Ta29  1  0.88039254  0.11235484  0.90448485  1
  Ta5+  Ta30  1  0.64394611  0.12105114  0.89160600  1
  Ta5+  Ta31  1  0.60826746  0.39777638  0.14698795  1
  Ta5+  Ta32  1  0.90166357  0.07263874  0.36743891  1
  Ta5+  Ta33  1  0.08485047  0.12455714  0.12883296  1
  Ta5+  Ta34  1  0.60793523  0.62280001  0.86175550  1
  Ta5+  Ta35  1  0.11718873  0.12552842  0.63777262  1
  Ta5+  Ta36  1  0.13499917  0.12664931  0.86806337  1
  Ta5+  Ta37  1  0.38054038  0.61698928  0.13367326  1
  Ta5+  Ta38  1  0.84502254  0.59864306  0.63445119  1
  Ta5+  Ta39  1  0.34895007  0.89006203  0.63003442  1
  Ta5+  Ta40  1  0.38566815  0.12308814  0.14453372  1
  Ta5+  Ta41  1  0.14245161  0.62531957  0.63901731  1
  Ta5+  Ta42  1  0.60328063  0.10316494  0.12858256  1
  Ta5+  Ta43  1  0.37881305  0.37761828  0.38360369  1
  Ta5+  Ta44  1  0.16693866  0.37731973  0.13133557  1
  Ta5+  Ta45  1  0.10757604  0.87747072  0.62372346  1
  Ta5+  Ta46  1  0.36000625  0.62573115  0.39079697  1
  Ta5+  Ta47  1  0.59634866  0.64068851  0.11260129  1
  Ta5+  Ta48  1  0.88502449  0.12304163  0.66422905  1
  Ta5+  Ta49  1  0.92176068  0.86216163  0.89592823  1
  Ta5+  Ta50  1  0.63670611  0.12380724  0.63985586  1
  Ta5+  Ta51  1  0.14819980  0.62791677  0.42036671  1
  Ta5+  Ta52  1  0.86503481  0.35545856  0.81657817  1
  Ta5+  Ta53  1  0.36038216  0.39554719  0.64035177  1
  Ta5+  Ta54  1  0.89048754  0.37556609  0.38539639  1
  Ta5+  Ta55  1  0.10817871  0.38162819  0.63195385  1
  Ta5+  Ta56  1  0.37905082  0.88111790  0.88163335  1
  Ta5+  Ta57  1  0.91751833  0.10550750  0.13436753  1
  Ta5+  Ta58  1  0.10065531  0.88178818  0.88492698  1
  Ta5+  Ta59  1  0.85413846  0.86623046  0.10925392  1
  Ta5+  Ta60  1  0.09013743  0.87871633  0.09698133  1
  Ta5+  Ta61  1  0.36162128  0.12433311  0.39214008  1
  Ta5+  Ta62  1  0.36019256  0.37655293  0.88456348  1
  Ta5+  Ta63  1  0.36298948  0.61986595  0.87804458  1
  Ta5+  Ta64  1  0.38393646  0.11903721  0.87957269  1
  Ta5+  Ta65  1  0.89178977  0.61623650  0.09561752  1
  Ta5+  Ta66  1  0.10382418  0.60960479  0.09819092  1
  Ta5+  Ta67  1  0.11896454  0.87693688  0.37608187  1
  Ta5+  Ta68  1  0.63995639  0.88045608  0.63854497  1
  Ta5+  Ta69  1  0.33647455  0.37205456  0.13882685  1
  Ta5+  Ta70  1  0.91133258  0.43566186  0.14934600  1
  Ta5+  Ta71  1  0.60610357  0.10869494  0.38358033  1
  Ta5+  Ta72  1  0.64537695  0.87831806  0.38210750  1
  Ta5+  Ta73  1  0.31014374  0.63557230  0.61868159  1
  Ta5+  Ta74  1  0.14296901  0.39288813  0.38512695  1
  W6+  W75  1  0.68260591  0.38761792  0.63653160  1
  W6+  W76  1  0.87003934  0.60727821  0.37307903  1
  W6+  W77  1  0.14201022  0.12647953  0.38361859  1
  W6+  W78  1  0.36455821  0.88922996  0.38148698  1
  W6+  W79  1  0.66080717  0.86624578  0.87153329  1
  W6+  W80  1  0.87256228  0.87311091  0.63995429  1
  W6+  W81  1  0.63306317  0.39132122  0.88841377  1
  W6+  W82  1  0.61605673  0.63444323  0.38367971  1
  O2-  O83  1  0.09348210  -0.00232781  0.12406974  1
  O2-  O84  1  0.12437529  -0.00610192  0.37687389  1
  O2-  O85  1  0.09667035  -0.00093834  0.62121744  1
  O2-  O86  1  0.09685857  0.01191467  0.87138838  1
  O2-  O87  1  0.15640566  0.49899633  0.11619297  1
  O2-  O88  1  0.11973779  0.51868444  0.37793978  1
  O2-  O89  1  0.13579292  0.50524829  0.63685009  1
  O2-  O90  1  0.12585457  0.50123211  0.89523767  1
  O2-  O91  1  0.31065661  0.01701068  0.11903409  1
  O2-  O92  1  0.31800283  0.01440202  0.40886405  1
  O2-  O93  1  0.44822832  -0.02529814  0.65343690  1
  O2-  O94  1  0.41948338  0.00368672  0.88113382  1
  O2-  O95  1  0.36530491  0.49821077  0.12570466  1
  O2-  O96  1  0.36827247  0.50055328  0.38752456  1
  O2-  O97  1  0.35364190  0.51465608  0.63124591  1
  O2-  O98  1  0.33889354  0.49898586  0.89011402  1
  O2-  O99  1  0.66659570  -0.00190347  0.12440301  1
  O2-  O100  1  0.57966702  -0.01456065  0.37479492  1
  O2-  O101  1  0.62357796  0.00142776  0.65561788  1
  O2-  O102  1  0.65255020  0.00469306  0.86957085  1
  O2-  O103  1  0.60434106  0.51697903  0.15343050  1
  O2-  O104  1  0.61340386  0.49510327  0.37196634  1
  O2-  O105  1  0.58842009  0.47868149  0.59640098  1
  O2-  O106  1  0.67183065  0.52147625  0.86517962  1
  O2-  O107  1  0.88283829  -0.01238999  0.11952967  1
  O2-  O108  1  0.93719926  -0.04663318  0.36217172  1
  O2-  O109  1  0.88170928  0.00980714  0.62664128  1
  O2-  O110  1  0.90263806  -0.00377254  0.90152430  1
  O2-  O111  1  0.81612361  0.51007938  0.13837446  1
  O2-  O112  1  0.83505650  0.47544783  0.35764653  1
  O2-  O113  1  0.91372123  0.48401041  0.64122847  1
  O2-  O114  1  0.90251706  0.46373685  0.85226672  1
  O2-  O115  1  0.07742945  0.26493813  0.13132944  1
  O2-  O116  1  0.15354087  0.26284199  0.39081146  1
  O2-  O117  1  0.11057156  0.25087954  0.61293739  1
  O2-  O118  1  0.09412879  0.24717893  0.87057927  1
  O2-  O119  1  0.13471452  0.75670961  0.10395638  1
  O2-  O120  1  0.09074874  0.73378853  0.37611655  1
  O2-  O121  1  0.07968303  0.74910948  0.62879459  1
  O2-  O122  1  0.14266709  0.75517984  0.89476368  1
  O2-  O123  1  0.32869776  0.23455381  0.13976696  1
  O2-  O124  1  0.33836814  0.25098765  0.39368494  1
  O2-  O125  1  0.46253176  0.32226020  0.62868016  1
  O2-  O126  1  0.42199261  0.24710752  0.87482969  1
  O2-  O127  1  0.31142228  0.72500012  0.14319478  1
  O2-  O128  1  0.39304928  0.75253599  0.37948662  1
  O2-  O129  1  0.35917174  0.75736538  0.63115835  1
  O2-  O130  1  0.33799980  0.75483287  0.88073893  1
  O2-  O131  1  0.67511901  0.20676152  0.11412059  1
  O2-  O132  1  0.64372369  0.23591281  0.39148209  1
  O2-  O133  1  0.63576180  0.25367696  0.60191334  1
  O2-  O134  1  0.60190340  0.25284084  0.90665563  1
  O2-  O135  1  0.67122828  0.74016142  0.10803117  1
  O2-  O136  1  0.56680837  0.77560599  0.39406298  1
  O2-  O137  1  0.54470239  0.81004528  0.64725167  1
  O2-  O138  1  0.65993822  0.72956740  0.86743431  1
  O2-  O139  1  0.85154540  0.21687580  0.13409709  1
  O2-  O140  1  0.82034132  0.27465990  0.36590834  1
  O2-  O141  1  0.89451689  0.22772628  0.59417796  1
  O2-  O142  1  0.89420240  0.25532939  0.90182596  1
  O2-  O143  1  0.84689135  0.72997269  0.10022041  1
  O2-  O144  1  0.90964323  0.74604045  0.37507446  1
  O2-  O145  1  0.89838643  0.73362701  0.63555244  1
  O2-  O146  1  0.92009392  0.73081120  0.88941693  1
  O2-  O147  1  0.12638473  0.14576205  0.00278694  1
  O2-  O148  1  0.11790370  0.13868318  0.24887814  1
  O2-  O149  1  0.17171908  0.12622401  0.52129525  1
  O2-  O150  1  0.17848460  0.12876181  0.74307780  1
  O2-  O151  1  0.18403290  0.62846729  0.00273640  1
  O2-  O152  1  0.09942379  0.64744916  0.21958409  1
  O2-  O153  1  0.07404962  0.62556738  0.52053142  1
  O2-  O154  1  0.12011341  0.64416994  0.76716396  1
  O2-  O155  1  0.39178519  0.14225774  0.00869983  1
  O2-  O156  1  0.37403711  0.11430152  0.26786138  1
  O2-  O157  1  0.37313457  0.15408596  0.53056310  1
  O2-  O158  1  0.37557200  0.13293127  0.74881021  1
  O2-  O159  1  0.36442080  0.63614224  0.00400627  1
  O2-  O160  1  0.41008680  0.62726223  0.26319674  1
  O2-  O161  1  0.40863278  0.63239769  0.50854724  1
  O2-  O162  1  0.31458768  0.63580151  0.75944283  1
  O2-  O163  1  0.57818120  0.11125116  -0.00072393  1
  O2-  O164  1  0.64176335  0.11542598  0.26018430  1
  O2-  O165  1  0.63373280  0.10492818  0.50608462  1
  O2-  O166  1  0.62310908  0.15272062  0.76671989  1
  O2-  O167  1  0.59479858  0.61399392  -0.00620635  1
  O2-  O168  1  0.60601231  0.66507678  0.24737823  1
  O2-  O169  1  0.59659468  0.64738704  0.52219846  1
  O2-  O170  1  0.59280959  0.61835443  0.73027686  1
  O2-  O171  1  0.95045575  0.13609977  0.01050935  1
  O2-  O172  1  0.85103647  0.10175796  0.25950827  1
  O2-  O173  1  0.82272701  0.10944699  0.44796695  1
  O2-  O174  1  0.84845615  0.12910009  0.78232084  1
  O2-  O175  1  0.85455456  0.57948686  -0.01637389  1
  O2-  O176  1  0.88653006  0.63807007  0.23529273  1
  O2-  O177  1  0.87933684  0.61064797  0.51444040  1
  O2-  O178  1  0.88953422  0.61480141  0.75481512  1
  O2-  O179  1  0.15029985  0.34672998  0.00333459  1
  O2-  O180  1  0.13423660  0.37646655  0.25771051  1
  O2-  O181  1  0.16116559  0.38920361  0.50971927  1
  O2-  O182  1  0.12116994  0.38035960  0.75599539  1
  O2-  O183  1  0.17684305  0.89391505  0.00188926  1
  O2-  O184  1  0.10229112  0.85773007  0.24773237  1
  O2-  O185  1  0.07267077  0.86115136  0.49533505  1
  O2-  O186  1  0.11050337  0.86412585  0.75527114  1
  O2-  O187  1  0.37034181  0.34426006  0.00969744  1
  O2-  O188  1  0.36154576  0.36931448  0.26355990  1
  O2-  O189  1  0.35344358  0.36995866  0.51195116  1
  O2-  O190  1  0.40182730  0.38577973  0.76494262  1
  O2-  O191  1  0.38858877  0.87254262  0.01526540  1
  O2-  O192  1  0.39203985  0.88198936  0.23613607  1
  O2-  O193  1  0.39416738  0.87761587  0.51366410  1
  O2-  O194  1  0.33584324  0.88111861  0.76057282  1
  O2-  O195  1  0.66241884  0.37855102  0.03904827  1
  O2-  O196  1  0.65916816  0.35388871  0.25644280  1
  O2-  O197  1  0.69784084  0.37475151  0.48532941  1
  O2-  O198  1  0.61627320  0.36851890  0.75526137  1
  O2-  O199  1  0.61156362  0.87017127  -0.00046130  1
  O2-  O200  1  0.62525934  0.85527355  0.24536812  1
  O2-  O201  1  0.65525165  0.87917079  0.51152677  1
  O2-  O202  1  0.70743671  0.85813368  0.73578757  1
  O2-  O203  1  0.90045405  0.36574659  0.05013380  1
  O2-  O204  1  0.91695370  0.35645932  0.24603628  1
  O2-  O205  1  0.87521714  0.36611230  0.50719012  1
  O2-  O206  1  0.80531741  0.34852217  0.70380175  1
  O2-  O207  1  0.82839003  0.86426896  -0.01206763  1
  O2-  O208  1  0.84306349  0.84166810  0.24347870  1
  O2-  O209  1  0.86385673  0.85839128  0.50051808  1
  O2-  O210  1  0.91289193  0.86515826  0.77201685  1
  O2-  O211  1  0.01807653  -0.13862185  -0.01410601  1
  O2-  O212  1  -0.02398357  -0.16084700  0.13799268  1
  O2-  O213  1  -0.00492543  0.14810739  0.37946787  1
  O2-  O214  1  0.00634761  0.12899452  0.69020196  1
  O2-  O215  1  0.00945909  0.64968520  0.01756481  1
  O2-  O216  1  -0.00765109  0.52839695  0.12843215  1
  O2-  O217  1  0.01377166  0.37121501  0.38812223  1
  O2-  O218  1  -0.03999027  0.31482829  0.74402119  1
  O2-  O219  1  0.26014304  0.12482578  -0.10523825  1
  O2-  O220  1  0.23523927  -0.15888137  0.36748601  1
  O2-  O221  1  0.22573142  -0.14498348  0.61575456  1
  O2-  O222  1  0.29146831  0.01057313  0.62120556  1
  O2-  O223  1  0.25692855  0.30842128  -0.12792024  1
  O2-  O224  1  0.24747036  0.64273982  0.33290476  1
  O2-  O225  1  0.25052388  0.62320787  0.49437866  1
  O2-  O226  1  0.25208507  0.34212534  0.65146131  1
  O2-  O227  1  0.48769034  0.01986543  0.13546904  1
  O2-  O228  1  0.50193345  0.18296985  0.14783795  1
  O2-  O229  1  0.49057444  0.14504505  0.39745154  1
  O2-  O230  1  0.50882113  0.14683089  0.63375531  1
  O2-  O231  1  0.48751207  0.69713341  0.11922488  1
  O2-  O232  1  0.49645191  0.36127610  0.13228343  1
  O2-  O233  1  0.50604696  0.35203214  0.40413138  1
  O2-  O234  1  0.48084973  0.62453237  0.85895566  1
  O2-  O235  1  0.75690615  0.14517884  -0.05924477  1
  O2-  O236  1  0.75541138  -0.04562072  0.36929103  1
  O2-  O237  1  0.73785138  -0.21014937  0.37312418  1
  O2-  O238  1  0.75754633  0.13692765  0.63059173  1
  O2-  O239  1  0.75996070  0.34577350  -0.11499097  1
  O2-  O240  1  0.74069876  0.62076074  0.34719806  1
  O2-  O241  1  0.74173753  0.66786275  0.62947567  1
  O2-  O242  1  0.74658930  0.51238394  0.64282137  1
