# generated using pymatgen
data_Gd19Ta56(WO20)8
_symmetry_space_group_name_H-M   'P 1'
_cell_length_a   15.55094619
_cell_length_b   15.43946523
_cell_length_c   15.35478474
_cell_angle_alpha   89.96857500
_cell_angle_beta   89.93171801
_cell_angle_gamma   90.11228621
_symmetry_Int_Tables_number   1
_chemical_formula_structural   Gd19Ta56(WO20)8
_chemical_formula_sum   'Gd19 Ta56 W8 O160'
_cell_volume   3686.64734755
_cell_formula_units_Z   1
loop_
 _symmetry_equiv_pos_site_id
 _symmetry_equiv_pos_as_xyz
  1  'x, y, z'
loop_
 _atom_type_symbol
 _atom_type_oxidation_number
  Gd3+  3.0
  Ta5+  5.0
  W6+  6.0
  O2-  -2.0
loop_
 _atom_site_type_symbol
 _atom_site_label
 _atom_site_symmetry_multiplicity
 _atom_site_fract_x
 _atom_site_fract_y
 _atom_site_fract_z
 _atom_site_occupancy
  Gd3+  Gd0  1  -0.01442227  0.23812852  0.24455605  1
  Gd3+  Gd1  1  -0.01515542  0.26166350  0.01479140  1
  Gd3+  Gd2  1  0.02740093  0.29040305  0.48764742  1
  Gd3+  Gd3  1  -0.01308196  0.73406441  0.00089240  1
  Gd3+  Gd4  1  0.26070118  0.26975927  0.74194914  1
  Gd3+  Gd5  1  -0.01488003  0.75963035  0.76265465  1
  Gd3+  Gd6  1  0.73145288  0.77954259  0.49693157  1
  Gd3+  Gd7  1  0.74031471  0.25441526  0.75327633  1
  Gd3+  Gd8  1  0.51674840  0.26067605  0.00739839  1
  Gd3+  Gd9  1  0.27915286  0.75017585  0.74721843  1
  Gd3+  Gd10  1  0.51100342  0.74914215  0.73609682  1
  Gd3+  Gd11  1  -0.00277343  0.75929158  0.50793120  1
  Gd3+  Gd12  1  0.49792384  0.73832956  0.47499833  1
  Gd3+  Gd13  1  0.00290925  0.74386060  0.24440042  1
  Gd3+  Gd14  1  0.25835373  0.74941543  0.48200079  1
  Gd3+  Gd15  1  0.73447366  0.74349939  0.25684617  1
  Gd3+  Gd16  1  0.01186769  0.26363682  0.75704020  1
  Gd3+  Gd17  1  0.26591082  0.28038757  0.49914240  1
  Gd3+  Gd18  1  0.25701248  0.23356592  0.25257125  1
  Ta5+  Ta19  1  0.38261712  0.88557365  0.87827715  1
  Ta5+  Ta20  1  0.86011156  0.88889864  0.90513874  1
  Ta5+  Ta21  1  0.37355927  0.37707740  0.88038463  1
  Ta5+  Ta22  1  0.65494293  0.13529119  0.12139173  1
  Ta5+  Ta23  1  0.62006188  0.12475077  0.87413838  1
  Ta5+  Ta24  1  0.88140101  0.38336006  0.36362770  1
  Ta5+  Ta25  1  0.86529680  0.62452111  0.38684129  1
  Ta5+  Ta26  1  0.63019010  0.88547278  0.86216743  1
  Ta5+  Ta27  1  0.17648399  0.39516315  0.12584625  1
  Ta5+  Ta28  1  0.87576571  0.89067504  0.37141153  1
  Ta5+  Ta29  1  0.59729890  0.15346679  0.61327802  1
  Ta5+  Ta30  1  0.89072338  0.90025576  0.11160837  1
  Ta5+  Ta31  1  0.13380116  0.11398801  0.89196725  1
  Ta5+  Ta32  1  0.41802816  0.38016926  0.62127702  1
  Ta5+  Ta33  1  0.88960694  0.12992653  0.62630958  1
  Ta5+  Ta34  1  0.82799172  0.38101590  0.13248131  1
  Ta5+  Ta35  1  0.12885002  0.37629139  0.89280562  1
  Ta5+  Ta36  1  0.61501528  0.90561579  0.35932265  1
  Ta5+  Ta37  1  0.13832452  0.39280610  0.31663687  1
  Ta5+  Ta38  1  0.38456618  0.12828360  0.12170423  1
  Ta5+  Ta39  1  0.89025699  0.38887709  0.62406166  1
  Ta5+  Ta40  1  0.82275102  0.13621962  0.12920243  1
  Ta5+  Ta41  1  0.39096588  0.62705460  0.11920796  1
  Ta5+  Ta42  1  0.83282504  0.63120947  0.87694382  1
  Ta5+  Ta43  1  0.12501533  0.11793928  0.62746595  1
  Ta5+  Ta44  1  0.64871729  0.58464899  0.60893472  1
  Ta5+  Ta45  1  0.58582393  0.15307197  0.35646241  1
  Ta5+  Ta46  1  0.41605027  0.36238995  0.36055875  1
  Ta5+  Ta47  1  0.11788051  0.60127793  0.63527681  1
  Ta5+  Ta48  1  0.63326469  0.62683225  0.09744550  1
  Ta5+  Ta49  1  0.86364984  0.12693723  0.88430988  1
  Ta5+  Ta50  1  0.10265621  0.07243231  0.14085650  1
  Ta5+  Ta51  1  0.38259519  0.89064316  0.61111514  1
  Ta5+  Ta52  1  0.36745378  0.60909236  0.36089228  1
  Ta5+  Ta53  1  0.13143468  0.87407737  0.62709803  1
  Ta5+  Ta54  1  0.37424098  0.13064322  0.87482692  1
  Ta5+  Ta55  1  0.66129550  0.38159412  0.11707720  1
  Ta5+  Ta56  1  0.13038335  0.61987595  0.87387649  1
  Ta5+  Ta57  1  0.57907552  0.35824261  0.35005995  1
  Ta5+  Ta58  1  0.87310612  0.38678115  0.88047085  1
  Ta5+  Ta59  1  0.34470534  0.37623832  0.12552288  1
  Ta5+  Ta60  1  0.61780035  0.91341851  0.61479545  1
  Ta5+  Ta61  1  0.12261089  0.88555243  0.12309648  1
  Ta5+  Ta62  1  0.41392947  0.13332212  0.37102579  1
  Ta5+  Ta63  1  0.37051283  0.12557556  0.62126792  1
  Ta5+  Ta64  1  0.61567921  0.60389969  0.36176721  1
  Ta5+  Ta65  1  0.84572972  0.62916832  0.64601669  1
  Ta5+  Ta66  1  0.12069135  0.88409454  0.37138190  1
  Ta5+  Ta67  1  0.63792349  0.38564654  0.87120668  1
  Ta5+  Ta68  1  0.86954468  0.62393241  0.12766468  1
  Ta5+  Ta69  1  0.37046886  0.88436940  0.35647082  1
  Ta5+  Ta70  1  0.62018662  0.35708663  0.60037388  1
  Ta5+  Ta71  1  0.13750642  0.87689468  0.87597573  1
  Ta5+  Ta72  1  0.86531741  0.88408317  0.64070489  1
  Ta5+  Ta73  1  0.83329502  0.13467745  0.37684495  1
  Ta5+  Ta74  1  0.12017591  0.43884483  0.64705198  1
  W6+  W75  1  0.12459325  0.13769360  0.37670141  1
  W6+  W76  1  0.66168416  0.88315280  0.10716734  1
  W6+  W77  1  0.11817534  0.61505008  0.12496802  1
  W6+  W78  1  0.11280778  0.61323269  0.38622685  1
  W6+  W79  1  0.67737354  0.63349397  0.84760392  1
  W6+  W80  1  0.38047434  0.63081041  0.89002240  1
  W6+  W81  1  0.38349723  0.61315930  0.62239541  1
  W6+  W82  1  0.42149353  0.87989191  0.11553045  1
  O2-  O83  1  0.02137095  -0.03788476  0.12646709  1
  O2-  O84  1  0.12369545  0.00067234  0.38082696  1
  O2-  O85  1  0.13767008  -0.00264888  0.63117026  1
  O2-  O86  1  0.11546329  -0.00287720  0.84217987  1
  O2-  O87  1  0.17193486  0.50847585  0.08505814  1
  O2-  O88  1  0.14612271  0.48221899  0.39570147  1
  O2-  O89  1  0.19835317  0.52391866  0.69899443  1
  O2-  O90  1  0.14986091  0.49686199  0.87787391  1
  O2-  O91  1  0.40310145  0.01068938  0.12347101  1
  O2-  O92  1  0.38278657  0.00897366  0.36878271  1
  O2-  O93  1  0.33614598  0.00559414  0.62834382  1
  O2-  O94  1  0.40309762  0.00977020  0.85811931  1
  O2-  O95  1  0.37340617  0.49253802  0.12763155  1
  O2-  O96  1  0.38370634  0.48826634  0.35985708  1
  O2-  O97  1  0.35349804  0.48019302  0.61647462  1
  O2-  O98  1  0.37276144  0.49495481  0.88466301  1
  O2-  O99  1  0.67446779  0.01471713  0.11937754  1
  O2-  O100  1  0.59652466  0.02286037  0.34809828  1
  O2-  O101  1  0.64650114  0.03533773  0.61600354  1
  O2-  O102  1  0.58804768  0.00753517  0.85563082  1
  O2-  O103  1  0.67212536  0.51251424  0.11163501  1
  O2-  O104  1  0.60425452  0.48564683  0.35749777  1
  O2-  O105  1  0.68807537  0.46891487  0.60459887  1
  O2-  O106  1  0.65872884  0.50052935  0.85606008  1
  O2-  O107  1  0.86062757  0.01728524  0.12089491  1
  O2-  O108  1  0.83242480  0.00387299  0.38059184  1
  O2-  O109  1  0.87701785  0.00520528  0.62827983  1
  O2-  O110  1  0.89800328  0.01018047  0.88776651  1
  O2-  O111  1  0.85976298  0.50477408  0.13672631  1
  O2-  O112  1  0.89815426  0.50990546  0.36968714  1
  O2-  O113  1  0.87119249  0.51086889  0.62913065  1
  O2-  O114  1  0.85210609  0.50479996  0.87339668  1
  O2-  O115  1  0.02981290  0.17264077  0.12075776  1
  O2-  O116  1  0.15233742  0.28194190  0.38834400  1
  O2-  O117  1  0.23765000  0.15425226  0.59314479  1
  O2-  O118  1  0.08453381  0.23048855  0.89286558  1
  O2-  O119  1  0.08495112  0.75896924  0.11555137  1
  O2-  O120  1  0.07206612  0.74878031  0.37802112  1
  O2-  O121  1  0.25364008  0.83399095  0.62618844  1
  O2-  O122  1  0.07942546  0.76104295  0.88486941  1
  O2-  O123  1  0.30744173  0.23430977  0.11319705  1
  O2-  O124  1  0.33701123  0.24590605  0.37698565  1
  O2-  O125  1  0.35030074  0.26267523  0.62340859  1
  O2-  O126  1  0.42067334  0.24701918  0.86855764  1
  O2-  O127  1  0.40421027  0.74763102  0.11594006  1
  O2-  O128  1  0.37459953  0.75356067  0.38373827  1
  O2-  O129  1  0.42026460  0.75752123  0.60682736  1
  O2-  O130  1  0.42742663  0.76921012  0.87573105  1
  O2-  O131  1  0.65062653  0.26064644  0.08036385  1
  O2-  O132  1  0.49800614  0.24731705  0.36277860  1
  O2-  O133  1  0.69362774  0.24717987  0.61297890  1
  O2-  O134  1  0.59819362  0.25277038  0.88464067  1
  O2-  O135  1  0.68196219  0.74286244  0.11986300  1
  O2-  O136  1  0.63911954  0.75823174  0.38119227  1
  O2-  O137  1  0.60292112  0.78967625  0.57881368  1
  O2-  O138  1  0.63191508  0.76518927  0.82713163  1
  O2-  O139  1  0.88033132  0.26045801  0.14144950  1
  O2-  O140  1  0.88967121  0.25107842  0.37638970  1
  O2-  O141  1  0.92342817  0.25607071  0.61982731  1
  O2-  O142  1  0.90878158  0.24672611  0.86756720  1
  O2-  O143  1  0.90190395  0.76035961  0.12444549  1
  O2-  O144  1  0.83177753  0.76727630  0.37677606  1
  O2-  O145  1  0.88387270  0.75215991  0.64041721  1
  O2-  O146  1  0.87845977  0.76114081  0.88693532  1
  O2-  O147  1  0.11839131  0.08502624  0.00744227  1
  O2-  O148  1  0.15422490  0.12811716  0.23780353  1
  O2-  O149  1  0.07710478  0.15313122  0.51807536  1
  O2-  O150  1  0.14691456  0.16170581  0.74762919  1
  O2-  O151  1  0.08144378  0.62097241  -0.01301658  1
  O2-  O152  1  0.08926993  0.62362354  0.25241909  1
  O2-  O153  1  0.12851356  0.66752157  0.52045386  1
  O2-  O154  1  0.08544652  0.64354312  0.75738232  1
  O2-  O155  1  0.41088737  0.14021913  -0.00442214  1
  O2-  O156  1  0.38841194  0.14788494  0.24746084  1
  O2-  O157  1  0.39120144  0.13876542  0.49995931  1
  O2-  O158  1  0.33862746  0.14435452  0.74915494  1
  O2-  O159  1  0.33039055  0.62275606  0.01482486  1
  O2-  O160  1  0.34866486  0.62661381  0.23846227  1
  O2-  O161  1  0.39266737  0.62545026  0.48996641  1
  O2-  O162  1  0.38809754  0.65205065  0.75173605  1
  O2-  O163  1  0.59404018  0.12450034  -0.00212672  1
  O2-  O164  1  0.61210190  0.16131338  0.23384649  1
  O2-  O165  1  0.58833212  0.15075804  0.49210044  1
  O2-  O166  1  0.63041987  0.15312682  0.74740733  1
  O2-  O167  1  0.64104184  0.63848661  -0.02075051  1
  O2-  O168  1  0.64244897  0.63024240  0.24245853  1
  O2-  O169  1  0.59786520  0.61311288  0.49734285  1
  O2-  O170  1  0.55730228  0.62301076  0.67748169  1
  O2-  O171  1  0.86973870  0.15657766  0.00624129  1
  O2-  O172  1  0.86638880  0.13396676  0.25463990  1
  O2-  O173  1  0.86205200  0.13372379  0.50547077  1
  O2-  O174  1  0.84086602  0.14178001  0.74395753  1
  O2-  O175  1  0.85676662  0.63420279  0.00091633  1
  O2-  O176  1  0.87016907  0.65318193  0.25853117  1
  O2-  O177  1  0.90307709  0.64391655  0.50733539  1
  O2-  O178  1  0.90042851  0.63705384  0.76248213  1
  O2-  O179  1  0.11757710  0.34398462  0.01507638  1
  O2-  O180  1  0.11478550  0.30899221  0.20750981  1
  O2-  O181  1  0.14189861  0.32886335  0.56873867  1
  O2-  O182  1  0.13541450  0.34767662  0.75976370  1
  O2-  O183  1  0.14292940  0.88563967  -0.00342747  1
  O2-  O184  1  0.09443568  0.86410148  0.25103017  1
  O2-  O185  1  0.13580050  0.84966245  0.50183533  1
  O2-  O186  1  0.12581351  0.83431480  0.74610137  1
  O2-  O187  1  0.39434072  0.35309909  0.00388661  1
  O2-  O188  1  0.38150552  0.33856143  0.24077274  1
  O2-  O189  1  0.40123622  0.35794568  0.49574745  1
  O2-  O190  1  0.38339252  0.36647573  0.75021588  1
  O2-  O191  1  0.36628474  0.89159619  -0.00235406  1
  O2-  O192  1  0.37501069  0.87521804  0.23786936  1
  O2-  O193  1  0.34942747  0.87728712  0.49297695  1
  O2-  O194  1  0.39096308  0.86099883  0.73897993  1
  O2-  O195  1  0.59695076  0.39263917  -0.00767491  1
  O2-  O196  1  0.61999362  0.36088879  0.23123422  1
  O2-  O197  1  0.61228107  0.35126087  0.47924601  1
  O2-  O198  1  0.63727253  0.35882067  0.74420467  1
  O2-  O199  1  0.60891756  0.87213498  -0.02140150  1
  O2-  O200  1  0.68473456  0.88121355  0.25822400  1
  O2-  O201  1  0.66400072  0.91290920  0.47322469  1
  O2-  O202  1  0.58359119  0.89026228  0.73171591  1
  O2-  O203  1  0.87922142  0.36928215  0.00538829  1
  O2-  O204  1  0.81424388  0.37763053  0.26430235  1
  O2-  O205  1  0.90558195  0.38127402  0.49908740  1
  O2-  O206  1  0.84978642  0.36099920  0.74665605  1
  O2-  O207  1  0.79644443  0.87952461  0.02862374  1
  O2-  O208  1  0.89374689  0.88204748  0.24606564  1
  O2-  O209  1  0.86110721  0.86279542  0.50905088  1
  O2-  O210  1  0.89449350  0.88087962  0.76555804  1
  O2-  O211  1  -0.04600836  -0.11901946  -0.00652912  1
  O2-  O212  1  -0.00918357  -0.10957651  0.40668124  1
  O2-  O213  1  0.00583616  -0.13534594  0.62090614  1
  O2-  O214  1  0.00470762  0.12137207  0.67577343  1
  O2-  O215  1  0.00170653  0.38556779  -0.12599021  1
  O2-  O216  1  0.00978355  0.36390558  0.34942529  1
  O2-  O217  1  0.05803771  0.51553525  0.56347060  1
  O2-  O218  1  0.00159767  0.39270612  0.67749723  1
  O2-  O219  1  0.25410027  0.13755500  -0.10002224  1
  O2-  O220  1  0.19683286  -0.02072085  0.14518977  1
  O2-  O221  1  0.24143796  -0.14129038  0.36320064  1
  O2-  O222  1  0.25960338  -0.13412741  0.85195648  1
  O2-  O223  1  0.25445382  0.33725432  -0.11783611  1
  O2-  O224  1  0.23577611  0.42224470  0.24205291  1
  O2-  O225  1  0.24902151  0.63391246  0.38897956  1
  O2-  O226  1  0.23920208  0.67007596  0.86403523  1
  O2-  O227  1  0.53500916  -0.12655066  0.15350882  1
  O2-  O228  1  0.49975825  -0.13262572  0.38156519  1
  O2-  O229  1  0.49592470  -0.07194093  0.58375239  1
  O2-  O230  1  0.48625157  0.10936363  0.65239746  1
  O2-  O231  1  0.51347261  0.60946383  0.11215969  1
  O2-  O232  1  0.49718759  0.63879944  0.35303787  1
  O2-  O233  1  0.52475724  0.44117011  0.62302052  1
  O2-  O234  1  0.52746513  0.27379382  0.62351808  1
  O2-  O235  1  0.74097270  0.12665749  -0.11477725  1
  O2-  O236  1  0.72035728  0.15659678  0.37528348  1
  O2-  O237  1  0.74294595  -0.12405930  0.63815604  1
  O2-  O238  1  0.74737997  -0.08833445  0.85603233  1
  O2-  O239  1  0.75205841  0.33870593  -0.11354068  1
  O2-  O240  1  0.74395013  0.61488110  0.38637399  1
  O2-  O241  1  0.74584466  0.65437550  0.56570710  1
  O2-  O242  1  0.73617779  0.61091538  0.71454388  1
