# generated using pymatgen
data_Gd19Ta56(WO20)8
_symmetry_space_group_name_H-M   'P 1'
_cell_length_a   15.46123031
_cell_length_b   15.25698422
_cell_length_c   15.24223858
_cell_angle_alpha   89.67016643
_cell_angle_beta   90.27226621
_cell_angle_gamma   89.77779169
_symmetry_Int_Tables_number   1
_chemical_formula_structural   Gd19Ta56(WO20)8
_chemical_formula_sum   'Gd19 Ta56 W8 O160'
_cell_volume   3595.39069002
_cell_formula_units_Z   1
loop_
 _symmetry_equiv_pos_site_id
 _symmetry_equiv_pos_as_xyz
  1  'x, y, z'
loop_
 _atom_type_symbol
 _atom_type_oxidation_number
  Gd3+  3.0
  Ta5+  5.0
  W6+  6.0
  O2-  -2.0
loop_
 _atom_site_type_symbol
 _atom_site_label
 _atom_site_symmetry_multiplicity
 _atom_site_fract_x
 _atom_site_fract_y
 _atom_site_fract_z
 _atom_site_occupancy
  Gd3+  Gd0  1  0.51096372  0.26205167  0.51693798  1
  Gd3+  Gd1  1  0.56285351  0.75196574  0.20254739  1
  Gd3+  Gd2  1  -0.00637002  0.74841599  0.76381800  1
  Gd3+  Gd3  1  0.22576296  0.73496159  -0.05370267  1
  Gd3+  Gd4  1  0.23660398  0.25244631  0.05283848  1
  Gd3+  Gd5  1  0.49523111  0.27093212  -0.01414476  1
  Gd3+  Gd6  1  -0.00159263  0.25073548  0.50202223  1
  Gd3+  Gd7  1  0.01648694  0.22845082  0.77232979  1
  Gd3+  Gd8  1  0.02597322  0.73073172  0.51831948  1
  Gd3+  Gd9  1  0.22934362  0.25262046  0.48445784  1
  Gd3+  Gd10  1  0.48581265  0.76738282  0.76319429  1
  Gd3+  Gd11  1  0.46395408  0.75792629  -0.01306503  1
  Gd3+  Gd12  1  0.74485886  0.76717709  0.77630769  1
  Gd3+  Gd13  1  0.74637062  0.75481571  0.49478825  1
  Gd3+  Gd14  1  0.24772153  0.73368883  0.48892017  1
  Gd3+  Gd15  1  0.79889289  0.75580902  0.17361866  1
  Gd3+  Gd16  1  0.74900842  0.24183715  0.49974788  1
  Gd3+  Gd17  1  -0.01864170  0.24095454  0.21929161  1
  Gd3+  Gd18  1  0.48873528  0.75924807  0.51388842  1
  Ta5+  Ta19  1  0.33915951  0.56412559  0.85978009  1
  Ta5+  Ta20  1  0.36049648  0.12689501  0.88231364  1
  Ta5+  Ta21  1  0.86645706  0.12187896  0.36977742  1
  Ta5+  Ta22  1  0.82297330  0.35651134  0.10967979  1
  Ta5+  Ta23  1  0.61785082  0.62209429  0.38291999  1
  Ta5+  Ta24  1  0.61787378  0.60030621  0.05175323  1
  Ta5+  Ta25  1  0.86507774  0.36993525  0.36702633  1
  Ta5+  Ta26  1  0.85785989  0.59091252  0.67462554  1
  Ta5+  Ta27  1  0.32619282  0.35795572  0.87737998  1
  Ta5+  Ta28  1  0.11148711  0.40655125  0.37767308  1
  Ta5+  Ta29  1  0.83975103  0.34678219  0.64813462  1
  Ta5+  Ta30  1  0.15825722  0.35978111  0.88031762  1
  Ta5+  Ta31  1  0.36331888  0.38786050  0.37975680  1
  Ta5+  Ta32  1  0.84939227  0.60319906  0.91198699  1
  Ta5+  Ta33  1  0.36368721  0.38429309  0.62847655  1
  Ta5+  Ta34  1  0.62938137  0.37140288  0.35661206  1
  Ta5+  Ta35  1  0.61747217  0.13300799  0.37351190  1
  Ta5+  Ta36  1  0.63387619  0.89885816  0.62432191  1
  Ta5+  Ta37  1  0.12572629  0.11428495  0.62997418  1
  Ta5+  Ta38  1  0.66186556  0.37471023  0.63072740  1
  Ta5+  Ta39  1  0.85727611  0.86222350  0.93997338  1
  Ta5+  Ta40  1  0.64911375  0.58320418  0.84918390  1
  Ta5+  Ta41  1  0.40109624  0.12851754  0.14162724  1
  Ta5+  Ta42  1  0.36933803  0.12466134  0.62580293  1
  Ta5+  Ta43  1  0.93285924  0.94184340  0.13504883  1
  Ta5+  Ta44  1  0.37020223  0.86702320  0.34369534  1
  Ta5+  Ta45  1  0.37546449  0.87871836  0.13794394  1
  Ta5+  Ta46  1  0.86832806  0.13869490  0.64501578  1
  Ta5+  Ta47  1  0.85987508  0.87936950  0.35736521  1
  Ta5+  Ta48  1  0.35787941  0.61478555  0.10328116  1
  Ta5+  Ta49  1  0.88208429  0.88924653  0.61164618  1
  Ta5+  Ta50  1  0.65374223  0.35607808  0.10366349  1
  Ta5+  Ta51  1  0.13139197  0.87145331  0.65969727  1
  Ta5+  Ta52  1  0.08272224  0.64746068  0.30500420  1
  Ta5+  Ta53  1  0.37071144  0.11660454  0.38119291  1
  Ta5+  Ta54  1  0.15655429  0.61640686  0.68952933  1
  Ta5+  Ta55  1  0.91638957  0.37537193  0.89157067  1
  Ta5+  Ta56  1  0.12079630  0.53512685  0.87866618  1
  Ta5+  Ta57  1  0.19010789  0.12291298  0.88186292  1
  Ta5+  Ta58  1  0.41193577  0.62377129  0.34303612  1
  Ta5+  Ta59  1  0.64295741  0.62816144  0.63862759  1
  Ta5+  Ta60  1  0.92278256  0.57337799  0.13036549  1
  Ta5+  Ta61  1  0.60919778  0.89172394  0.37388807  1
  Ta5+  Ta62  1  0.62561342  0.92706472  0.87552550  1
  Ta5+  Ta63  1  0.36751514  0.88235077  0.63914353  1
  Ta5+  Ta64  1  0.86791277  0.61699860  0.34098741  1
  Ta5+  Ta65  1  0.05239481  0.92374301  0.90400499  1
  Ta5+  Ta66  1  0.35501168  0.92525552  0.88526413  1
  Ta5+  Ta67  1  0.88867941  0.11648379  0.90144875  1
  Ta5+  Ta68  1  0.39048132  0.61324632  0.64510386  1
  Ta5+  Ta69  1  0.62266517  0.14059541  0.11944010  1
  Ta5+  Ta70  1  0.61139858  0.15475543  0.85835729  1
  Ta5+  Ta71  1  0.12123792  0.09761298  0.37496956  1
  Ta5+  Ta72  1  0.10656176  0.39960149  0.13192313  1
  Ta5+  Ta73  1  0.12623942  0.38163810  0.63217496  1
  Ta5+  Ta74  1  0.61815658  0.94172904  0.12239202  1
  W6+  W75  1  0.09609238  0.85564473  0.31223461  1
  W6+  W76  1  0.66970992  0.33675415  0.84430544  1
  W6+  W77  1  0.38462648  0.37365405  0.14048515  1
  W6+  W78  1  0.13910070  0.09010408  0.13516947  1
  W6+  W79  1  0.66668072  0.15912905  0.65355817  1
  W6+  W80  1  0.11276772  0.84532318  0.11250469  1
  W6+  W81  1  0.19149387  0.59843075  0.11641832  1
  W6+  W82  1  0.79646194  0.14372359  0.11735652  1
  O2-  O83  1  0.16461211  -0.03436367  0.11286928  1
  O2-  O84  1  0.12700846  -0.02136642  0.37463894  1
  O2-  O85  1  0.12194965  -0.01011256  0.62065307  1
  O2-  O86  1  0.07933436  0.04096731  0.89367166  1
  O2-  O87  1  0.20548882  0.45717312  0.16145328  1
  O2-  O88  1  0.10006245  0.52680889  0.37449207  1
  O2-  O89  1  0.10983723  0.50277302  0.65430691  1
  O2-  O90  1  0.02917224  0.43941421  0.89096417  1
  O2-  O91  1  0.39351510  0.00469081  0.14875208  1
  O2-  O92  1  0.36547450  -0.01077649  0.37451263  1
  O2-  O93  1  0.38681368  0.00148725  0.60536633  1
  O2-  O94  1  0.43598779  0.01476380  0.89785764  1
  O2-  O95  1  0.39824083  0.50102015  0.09611625  1
  O2-  O96  1  0.35984021  0.52012870  0.38001649  1
  O2-  O97  1  0.42810650  0.49223096  0.63946776  1
  O2-  O98  1  0.40921585  0.46751896  0.87746373  1
  O2-  O99  1  0.70640496  0.03109854  0.13084157  1
  O2-  O100  1  0.59393982  0.01216781  0.40514568  1
  O2-  O101  1  0.63585176  0.01672134  0.63147432  1
  O2-  O102  1  0.59340967  0.03168832  0.82163850  1
  O2-  O103  1  0.63133791  0.48552396  0.08459537  1
  O2-  O104  1  0.62175217  0.49706302  0.38055984  1
  O2-  O105  1  0.64629284  0.50551083  0.62451557  1
  O2-  O106  1  0.62333488  0.46834127  0.84619582  1
  O2-  O107  1  0.90982255  0.05467737  0.11043524  1
  O2-  O108  1  0.89563502  0.00004265  0.38173101  1
  O2-  O109  1  0.88867399  0.00654936  0.62955023  1
  O2-  O110  1  0.91012322  -0.02028803  0.90296337  1
  O2-  O111  1  0.83823758  0.48585145  0.10844040  1
  O2-  O112  1  0.87320691  0.49374027  0.37489186  1
  O2-  O113  1  0.87854406  0.47585363  0.65067098  1
  O2-  O114  1  0.85599416  0.49098088  0.86192216  1
  O2-  O115  1  0.11101303  0.26336082  0.14150089  1
  O2-  O116  1  0.11517937  0.25650015  0.39684994  1
  O2-  O117  1  0.12371264  0.25020004  0.59977611  1
  O2-  O118  1  0.12053171  0.23206226  0.88559362  1
  O2-  O119  1  0.18067438  0.73910414  0.08354002  1
  O2-  O120  1  0.12950123  0.73218735  0.39442661  1
  O2-  O121  1  0.13438875  0.74477778  0.71049949  1
  O2-  O122  1  -0.03508338  0.81753743  0.89427686  1
  O2-  O123  1  0.33739264  0.23953315  0.16189942  1
  O2-  O124  1  0.35383954  0.25726361  0.40026937  1
  O2-  O125  1  0.38929412  0.25701479  0.61237003  1
  O2-  O126  1  0.38572134  0.24655176  0.86828125  1
  O2-  O127  1  0.36309367  0.75245697  0.09518274  1
  O2-  O128  1  0.35314088  0.73396719  0.37352183  1
  O2-  O129  1  0.37334970  0.75030553  0.66228915  1
  O2-  O130  1  0.35509298  0.79189406  0.88298760  1
  O2-  O131  1  0.57307841  0.25566767  0.12646376  1
  O2-  O132  1  0.56391340  0.25868311  0.37036579  1
  O2-  O133  1  0.58647868  0.27683009  0.64821226  1
  O2-  O134  1  0.55076013  0.26461315  0.84652471  1
  O2-  O135  1  0.67719974  0.83479647  0.12849313  1
  O2-  O136  1  0.62600687  0.75343418  0.34733695  1
  O2-  O137  1  0.68396909  0.75418211  0.63856425  1
  O2-  O138  1  0.54025402  0.83700603  0.88639336  1
  O2-  O139  1  0.88817703  0.24628023  0.10604928  1
  O2-  O140  1  0.92782032  0.24570776  0.36650728  1
  O2-  O141  1  0.93002045  0.25500401  0.63725537  1
  O2-  O142  1  0.94050864  0.23371873  0.90532525  1
  O2-  O143  1  0.90750150  0.69452058  0.10687686  1
  O2-  O144  1  0.85204115  0.75380688  0.32495415  1
  O2-  O145  1  0.95267172  0.65878310  0.63226706  1
  O2-  O146  1  0.81461731  0.74064710  0.91759091  1
  O2-  O147  1  0.18902622  0.11960756  0.01090342  1
  O2-  O148  1  0.06734573  0.12147067  0.26552188  1
  O2-  O149  1  0.08160683  0.11560746  0.49308033  1
  O2-  O150  1  0.15999845  0.12561282  0.74816137  1
  O2-  O151  1  0.14611904  0.59527730  -0.01961257  1
  O2-  O152  1  0.18527503  0.61927007  0.25563582  1
  O2-  O153  1  0.14421175  0.64965746  0.56821520  1
  O2-  O154  1  0.22186818  0.62752686  0.82683244  1
  O2-  O155  1  0.38859493  0.14355335  0.01520394  1
  O2-  O156  1  0.42539777  0.13561131  0.27627685  1
  O2-  O157  1  0.42722251  0.12915815  0.49352269  1
  O2-  O158  1  0.36453893  0.11942598  0.74538457  1
  O2-  O159  1  0.35560658  0.63259148  -0.03623531  1
  O2-  O160  1  0.36997873  0.62868444  0.22767150  1
  O2-  O161  1  0.35766219  0.64168231  0.52917174  1
  O2-  O162  1  0.41347071  0.62926069  0.78040788  1
  O2-  O163  1  0.59294253  0.14489795  -0.01505758  1
  O2-  O164  1  0.61528268  0.12966580  0.25186496  1
  O2-  O165  1  0.62193838  0.16236693  0.50746592  1
  O2-  O166  1  0.70433841  0.20130583  0.79378231  1
  O2-  O167  1  0.56881618  0.63849673  -0.06533868  1
  O2-  O168  1  0.67977468  0.66625445  0.13281635  1
  O2-  O169  1  0.63494722  0.65907668  0.50847871  1
  O2-  O170  1  0.60478877  0.67441466  0.76688432  1
  O2-  O171  1  0.79820019  0.12531805  -0.02440729  1
  O2-  O172  1  0.85479106  0.14336837  0.24909765  1
  O2-  O173  1  0.87643763  0.14873663  0.50530440  1
  O2-  O174  1  0.87539147  0.12547332  0.77751666  1
  O2-  O175  1  0.93564564  0.58377908  -0.00838987  1
  O2-  O176  1  0.82353068  0.60910402  0.22494044  1
  O2-  O177  1  0.75067975  0.63139271  0.39106711  1
  O2-  O178  1  0.88423439  0.64935386  0.79369551  1
  O2-  O179  1  0.14406569  0.37297209  0.01251589  1
  O2-  O180  1  0.06310668  0.37877127  0.26515779  1
  O2-  O181  1  0.07561275  0.39106028  0.50207563  1
  O2-  O182  1  0.11280804  0.34535660  0.75032280  1
  O2-  O183  1  0.14612866  0.86001945  -0.04825500  1
  O2-  O184  1  0.06180166  0.75107256  0.22984440  1
  O2-  O185  1  0.14761739  0.82597591  0.54511228  1
  O2-  O186  1  0.07232229  0.89219316  0.78021721  1
  O2-  O187  1  0.35123288  0.34354671  0.00843395  1
  O2-  O188  1  0.42152052  0.38258358  0.27602574  1
  O2-  O189  1  0.41907568  0.38970147  0.49364594  1
  O2-  O190  1  0.33154517  0.37312713  0.74389916  1
  O2-  O191  1  0.35096336  0.90168892  0.01126185  1
  O2-  O192  1  0.29465708  0.87693768  0.24170454  1
  O2-  O193  1  0.35376388  0.84339486  0.51245509  1
  O2-  O194  1  0.40499725  0.90047091  0.76258861  1
  O2-  O195  1  0.63146617  0.33578354  -0.02015435  1
  O2-  O196  1  0.63633350  0.37839582  0.23651924  1
  O2-  O197  1  0.63459489  0.35679859  0.50174009  1
  O2-  O198  1  0.74242282  0.37596383  0.73354424  1
  O2-  O199  1  0.62630836  0.95433881  -0.00705955  1
  O2-  O200  1  0.60119987  0.91491955  0.25342483  1
  O2-  O201  1  0.61922466  0.84454105  0.50398025  1
  O2-  O202  1  0.63806843  0.86928520  0.75053537  1
  O2-  O203  1  0.83340587  0.35764215  -0.01975778  1
  O2-  O204  1  0.86600589  0.35835399  0.24084581  1
  O2-  O205  1  0.86716113  0.34707833  0.50233136  1
  O2-  O206  1  0.91202779  0.34372827  0.77171453  1
  O2-  O207  1  0.84314966  0.86926696  0.06171713  1
  O2-  O208  1  0.85139623  0.90010097  0.23052731  1
  O2-  O209  1  0.89135789  0.83572237  0.48920413  1
  O2-  O210  1  0.86320750  0.82873914  0.72188433  1
  O2-  O211  1  0.00593270  -0.08667339  0.03371484  1
  O2-  O212  1  0.02816308  -0.07405190  0.21183293  1
  O2-  O213  1  0.00711208  0.12241893  0.65817129  1
  O2-  O214  1  0.00147857  -0.16121650  0.62782220  1
  O2-  O215  1  0.02094815  0.48762277  0.11342852  1
  O2-  O216  1  -0.01949649  0.58898651  0.24903994  1
  O2-  O217  1  -0.02834483  0.65465834  0.40481151  1
  O2-  O218  1  0.06313912  0.60561328  0.78386552  1
  O2-  O219  1  0.26092311  0.00236107  -0.13321240  1
  O2-  O220  1  0.24369835  0.12622593  0.38749610  1
  O2-  O221  1  0.25208603  0.13255841  0.58167033  1
  O2-  O222  1  0.25235118  -0.11244766  0.68109050  1
  O2-  O223  1  0.24144491  0.47646825  -0.10818877  1
  O2-  O224  1  0.23585694  0.38966165  0.38199452  1
  O2-  O225  1  0.24679965  0.38061031  0.57619313  1
  O2-  O226  1  0.27412343  0.57859690  0.67650841  1
  O2-  O227  1  0.50578221  -0.13921768  0.09460303  1
  O2-  O228  1  0.44347389  -0.17220674  0.24558450  1
  O2-  O229  1  0.48943806  -0.13988757  0.40032367  1
  O2-  O230  1  0.50789710  -0.14385070  0.63153243  1
  O2-  O231  1  0.50762159  0.65070698  0.09396721  1
  O2-  O232  1  0.53115898  0.62392394  0.28198156  1
  O2-  O233  1  0.49971124  0.63177148  0.43732542  1
  O2-  O234  1  0.51619983  0.65588399  0.62967059  1
  O2-  O235  1  0.75096233  -0.10713213  -0.12494641  1
  O2-  O236  1  0.74246217  0.13144643  0.38450060  1
  O2-  O237  1  0.74050776  -0.11357018  0.38753787  1
  O2-  O238  1  0.75890324  -0.11117994  0.58720781  1
  O2-  O239  1  0.72802531  0.58970003  -0.04201790  1
  O2-  O240  1  0.74660775  0.32597025  0.36902849  1
  O2-  O241  1  0.78149845  0.62954255  0.58506166  1
  O2-  O242  1  0.73850500  0.59981903  0.74459542  1
