# generated using pymatgen
data_Gd19Ta56(WO20)8
_symmetry_space_group_name_H-M   'P 1'
_cell_length_a   15.65877369
_cell_length_b   15.46592753
_cell_length_c   15.13185523
_cell_angle_alpha   90.01049609
_cell_angle_beta   89.61275217
_cell_angle_gamma   90.00927658
_symmetry_Int_Tables_number   1
_chemical_formula_structural   Gd19Ta56(WO20)8
_chemical_formula_sum   'Gd19 Ta56 W8 O160'
_cell_volume   3664.51044232
_cell_formula_units_Z   1
loop_
 _symmetry_equiv_pos_site_id
 _symmetry_equiv_pos_as_xyz
  1  'x, y, z'
loop_
 _atom_type_symbol
 _atom_type_oxidation_number
  Gd3+  3.0
  Ta5+  5.0
  W6+  6.0
  O2-  -2.0
loop_
 _atom_site_type_symbol
 _atom_site_label
 _atom_site_symmetry_multiplicity
 _atom_site_fract_x
 _atom_site_fract_y
 _atom_site_fract_z
 _atom_site_occupancy
  Gd3+  Gd0  1  0.01699010  0.75925771  0.02855148  1
  Gd3+  Gd1  1  0.48564638  0.76581071  0.23866635  1
  Gd3+  Gd2  1  -0.01099167  0.25830004  -0.01912011  1
  Gd3+  Gd3  1  0.24933527  0.73664220  0.27301651  1
  Gd3+  Gd4  1  0.53672243  0.75016066  0.78644964  1
  Gd3+  Gd5  1  0.50446234  0.24369235  0.00662173  1
  Gd3+  Gd6  1  0.25782233  0.24972247  0.51487749  1
  Gd3+  Gd7  1  0.75438223  0.23851319  0.76561618  1
  Gd3+  Gd8  1  -0.03935938  0.76267075  0.52667758  1
  Gd3+  Gd9  1  0.72845191  0.71484052  0.25705412  1
  Gd3+  Gd10  1  0.03979075  0.26419794  0.46456387  1
  Gd3+  Gd11  1  0.73797914  0.25182198  0.01567989  1
  Gd3+  Gd12  1  0.50203290  0.75894253  0.51253335  1
  Gd3+  Gd13  1  -0.02721539  0.24298138  0.23641587  1
  Gd3+  Gd14  1  0.22574464  0.26475461  0.27107244  1
  Gd3+  Gd15  1  0.26583016  0.75786585  0.76459457  1
  Gd3+  Gd16  1  0.22999023  0.24016164  0.02191394  1
  Gd3+  Gd17  1  0.48641626  0.27581487  0.76547713  1
  Gd3+  Gd18  1  0.75735765  0.24016289  0.49716721  1
  Ta5+  Ta19  1  0.11340193  0.40003298  0.11512874  1
  Ta5+  Ta20  1  0.40260966  0.37324448  0.38005353  1
  Ta5+  Ta21  1  0.58822418  0.62804635  0.10605430  1
  Ta5+  Ta22  1  0.12354171  0.37666012  0.62906153  1
  Ta5+  Ta23  1  0.63296817  0.40884070  0.88296238  1
  Ta5+  Ta24  1  0.87619866  0.38846610  0.37902196  1
  Ta5+  Ta25  1  0.64230513  0.06532301  0.88305700  1
  Ta5+  Ta26  1  0.37439549  0.37903150  0.14007538  1
  Ta5+  Ta27  1  0.33963058  0.89149452  0.39806934  1
  Ta5+  Ta28  1  0.59721034  0.12766756  0.39055285  1
  Ta5+  Ta29  1  0.88053800  0.83548748  0.87829892  1
  Ta5+  Ta30  1  0.16108816  0.88047660  0.61496275  1
  Ta5+  Ta31  1  0.89065597  0.11081041  0.62261891  1
  Ta5+  Ta32  1  0.11307819  0.11792929  0.87001929  1
  Ta5+  Ta33  1  0.80659608  0.85261803  0.11293747  1
  Ta5+  Ta34  1  0.18909813  0.62509588  0.08876587  1
  Ta5+  Ta35  1  0.08142120  0.43562250  0.30633646  1
  Ta5+  Ta36  1  0.64086568  0.86669090  0.11398179  1
  Ta5+  Ta37  1  0.13822022  0.87935915  0.39544980  1
  Ta5+  Ta38  1  0.13786647  0.88042798  0.87257620  1
  Ta5+  Ta39  1  0.62497524  0.87891527  0.37567031  1
  Ta5+  Ta40  1  0.14452162  0.62358047  0.63844276  1
  Ta5+  Ta41  1  0.63301019  0.62103128  0.62743979  1
  Ta5+  Ta42  1  0.39925886  0.89021565  0.64666060  1
  Ta5+  Ta43  1  0.88334038  0.37114565  0.63903726  1
  Ta5+  Ta44  1  0.32994474  0.37962434  0.88287575  1
  Ta5+  Ta45  1  0.15770580  0.87401584  0.13292354  1
  Ta5+  Ta46  1  0.37188310  0.12021703  0.14859142  1
  Ta5+  Ta47  1  0.62552879  0.37282139  0.62360073  1
  Ta5+  Ta48  1  0.35412729  0.62753649  0.12332676  1
  Ta5+  Ta49  1  0.62556973  0.11469405  0.62995059  1
  Ta5+  Ta50  1  0.35812389  0.12641902  0.87899692  1
  Ta5+  Ta51  1  0.82108888  0.43539930  0.87349649  1
  Ta5+  Ta52  1  0.85886142  0.62963925  0.11652311  1
  Ta5+  Ta53  1  0.16367185  0.62823725  0.43924167  1
  Ta5+  Ta54  1  0.38425112  0.88363251  0.89102305  1
  Ta5+  Ta55  1  0.61957100  0.11039819  0.14250684  1
  Ta5+  Ta56  1  0.87041636  0.38372075  0.11342474  1
  Ta5+  Ta57  1  0.32514801  0.88161195  0.13533753  1
  Ta5+  Ta58  1  0.38650175  0.61829703  0.88822843  1
  Ta5+  Ta59  1  0.40126404  0.12421443  0.39573040  1
  Ta5+  Ta60  1  0.84633282  0.86054699  0.37322251  1
  Ta5+  Ta61  1  0.40270278  0.62108523  0.38330098  1
  Ta5+  Ta62  1  0.38263360  0.38535641  0.62462587  1
  Ta5+  Ta63  1  0.70095381  0.85962598  0.87385336  1
  Ta5+  Ta64  1  0.59929895  0.37106213  0.37465157  1
  Ta5+  Ta65  1  0.65518550  0.87178651  0.63112648  1
  Ta5+  Ta66  1  0.09444852  0.10807226  0.63214763  1
  Ta5+  Ta67  1  0.85457569  0.06583366  0.87250405  1
  Ta5+  Ta68  1  0.14197234  0.61509173  0.87426286  1
  Ta5+  Ta69  1  0.37646334  0.62527859  0.64128596  1
  Ta5+  Ta70  1  0.40258207  0.12712078  0.62381120  1
  Ta5+  Ta71  1  0.14130936  0.07252512  0.34242359  1
  Ta5+  Ta72  1  0.85964661  0.09630993  0.10795893  1
  Ta5+  Ta73  1  0.88800019  0.64975880  0.87294567  1
  Ta5+  Ta74  1  0.62071606  0.38187816  0.13972379  1
  W6+  W75  1  0.87856060  0.10738932  0.36863187  1
  W6+  W76  1  0.17152083  0.36577449  0.85636605  1
  W6+  W77  1  0.68852084  0.60046970  0.87332863  1
  W6+  W78  1  0.88004157  0.62833164  0.38230102  1
  W6+  W79  1  0.81575230  0.87468593  0.64024390  1
  W6+  W80  1  0.57266706  0.62135826  0.37643579  1
  W6+  W81  1  0.10742350  0.11808206  0.13961787  1
  W6+  W82  1  0.86374840  0.62666754  0.65318404  1
  O2-  O83  1  0.11515545  -0.01332317  0.13760942  1
  O2-  O84  1  0.06334820  -0.02286766  0.37996304  1
  O2-  O85  1  0.15024840  0.00984626  0.58538970  1
  O2-  O86  1  0.09343670  -0.00005241  0.88216638  1
  O2-  O87  1  0.16915891  0.49784336  0.07136097  1
  O2-  O88  1  0.11878521  0.53293241  0.37658916  1
  O2-  O89  1  0.11404786  0.49609607  0.63786905  1
  O2-  O90  1  0.13852702  0.49767221  0.87457409  1
  O2-  O91  1  0.33014263  0.01213555  0.11985044  1
  O2-  O92  1  0.40069155  -0.00134153  0.39889510  1
  O2-  O93  1  0.43238733  0.00823731  0.62974793  1
  O2-  O94  1  0.39537887  0.01181814  0.89064621  1
  O2-  O95  1  0.37472221  0.49625862  0.13228226  1
  O2-  O96  1  0.39604363  0.49691751  0.38891248  1
  O2-  O97  1  0.40228252  0.50664311  0.62081985  1
  O2-  O98  1  0.36786644  0.49600769  0.89812444  1
  O2-  O99  1  0.62014617  -0.00945184  0.11708412  1
  O2-  O100  1  0.61145613  -0.00074100  0.37884949  1
  O2-  O101  1  0.62524546  -0.00557261  0.63186615  1
  O2-  O102  1  0.60150726  -0.04651018  0.90118234  1
  O2-  O103  1  0.59557470  0.49902604  0.13754263  1
  O2-  O104  1  0.60537353  0.48771882  0.38214290  1
  O2-  O105  1  0.63300952  0.49268454  0.63095947  1
  O2-  O106  1  0.57752464  0.51402191  0.88734732  1
  O2-  O107  1  0.85051692  -0.02252324  0.11178565  1
  O2-  O108  1  0.86289814  -0.02430578  0.34901566  1
  O2-  O109  1  0.82314003  0.01257904  0.63711737  1
  O2-  O110  1  0.91546416  -0.03677128  0.86220319  1
  O2-  O111  1  0.87532855  0.50271109  0.11189696  1
  O2-  O112  1  0.83326213  0.49717920  0.37774484  1
  O2-  O113  1  0.87137784  0.48759324  0.64483425  1
  O2-  O114  1  0.90563438  0.52144569  0.86568141  1
  O2-  O115  1  0.14407360  0.26097356  0.14538812  1
  O2-  O116  1  0.08345530  0.30495199  0.32051609  1
  O2-  O117  1  0.13638588  0.22487716  0.60166256  1
  O2-  O118  1  0.01630951  0.18747115  0.85297565  1
  O2-  O119  1  0.14806925  0.74095116  0.12818965  1
  O2-  O120  1  0.14290876  0.74316705  0.39147652  1
  O2-  O121  1  0.18003863  0.75478644  0.63672281  1
  O2-  O122  1  0.14989901  0.75716665  0.85529166  1
  O2-  O123  1  0.32406327  0.24166092  0.14954214  1
  O2-  O124  1  0.34365146  0.24628181  0.38846304  1
  O2-  O125  1  0.36288962  0.25385295  0.62289349  1
  O2-  O126  1  0.38093583  0.25502254  0.87360339  1
  O2-  O127  1  0.35810801  0.75769959  0.15388278  1
  O2-  O128  1  0.38144562  0.77073527  0.37486656  1
  O2-  O129  1  0.39028087  0.75581750  0.65723635  1
  O2-  O130  1  0.38854450  0.75530426  0.86407379  1
  O2-  O131  1  0.62046417  0.23913079  0.11477710  1
  O2-  O132  1  0.65106208  0.24059567  0.38896972  1
  O2-  O133  1  0.67602747  0.24440596  0.62840983  1
  O2-  O134  1  0.53278408  0.32790195  0.88973020  1
  O2-  O135  1  0.57024245  0.75734541  0.10004109  1
  O2-  O136  1  0.55698791  0.76670214  0.37435680  1
  O2-  O137  1  0.58788683  0.75106589  0.63621111  1
  O2-  O138  1  0.65825035  0.74505371  0.87806431  1
  O2-  O139  1  0.86785303  0.23955518  0.09143604  1
  O2-  O140  1  0.91375665  0.24871775  0.38005762  1
  O2-  O141  1  0.84866039  0.23477665  0.63493348  1
  O2-  O142  1  0.73945632  0.32433086  0.88563740  1
  O2-  O143  1  0.78032806  0.72356179  0.09993522  1
  O2-  O144  1  0.92794603  0.76676190  0.37664950  1
  O2-  O145  1  0.88214774  0.75878590  0.65018442  1
  O2-  O146  1  0.97158845  0.74655278  0.87298036  1
  O2-  O147  1  0.23767323  0.13821078  -0.10439216  1
  O2-  O148  1  0.20419250  0.11674682  0.24129627  1
  O2-  O149  1  0.16066447  0.17032661  0.41760151  1
  O2-  O150  1  0.14614519  0.11774142  0.74628593  1
  O2-  O151  1  0.09664467  0.64325685  -0.01154155  1
  O2-  O152  1  0.24304316  0.60760177  0.20386543  1
  O2-  O153  1  0.07633456  0.65658785  0.53676062  1
  O2-  O154  1  0.09468460  0.62895188  0.75387135  1
  O2-  O155  1  0.37736733  0.15452217  0.01076000  1
  O2-  O156  1  0.36240333  0.11122107  0.27233438  1
  O2-  O157  1  0.33109680  0.11976574  0.51667069  1
  O2-  O158  1  0.36282600  0.12619247  0.74471046  1
  O2-  O159  1  0.40438873  0.64768130  0.00722264  1
  O2-  O160  1  0.40454755  0.63585765  0.25672589  1
  O2-  O161  1  0.39328028  0.65200332  0.51581455  1
  O2-  O162  1  0.43248229  0.62233802  0.75977795  1
  O2-  O163  1  0.59335551  0.12845424  -0.01928212  1
  O2-  O164  1  0.64124199  0.11561678  0.26136481  1
  O2-  O165  1  0.66281476  0.12028347  0.50747557  1
  O2-  O166  1  0.64661557  0.12218972  0.76383136  1
  O2-  O167  1  0.65002912  0.62486144  0.00480135  1
  O2-  O168  1  0.59377746  0.65269741  0.23662237  1
  O2-  O169  1  0.56746627  0.62225258  0.52198780  1
  O2-  O170  1  0.61733943  0.63163260  0.75232260  1
  O2-  O171  1  0.90473031  0.11023046  -0.01789449  1
  O2-  O172  1  0.87776275  0.12760630  0.22700569  1
  O2-  O173  1  0.84422285  0.12128106  0.50327559  1
  O2-  O174  1  0.85716301  0.12844704  0.76450326  1
  O2-  O175  1  0.91828752  0.64758237  0.00465527  1
  O2-  O176  1  0.85468087  0.63795949  0.24185198  1
  O2-  O177  1  0.90176903  0.63207817  0.51926099  1
  O2-  O178  1  0.80237789  0.64488831  0.78465799  1
  O2-  O179  1  0.11825929  0.34221279  -0.00389169  1
  O2-  O180  1  0.18085028  0.40647839  0.23007709  1
  O2-  O181  1  0.15067508  0.36088796  0.50726832  1
  O2-  O182  1  0.20248515  0.35269967  0.71476272  1
  O2-  O183  1  0.13338484  0.86571362  -0.00182963  1
  O2-  O184  1  0.15085514  0.85639977  0.26965020  1
  O2-  O185  1  0.07910297  0.85725666  0.51928722  1
  O2-  O186  1  0.12099818  0.89242444  0.73172068  1
  O2-  O187  1  0.33199226  0.35741733  0.01906889  1
  O2-  O188  1  0.33804879  0.36522962  0.26358711  1
  O2-  O189  1  0.33669983  0.37863731  0.50534975  1
  O2-  O190  1  0.37954156  0.38023738  0.75533016  1
  O2-  O191  1  0.36960046  0.86925782  0.01108484  1
  O2-  O192  1  0.32792973  0.88844588  0.27096892  1
  O2-  O193  1  0.40860218  0.87150767  0.51941593  1
  O2-  O194  1  0.44509026  0.88276142  0.76595642  1
  O2-  O195  1  0.62828081  0.36281907  0.00928192  1
  O2-  O196  1  0.65441965  0.35572980  0.25768111  1
  O2-  O197  1  0.66164853  0.36444650  0.50237281  1
  O2-  O198  1  0.62442768  0.34549735  0.75339644  1
  O2-  O199  1  0.71538827  0.86868511  0.00453401  1
  O2-  O200  1  0.62174179  0.85381802  0.24438929  1
  O2-  O201  1  0.61666755  0.86448818  0.50554041  1
  O2-  O202  1  0.63193231  0.86289037  0.75606965  1
  O2-  O203  1  0.88113795  0.37041966  -0.02077321  1
  O2-  O204  1  0.87893541  0.36570971  0.24891820  1
  O2-  O205  1  0.85130340  0.35962307  0.50928558  1
  O2-  O206  1  0.85874464  0.35184436  0.76420942  1
  O2-  O207  1  0.88892048  0.83713688  0.00524054  1
  O2-  O208  1  0.82185650  0.83395791  0.23837783  1
  O2-  O209  1  0.85293598  0.86835650  0.50051814  1
  O2-  O210  1  0.79572896  0.85261815  0.78366495  1
  O2-  O211  1  0.10573486  0.15353065  0.00040823  1
  O2-  O212  1  0.04798126  0.12076676  0.27395433  1
  O2-  O213  1  -0.00081684  0.14815708  0.54954850  1
  O2-  O214  1  -0.00841977  0.06376972  0.68485781  1
  O2-  O215  1  -0.00625501  0.34172923  0.11511876  1
  O2-  O216  1  0.03824318  0.47680118  0.20083025  1
  O2-  O217  1  -0.00744908  0.41055894  0.40690267  1
  O2-  O218  1  0.00175864  0.34469025  0.62111428  1
  O2-  O219  1  0.26306690  -0.10826106  -0.14567475  1
  O2-  O220  1  0.22523671  -0.01885165  0.37445597  1
  O2-  O221  1  0.24052291  -0.13896151  0.47823357  1
  O2-  O222  1  0.28047401  -0.09864799  0.65799796  1
  O2-  O223  1  0.26497704  0.63443761  -0.13241623  1
  O2-  O224  1  0.27227488  0.63343193  0.37961332  1
  O2-  O225  1  0.22460504  0.58551774  0.53892878  1
  O2-  O226  1  0.26604964  0.62192798  0.69366449  1
  O2-  O227  1  0.49285797  0.12318554  0.13925742  1
  O2-  O228  1  0.49909964  0.17168338  0.33085863  1
  O2-  O229  1  0.49634665  0.12307358  0.48467005  1
  O2-  O230  1  0.51567940  0.16932290  0.65628953  1
  O2-  O231  1  0.49050501  0.34761712  0.11746743  1
  O2-  O232  1  0.49646109  0.37672419  0.29503153  1
  O2-  O233  1  0.49849739  0.33409712  0.44964718  1
  O2-  O234  1  0.50477005  0.35739057  0.62690371  1
  O2-  O235  1  0.75003184  0.14972879  -0.09742713  1
  O2-  O236  1  0.73955805  0.11796307  0.09480277  1
  O2-  O237  1  0.73128699  -0.19193877  0.38064870  1
  O2-  O238  1  0.75032278  -0.00307022  0.86275148  1
  O2-  O239  1  0.73877888  0.48376032  -0.04586080  1
  O2-  O240  1  0.74927636  0.37212771  0.11766665  1
  O2-  O241  1  0.74217773  0.64506196  0.59846790  1
  O2-  O242  1  0.72546421  0.47103079  0.79655987  1
