# generated using pymatgen
data_Gd19Ta56(WO20)8
_symmetry_space_group_name_H-M   'P 1'
_cell_length_a   15.51402172
_cell_length_b   15.48061795
_cell_length_c   15.24640942
_cell_angle_alpha   90.09567920
_cell_angle_beta   90.02647156
_cell_angle_gamma   89.99548155
_symmetry_Int_Tables_number   1
_chemical_formula_structural   Gd19Ta56(WO20)8
_chemical_formula_sum   'Gd19 Ta56 W8 O160'
_cell_volume   3661.67346295
_cell_formula_units_Z   1
loop_
 _symmetry_equiv_pos_site_id
 _symmetry_equiv_pos_as_xyz
  1  'x, y, z'
loop_
 _atom_type_symbol
 _atom_type_oxidation_number
  Gd3+  3.0
  Ta5+  5.0
  W6+  6.0
  O2-  -2.0
loop_
 _atom_site_type_symbol
 _atom_site_label
 _atom_site_symmetry_multiplicity
 _atom_site_fract_x
 _atom_site_fract_y
 _atom_site_fract_z
 _atom_site_occupancy
  Gd3+  Gd0  1  0.53537845  0.75502763  0.74932006  1
  Gd3+  Gd1  1  0.50906804  0.26210430  0.24633125  1
  Gd3+  Gd2  1  0.50392602  0.26026967  -0.00341636  1
  Gd3+  Gd3  1  0.48691617  0.75521627  -0.01396634  1
  Gd3+  Gd4  1  0.73768861  0.23889219  0.73916602  1
  Gd3+  Gd5  1  0.47333730  0.25409457  0.49770008  1
  Gd3+  Gd6  1  -0.00773120  0.71255287  0.75110421  1
  Gd3+  Gd7  1  0.76033831  0.75031263  0.25070494  1
  Gd3+  Gd8  1  0.75758944  0.72998911  0.76728205  1
  Gd3+  Gd9  1  0.00136453  0.22740188  -0.00355520  1
  Gd3+  Gd10  1  0.75869195  0.73653783  0.01141409  1
  Gd3+  Gd11  1  0.77337320  0.26307930  0.26606318  1
  Gd3+  Gd12  1  0.01646890  0.22849793  0.50333718  1
  Gd3+  Gd13  1  0.45726368  0.77837178  0.26731936  1
  Gd3+  Gd14  1  0.22852072  0.76370382  0.74618419  1
  Gd3+  Gd15  1  0.21790472  0.75451130  0.28387812  1
  Gd3+  Gd16  1  0.76062986  0.73942060  0.49070385  1
  Gd3+  Gd17  1  0.02045230  0.22024040  0.74573811  1
  Gd3+  Gd18  1  0.49628739  0.77867205  0.51670382  1
  Ta5+  Ta19  1  0.08950910  0.87445723  0.62055293  1
  Ta5+  Ta20  1  0.35908927  0.65167197  0.12117078  1
  Ta5+  Ta21  1  0.07256106  0.87844515  0.37520033  1
  Ta5+  Ta22  1  0.11675399  0.37245100  0.36945527  1
  Ta5+  Ta23  1  0.12121516  0.37354828  0.86929091  1
  Ta5+  Ta24  1  0.12419465  0.62633629  0.12224870  1
  Ta5+  Ta25  1  0.90567592  0.86658258  0.37886172  1
  Ta5+  Ta26  1  0.14744817  0.12588836  0.12258571  1
  Ta5+  Ta27  1  0.11010305  0.37796652  0.11910844  1
  Ta5+  Ta28  1  0.15398416  0.10295124  0.88273788  1
  Ta5+  Ta29  1  0.59784760  0.59598713  0.89377293  1
  Ta5+  Ta30  1  0.42460898  0.91106569  0.08966340  1
  Ta5+  Ta31  1  0.89232772  0.88540440  0.13118431  1
  Ta5+  Ta32  1  0.61151696  0.63377041  0.13565279  1
  Ta5+  Ta33  1  0.35155117  0.13583891  0.36345522  1
  Ta5+  Ta34  1  0.88374218  0.86759756  0.89382699  1
  Ta5+  Ta35  1  0.62787548  0.39059510  0.37543036  1
  Ta5+  Ta36  1  0.87041622  0.59481560  0.61844176  1
  Ta5+  Ta37  1  0.68323393  0.89897540  0.60085090  1
  Ta5+  Ta38  1  0.37716227  0.61133723  0.62762050  1
  Ta5+  Ta39  1  0.34615521  0.37685390  0.65827004  1
  Ta5+  Ta40  1  0.14882201  0.37363164  0.62211073  1
  Ta5+  Ta41  1  0.58900834  0.62986490  0.37669734  1
  Ta5+  Ta42  1  0.13487283  0.11548996  0.36739911  1
  Ta5+  Ta43  1  0.39391517  0.61477026  0.87273860  1
  Ta5+  Ta44  1  0.85826329  0.35596326  0.87653917  1
  Ta5+  Ta45  1  0.89794991  0.61506480  0.14219881  1
  Ta5+  Ta46  1  0.61329216  0.12146791  0.61316299  1
  Ta5+  Ta47  1  0.87065904  0.10991212  0.37004016  1
  Ta5+  Ta48  1  0.37896459  0.13319551  0.12477229  1
  Ta5+  Ta49  1  0.89527694  0.60961877  0.36417182  1
  Ta5+  Ta50  1  0.81155740  0.11980768  0.11711290  1
  Ta5+  Ta51  1  0.34805831  0.12480885  0.87535818  1
  Ta5+  Ta52  1  0.85366421  0.37844755  0.11310548  1
  Ta5+  Ta53  1  0.13458889  0.88315613  0.13024933  1
  Ta5+  Ta54  1  0.70490775  0.94378921  0.80070402  1
  Ta5+  Ta55  1  0.62876354  0.11658093  0.87461849  1
  Ta5+  Ta56  1  0.64122034  0.57623886  0.60988765  1
  Ta5+  Ta57  1  0.08803692  0.87214765  0.89401047  1
  Ta5+  Ta58  1  0.06763538  0.61931272  0.35694569  1
  Ta5+  Ta59  1  0.38157601  0.62908142  0.39331375  1
  Ta5+  Ta60  1  0.61649406  0.89390733  0.14337840  1
  Ta5+  Ta61  1  0.11636404  0.62297164  0.60353312  1
  Ta5+  Ta62  1  0.35697578  0.37295470  0.88022979  1
  Ta5+  Ta63  1  0.62905250  0.13754286  0.37991633  1
  Ta5+  Ta64  1  0.87443408  0.35603337  0.61332288  1
  Ta5+  Ta65  1  0.85178311  0.88004216  0.62715714  1
  Ta5+  Ta66  1  0.64216415  0.39236714  0.11172879  1
  Ta5+  Ta67  1  0.34936353  0.89285746  0.40403510  1
  Ta5+  Ta68  1  0.60757542  0.89897462  0.37815999  1
  Ta5+  Ta69  1  0.16793258  0.10296169  0.62181453  1
  Ta5+  Ta70  1  0.62851825  0.37272428  0.62841858  1
  Ta5+  Ta71  1  0.86369211  0.11037967  0.87357485  1
  Ta5+  Ta72  1  0.85879961  0.10461763  0.61604912  1
  Ta5+  Ta73  1  0.37461687  0.94552023  0.65018726  1
  Ta5+  Ta74  1  0.35919016  0.39207428  0.36937360  1
  W6+  W75  1  0.33226534  0.14559293  0.62399283  1
  W6+  W76  1  0.88127679  0.59820631  0.89411422  1
  W6+  W77  1  0.13828383  0.62493620  0.88140728  1
  W6+  W78  1  0.40759370  0.89790579  0.84028347  1
  W6+  W79  1  0.92204641  0.36343849  0.35579269  1
  W6+  W80  1  0.38711404  0.40259665  0.12752429  1
  W6+  W81  1  0.69549523  0.37385312  0.89649641  1
  W6+  W82  1  0.64658747  0.13163619  0.11993384  1
  O2-  O83  1  0.17123551  0.00151200  0.12917731  1
  O2-  O84  1  0.08327263  0.00831311  0.37507711  1
  O2-  O85  1  0.09499094  -0.00314701  0.61897112  1
  O2-  O86  1  0.08898338  -0.00781967  0.87515233  1
  O2-  O87  1  0.10948368  0.50138188  0.12004077  1
  O2-  O88  1  0.09001031  0.49037019  0.36421865  1
  O2-  O89  1  0.13364793  0.49897019  0.62485866  1
  O2-  O90  1  0.12577564  0.49053115  0.86385979  1
  O2-  O91  1  0.36157401  0.00756924  0.12476521  1
  O2-  O92  1  0.34310771  0.01097817  0.37794652  1
  O2-  O93  1  0.43362204  0.04950062  0.64454854  1
  O2-  O94  1  0.42287990  0.03095214  0.85641291  1
  O2-  O95  1  0.37410027  0.53569817  0.12679757  1
  O2-  O96  1  0.33680780  0.51699807  0.37499572  1
  O2-  O97  1  0.39039919  0.49173147  0.62649547  1
  O2-  O98  1  0.34384751  0.50593789  0.87257247  1
  O2-  O99  1  0.67428202  -0.00510713  0.12440397  1
  O2-  O100  1  0.60515098  0.02099025  0.34842804  1
  O2-  O101  1  0.60491127  0.00296314  0.60969741  1
  O2-  O102  1  0.60183250  -0.00872212  0.84301075  1
  O2-  O103  1  0.60824306  0.50950353  0.13854999  1
  O2-  O104  1  0.62438296  0.51236797  0.36285370  1
  O2-  O105  1  0.56872069  0.48456093  0.64660352  1
  O2-  O106  1  0.67773982  0.51184128  0.86944665  1
  O2-  O107  1  0.87111332  0.00231715  0.12275594  1
  O2-  O108  1  0.89133119  -0.00937882  0.37541793  1
  O2-  O109  1  0.90610386  -0.00603146  0.62355701  1
  O2-  O110  1  0.89434062  -0.01091266  0.87059640  1
  O2-  O111  1  0.90444309  0.49211626  0.12519543  1
  O2-  O112  1  0.89545145  0.49070798  0.36410722  1
  O2-  O113  1  0.90912049  0.47416815  0.62405898  1
  O2-  O114  1  0.89643966  0.46764710  0.87577603  1
  O2-  O115  1  0.10677378  0.24717862  0.10256514  1
  O2-  O116  1  0.09884416  0.24135258  0.37741895  1
  O2-  O117  1  0.11700676  0.23870365  0.62426785  1
  O2-  O118  1  0.09247012  0.23336237  0.87620667  1
  O2-  O119  1  0.16584985  0.75814770  0.14261413  1
  O2-  O120  1  0.08087834  0.74675360  0.35268430  1
  O2-  O121  1  0.15398058  0.74848769  0.61320392  1
  O2-  O122  1  0.15513751  0.76413742  0.87431161  1
  O2-  O123  1  0.41886574  0.26049181  0.12514507  1
  O2-  O124  1  0.39401165  0.26066198  0.35608414  1
  O2-  O125  1  0.39700318  0.27290348  0.62411930  1
  O2-  O126  1  0.39848680  0.25344815  0.88421957  1
  O2-  O127  1  0.41319619  0.77692822  0.12149651  1
  O2-  O128  1  0.38704594  0.75745616  0.41179242  1
  O2-  O129  1  0.47109946  0.68937191  0.63266843  1
  O2-  O130  1  0.42564414  0.75100445  0.85004304  1
  O2-  O131  1  0.60368979  0.26865922  0.11574569  1
  O2-  O132  1  0.58310325  0.26510478  0.39009228  1
  O2-  O133  1  0.58612335  0.25800828  0.60930390  1
  O2-  O134  1  0.68505645  0.23140269  0.88066191  1
  O2-  O135  1  0.65525669  0.76922783  0.12140822  1
  O2-  O136  1  0.58371827  0.76256012  0.38995021  1
  O2-  O137  1  0.63330968  0.78764768  0.57066941  1
  O2-  O138  1  0.62613878  0.71701225  0.86986034  1
  O2-  O139  1  0.80916152  0.24408629  0.12025358  1
  O2-  O140  1  0.90412672  0.22946148  0.35581172  1
  O2-  O141  1  0.91921943  0.23009796  0.62702579  1
  O2-  O142  1  0.91662181  0.22969770  0.86491110  1
  O2-  O143  1  0.85622986  0.74682571  0.13525004  1
  O2-  O144  1  0.85321806  0.73935531  0.36648034  1
  O2-  O145  1  0.81887404  0.72550072  0.62698654  1
  O2-  O146  1  0.84983639  0.73700750  0.89091808  1
  O2-  O147  1  0.09206502  0.10563244  0.00555913  1
  O2-  O148  1  0.10918869  0.12692602  0.23854330  1
  O2-  O149  1  0.15304116  0.12104037  0.49836135  1
  O2-  O150  1  0.13459898  0.12112531  0.75337231  1
  O2-  O151  1  0.17612580  0.62539173  0.01317654  1
  O2-  O152  1  0.15398192  0.62213771  0.24900536  1
  O2-  O153  1  0.11106690  0.62206747  0.48116855  1
  O2-  O154  1  0.12338693  0.64357188  0.73945101  1
  O2-  O155  1  0.40874370  0.13320869  0.00432485  1
  O2-  O156  1  0.42025562  0.12687821  0.24774965  1
  O2-  O157  1  0.35903457  0.15262921  0.48545860  1
  O2-  O158  1  0.32531563  0.15769929  0.76081190  1
  O2-  O159  1  0.35788963  0.66902029  -0.01062498  1
  O2-  O160  1  0.33866940  0.67251630  0.25220465  1
  O2-  O161  1  0.32149962  0.63417899  0.52195243  1
  O2-  O162  1  0.32732845  0.63769751  0.73882874  1
  O2-  O163  1  0.58977085  0.12785482  -0.01063871  1
  O2-  O164  1  0.64868365  0.17393566  0.25887243  1
  O2-  O165  1  0.56338479  0.12965793  0.49317836  1
  O2-  O166  1  0.62007292  0.14067462  0.74080390  1
  O2-  O167  1  0.64783078  0.63055046  0.01160126  1
  O2-  O168  1  0.63809148  0.65743900  0.25888493  1
  O2-  O169  1  0.65639152  0.62725109  0.49597533  1
  O2-  O170  1  0.64428329  0.65785603  0.69861617  1
  O2-  O171  1  0.87114385  0.12978682  -0.00000520  1
  O2-  O172  1  0.82858965  0.11826342  0.24449082  1
  O2-  O173  1  0.90263581  0.12434614  0.49735053  1
  O2-  O174  1  0.84822957  0.12844137  0.74407514  1
  O2-  O175  1  0.84089164  0.61531794  0.02779083  1
  O2-  O176  1  0.82047462  0.61249532  0.24276945  1
  O2-  O177  1  0.85721079  0.61857065  0.49400238  1
  O2-  O178  1  0.87168348  0.62019471  0.74829551  1
  O2-  O179  1  0.07352728  0.36828315  -0.01248906  1
  O2-  O180  1  0.10973527  0.36360845  0.24032304  1
  O2-  O181  1  0.09598365  0.36374050  0.50546330  1
  O2-  O182  1  0.07484725  0.35761662  0.74695222  1
  O2-  O183  1  0.15021313  0.87674481  0.00613929  1
  O2-  O184  1  0.14591071  0.88251601  0.26130077  1
  O2-  O185  1  0.10165347  0.86650480  0.49447470  1
  O2-  O186  1  0.12676310  0.86712231  0.74265629  1
  O2-  O187  1  0.40523090  0.38657144  -0.00842587  1
  O2-  O188  1  0.41764045  0.39709786  0.26146094  1
  O2-  O189  1  0.42627370  0.39020947  0.47083730  1
  O2-  O190  1  0.41153189  0.38748796  0.76785785  1
  O2-  O191  1  0.38458308  0.87701173  -0.02318141  1
  O2-  O192  1  0.33199956  0.85489112  0.28561388  1
  O2-  O193  1  0.37914652  0.88910806  0.53735057  1
  O2-  O194  1  0.30635664  0.88857600  0.74105007  1
  O2-  O195  1  0.58813876  0.38406006  -0.00578942  1
  O2-  O196  1  0.60276217  0.37284520  0.25046404  1
  O2-  O197  1  0.61984407  0.39880832  0.50260121  1
  O2-  O198  1  0.65601274  0.36016838  0.75216145  1
  O2-  O199  1  0.74459147  0.86772976  -0.11016912  1
  O2-  O200  1  0.66279996  0.86853796  0.26690934  1
  O2-  O201  1  0.69205675  0.90720890  0.46505738  1
  O2-  O202  1  0.65631667  0.84598068  0.73216994  1
  O2-  O203  1  0.89889461  0.33514462  0.00202074  1
  O2-  O204  1  0.91040976  0.34153804  0.21778665  1
  O2-  O205  1  0.91584553  0.34219665  0.49704915  1
  O2-  O206  1  0.85856563  0.33828205  0.74579887  1
  O2-  O207  1  0.83149370  0.86623630  0.02108915  1
  O2-  O208  1  0.85348884  0.87182287  0.25022748  1
  O2-  O209  1  0.87041032  0.84879829  0.50109887  1
  O2-  O210  1  0.83860324  0.85386828  0.75812196  1
  O2-  O211  1  -0.01440614  -0.12984632  -0.02558092  1
  O2-  O212  1  0.01330592  -0.11995248  0.14278617  1
  O2-  O213  1  -0.01992216  -0.17443450  0.63680637  1
  O2-  O214  1  -0.01402681  -0.16359156  0.82266196  1
  O2-  O215  1  0.00945450  0.65800741  0.09777927  1
  O2-  O216  1  -0.02057314  0.62401486  0.25939555  1
  O2-  O217  1  -0.00671078  0.63312543  0.61586958  1
  O2-  O218  1  0.00536280  0.64645483  0.88054982  1
  O2-  O219  1  0.24349995  0.16926567  -0.05761665  1
  O2-  O220  1  0.26196520  0.16473315  0.13386679  1
  O2-  O221  1  0.26542299  0.02208655  0.62590368  1
  O2-  O222  1  0.25254020  0.03328903  0.86478325  1
  O2-  O223  1  0.23833992  0.35142478  -0.10321644  1
  O2-  O224  1  0.23992959  0.36412261  0.37273349  1
  O2-  O225  1  0.25716225  0.38081911  0.56324179  1
  O2-  O226  1  0.24124853  0.36236709  0.72343136  1
  O2-  O227  1  0.54676366  -0.11329984  0.03446962  1
  O2-  O228  1  0.50204551  -0.09233968  0.20012518  1
  O2-  O229  1  0.48276155  -0.10324793  0.39395660  1
  O2-  O230  1  0.46625841  -0.12089086  0.70591329  1
  O2-  O231  1  0.49089108  0.58531638  -0.04214971  1
  O2-  O232  1  0.48045102  0.62817704  0.31006395  1
  O2-  O233  1  0.48636615  0.62372243  0.47258102  1
  O2-  O234  1  0.50187080  0.60310456  0.79855815  1
  O2-  O235  1  0.74460545  0.06032446  -0.12754382  1
  O2-  O236  1  0.74791228  0.13450670  0.40256734  1
  O2-  O237  1  0.73708645  0.14545178  0.60055743  1
  O2-  O238  1  0.75483592  -0.01819553  0.68977166  1
  O2-  O239  1  0.74492231  0.40112110  0.03092178  1
  O2-  O240  1  0.75009434  0.39081377  0.18934909  1
  O2-  O241  1  0.75359992  0.34348978  0.60320628  1
  O2-  O242  1  0.75333422  0.53695076  0.62339411  1
