# generated using pymatgen
data_Gd19Ta56(WO20)8
_symmetry_space_group_name_H-M   'P 1'
_cell_length_a   15.50962300
_cell_length_b   15.49729674
_cell_length_c   15.32366341
_cell_angle_alpha   89.92693251
_cell_angle_beta   90.02436145
_cell_angle_gamma   89.78240831
_symmetry_Int_Tables_number   1
_chemical_formula_structural   Gd19Ta56(WO20)8
_chemical_formula_sum   'Gd19 Ta56 W8 O160'
_cell_volume   3683.12339449
_cell_formula_units_Z   1
loop_
 _symmetry_equiv_pos_site_id
 _symmetry_equiv_pos_as_xyz
  1  'x, y, z'
loop_
 _atom_type_symbol
 _atom_type_oxidation_number
  Gd3+  3.0
  Ta5+  5.0
  W6+  6.0
  O2-  -2.0
loop_
 _atom_site_type_symbol
 _atom_site_label
 _atom_site_symmetry_multiplicity
 _atom_site_fract_x
 _atom_site_fract_y
 _atom_site_fract_z
 _atom_site_occupancy
  Gd3+  Gd0  1  0.49424286  0.77627366  0.75098644  1
  Gd3+  Gd1  1  -0.00843822  0.76369950  0.71583236  1
  Gd3+  Gd2  1  0.01843807  0.23791383  0.49121975  1
  Gd3+  Gd3  1  0.75044378  0.27118821  0.49369069  1
  Gd3+  Gd4  1  -0.01901798  0.25167796  0.74322603  1
  Gd3+  Gd5  1  0.01073867  0.26160605  0.24157748  1
  Gd3+  Gd6  1  0.21873792  0.23934483  0.01590700  1
  Gd3+  Gd7  1  0.25938044  0.75845675  0.73470661  1
  Gd3+  Gd8  1  0.51240033  0.25043872  0.01408567  1
  Gd3+  Gd9  1  0.74392934  0.25726382  0.76978849  1
  Gd3+  Gd10  1  0.24787005  0.21925652  0.26419676  1
  Gd3+  Gd11  1  0.48440730  0.75256261  0.50867810  1
  Gd3+  Gd12  1  0.51660111  0.76019163  0.00371053  1
  Gd3+  Gd13  1  0.76216368  0.76392982  0.25923415  1
  Gd3+  Gd14  1  0.23297543  0.75582013  0.25186876  1
  Gd3+  Gd15  1  0.50921008  0.77017513  0.26221769  1
  Gd3+  Gd16  1  0.77594097  0.74916067  0.02370872  1
  Gd3+  Gd17  1  -0.01270098  0.24287806  -0.00181831  1
  Gd3+  Gd18  1  0.00021331  0.75099508  0.26835958  1
  Ta5+  Ta19  1  0.13657841  0.92097018  0.61973390  1
  Ta5+  Ta20  1  0.59025924  0.36974727  0.37770600  1
  Ta5+  Ta21  1  0.37097117  0.59885931  0.88313965  1
  Ta5+  Ta22  1  0.14536970  0.12039940  0.63257931  1
  Ta5+  Ta23  1  0.63783049  0.12633508  0.37067316  1
  Ta5+  Ta24  1  0.62272617  0.88299180  0.39715325  1
  Ta5+  Ta25  1  0.36622803  0.85812303  0.11585053  1
  Ta5+  Ta26  1  0.62118230  0.38510639  0.88850258  1
  Ta5+  Ta27  1  0.63157923  0.36472533  0.14487092  1
  Ta5+  Ta28  1  0.86766194  0.38169499  0.88254233  1
  Ta5+  Ta29  1  0.34005029  0.60276166  0.59137891  1
  Ta5+  Ta30  1  0.63444330  0.62003125  0.87095651  1
  Ta5+  Ta31  1  0.63760486  0.88685578  0.12600235  1
  Ta5+  Ta32  1  0.34028915  0.92607014  0.62050070  1
  Ta5+  Ta33  1  0.87472408  0.87863952  0.88598465  1
  Ta5+  Ta34  1  0.92183571  0.60348843  0.12461318  1
  Ta5+  Ta35  1  0.41416096  0.14324107  0.65210535  1
  Ta5+  Ta36  1  0.86980860  0.11658226  0.87694603  1
  Ta5+  Ta37  1  0.39415338  0.12288489  0.39602271  1
  Ta5+  Ta38  1  0.11751720  0.11138832  0.87155883  1
  Ta5+  Ta39  1  0.12447715  0.42984657  0.09966661  1
  Ta5+  Ta40  1  0.86972993  0.61954247  0.86797059  1
  Ta5+  Ta41  1  0.12792521  0.62206210  0.89134001  1
  Ta5+  Ta42  1  0.11876916  0.08995326  0.37694803  1
  Ta5+  Ta43  1  0.11713541  0.86608279  0.87126743  1
  Ta5+  Ta44  1  0.11301097  0.37742371  0.88711239  1
  Ta5+  Ta45  1  0.64244205  0.61013745  0.13087268  1
  Ta5+  Ta46  1  0.10163378  0.89197274  0.37797299  1
  Ta5+  Ta47  1  0.11817594  0.87867587  0.11857657  1
  Ta5+  Ta48  1  0.87900439  0.93144641  0.13624658  1
  Ta5+  Ta49  1  0.35873469  0.10804071  0.11888687  1
  Ta5+  Ta50  1  0.13402631  0.61015429  0.59141494  1
  Ta5+  Ta51  1  0.85464115  0.38362330  0.13578744  1
  Ta5+  Ta52  1  0.87389584  0.12043956  0.36863841  1
  Ta5+  Ta53  1  0.07394942  0.08234091  0.12510149  1
  Ta5+  Ta54  1  0.64745258  0.12273951  0.62410595  1
  Ta5+  Ta55  1  0.82636156  0.87467599  0.55641997  1
  Ta5+  Ta56  1  0.85240558  0.63132012  0.61825825  1
  Ta5+  Ta57  1  0.39714751  0.61142899  0.12225381  1
  Ta5+  Ta58  1  0.64984209  0.87702858  0.61235679  1
  Ta5+  Ta59  1  0.67095274  0.12605349  0.12388766  1
  Ta5+  Ta60  1  0.36064642  0.36629891  0.63103494  1
  Ta5+  Ta61  1  0.83907940  0.14005993  0.12493451  1
  Ta5+  Ta62  1  0.35062544  0.37198464  0.38714442  1
  Ta5+  Ta63  1  0.90212884  0.40124078  0.37374271  1
  Ta5+  Ta64  1  0.36533371  0.11821400  0.90062793  1
  Ta5+  Ta65  1  0.62771970  0.12230360  0.88014178  1
  Ta5+  Ta66  1  0.88679502  0.59668336  0.37253322  1
  Ta5+  Ta67  1  0.38462862  0.61692916  0.35506613  1
  Ta5+  Ta68  1  0.61295918  0.62405347  0.62967550  1
  Ta5+  Ta69  1  0.10134294  0.37297701  0.62949693  1
  Ta5+  Ta70  1  0.63558891  0.88234668  0.86658290  1
  Ta5+  Ta71  1  0.90107482  0.87865112  0.38635114  1
  Ta5+  Ta72  1  0.09178286  0.62751576  0.12624822  1
  Ta5+  Ta73  1  0.60564861  0.37518717  0.63209127  1
  Ta5+  Ta74  1  0.14903192  0.61505713  0.38247298  1
  W6+  W75  1  0.86613514  0.11407315  0.61466161  1
  W6+  W76  1  0.36246028  0.35923025  0.87481870  1
  W6+  W77  1  0.63164573  0.61853507  0.37895562  1
  W6+  W78  1  0.35910094  0.36294374  0.13162305  1
  W6+  W79  1  0.36921220  0.88067963  0.37876675  1
  W6+  W80  1  0.12402121  0.37185261  0.36441884  1
  W6+  W81  1  0.44317709  0.95517216  0.97659447  1
  W6+  W82  1  0.89221691  0.38241110  0.61721822  1
  O2-  O83  1  0.16069229  -0.00438491  0.10919377  1
  O2-  O84  1  0.18403053  -0.01190228  0.38425815  1
  O2-  O85  1  0.06829597  0.02411908  0.64844890  1
  O2-  O86  1  0.14300801  -0.01403344  0.86449582  1
  O2-  O87  1  0.18414862  0.53609577  0.10037436  1
  O2-  O88  1  0.16648011  0.49995330  0.37524842  1
  O2-  O89  1  0.09682699  0.50392166  0.63429586  1
  O2-  O90  1  0.09944420  0.50443407  0.88602271  1
  O2-  O91  1  0.36833635  -0.01731256  0.10844382  1
  O2-  O92  1  0.35627326  0.01301764  0.37768243  1
  O2-  O93  1  0.41388418  0.01713410  0.65295714  1
  O2-  O94  1  0.35563212  -0.00008026  0.88100378  1
  O2-  O95  1  0.37849776  0.49599364  0.12358080  1
  O2-  O96  1  0.36577837  0.49527869  0.36067695  1
  O2-  O97  1  0.38301869  0.49932839  0.63020304  1
  O2-  O98  1  0.40572400  0.49301644  0.84698691  1
  O2-  O99  1  0.63401339  0.00514504  0.12394394  1
  O2-  O100  1  0.65302669  0.00356483  0.38980000  1
  O2-  O101  1  0.64939659  0.00274640  0.61714175  1
  O2-  O102  1  0.60332468  0.00027590  0.87456050  1
  O2-  O103  1  0.65972442  0.49073235  0.13513138  1
  O2-  O104  1  0.62045917  0.48348303  0.37948039  1
  O2-  O105  1  0.61343699  0.49798524  0.62905412  1
  O2-  O106  1  0.58863565  0.50707198  0.88970100  1
  O2-  O107  1  0.79724758  0.02071537  0.10358444  1
  O2-  O108  1  0.86247473  -0.00078602  0.37614469  1
  O2-  O109  1  0.84434748  -0.01823974  0.60485250  1
  O2-  O110  1  0.90615570  -0.00388721  0.86536138  1
  O2-  O111  1  0.83920812  0.50264261  0.13608956  1
  O2-  O112  1  0.81503494  0.50329033  0.34642671  1
  O2-  O113  1  0.87229909  0.51623340  0.63921089  1
  O2-  O114  1  0.90129940  0.50060070  0.86206804  1
  O2-  O115  1  0.08774388  0.21016786  0.11904854  1
  O2-  O116  1  0.12141670  0.22824122  0.35137966  1
  O2-  O117  1  0.09920006  0.23888014  0.63688930  1
  O2-  O118  1  0.12436886  0.24354983  0.90085912  1
  O2-  O119  1  0.09807010  0.75099961  0.14996060  1
  O2-  O120  1  0.11295779  0.76145860  0.36831332  1
  O2-  O121  1  0.09493445  0.71843321  0.62988385  1
  O2-  O122  1  0.19039609  0.76447890  0.86301462  1
  O2-  O123  1  0.31378357  0.23264454  0.12845650  1
  O2-  O124  1  0.33062734  0.23340363  0.38787906  1
  O2-  O125  1  0.34432285  0.24257289  0.62406240  1
  O2-  O126  1  0.31335824  0.23590885  0.90202337  1
  O2-  O127  1  0.43180254  0.74256364  0.13063232  1
  O2-  O128  1  0.41246309  0.74902538  0.37642068  1
  O2-  O129  1  0.40545843  0.70099370  0.63029353  1
  O2-  O130  1  0.50843082  0.85634653  0.88392433  1
  O2-  O131  1  0.60357661  0.24228536  0.13341220  1
  O2-  O132  1  0.66171898  0.26485785  0.36884899  1
  O2-  O133  1  0.68165489  0.26401148  0.63257458  1
  O2-  O134  1  0.62629017  0.25536730  0.88051682  1
  O2-  O135  1  0.62195085  0.74683484  0.12394292  1
  O2-  O136  1  0.61848130  0.75481067  0.37829049  1
  O2-  O137  1  0.58393038  0.75381624  0.62839748  1
  O2-  O138  1  0.63228920  0.74473890  0.87023821  1
  O2-  O139  1  0.91258352  0.25969950  0.12759475  1
  O2-  O140  1  0.92185674  0.26552951  0.37392120  1
  O2-  O141  1  0.91591679  0.24371801  0.60413035  1
  O2-  O142  1  0.85002449  0.24931276  0.88839760  1
  O2-  O143  1  0.83677497  0.69959696  0.14684122  1
  O2-  O144  1  0.87602182  0.73867625  0.35582068  1
  O2-  O145  1  0.87035777  0.76196004  0.62532755  1
  O2-  O146  1  0.84764978  0.74970418  0.88880892  1
  O2-  O147  1  0.07612645  0.10137858  -0.00463063  1
  O2-  O148  1  0.11093932  0.09386382  0.24750047  1
  O2-  O149  1  0.13531808  0.12685746  0.50474767  1
  O2-  O150  1  0.16902902  0.13138769  0.75811736  1
  O2-  O151  1  0.08083216  0.65694664  -0.00419927  1
  O2-  O152  1  0.11619437  0.62864614  0.26163059  1
  O2-  O153  1  0.07274004  0.62428637  0.48205306  1
  O2-  O154  1  0.06519812  0.66449965  0.79848105  1
  O2-  O155  1  0.43884702  0.12206547  0.01349900  1
  O2-  O156  1  0.36255007  0.12435946  0.24504385  1
  O2-  O157  1  0.39819905  0.11997753  0.51656571  1
  O2-  O158  1  0.39903200  0.14391505  0.77506731  1
  O2-  O159  1  0.42236592  0.63422068  -0.01056996  1
  O2-  O160  1  0.33709450  0.64035485  0.22990850  1
  O2-  O161  1  0.40198202  0.61749516  0.48172353  1
  O2-  O162  1  0.38147954  0.69480636  0.80882748  1
  O2-  O163  1  0.61814509  0.13507978  0.00391969  1
  O2-  O164  1  0.66347578  0.12587787  0.25230459  1
  O2-  O165  1  0.65568085  0.15027504  0.49908303  1
  O2-  O166  1  0.65542549  0.13493340  0.75160516  1
  O2-  O167  1  0.67025131  0.63131020  0.00451965  1
  O2-  O168  1  0.68294407  0.63663597  0.24698183  1
  O2-  O169  1  0.57961117  0.63121549  0.51053860  1
  O2-  O170  1  0.57140137  0.63143889  0.75281529  1
  O2-  O171  1  0.89191431  0.12747801  0.00048692  1
  O2-  O172  1  0.84857507  0.15120861  0.25207934  1
  O2-  O173  1  0.83549700  0.14621505  0.48667396  1
  O2-  O174  1  0.85734916  0.15095014  0.74850569  1
  O2-  O175  1  0.88423402  0.62282730  -0.00592189  1
  O2-  O176  1  0.93790192  0.61226187  0.25579917  1
  O2-  O177  1  0.86279362  0.62579658  0.49624775  1
  O2-  O178  1  0.89959862  0.65125459  0.74804472  1
  O2-  O179  1  0.20143657  0.38929899  -0.01059230  1
  O2-  O180  1  0.11329802  0.37573123  0.21065559  1
  O2-  O181  1  0.10762133  0.35814575  0.50505065  1
  O2-  O182  1  0.11875015  0.36713112  0.76141777  1
  O2-  O183  1  0.11704691  0.85725516  -0.00873532  1
  O2-  O184  1  0.11485990  0.88394613  0.24871458  1
  O2-  O185  1  0.10051759  0.89181895  0.51011731  1
  O2-  O186  1  0.11619808  0.86178082  0.73196014  1
  O2-  O187  1  0.40520613  0.34773181  0.00292501  1
  O2-  O188  1  0.31055386  0.35171692  0.26941242  1
  O2-  O189  1  0.31891646  0.38273432  0.50809061  1
  O2-  O190  1  0.31958705  0.37191068  0.74301850  1
  O2-  O191  1  0.38033086  0.82789297  -0.00650627  1
  O2-  O192  1  0.36041659  0.84605510  0.24519816  1
  O2-  O193  1  0.39012455  0.87889022  0.52128879  1
  O2-  O194  1  0.37288561  0.85751714  0.71936575  1
  O2-  O195  1  0.60052780  0.37386801  0.01727543  1
  O2-  O196  1  0.56853512  0.37312303  0.25013096  1
  O2-  O197  1  0.62671046  0.36031889  0.50709957  1
  O2-  O198  1  0.63244540  0.37508024  0.75587151  1
  O2-  O199  1  0.65990372  0.85876134  -0.00423367  1
  O2-  O200  1  0.64154535  0.86682187  0.25310151  1
  O2-  O201  1  0.56438953  0.88207808  0.51210714  1
  O2-  O202  1  0.61748558  0.87172493  0.74041764  1
  O2-  O203  1  0.87189474  0.37734396  0.01059995  1
  O2-  O204  1  0.92509587  0.38492088  0.24287732  1
  O2-  O205  1  0.84810812  0.38390267  0.48420439  1
  O2-  O206  1  0.86279749  0.35173173  0.75393764  1
  O2-  O207  1  0.86346584  0.88105617  0.00684810  1
  O2-  O208  1  0.89216930  0.87625157  0.24857366  1
  O2-  O209  1  0.93665039  0.85013740  0.50330966  1
  O2-  O210  1  0.99507102  0.83934254  0.85147117  1
  O2-  O211  1  -0.00333267  -0.10514893  0.10610481  1
  O2-  O212  1  -0.04339196  0.04811833  0.14868864  1
  O2-  O213  1  -0.00397853  0.11127741  0.39576646  1
  O2-  O214  1  -0.00180223  0.14518036  0.84513483  1
  O2-  O215  1  0.04891863  0.37370344  0.01658458  1
  O2-  O216  1  0.02249937  0.51043308  0.11886104  1
  O2-  O217  1  -0.03098192  0.50281009  0.39867194  1
  O2-  O218  1  -0.00968111  0.33980204  0.86892654  1
  O2-  O219  1  0.28075849  0.10574231  0.01155380  1
  O2-  O220  1  0.24526725  -0.16800239  0.11944931  1
  O2-  O221  1  0.23992224  -0.15774623  0.61443376  1
  O2-  O222  1  0.23531949  0.00914498  0.61959962  1
  O2-  O223  1  0.25205062  0.59814734  -0.10170189  1
  O2-  O224  1  0.26199406  0.66624607  0.37105460  1
  O2-  O225  1  0.23469670  0.58923630  0.51753829  1
  O2-  O226  1  0.24269202  0.62849217  0.67545566  1
  O2-  O227  1  0.51093126  -0.11645502  0.09656824  1
  O2-  O228  1  0.50679253  -0.10772299  0.34988567  1
  O2-  O229  1  0.51374282  0.13447147  0.37139953  1
  O2-  O230  1  0.52830169  0.17244823  0.63416463  1
  O2-  O231  1  0.52252095  0.60089174  0.12980729  1
  O2-  O232  1  0.50109920  0.62389939  0.31454901  1
  O2-  O233  1  0.47153745  0.35022974  0.40414562  1
  O2-  O234  1  0.48653378  0.35781849  0.63129175  1
  O2-  O235  1  0.75006224  0.10050717  -0.10950097  1
  O2-  O236  1  0.76496721  -0.14536325  0.13645539  1
  O2-  O237  1  0.71457708  -0.16212124  0.50098950  1
  O2-  O238  1  0.75989126  -0.10554126  0.84625523  1
  O2-  O239  1  0.74292918  0.39799454  -0.11051346  1
  O2-  O240  1  0.74803390  0.34057990  0.17807595  1
  O2-  O241  1  0.73121236  0.64194306  0.63872757  1
  O2-  O242  1  0.75149587  0.59928287  0.84234048  1
