# generated using pymatgen
data_Gd19Ta56(WO20)8
_symmetry_space_group_name_H-M   'P 1'
_cell_length_a   15.56230739
_cell_length_b   15.49194547
_cell_length_c   15.13615810
_cell_angle_alpha   89.96416247
_cell_angle_beta   89.90798118
_cell_angle_gamma   90.02078930
_symmetry_Int_Tables_number   1
_chemical_formula_structural   Gd19Ta56(WO20)8
_chemical_formula_sum   'Gd19 Ta56 W8 O160'
_cell_volume   3649.17701159
_cell_formula_units_Z   1
loop_
 _symmetry_equiv_pos_site_id
 _symmetry_equiv_pos_as_xyz
  1  'x, y, z'
loop_
 _atom_type_symbol
 _atom_type_oxidation_number
  Gd3+  3.0
  Ta5+  5.0
  W6+  6.0
  O2-  -2.0
loop_
 _atom_site_type_symbol
 _atom_site_label
 _atom_site_symmetry_multiplicity
 _atom_site_fract_x
 _atom_site_fract_y
 _atom_site_fract_z
 _atom_site_occupancy
  Gd3+  Gd0  1  0.26046618  0.23316322  0.24492833  1
  Gd3+  Gd1  1  -0.03787685  0.27892773  0.79501587  1
  Gd3+  Gd2  1  0.03598925  0.78542480  0.23520508  1
  Gd3+  Gd3  1  0.73700866  0.25009679  0.24609749  1
  Gd3+  Gd4  1  0.01804006  0.74219173  0.74383889  1
  Gd3+  Gd5  1  0.26654171  0.25535721  0.00014936  1
  Gd3+  Gd6  1  0.73358018  0.75913599  0.74812528  1
  Gd3+  Gd7  1  0.50741803  0.23238726  0.23540374  1
  Gd3+  Gd8  1  0.53612932  0.73555841  0.50719955  1
  Gd3+  Gd9  1  0.00221720  0.77839089  -0.00899709  1
  Gd3+  Gd10  1  0.49787146  0.75411575  0.75227922  1
  Gd3+  Gd11  1  0.02743133  0.23818874  0.27305646  1
  Gd3+  Gd12  1  0.50335749  0.73416605  0.25071340  1
  Gd3+  Gd13  1  0.74606931  0.74784349  -0.02402869  1
  Gd3+  Gd14  1  0.22661169  0.23865299  0.49333699  1
  Gd3+  Gd15  1  0.50296211  0.73300204  -0.01226535  1
  Gd3+  Gd16  1  0.25122655  0.73410783  0.25294065  1
  Gd3+  Gd17  1  0.79179213  0.75958069  0.51790311  1
  Gd3+  Gd18  1  -0.01533729  0.27254835  0.51073076  1
  Ta5+  Ta19  1  0.13009577  0.39676486  0.38258197  1
  Ta5+  Ta20  1  0.61225819  0.89487522  0.87419119  1
  Ta5+  Ta21  1  0.11423775  0.58487148  0.86505305  1
  Ta5+  Ta22  1  0.35702088  0.36125748  0.82979806  1
  Ta5+  Ta23  1  0.35890044  0.87835873  0.88940611  1
  Ta5+  Ta24  1  0.89748834  0.62305750  0.13283104  1
  Ta5+  Ta25  1  0.85446062  0.91728987  0.90039107  1
  Ta5+  Ta26  1  0.63723539  0.60913586  0.36850095  1
  Ta5+  Ta27  1  0.87360848  0.13126079  0.39541685  1
  Ta5+  Ta28  1  0.17371197  0.35250910  0.79898530  1
  Ta5+  Ta29  1  0.13878662  0.38487511  0.63122929  1
  Ta5+  Ta30  1  0.41471271  0.38771650  0.08426545  1
  Ta5+  Ta31  1  0.89676663  0.91524821  0.64789777  1
  Ta5+  Ta32  1  0.36638565  0.60260136  0.10761531  1
  Ta5+  Ta33  1  0.86234438  0.89550717  0.13157946  1
  Ta5+  Ta34  1  0.28377518  0.09625302  0.66152275  1
  Ta5+  Ta35  1  0.11533186  0.13145010  0.64454950  1
  Ta5+  Ta36  1  0.62422198  0.60180342  0.87200218  1
  Ta5+  Ta37  1  0.78502643  0.36267769  0.90453458  1
  Ta5+  Ta38  1  0.39134777  0.61945157  0.39586449  1
  Ta5+  Ta39  1  0.88139082  0.88579529  0.38113969  1
  Ta5+  Ta40  1  0.85525529  0.63802351  0.33481807  1
  Ta5+  Ta41  1  0.37084034  0.07486175  0.41525675  1
  Ta5+  Ta42  1  0.12708941  0.63005330  0.10572413  1
  Ta5+  Ta43  1  0.40389897  0.11881286  0.87558919  1
  Ta5+  Ta44  1  0.61871845  0.38193994  0.10253302  1
  Ta5+  Ta45  1  0.39295137  0.91711921  0.63835853  1
  Ta5+  Ta46  1  0.65756194  0.88231719  0.12235827  1
  Ta5+  Ta47  1  0.31525094  0.34218469  0.66041987  1
  Ta5+  Ta48  1  0.62091748  0.35211411  0.85907988  1
  Ta5+  Ta49  1  0.88827598  0.37586151  0.14803122  1
  Ta5+  Ta50  1  0.63886471  0.87726884  0.35743856  1
  Ta5+  Ta51  1  0.36758291  0.37854447  0.40721922  1
  Ta5+  Ta52  1  0.89663292  0.13188954  0.10138634  1
  Ta5+  Ta53  1  0.35306705  0.88351322  0.12209918  1
  Ta5+  Ta54  1  0.16263328  0.92097034  0.87570973  1
  Ta5+  Ta55  1  0.65795947  0.60024435  0.62471493  1
  Ta5+  Ta56  1  0.37256605  0.86756346  0.38715058  1
  Ta5+  Ta57  1  0.35740706  0.58438644  0.62828458  1
  Ta5+  Ta58  1  0.09527495  0.12897921  0.06779604  1
  Ta5+  Ta59  1  0.40565078  0.07240774  0.11221910  1
  Ta5+  Ta60  1  0.68358513  0.61242454  0.12659420  1
  Ta5+  Ta61  1  0.64398727  0.12886392  0.09009198  1
  Ta5+  Ta62  1  0.77236091  0.15282759  0.89923011  1
  Ta5+  Ta63  1  0.15668618  0.88125121  0.39490749  1
  Ta5+  Ta64  1  0.85847800  0.58218868  0.65388419  1
  Ta5+  Ta65  1  0.56970562  0.14120918  0.84842046  1
  Ta5+  Ta66  1  0.83200274  0.15612430  0.65039578  1
  Ta5+  Ta67  1  0.12155306  0.07128660  0.38426590  1
  Ta5+  Ta68  1  0.81814975  0.35244762  0.63617029  1
  Ta5+  Ta69  1  0.15081581  0.16551109  0.81915013  1
  Ta5+  Ta70  1  0.89008178  0.39392102  0.36995287  1
  Ta5+  Ta71  1  0.66929585  0.12606323  0.62487590  1
  Ta5+  Ta72  1  0.61904752  0.11827596  0.37803262  1
  Ta5+  Ta73  1  0.16482097  0.63228236  0.62368727  1
  Ta5+  Ta74  1  0.11516361  0.38596654  0.12760144  1
  W6+  W75  1  0.62227059  0.37879400  0.36927441  1
  W6+  W76  1  0.19019609  0.89356173  0.09919999  1
  W6+  W77  1  0.37202504  0.61305877  0.83784934  1
  W6+  W78  1  0.85776520  0.58124420  0.82620705  1
  W6+  W79  1  0.65223958  0.35754499  0.61356205  1
  W6+  W80  1  0.59439605  0.90411428  0.61379790  1
  W6+  W81  1  0.11181852  0.63924591  0.38862582  1
  W6+  W82  1  0.13821968  0.89032078  0.65222830  1
  O2-  O83  1  0.13044043  0.02104118  0.09340500  1
  O2-  O84  1  0.06321806  -0.03798410  0.36525282  1
  O2-  O85  1  0.09260295  0.01340868  0.65047271  1
  O2-  O86  1  0.15395763  0.03647969  0.84785179  1
  O2-  O87  1  0.11073402  0.50735804  0.13828646  1
  O2-  O88  1  0.15133023  0.51137885  0.35843984  1
  O2-  O89  1  0.15879899  0.50432888  0.63428797  1
  O2-  O90  1  0.13750702  0.46887172  0.85498242  1
  O2-  O91  1  0.29908115  -0.00247584  0.13872677  1
  O2-  O92  1  0.39816573  -0.02311479  0.33660615  1
  O2-  O93  1  0.27455451  -0.04324968  0.65334092  1
  O2-  O94  1  0.40737013  -0.01086362  0.89976910  1
  O2-  O95  1  0.36389226  0.48640849  0.14785729  1
  O2-  O96  1  0.35858838  0.50067346  0.40427945  1
  O2-  O97  1  0.35053345  0.46713819  0.61852828  1
  O2-  O98  1  0.36112850  0.48242232  0.82641205  1
  O2-  O99  1  0.65963212  0.00663366  0.11255954  1
  O2-  O100  1  0.63432005  -0.00268581  0.33816142  1
  O2-  O101  1  0.67806684  0.00328284  0.63426971  1
  O2-  O102  1  0.59164017  0.00948216  0.86120199  1
  O2-  O103  1  0.68358674  0.49026696  0.12889146  1
  O2-  O104  1  0.67448756  0.50119607  0.34100986  1
  O2-  O105  1  0.63689905  0.48678295  0.64841336  1
  O2-  O106  1  0.62311439  0.48437678  0.85857355  1
  O2-  O107  1  0.87568841  0.01987253  0.14949493  1
  O2-  O108  1  0.86765910  0.00684388  0.38141839  1
  O2-  O109  1  0.87207792  0.03134784  0.63567508  1
  O2-  O110  1  0.80540988  0.02937058  0.90839143  1
  O2-  O111  1  0.89869376  0.50312529  0.14385853  1
  O2-  O112  1  0.87889577  0.52233288  0.36843105  1
  O2-  O113  1  0.81592783  0.47377895  0.61600444  1
  O2-  O114  1  0.81698854  0.47667225  0.89631065  1
  O2-  O115  1  0.15321592  0.22869955  0.12609134  1
  O2-  O116  1  0.10466261  0.26440712  0.40147079  1
  O2-  O117  1  0.10734467  0.25500386  0.59081271  1
  O2-  O118  1  0.09446415  0.27204442  0.86780475  1
  O2-  O119  1  0.11271583  0.76050114  0.09937092  1
  O2-  O120  1  0.08479807  0.78003976  0.37814432  1
  O2-  O121  1  0.14875631  0.75279552  0.65461744  1
  O2-  O122  1  0.02902449  0.68303007  0.88247974  1
  O2-  O123  1  0.33524713  0.30471763  0.13616256  1
  O2-  O124  1  0.31174229  0.17402692  0.37829528  1
  O2-  O125  1  0.29753945  0.21734767  0.63201718  1
  O2-  O126  1  0.35953905  0.23616534  0.87930677  1
  O2-  O127  1  0.46714578  0.67375433  0.11967501  1
  O2-  O128  1  0.43305488  0.75559110  0.39160152  1
  O2-  O129  1  0.47818534  0.81356602  0.61628654  1
  O2-  O130  1  0.40605257  0.75360594  0.86964428  1
  O2-  O131  1  0.67035505  0.25231837  0.10972390  1
  O2-  O132  1  0.60738585  0.24251241  0.36528245  1
  O2-  O133  1  0.62627901  0.24081250  0.58566323  1
  O2-  O134  1  0.55249347  0.25793595  0.90056443  1
  O2-  O135  1  0.66808852  0.75113239  0.11005657  1
  O2-  O136  1  0.60753695  0.74847378  0.36575431  1
  O2-  O137  1  0.66375185  0.73947867  0.59876855  1
  O2-  O138  1  0.61326504  0.75205274  0.88447706  1
  O2-  O139  1  0.87113818  0.23802407  0.17048354  1
  O2-  O140  1  0.90327974  0.25611988  0.36170557  1
  O2-  O141  1  0.91805407  0.26458784  0.64786139  1
  O2-  O142  1  0.84999877  0.24796538  0.91471693  1
  O2-  O143  1  0.90673050  0.77563416  0.11803715  1
  O2-  O144  1  0.89137037  0.74934564  0.38300596  1
  O2-  O145  1  0.79935748  0.84266115  0.64834447  1
  O2-  O146  1  0.87347055  0.78986488  0.91546083  1
  O2-  O147  1  0.16429262  0.15583923  -0.03493287  1
  O2-  O148  1  0.15651275  0.13748103  0.28642988  1
  O2-  O149  1  0.14130538  0.11295438  0.49956810  1
  O2-  O150  1  0.04225845  0.16371813  0.74842590  1
  O2-  O151  1  0.15830713  0.60980563  -0.01459679  1
  O2-  O152  1  0.12405319  0.65998989  0.23971659  1
  O2-  O153  1  0.09274975  0.63205191  0.52591955  1
  O2-  O154  1  0.10217872  0.62030516  0.74282803  1
  O2-  O155  1  0.36011117  0.12580859  0.00954432  1
  O2-  O156  1  0.38584168  0.14746968  0.20980140  1
  O2-  O157  1  0.33516826  0.07699044  0.53193826  1
  O2-  O158  1  0.35163940  0.09924671  0.76458268  1
  O2-  O159  1  0.36374207  0.60129360  -0.01238947  1
  O2-  O160  1  0.36833283  0.64067182  0.26695499  1
  O2-  O161  1  0.42938499  0.63057493  0.52097078  1
  O2-  O162  1  0.44260177  0.62697958  0.71004119  1
  O2-  O163  1  0.64992408  0.13317108  -0.03897981  1
  O2-  O164  1  0.62460049  0.14218675  0.23155492  1
  O2-  O165  1  0.65538088  0.10246828  0.49097433  1
  O2-  O166  1  0.59852082  0.13948175  0.72844640  1
  O2-  O167  1  0.63047998  0.61896724  0.00888334  1
  O2-  O168  1  0.61728899  0.63413703  0.23197518  1
  O2-  O169  1  0.61826169  0.60590123  0.49683671  1
  O2-  O170  1  0.62388802  0.64706013  0.74414626  1
  O2-  O171  1  0.78398464  0.13617496  0.04822122  1
  O2-  O172  1  0.75769478  0.14495884  0.35067972  1
  O2-  O173  1  0.88123007  0.15692581  0.51448668  1
  O2-  O174  1  0.80613508  0.15304988  0.77687086  1
  O2-  O175  1  1.00216798  0.63615160  0.06833819  1
  O2-  O176  1  0.94926133  0.65678998  0.24634507  1
  O2-  O177  1  0.87203482  0.65329482  0.55230643  1
  O2-  O178  1  0.87149842  0.69323799  0.73775172  1
  O2-  O179  1  0.19361782  0.37770571  0.03844834  1
  O2-  O180  1  0.14188984  0.35143319  0.24893665  1
  O2-  O181  1  0.18104735  0.38766370  0.49628133  1
  O2-  O182  1  0.05772466  0.36480859  0.72742682  1
  O2-  O183  1  0.09853144  0.88403701  -0.02494386  1
  O2-  O184  1  0.16715246  0.85961991  0.24173366  1
  O2-  O185  1  0.15523713  0.88775916  0.51417889  1
  O2-  O186  1  0.09118302  0.86537993  0.79051717  1
  O2-  O187  1  0.37268945  0.37693847  -0.02769678  1
  O2-  O188  1  0.44162259  0.32971750  0.32587206  1
  O2-  O189  1  0.35989643  0.32262938  0.51438604  1
  O2-  O190  1  0.42260680  0.32685442  0.72544252  1
  O2-  O191  1  0.39731355  0.83385080  0.01482708  1
  O2-  O192  1  0.37511950  0.82926200  0.23702701  1
  O2-  O193  1  0.37244496  0.89598835  0.50489037  1
  O2-  O194  1  0.41187807  0.88209756  0.75933756  1
  O2-  O195  1  0.67054622  0.36985306  -0.01303677  1
  O2-  O196  1  0.61799915  0.35258811  0.23127626  1
  O2-  O197  1  0.64873439  0.39522788  0.49348273  1
  O2-  O198  1  0.62764415  0.33377332  0.73919525  1
  O2-  O199  1  0.59507031  0.87271615  0.00543773  1
  O2-  O200  1  0.58911171  0.86028695  0.23393507  1
  O2-  O201  1  0.58427034  0.88223820  0.46875574  1
  O2-  O202  1  0.60970395  0.85783269  0.74761832  1
  O2-  O203  1  0.82946039  0.36670049  0.04375101  1
  O2-  O204  1  0.81071023  0.37918988  0.26078591  1
  O2-  O205  1  0.86031990  0.36100840  0.49048546  1
  O2-  O206  1  0.81977764  0.34999087  0.76684060  1
  O2-  O207  1  0.92411613  0.92150321  0.01014148  1
  O2-  O208  1  0.92239630  0.88089814  0.25786039  1
  O2-  O209  1  0.89229540  0.88026225  0.50781782  1
  O2-  O210  1  0.90003522  0.91934978  0.78330608  1
  O2-  O211  1  -0.02030389  0.12822376  0.00772692  1
  O2-  O212  1  0.00842430  0.13725411  0.17030174  1
  O2-  O213  1  -0.00022364  0.12133317  0.36987124  1
  O2-  O214  1  0.00238123  -0.14510490  0.64146062  1
  O2-  O215  1  0.00399378  0.34744641  0.09586321  1
  O2-  O216  1  -0.02885563  0.37830860  0.26179310  1
  O2-  O217  1  0.01176430  0.40477691  0.42236242  1
  O2-  O218  1  -0.05848264  0.53262298  0.73580662  1
  O2-  O219  1  0.26122983  -0.07944575  -0.02885831  1
  O2-  O220  1  0.23023259  -0.00052299  0.38480061  1
  O2-  O221  1  0.26470623  -0.19236904  0.38492023  1
  O2-  O222  1  0.25803647  -0.14086949  0.81899335  1
  O2-  O223  1  0.25423902  0.64671608  0.12788911  1
  O2-  O224  1  0.26290217  0.34428488  0.35413556  1
  O2-  O225  1  0.26871611  0.63441572  0.54971712  1
  O2-  O226  1  0.27938593  0.61869494  0.72226589  1
  O2-  O227  1  0.45930748  -0.03653877  0.12614788  1
  O2-  O228  1  0.52130869  0.12554901  0.09067424  1
  O2-  O229  1  0.49022811  0.11004744  0.39856455  1
  O2-  O230  1  0.48475392  -0.00984721  0.62038963  1
  O2-  O231  1  0.52419805  0.45827504  0.07463197  1
  O2-  O232  1  0.50700045  0.30410487  0.10668601  1
  O2-  O233  1  0.50925734  0.60423499  0.36008678  1
  O2-  O234  1  0.50275550  0.61825002  0.88694778  1
  O2-  O235  1  0.76909270  -0.11648233  0.04023087  1
  O2-  O236  1  0.75869863  -0.11750386  0.20407000  1
  O2-  O237  1  0.75769355  -0.13904447  0.38597692  1
  O2-  O238  1  0.73885450  -0.12990546  0.86320094  1
  O2-  O239  1  0.79608609  0.63514480  0.05833692  1
  O2-  O240  1  0.78940147  0.63194968  0.22400121  1
  O2-  O241  1  0.74954291  0.66173189  0.39873266  1
  O2-  O242  1  0.74598949  0.64806401  0.86428071  1
