# generated using pymatgen
data_Gd19Ta56(WO20)8
_symmetry_space_group_name_H-M   'P 1'
_cell_length_a   15.54550036
_cell_length_b   15.39973717
_cell_length_c   15.28465167
_cell_angle_alpha   89.94578967
_cell_angle_beta   90.06275770
_cell_angle_gamma   89.80049315
_symmetry_Int_Tables_number   1
_chemical_formula_structural   Gd19Ta56(WO20)8
_chemical_formula_sum   'Gd19 Ta56 W8 O160'
_cell_volume   3659.06791364
_cell_formula_units_Z   1
loop_
 _symmetry_equiv_pos_site_id
 _symmetry_equiv_pos_as_xyz
  1  'x, y, z'
loop_
 _atom_type_symbol
 _atom_type_oxidation_number
  Gd3+  3.0
  Ta5+  5.0
  W6+  6.0
  O2-  -2.0
loop_
 _atom_site_type_symbol
 _atom_site_label
 _atom_site_symmetry_multiplicity
 _atom_site_fract_x
 _atom_site_fract_y
 _atom_site_fract_z
 _atom_site_occupancy
  Gd3+  Gd0  1  0.71250371  0.75269932  -0.00963324  1
  Gd3+  Gd1  1  0.76962646  0.75994149  0.21942727  1
  Gd3+  Gd2  1  0.03056211  0.20522349  0.74870728  1
  Gd3+  Gd3  1  -0.00083919  0.76602169  0.51104798  1
  Gd3+  Gd4  1  0.46634804  0.25031463  0.21554002  1
  Gd3+  Gd5  1  0.03738490  0.74921932  0.77783436  1
  Gd3+  Gd6  1  0.51599790  0.25913875  0.46155461  1
  Gd3+  Gd7  1  0.25556819  0.74087751  0.47641121  1
  Gd3+  Gd8  1  0.75644501  0.23982607  0.50859051  1
  Gd3+  Gd9  1  0.24039220  0.25666514  0.51478257  1
  Gd3+  Gd10  1  0.50667309  0.74584073  0.25899415  1
  Gd3+  Gd11  1  0.73619443  0.25782013  0.76864357  1
  Gd3+  Gd12  1  0.75561450  0.24790978  0.24875398  1
  Gd3+  Gd13  1  0.01123802  0.22929332  -0.00093353  1
  Gd3+  Gd14  1  0.25087858  0.26273397  0.75809644  1
  Gd3+  Gd15  1  0.04927595  0.73299365  0.01465016  1
  Gd3+  Gd16  1  0.49184906  0.74576181  0.49716962  1
  Gd3+  Gd17  1  0.00024271  0.77243595  0.22877887  1
  Gd3+  Gd18  1  0.02916992  0.22222775  0.53361361  1
  Ta5+  Ta19  1  0.84963472  0.10652143  0.11690745  1
  Ta5+  Ta20  1  0.63935285  0.11936010  0.89184072  1
  Ta5+  Ta21  1  0.58037292  0.87566783  0.11834991  1
  Ta5+  Ta22  1  0.33218240  0.61756146  0.30042279  1
  Ta5+  Ta23  1  0.45316948  0.63250357  0.08189935  1
  Ta5+  Ta24  1  0.16131005  0.57271900  0.13754590  1
  Ta5+  Ta25  1  0.40399461  0.11992454  0.84453883  1
  Ta5+  Ta26  1  0.86335213  0.62634281  0.39870897  1
  Ta5+  Ta27  1  0.86931146  0.85993739  0.86939950  1
  Ta5+  Ta28  1  0.11425490  0.38531042  0.37457849  1
  Ta5+  Ta29  1  0.16892009  0.03491536  0.63907629  1
  Ta5+  Ta30  1  0.41783096  0.88089258  0.10040769  1
  Ta5+  Ta31  1  0.61679237  0.61647642  0.13144721  1
  Ta5+  Ta32  1  0.86582324  0.60438347  0.06484740  1
  Ta5+  Ta33  1  0.65763299  0.62536674  0.39131151  1
  Ta5+  Ta34  1  0.57516323  0.63112145  0.87698682  1
  Ta5+  Ta35  1  0.82878501  0.88138390  0.43801359  1
  Ta5+  Ta36  1  0.37229671  0.38680215  0.36139007  1
  Ta5+  Ta37  1  0.13909775  0.36022187  0.13071541  1
  Ta5+  Ta38  1  0.62849668  0.38609345  0.89793709  1
  Ta5+  Ta39  1  0.40630643  0.38720346  0.84205294  1
  Ta5+  Ta40  1  0.90200313  0.61389715  0.87155935  1
  Ta5+  Ta41  1  0.87459580  0.37811849  0.37798743  1
  Ta5+  Ta42  1  0.17252615  0.85249923  0.63855380  1
  Ta5+  Ta43  1  0.39677124  0.38346251  0.62620418  1
  Ta5+  Ta44  1  0.35006567  0.63199019  0.86706806  1
  Ta5+  Ta45  1  0.36764770  0.11343357  0.36158347  1
  Ta5+  Ta46  1  0.58596494  0.12858269  0.65425454  1
  Ta5+  Ta47  1  0.09453697  0.12584550  0.34946475  1
  Ta5+  Ta48  1  0.14398213  0.09508666  0.88745385  1
  Ta5+  Ta49  1  0.37061638  0.87032182  0.85474084  1
  Ta5+  Ta50  1  0.86682068  0.86988485  0.66870977  1
  Ta5+  Ta51  1  0.59451998  0.87856573  0.86043255  1
  Ta5+  Ta52  1  0.18413074  0.61388774  0.88164218  1
  Ta5+  Ta53  1  0.93811370  0.37034974  0.85381899  1
  Ta5+  Ta54  1  0.61975144  0.62693877  0.63208975  1
  Ta5+  Ta55  1  0.14864224  0.12393004  0.14483720  1
  Ta5+  Ta56  1  0.33957603  0.90039751  0.62843299  1
  Ta5+  Ta57  1  0.88875253  0.10559195  0.86926539  1
  Ta5+  Ta58  1  0.38395355  0.12877775  0.62358902  1
  Ta5+  Ta59  1  0.13069761  0.62417550  0.62668882  1
  Ta5+  Ta60  1  0.20685289  0.85055772  0.88648486  1
  Ta5+  Ta61  1  0.89364265  0.36992703  0.63049951  1
  Ta5+  Ta62  1  0.61741068  0.39041605  0.34257570  1
  Ta5+  Ta63  1  0.62128001  0.37055508  0.09710249  1
  Ta5+  Ta64  1  0.60991311  0.11528967  0.35279734  1
  Ta5+  Ta65  1  0.13332199  0.88103331  0.36908135  1
  Ta5+  Ta66  1  0.35685048  0.11623001  0.08663945  1
  Ta5+  Ta67  1  0.37548921  0.39347245  0.08940909  1
  Ta5+  Ta68  1  0.89237132  0.91896057  0.09531509  1
  Ta5+  Ta69  1  0.63839684  0.11314824  0.11604664  1
  Ta5+  Ta70  1  0.63302850  0.87984879  0.37861685  1
  Ta5+  Ta71  1  0.33233216  0.61440755  0.63608909  1
  Ta5+  Ta72  1  0.88720040  0.10661507  0.37119036  1
  Ta5+  Ta73  1  0.10778720  0.38053921  0.87751704  1
  Ta5+  Ta74  1  0.86137603  0.61919596  0.63154672  1
  W6+  W75  1  0.61414199  0.88783187  0.60624058  1
  W6+  W76  1  0.14248453  0.91966020  0.11044785  1
  W6+  W77  1  0.87054869  0.36629267  0.10879292  1
  W6+  W78  1  0.85951739  0.09854647  0.62061178  1
  W6+  W79  1  0.38057168  0.86848580  0.36343601  1
  W6+  W80  1  0.10085466  0.40168745  0.64099207  1
  W6+  W81  1  0.09259096  0.63853891  0.35689708  1
  W6+  W82  1  0.60172383  0.37960887  0.65767002  1
  O2-  O83  1  0.09421154  0.02577593  0.18185203  1
  O2-  O84  1  0.11982885  0.00414493  0.37897159  1
  O2-  O85  1  0.07996361  -0.04580400  0.63561467  1
  O2-  O86  1  0.17966863  -0.01962089  0.89290814  1
  O2-  O87  1  0.08600725  0.47573463  0.14255495  1
  O2-  O88  1  0.10690950  0.50201556  0.35639164  1
  O2-  O89  1  0.05222515  0.53455333  0.63392040  1
  O2-  O90  1  0.14114499  0.49952840  0.89828768  1
  O2-  O91  1  0.41789634  0.01019470  0.09834438  1
  O2-  O92  1  0.33678960  -0.00031157  0.36547625  1
  O2-  O93  1  0.39831573  0.01136164  0.59641595  1
  O2-  O94  1  0.38996590  -0.00433013  0.84332001  1
  O2-  O95  1  0.40465918  0.51062057  0.08639883  1
  O2-  O96  1  0.36227848  0.51655985  0.36109635  1
  O2-  O97  1  0.39680540  0.50544498  0.61842157  1
  O2-  O98  1  0.39163171  0.50762614  0.85398363  1
  O2-  O99  1  0.60429511  -0.00280930  0.11701889  1
  O2-  O100  1  0.65276002  0.00325476  0.37654653  1
  O2-  O101  1  0.61558395  0.02645595  0.60314602  1
  O2-  O102  1  0.63950209  -0.00766993  0.88445011  1
  O2-  O103  1  0.62627528  0.49752653  0.11308510  1
  O2-  O104  1  0.66042220  0.50099376  0.36734202  1
  O2-  O105  1  0.60194489  0.50879786  0.62343271  1
  O2-  O106  1  0.59793291  0.51310761  0.89332397  1
  O2-  O107  1  0.94765514  0.02713523  0.11664353  1
  O2-  O108  1  0.87845475  -0.02023550  0.37610833  1
  O2-  O109  1  0.81070582  -0.02581993  0.65321463  1
  O2-  O110  1  0.86510321  -0.01513734  0.87586853  1
  O2-  O111  1  0.88750035  0.50085847  0.11793502  1
  O2-  O112  1  0.86997622  0.50196509  0.38472691  1
  O2-  O113  1  0.86754518  0.49551139  0.63154936  1
  O2-  O114  1  0.90468317  0.49440324  0.85080833  1
  O2-  O115  1  0.09067740  0.24170269  0.13826299  1
  O2-  O116  1  0.11933557  0.23519214  0.41183194  1
  O2-  O117  1  0.13661845  0.26755857  0.63679104  1
  O2-  O118  1  0.12960133  0.23882481  0.86007436  1
  O2-  O119  1  0.00975082  0.85610910  0.08988981  1
  O2-  O120  1  0.05370210  0.77810875  0.36821607  1
  O2-  O121  1  0.07206403  0.74740491  0.63668485  1
  O2-  O122  1  0.12512500  0.73278445  0.89429695  1
  O2-  O123  1  0.36939656  0.24287429  0.10202843  1
  O2-  O124  1  0.39860708  0.25590325  0.35990290  1
  O2-  O125  1  0.34062017  0.25933073  0.62638491  1
  O2-  O126  1  0.38097283  0.25044024  0.83571191  1
  O2-  O127  1  0.48261943  0.76320994  0.10348134  1
  O2-  O128  1  0.39936807  0.71877045  0.36116348  1
  O2-  O129  1  0.23908404  0.72019435  0.62567086  1
  O2-  O130  1  0.29189493  0.75419475  0.86856544  1
  O2-  O131  1  0.60304386  0.23698611  0.12446152  1
  O2-  O132  1  0.58045206  0.24790040  0.31763351  1
  O2-  O133  1  0.65178391  0.23907380  0.63577500  1
  O2-  O134  1  0.63436780  0.25565661  0.88438937  1
  O2-  O135  1  0.64830489  0.75823198  0.14014131  1
  O2-  O136  1  0.61182152  0.74778702  0.38346044  1
  O2-  O137  1  0.59454670  0.74957526  0.60254206  1
  O2-  O138  1  0.63431536  0.75075324  0.86350438  1
  O2-  O139  1  0.82520002  0.23368587  0.12413900  1
  O2-  O140  1  0.84320367  0.24164846  0.37578895  1
  O2-  O141  1  0.89320023  0.23764398  0.60195298  1
  O2-  O142  1  0.93660802  0.23755863  0.85843861  1
  O2-  O143  1  0.92069848  0.69387626  0.12867249  1
  O2-  O144  1  0.87011519  0.76609027  0.41770312  1
  O2-  O145  1  0.87042538  0.75161298  0.61975122  1
  O2-  O146  1  0.93719362  0.74930777  0.89446905  1
  O2-  O147  1  0.13213224  0.13003308  0.01209197  1
  O2-  O148  1  0.18564181  0.14972069  0.26866300  1
  O2-  O149  1  0.15837089  0.12271745  0.55284166  1
  O2-  O150  1  0.14094414  0.09915463  0.75094862  1
  O2-  O151  1  0.16524013  0.62387825  0.02543864  1
  O2-  O152  1  0.09947050  0.65538769  0.20278241  1
  O2-  O153  1  0.11785824  0.65301568  0.49893662  1
  O2-  O154  1  0.14663462  0.63315407  0.75652645  1
  O2-  O155  1  0.35043419  0.12205085  -0.03748318  1
  O2-  O156  1  0.37613704  0.13008253  0.23583926  1
  O2-  O157  1  0.33828187  0.14613411  0.48549333  1
  O2-  O158  1  0.31892118  0.12687322  0.73442586  1
  O2-  O159  1  0.39558306  0.66319821  -0.02185858  1
  O2-  O160  1  0.41438503  0.63971689  0.20943160  1
  O2-  O161  1  0.37547306  0.66125817  0.53119341  1
  O2-  O162  1  0.37792525  0.65248064  0.74060683  1
  O2-  O163  1  0.69227222  0.12550276  0.00576655  1
  O2-  O164  1  0.66938458  0.11962528  0.24288438  1
  O2-  O165  1  0.63784477  0.16381863  0.46296150  1
  O2-  O166  1  0.64796632  0.12374688  0.76168462  1
  O2-  O167  1  0.59810539  0.65361070  0.00385393  1
  O2-  O168  1  0.60539167  0.62835134  0.26342301  1
  O2-  O169  1  0.57956699  0.61958381  0.49107370  1
  O2-  O170  1  0.57449406  0.63401095  0.74531297  1
  O2-  O171  1  0.89166518  0.13483009  -0.00346174  1
  O2-  O172  1  0.83743246  0.11187664  0.25193707  1
  O2-  O173  1  0.81955324  0.10820060  0.47774094  1
  O2-  O174  1  0.77312604  0.14606703  0.86079303  1
  O2-  O175  1  0.80304720  0.63591602  -0.05211145  1
  O2-  O176  1  0.95636309  0.64582387  0.32028425  1
  O2-  O177  1  0.92145467  0.62763368  0.51765088  1
  O2-  O178  1  0.91851747  0.63928000  0.74244420  1
  O2-  O179  1  0.10916804  0.34923572  0.00674184  1
  O2-  O180  1  0.16101751  0.35390040  0.26387621  1
  O2-  O181  1  0.16597658  0.38508482  0.48753598  1
  O2-  O182  1  0.15757707  0.38679845  0.76103974  1
  O2-  O183  1  0.17174507  0.83850744  0.01263631  1
  O2-  O184  1  0.11244149  0.87067096  0.24406036  1
  O2-  O185  1  0.13098572  0.83873559  0.49640948  1
  O2-  O186  1  0.15755059  0.83490683  0.76535385  1
  O2-  O187  1  0.38359235  0.37244082  -0.03176348  1
  O2-  O188  1  0.37138059  0.37506853  0.23510825  1
  O2-  O189  1  0.34918588  0.36907368  0.48813702  1
  O2-  O190  1  0.32630649  0.38765502  0.73676103  1
  O2-  O191  1  0.39726948  0.86172422  -0.02161461  1
  O2-  O192  1  0.39556265  0.85787567  0.22658239  1
  O2-  O193  1  0.36838574  0.84208668  0.51132750  1
  O2-  O194  1  0.38403318  0.84071170  0.72532094  1
  O2-  O195  1  0.69920735  0.37188798  0.00260390  1
  O2-  O196  1  0.66022097  0.37115364  0.22732738  1
  O2-  O197  1  0.65801821  0.33716503  0.44471978  1
  O2-  O198  1  0.66519267  0.39078303  0.77837035  1
  O2-  O199  1  0.60383091  0.85556487  -0.00619137  1
  O2-  O200  1  0.58688281  0.87574883  0.25995385  1
  O2-  O201  1  0.55198614  0.88298234  0.47564639  1
  O2-  O202  1  0.59732167  0.88544842  0.73944080  1
  O2-  O203  1  0.92304451  0.35525166  -0.01723954  1
  O2-  O204  1  0.84098482  0.37020705  0.25776415  1
  O2-  O205  1  0.83444816  0.36868954  0.49993986  1
  O2-  O206  1  0.84342720  0.35088056  0.74593106  1
  O2-  O207  1  0.84021498  0.85263980  -0.00162033  1
  O2-  O208  1  0.87861984  0.85852826  0.20449025  1
  O2-  O209  1  0.91008267  0.88890520  0.53641047  1
  O2-  O210  1  0.95447788  0.87535203  0.75732157  1
  O2-  O211  1  0.02085378  0.09314939  -0.11613208  1
  O2-  O212  1  -0.00559466  0.14515754  0.28744614  1
  O2-  O213  1  -0.00746788  0.11342211  0.44501992  1
  O2-  O214  1  -0.08268142  0.11029368  0.74512390  1
  O2-  O215  1  -0.02969056  0.60603894  -0.01760824  1
  O2-  O216  1  -0.00662834  0.35472045  0.37247690  1
  O2-  O217  1  -0.00063503  0.36749726  0.55673856  1
  O2-  O218  1  -0.00511036  0.35690939  0.72214773  1
  O2-  O219  1  0.25160796  0.05848629  0.11485037  1
  O2-  O220  1  0.24546602  -0.15704124  0.36161635  1
  O2-  O221  1  0.23369426  -0.05076032  0.55520955  1
  O2-  O222  1  0.25200550  -0.03941524  0.70801314  1
  O2-  O223  1  0.24918578  0.40622684  0.10348625  1
  O2-  O224  1  0.25956217  0.56303704  0.20899132  1
  O2-  O225  1  0.23063557  0.65760053  0.35679729  1
  O2-  O226  1  0.22951005  0.54644069  0.61454919  1
  O2-  O227  1  0.51595482  0.12382123  -0.10208791  1
  O2-  O228  1  0.48874706  0.10171160  0.38205509  1
  O2-  O229  1  0.49276468  0.16907412  0.57090779  1
  O2-  O230  1  0.47831479  0.12090753  0.72311920  1
  O2-  O231  1  0.49660598  0.36502327  0.11926269  1
  O2-  O232  1  0.49802820  0.40228176  0.37142251  1
  O2-  O233  1  0.50326642  0.35861977  0.56438944  1
  O2-  O234  1  0.48105154  0.37190577  0.72852253  1
  O2-  O235  1  0.78706468  -0.00015617  0.10182257  1
  O2-  O236  1  0.75063351  -0.14608781  0.33248906  1
  O2-  O237  1  0.72038579  -0.12106227  0.49610888  1
  O2-  O238  1  0.79928226  -0.17285967  0.77167202  1
  O2-  O239  1  0.75340023  0.63874210  0.11244156  1
  O2-  O240  1  0.77038072  0.65115253  0.31425373  1
  O2-  O241  1  0.75251995  0.62527204  0.47441293  1
  O2-  O242  1  0.74120583  0.63142750  0.65426208  1
