# generated using pymatgen
data_Gd19Ta56(WO20)8
_symmetry_space_group_name_H-M   'P 1'
_cell_length_a   15.51224817
_cell_length_b   15.41657698
_cell_length_c   15.14583479
_cell_angle_alpha   89.86761464
_cell_angle_beta   89.93565601
_cell_angle_gamma   89.67101500
_symmetry_Int_Tables_number   1
_chemical_formula_structural   Gd19Ta56(WO20)8
_chemical_formula_sum   'Gd19 Ta56 W8 O160'
_cell_volume   3621.99068583
_cell_formula_units_Z   1
loop_
 _symmetry_equiv_pos_site_id
 _symmetry_equiv_pos_as_xyz
  1  'x, y, z'
loop_
 _atom_type_symbol
 _atom_type_oxidation_number
  Gd3+  3.0
  Ta5+  5.0
  W6+  6.0
  O2-  -2.0
loop_
 _atom_site_type_symbol
 _atom_site_label
 _atom_site_symmetry_multiplicity
 _atom_site_fract_x
 _atom_site_fract_y
 _atom_site_fract_z
 _atom_site_occupancy
  Gd3+  Gd0  1  0.02862886  0.24360291  0.54220318  1
  Gd3+  Gd1  1  0.75266177  0.75318735  0.24093007  1
  Gd3+  Gd2  1  0.22927309  0.75988297  0.02942024  1
  Gd3+  Gd3  1  0.01191733  0.74393519  0.74975743  1
  Gd3+  Gd4  1  0.79869631  0.23093207  0.24680696  1
  Gd3+  Gd5  1  0.74279848  0.23054750  0.48170714  1
  Gd3+  Gd6  1  0.48937245  0.24099479  0.74326778  1
  Gd3+  Gd7  1  0.24536377  0.73227912  0.26533514  1
  Gd3+  Gd8  1  0.48513755  0.79238673  -0.02511534  1
  Gd3+  Gd9  1  0.47427953  0.24408794  0.25395049  1
  Gd3+  Gd10  1  0.76351552  0.74447981  0.74172588  1
  Gd3+  Gd11  1  0.47278831  0.25098162  0.00857180  1
  Gd3+  Gd12  1  0.73918783  0.75108761  0.00826289  1
  Gd3+  Gd13  1  0.77959452  0.24032752  0.00361426  1
  Gd3+  Gd14  1  0.24497682  0.75804756  0.73362500  1
  Gd3+  Gd15  1  0.49754639  0.74220839  0.49371542  1
  Gd3+  Gd16  1  0.73411443  0.74768532  0.49315614  1
  Gd3+  Gd17  1  0.22113559  0.28076708  0.26783348  1
  Gd3+  Gd18  1  0.01581378  0.74779599  0.24853479  1
  Ta5+  Ta19  1  0.91446763  0.36522363  0.38247862  1
  Ta5+  Ta20  1  0.93948169  0.12087145  0.37896180  1
  Ta5+  Ta21  1  0.86892445  0.36912880  0.63563578  1
  Ta5+  Ta22  1  0.10799932  0.90031141  0.88249886  1
  Ta5+  Ta23  1  0.61299920  0.91165912  0.12381267  1
  Ta5+  Ta24  1  0.38760284  0.61794977  0.63459574  1
  Ta5+  Ta25  1  0.84375802  0.37504620  0.84896550  1
  Ta5+  Ta26  1  0.88507901  0.86697483  0.59717692  1
  Ta5+  Ta27  1  0.09984112  0.91191309  0.14003821  1
  Ta5+  Ta28  1  0.38563860  0.62738313  0.12971062  1
  Ta5+  Ta29  1  0.87947783  0.37969320  0.11888692  1
  Ta5+  Ta30  1  0.35061840  0.88439255  0.39198816  1
  Ta5+  Ta31  1  0.08058905  0.38157260  0.38874934  1
  Ta5+  Ta32  1  0.61290622  0.11266671  0.13134528  1
  Ta5+  Ta33  1  0.32785944  0.12362962  0.13595454  1
  Ta5+  Ta34  1  0.67717664  0.11407663  0.66517161  1
  Ta5+  Ta35  1  0.38744757  0.88550527  0.17722197  1
  Ta5+  Ta36  1  0.38843132  0.88337800  0.63014436  1
  Ta5+  Ta37  1  0.60624000  0.07882952  0.37371364  1
  Ta5+  Ta38  1  0.34618561  0.12331217  0.62027207  1
  Ta5+  Ta39  1  0.61764690  0.11306395  0.89507188  1
  Ta5+  Ta40  1  0.37666675  0.36126405  0.40091549  1
  Ta5+  Ta41  1  0.62147032  0.88149566  0.63496295  1
  Ta5+  Ta42  1  0.62129883  0.61732628  0.35725874  1
  Ta5+  Ta43  1  0.88350637  0.11164873  0.63586506  1
  Ta5+  Ta44  1  0.61862413  0.37693629  0.13303996  1
  Ta5+  Ta45  1  0.16303726  0.13892382  0.12127380  1
  Ta5+  Ta46  1  0.86445731  0.11513394  0.85609636  1
  Ta5+  Ta47  1  0.31618439  0.90465017  0.87766826  1
  Ta5+  Ta48  1  0.62801568  0.61295589  0.62966556  1
  Ta5+  Ta49  1  0.13192120  0.58637711  0.87860300  1
  Ta5+  Ta50  1  0.61304023  0.37092645  0.38369435  1
  Ta5+  Ta51  1  0.89167403  0.91685627  0.12490800  1
  Ta5+  Ta52  1  0.89150639  0.60996534  0.87387076  1
  Ta5+  Ta53  1  0.12641106  0.11709749  0.86938572  1
  Ta5+  Ta54  1  0.36125843  0.62899866  0.87692026  1
  Ta5+  Ta55  1  0.33820702  0.13431299  0.39792020  1
  Ta5+  Ta56  1  0.60926420  0.37306599  0.88158430  1
  Ta5+  Ta57  1  0.90869780  0.59925128  0.12390993  1
  Ta5+  Ta58  1  0.93334076  0.11883518  0.11555077  1
  Ta5+  Ta59  1  0.10815068  0.13134639  0.37354481  1
  Ta5+  Ta60  1  0.87560834  0.86727652  0.87380191  1
  Ta5+  Ta61  1  0.10977179  0.62527873  0.39992610  1
  Ta5+  Ta62  1  0.10754462  0.34783637  0.88361510  1
  Ta5+  Ta63  1  0.88022395  0.61591400  0.60694587  1
  Ta5+  Ta64  1  0.14595111  0.89511897  0.38008010  1
  Ta5+  Ta65  1  0.12088053  0.89278894  0.61207465  1
  Ta5+  Ta66  1  0.59618936  0.62873264  0.12783690  1
  Ta5+  Ta67  1  0.88120038  0.61242823  0.38314580  1
  Ta5+  Ta68  1  0.13856664  0.38996336  0.64429399  1
  Ta5+  Ta69  1  0.09128479  0.38136568  0.12440150  1
  Ta5+  Ta70  1  0.12711003  0.58533770  0.13147733  1
  Ta5+  Ta71  1  0.37912223  0.61119439  0.37969817  1
  Ta5+  Ta72  1  0.35420655  0.11490921  0.87883464  1
  Ta5+  Ta73  1  0.65911882  0.36694316  0.63731155  1
  Ta5+  Ta74  1  0.33844723  0.42258041  0.87390467  1
  W6+  W75  1  0.12944977  0.62937311  0.61602723  1
  W6+  W76  1  0.65952839  0.88010639  0.86369257  1
  W6+  W77  1  0.86786509  0.87934800  0.38739515  1
  W6+  W78  1  0.35443726  0.37834465  0.12642503  1
  W6+  W79  1  0.36753087  0.36551583  0.62472746  1
  W6+  W80  1  0.18391297  0.12578965  0.62126944  1
  W6+  W81  1  0.64352029  0.61627473  0.87175691  1
  W6+  W82  1  0.63754799  0.89147741  0.37180359  1
  O2-  O83  1  0.17113737  0.00815553  0.15005683  1
  O2-  O84  1  0.15673045  0.01429574  0.36129887  1
  O2-  O85  1  0.19277610  -0.01457993  0.61884174  1
  O2-  O86  1  0.05382238  0.00963673  0.88073431  1
  O2-  O87  1  0.17932669  0.47183644  0.10789393  1
  O2-  O88  1  0.09213857  0.50609990  0.38614481  1
  O2-  O89  1  0.09247406  0.50248093  0.64349652  1
  O2-  O90  1  0.08396239  0.47818533  0.88711135  1
  O2-  O91  1  0.35206460  -0.00346361  0.14658747  1
  O2-  O92  1  0.34647175  0.01078161  0.39765729  1
  O2-  O93  1  0.37257244  0.00282803  0.60492509  1
  O2-  O94  1  0.39919872  -0.00468108  0.88165157  1
  O2-  O95  1  0.37661464  0.51261153  0.10899659  1
  O2-  O96  1  0.38480421  0.49030051  0.39028030  1
  O2-  O97  1  0.39430711  0.50095275  0.63325875  1
  O2-  O98  1  0.42139944  0.52121968  0.88103296  1
  O2-  O99  1  0.67570694  0.00794229  0.07948294  1
  O2-  O100  1  0.70734700  0.01680351  0.36681799  1
  O2-  O101  1  0.62322503  0.01066524  0.62442797  1
  O2-  O102  1  0.59260961  -0.00091544  0.87951035  1
  O2-  O103  1  0.61057801  0.49784728  0.12829280  1
  O2-  O104  1  0.61773911  0.49541450  0.37589651  1
  O2-  O105  1  0.63280352  0.48692275  0.62480761  1
  O2-  O106  1  0.60377871  0.49138558  0.87165349  1
  O2-  O107  1  0.84400503  0.03279551  0.13116216  1
  O2-  O108  1  0.91123610  0.00453741  0.37673896  1
  O2-  O109  1  0.90033757  -0.01220427  0.62865611  1
  O2-  O110  1  0.85463113  -0.01373295  0.86242863  1
  O2-  O111  1  0.84054036  0.49658510  0.13925012  1
  O2-  O112  1  0.89290352  0.49030685  0.37981008  1
  O2-  O113  1  0.87515668  0.49574228  0.62432352  1
  O2-  O114  1  0.83587464  0.50306357  0.85112131  1
  O2-  O115  1  0.16335891  0.27584755  0.12146215  1
  O2-  O116  1  0.13467319  0.26117713  0.39014272  1
  O2-  O117  1  0.14422353  0.25770414  0.63099532  1
  O2-  O118  1  0.07142353  0.22676158  0.87206654  1
  O2-  O119  1  0.16100892  0.80066711  0.15599939  1
  O2-  O120  1  0.13015139  0.76011938  0.35935410  1
  O2-  O121  1  0.15713131  0.77268324  0.61225520  1
  O2-  O122  1  0.21596403  0.81054708  0.87810787  1
  O2-  O123  1  0.38444138  0.24283831  0.13112294  1
  O2-  O124  1  0.42212519  0.23804650  0.40263628  1
  O2-  O125  1  0.40939478  0.23701775  0.61884708  1
  O2-  O126  1  0.42836373  0.21168513  0.87288539  1
  O2-  O127  1  0.34616973  0.76788337  0.15113020  1
  O2-  O128  1  0.36059958  0.74937152  0.37485658  1
  O2-  O129  1  0.35639108  0.76002681  0.63141048  1
  O2-  O130  1  0.40336183  0.74439677  0.85865931  1
  O2-  O131  1  0.56818603  0.24676574  0.12885228  1
  O2-  O132  1  0.69612877  0.28400864  0.34627310  1
  O2-  O133  1  0.65052136  0.23266331  0.63613862  1
  O2-  O134  1  0.58841402  0.24276445  0.89581266  1
  O2-  O135  1  0.64024455  0.74881481  0.13623040  1
  O2-  O136  1  0.64276818  0.74718214  0.35718568  1
  O2-  O137  1  0.65159019  0.74911227  0.63614941  1
  O2-  O138  1  0.68081874  0.74283542  0.86828799  1
  O2-  O139  1  0.88599026  0.24358395  0.10891037  1
  O2-  O140  1  0.86562492  0.23603675  0.38622937  1
  O2-  O141  1  0.88853477  0.24082036  0.63968205  1
  O2-  O142  1  0.84754383  0.24350754  0.86000724  1
  O2-  O143  1  0.82470776  0.69280698  0.11787798  1
  O2-  O144  1  0.82777771  0.74183100  0.37456220  1
  O2-  O145  1  0.83517268  0.74197964  0.60607621  1
  O2-  O146  1  0.85351175  0.73346390  0.89337371  1
  O2-  O147  1  0.13514973  0.11568863  0.00172999  1
  O2-  O148  1  0.13533609  0.16084226  0.24918409  1
  O2-  O149  1  0.11619373  0.12814080  0.50342080  1
  O2-  O150  1  0.14174578  0.10063932  0.74817722  1
  O2-  O151  1  0.14130236  0.62745942  -0.00270991  1
  O2-  O152  1  0.12063260  0.62443920  0.25666074  1
  O2-  O153  1  0.18912646  0.62529700  0.48909387  1
  O2-  O154  1  0.14389611  0.65021050  0.76736715  1
  O2-  O155  1  0.36238022  0.12261587  0.00671360  1
  O2-  O156  1  0.33634248  0.15183906  0.26884804  1
  O2-  O157  1  0.28462879  0.16200741  0.50858835  1
  O2-  O158  1  0.37115188  0.11879946  0.74623678  1
  O2-  O159  1  0.33695144  0.65724614  -0.00126062  1
  O2-  O160  1  0.34122236  0.61570998  0.25937759  1
  O2-  O161  1  0.38116003  0.63858205  0.50820232  1
  O2-  O162  1  0.32677127  0.63176233  0.74889434  1
  O2-  O163  1  0.55894504  0.12080867  0.01147371  1
  O2-  O164  1  0.58939028  0.14086407  0.26164442  1
  O2-  O165  1  0.61953249  0.15410743  0.46754522  1
  O2-  O166  1  0.59404880  0.13246290  0.76666393  1
  O2-  O167  1  0.65440982  0.62762402  0.01268375  1
  O2-  O168  1  0.67282367  0.61690122  0.24000316  1
  O2-  O169  1  0.62279030  0.63999598  0.49659704  1
  O2-  O170  1  0.68813977  0.61187427  0.73942740  1
  O2-  O171  1  0.90417976  0.12321626  -0.02142910  1
  O2-  O172  1  0.92833222  0.14053449  0.24265097  1
  O2-  O173  1  0.93209344  0.12806494  0.51675099  1
  O2-  O174  1  0.94069656  0.11468501  0.75842883  1
  O2-  O175  1  0.90550231  0.59003902  -0.00252483  1
  O2-  O176  1  0.91059163  0.63124524  0.25403502  1
  O2-  O177  1  0.81400505  0.61176328  0.49427062  1
  O2-  O178  1  0.89285294  0.64510903  0.73893210  1
  O2-  O179  1  0.05896356  0.35559954  0.00222177  1
  O2-  O180  1  0.09663688  0.37236086  0.25261162  1
  O2-  O181  1  0.10125579  0.37743087  0.51921950  1
  O2-  O182  1  0.09249664  0.36362943  0.76083726  1
  O2-  O183  1  0.12512362  0.88390159  0.00908265  1
  O2-  O184  1  0.07157811  0.89357129  0.26792558  1
  O2-  O185  1  0.08775088  0.90513779  0.48988737  1
  O2-  O186  1  0.10932941  0.86944927  0.74928532  1
  O2-  O187  1  0.37893206  0.37139950  -0.02194610  1
  O2-  O188  1  0.35915459  0.35266056  0.26836761  1
  O2-  O189  1  0.30996593  0.35427042  0.50032430  1
  O2-  O190  1  0.39014209  0.36542326  0.77898669  1
  O2-  O191  1  0.34728636  0.85645256  -0.00745656  1
  O2-  O192  1  0.43707492  0.88556713  0.28756114  1
  O2-  O193  1  0.41983322  0.86653423  0.50193908  1
  O2-  O194  1  0.33058045  0.88505731  0.75182533  1
  O2-  O195  1  0.57145135  0.37119163  0.00985610  1
  O2-  O196  1  0.56795976  0.36740034  0.25135970  1
  O2-  O197  1  0.60892340  0.35177686  0.50682709  1
  O2-  O198  1  0.58881606  0.35174313  0.75373072  1
  O2-  O199  1  0.62113572  0.85471935  0.00419687  1
  O2-  O200  1  0.67004776  0.88619981  0.23040737  1
  O2-  O201  1  0.60633652  0.85102279  0.51031328  1
  O2-  O202  1  0.70461325  0.88529973  0.72671886  1
  O2-  O203  1  0.86831404  0.37249182  -0.01363342  1
  O2-  O204  1  0.88361178  0.35290943  0.24709516  1
  O2-  O205  1  0.92236029  0.35601658  0.51638920  1
  O2-  O206  1  0.92435588  0.37613347  0.75526357  1
  O2-  O207  1  0.85117039  0.87483691  0.01229688  1
  O2-  O208  1  0.85645735  0.87029734  0.23633503  1
  O2-  O209  1  0.79106071  0.88755931  0.51361369  1
  O2-  O210  1  0.89258740  0.83804967  0.74142121  1
  O2-  O211  1  -0.01107418  -0.16406750  0.12679477  1
  O2-  O212  1  -0.00267249  -0.00301114  0.10884177  1
  O2-  O213  1  -0.05818398  -0.16482233  0.49364931  1
  O2-  O214  1  0.00168013  -0.16854149  0.88303024  1
  O2-  O215  1  0.02333004  0.66300881  0.12154689  1
  O2-  O216  1  0.02041212  0.50047478  0.13161995  1
  O2-  O217  1  -0.00885713  0.66891442  0.40253652  1
  O2-  O218  1  0.01335901  0.64107427  0.86505901  1
  O2-  O219  1  0.21969827  -0.01828006  -0.12023221  1
  O2-  O220  1  0.26624390  -0.12122102  0.28794548  1
  O2-  O221  1  0.24636085  -0.13227244  0.45768965  1
  O2-  O222  1  0.24391259  0.16235831  0.87390664  1
  O2-  O223  1  0.25591287  0.53617753  -0.12258078  1
  O2-  O224  1  0.24058178  0.64154905  0.13354580  1
  O2-  O225  1  0.25119419  0.41501274  0.67010259  1
  O2-  O226  1  0.22807814  0.35943941  0.88788560  1
  O2-  O227  1  0.48954918  -0.13789289  0.10971208  1
  O2-  O228  1  0.54270212  0.00799436  0.16731856  1
  O2-  O229  1  0.53562777  -0.01284666  0.39966861  1
  O2-  O230  1  0.50387422  -0.12715523  0.67378028  1
  O2-  O231  1  0.48942992  0.67028502  0.05359056  1
  O2-  O232  1  0.49406088  0.62043308  0.20334747  1
  O2-  O233  1  0.49997751  0.63988391  0.37789896  1
  O2-  O234  1  0.50651962  0.65528385  0.63598119  1
  O2-  O235  1  0.73669430  0.12159616  -0.08461618  1
  O2-  O236  1  0.72189599  0.16980266  0.12932330  1
  O2-  O237  1  0.76894930  0.11271375  0.57288552  1
  O2-  O238  1  0.77683157  0.10982800  0.74031042  1
  O2-  O239  1  0.72508008  0.35366762  -0.09568541  1
  O2-  O240  1  0.73954429  0.35118693  0.12356667  1
  O2-  O241  1  0.76167845  0.35397360  0.56218919  1
  O2-  O242  1  0.76246070  0.37094864  0.72613518  1
