# generated using pymatgen
data_Gd19Ta56(WO20)8
_symmetry_space_group_name_H-M   'P 1'
_cell_length_a   15.50579417
_cell_length_b   15.44752486
_cell_length_c   15.32307066
_cell_angle_alpha   90.04679809
_cell_angle_beta   89.96983421
_cell_angle_gamma   90.12448060
_symmetry_Int_Tables_number   1
_chemical_formula_structural   Gd19Ta56(WO20)8
_chemical_formula_sum   'Gd19 Ta56 W8 O160'
_cell_volume   3670.26559020
_cell_formula_units_Z   1
loop_
 _symmetry_equiv_pos_site_id
 _symmetry_equiv_pos_as_xyz
  1  'x, y, z'
loop_
 _atom_type_symbol
 _atom_type_oxidation_number
  Gd3+  3.0
  Ta5+  5.0
  W6+  6.0
  O2-  -2.0
loop_
 _atom_site_type_symbol
 _atom_site_label
 _atom_site_symmetry_multiplicity
 _atom_site_fract_x
 _atom_site_fract_y
 _atom_site_fract_z
 _atom_site_occupancy
  Gd3+  Gd0  1  0.49954825  0.74069848  0.75642002  1
  Gd3+  Gd1  1  -0.02019813  0.25509820  -0.01628522  1
  Gd3+  Gd2  1  0.25632806  0.73181913  0.75955333  1
  Gd3+  Gd3  1  0.76251826  0.77398638  0.01630193  1
  Gd3+  Gd4  1  0.74489832  0.75003772  0.25778866  1
  Gd3+  Gd5  1  0.76397965  0.73295805  0.50327108  1
  Gd3+  Gd6  1  0.01089071  0.74830129  0.49819615  1
  Gd3+  Gd7  1  0.50831083  0.75641307  0.50509255  1
  Gd3+  Gd8  1  0.25821042  0.23816824  0.25145818  1
  Gd3+  Gd9  1  0.51579588  0.26047422  0.74840407  1
  Gd3+  Gd10  1  0.00967893  0.26087991  0.25584952  1
  Gd3+  Gd11  1  0.00143529  0.76016716  0.74007970  1
  Gd3+  Gd12  1  0.49533512  0.73937169  -0.00865365  1
  Gd3+  Gd13  1  0.23306922  0.25272005  0.01818194  1
  Gd3+  Gd14  1  0.24622203  0.75378369  0.25317480  1
  Gd3+  Gd15  1  0.51756670  0.24171571  -0.00770526  1
  Gd3+  Gd16  1  0.75545290  0.74169071  0.73796663  1
  Gd3+  Gd17  1  0.24101009  0.23262151  0.52915627  1
  Gd3+  Gd18  1  -0.00794390  0.78051053  -0.03012372  1
  Ta5+  Ta19  1  0.86443515  0.38191254  0.12810009  1
  Ta5+  Ta20  1  0.86261236  0.14060575  0.38440915  1
  Ta5+  Ta21  1  0.58530866  0.09171716  0.37377837  1
  Ta5+  Ta22  1  0.12038376  0.12429221  0.87312987  1
  Ta5+  Ta23  1  0.83192512  0.90359394  0.85157212  1
  Ta5+  Ta24  1  0.14057213  0.39894108  0.13411863  1
  Ta5+  Ta25  1  0.36525450  0.11527225  0.38357745  1
  Ta5+  Ta26  1  0.67119051  0.36088872  0.87619605  1
  Ta5+  Ta27  1  0.86689496  0.37254078  0.38470375  1
  Ta5+  Ta28  1  0.12770811  0.37215549  0.86988683  1
  Ta5+  Ta29  1  0.91933661  0.36352373  0.62824985  1
  Ta5+  Ta30  1  0.08961615  0.35412376  0.62768803  1
  Ta5+  Ta31  1  0.12110212  0.11467891  0.13157300  1
  Ta5+  Ta32  1  0.11847530  0.61685371  0.88334501  1
  Ta5+  Ta33  1  0.38572249  0.87258485  0.13053801  1
  Ta5+  Ta34  1  0.07807263  0.13948198  0.62931454  1
  Ta5+  Ta35  1  0.38733215  0.37260475  0.13758739  1
  Ta5+  Ta36  1  0.13810224  0.87049863  0.10377888  1
  Ta5+  Ta37  1  0.37942132  0.90947271  0.88909876  1
  Ta5+  Ta38  1  0.14971719  0.37288179  0.38112342  1
  Ta5+  Ta39  1  0.62285811  0.60841510  0.62402884  1
  Ta5+  Ta40  1  0.62849973  0.11375941  0.12609306  1
  Ta5+  Ta41  1  0.63949223  0.89195624  0.63770522  1
  Ta5+  Ta42  1  0.59866370  0.87058608  0.13553591  1
  Ta5+  Ta43  1  0.90508540  0.88245544  0.14984868  1
  Ta5+  Ta44  1  0.88083317  0.60843435  0.36284684  1
  Ta5+  Ta45  1  0.32036555  0.37797685  0.38581724  1
  Ta5+  Ta46  1  0.90626074  0.61996800  0.12835700  1
  Ta5+  Ta47  1  0.88196102  0.89202712  0.60695300  1
  Ta5+  Ta48  1  0.64716857  0.60763363  0.87579740  1
  Ta5+  Ta49  1  0.12360693  0.61315680  0.36774646  1
  Ta5+  Ta50  1  0.37964113  0.37013207  0.88002196  1
  Ta5+  Ta51  1  0.13009994  0.60137592  0.61999027  1
  Ta5+  Ta52  1  0.10486256  0.62609046  0.12530487  1
  Ta5+  Ta53  1  0.65984130  0.12762608  0.86224799  1
  Ta5+  Ta54  1  0.87008916  0.13004981  0.12986877  1
  Ta5+  Ta55  1  0.82887942  0.13811657  0.86368076  1
  Ta5+  Ta56  1  0.88446623  0.89282900  0.36611074  1
  Ta5+  Ta57  1  0.59737793  0.58146433  0.37345242  1
  Ta5+  Ta58  1  0.42556519  0.88884064  0.33890927  1
  Ta5+  Ta59  1  0.35913192  0.10884059  0.87521487  1
  Ta5+  Ta60  1  0.13919209  0.89813297  0.60597143  1
  Ta5+  Ta61  1  0.86035545  0.62422752  0.87808528  1
  Ta5+  Ta62  1  0.62537103  0.88292467  0.87335247  1
  Ta5+  Ta63  1  0.63122862  0.33640874  0.38702551  1
  Ta5+  Ta64  1  0.64741358  0.36030617  0.61447186  1
  Ta5+  Ta65  1  0.38599037  0.91182264  0.58979522  1
  Ta5+  Ta66  1  0.39263120  0.61811206  0.14322430  1
  Ta5+  Ta67  1  0.09048364  0.87968471  0.34197437  1
  Ta5+  Ta68  1  0.90807292  0.14614906  0.62523879  1
  Ta5+  Ta69  1  0.83925731  0.37654864  0.86657966  1
  Ta5+  Ta70  1  0.36405585  0.36804518  0.63357623  1
  Ta5+  Ta71  1  0.39605768  0.61456800  0.37000121  1
  Ta5+  Ta72  1  0.39326472  0.11905931  0.63275702  1
  Ta5+  Ta73  1  0.37075439  0.61481572  0.60501069  1
  Ta5+  Ta74  1  0.37590083  0.11592926  0.12786621  1
  W6+  W75  1  0.14778566  0.92144033  0.84992704  1
  W6+  W76  1  0.62902465  0.36131206  0.13310876  1
  W6+  W77  1  0.88449354  0.61303069  0.62371116  1
  W6+  W78  1  0.36288081  0.56747540  0.89273040  1
  W6+  W79  1  0.63708239  0.89976470  0.38373582  1
  W6+  W80  1  0.11613384  0.11642260  0.37790007  1
  W6+  W81  1  0.60609436  0.12992108  0.61030714  1
  W6+  W82  1  0.62506038  0.60890315  0.12960084  1
  O2-  O83  1  0.11400686  -0.00507187  0.11039756  1
  O2-  O84  1  0.13406328  -0.01870593  0.38590473  1
  O2-  O85  1  0.10019813  0.01062622  0.61020868  1
  O2-  O86  1  0.08583579  0.01961276  0.91951687  1
  O2-  O87  1  0.16683381  0.51893493  0.11007519  1
  O2-  O88  1  0.16238916  0.50214683  0.39118896  1
  O2-  O89  1  0.12219010  0.48496275  0.61307427  1
  O2-  O90  1  0.12123446  0.49945056  0.89812443  1
  O2-  O91  1  0.35707166  -0.00705995  0.12970024  1
  O2-  O92  1  0.35606639  -0.00387849  0.36629484  1
  O2-  O93  1  0.44915869  0.00006937  0.64346634  1
  O2-  O94  1  0.44420666  0.01653392  0.87139039  1
  O2-  O95  1  0.40887826  0.49590470  0.15053790  1
  O2-  O96  1  0.35479940  0.50259931  0.38732767  1
  O2-  O97  1  0.36574608  0.49780666  0.62147744  1
  O2-  O98  1  0.44811770  0.46704633  0.86371667  1
  O2-  O99  1  0.63427362  -0.01661958  0.10579387  1
  O2-  O100  1  0.68649790  0.02915628  0.38415513  1
  O2-  O101  1  0.65939205  0.00766319  0.63346681  1
  O2-  O102  1  0.62690401  0.00487591  0.86561979  1
  O2-  O103  1  0.65130201  0.48964910  0.12801930  1
  O2-  O104  1  0.60961734  0.46644617  0.40028559  1
  O2-  O105  1  0.62723397  0.48710545  0.61068810  1
  O2-  O106  1  0.64959728  0.48672216  0.87674479  1
  O2-  O107  1  0.89918995  0.00880345  0.14294239  1
  O2-  O108  1  0.87747316  0.01282360  0.36747286  1
  O2-  O109  1  0.88778443  0.01094170  0.61300544  1
  O2-  O110  1  0.87489207  0.01323203  0.87215927  1
  O2-  O111  1  0.84936875  0.50380732  0.12767622  1
  O2-  O112  1  0.83279101  0.49447033  0.36362569  1
  O2-  O113  1  0.91053071  0.48527228  0.62893833  1
  O2-  O114  1  0.87356257  0.50556951  0.88616148  1
  O2-  O115  1  0.13872916  0.25731111  0.15514272  1
  O2-  O116  1  0.13348409  0.24831679  0.34533319  1
  O2-  O117  1  0.14587945  0.24495534  0.65717236  1
  O2-  O118  1  0.08783969  0.25187331  0.87322687  1
  O2-  O119  1  0.16830995  0.74471429  0.12939726  1
  O2-  O120  1  0.11187635  0.75284902  0.35345521  1
  O2-  O121  1  0.01886173  0.65701638  0.62283089  1
  O2-  O122  1  0.03513507  0.84309782  0.85192748  1
  O2-  O123  1  0.35181214  0.24528882  0.12235198  1
  O2-  O124  1  0.32093409  0.23861971  0.39446582  1
  O2-  O125  1  0.39176514  0.24399550  0.62760663  1
  O2-  O126  1  0.40923287  0.23639921  0.87006159  1
  O2-  O127  1  0.35043366  0.75158492  0.13950909  1
  O2-  O128  1  0.43427424  0.76394767  0.36320146  1
  O2-  O129  1  0.43037248  0.80457627  0.62733756  1
  O2-  O130  1  0.44211694  0.67631487  0.87732712  1
  O2-  O131  1  0.58197982  0.23104451  0.12695831  1
  O2-  O132  1  0.61866770  0.21423476  0.38326204  1
  O2-  O133  1  0.57125794  0.26442144  0.60490945  1
  O2-  O134  1  0.59732502  0.24786268  0.86925974  1
  O2-  O135  1  0.65954300  0.75101978  0.13391272  1
  O2-  O136  1  0.69342822  0.78280249  0.39098061  1
  O2-  O137  1  0.61789174  0.74633398  0.63336017  1
  O2-  O138  1  0.64055789  0.74643146  0.84283176  1
  O2-  O139  1  0.93230019  0.25272169  0.12569495  1
  O2-  O140  1  0.81894569  0.25849577  0.38439388  1
  O2-  O141  1  0.85658015  0.25564227  0.60789677  1
  O2-  O142  1  0.87458528  0.25402948  0.87990295  1
  O2-  O143  1  0.85193938  0.75978543  0.14229310  1
  O2-  O144  1  0.87927522  0.74398635  0.37376193  1
  O2-  O145  1  0.88589785  0.75231513  0.59114529  1
  O2-  O146  1  0.85030174  0.77477518  0.88180328  1
  O2-  O147  1  0.10022947  0.16288257  0.01488240  1
  O2-  O148  1  0.06946573  0.11665123  0.24352228  1
  O2-  O149  1  0.12264767  0.14979874  0.50857166  1
  O2-  O150  1  0.08905762  0.11238016  0.75745576  1
  O2-  O151  1  0.10093456  0.66495729  0.00071695  1
  O2-  O152  1  0.15731362  0.62054245  0.24736434  1
  O2-  O153  1  0.12231289  0.64006968  0.49458047  1
  O2-  O154  1  0.12460008  0.63895650  0.75174382  1
  O2-  O155  1  0.39491475  0.12591453  0.00214144  1
  O2-  O156  1  0.37678556  0.13933483  0.25620206  1
  O2-  O157  1  0.35398162  0.11292441  0.51382035  1
  O2-  O158  1  0.35058267  0.11756145  0.75042355  1
  O2-  O159  1  0.35285510  0.61396791  0.02996136  1
  O2-  O160  1  0.33317404  0.63330696  0.25830332  1
  O2-  O161  1  0.35016011  0.66018611  0.48845113  1
  O2-  O162  1  0.37654420  0.66165771  0.72006076  1
  O2-  O163  1  0.62057844  0.12990295  -0.00547737  1
  O2-  O164  1  0.58468634  0.09781136  0.24038110  1
  O2-  O165  1  0.55046690  0.09503006  0.49290233  1
  O2-  O166  1  0.61950529  0.15072066  0.74248736  1
  O2-  O167  1  0.59154051  0.62856798  -0.01173904  1
  O2-  O168  1  0.65937467  0.62490124  0.27477956  1
  O2-  O169  1  0.64959191  0.62957990  0.48698050  1
  O2-  O170  1  0.59209519  0.61253029  0.75017583  1
  O2-  O171  1  0.87610766  0.13830947  0.00475638  1
  O2-  O172  1  0.89183733  0.15813231  0.25729999  1
  O2-  O173  1  0.91887905  0.14359021  0.49016649  1
  O2-  O174  1  0.86496652  0.14011679  0.74504716  1
  O2-  O175  1  0.89845613  0.66334729  0.00886589  1
  O2-  O176  1  0.84256803  0.62686948  0.24324565  1
  O2-  O177  1  0.85983247  0.61522858  0.48529257  1
  O2-  O178  1  0.88916291  0.66525303  0.75411069  1
  O2-  O179  1  0.10446715  0.35760727  0.01474316  1
  O2-  O180  1  0.09805362  0.39913995  0.25155830  1
  O2-  O181  1  0.13223401  0.34281033  0.50352985  1
  O2-  O182  1  0.09027874  0.38575750  0.75697836  1
  O2-  O183  1  0.15639826  0.86334144  -0.01542372  1
  O2-  O184  1  0.15986730  0.87864441  0.23476892  1
  O2-  O185  1  0.13783126  0.83365006  0.50282828  1
  O2-  O186  1  0.15636998  0.83684646  0.71629279  1
  O2-  O187  1  0.41136329  0.36033774  0.00868331  1
  O2-  O188  1  0.36036814  0.35429916  0.26193565  1
  O2-  O189  1  0.31981398  0.36460788  0.51482603  1
  O2-  O190  1  0.34848741  0.35837127  0.75572459  1
  O2-  O191  1  0.34857474  0.86072228  -0.00157694  1
  O2-  O192  1  0.33261118  0.87362443  0.25539866  1
  O2-  O193  1  0.41551066  0.88626280  0.47465473  1
  O2-  O194  1  0.34764325  0.83865969  0.79491791  1
  O2-  O195  1  0.63402950  0.34686948  -0.00209326  1
  O2-  O196  1  0.63672810  0.35191207  0.26814508  1
  O2-  O197  1  0.69728277  0.34752374  0.49945886  1
  O2-  O198  1  0.65243140  0.35359615  0.74048180  1
  O2-  O199  1  0.62148574  0.82644188  -0.00257161  1
  O2-  O200  1  0.65111889  0.87545375  0.24735812  1
  O2-  O201  1  0.59311647  0.88057170  0.52192956  1
  O2-  O202  1  0.56851557  0.87770078  0.74001783  1
  O2-  O203  1  0.88787733  0.37204191  0.00297970  1
  O2-  O204  1  0.90517742  0.37089293  0.25399767  1
  O2-  O205  1  0.92098179  0.37061222  0.49048148  1
  O2-  O206  1  0.87266102  0.36666411  0.75085308  1
  O2-  O207  1  0.88391617  0.87467440  0.02458507  1
  O2-  O208  1  0.82508602  0.88060250  0.25268139  1
  O2-  O209  1  0.83604203  0.88120528  0.48353065  1
  O2-  O210  1  0.88477162  0.86344193  0.73589799  1
  O2-  O211  1  0.01963090  -0.15870921  0.10898635  1
  O2-  O212  1  -0.01495726  -0.11340220  0.26735544  1
  O2-  O213  1  -0.00653859  -0.12348859  0.42887826  1
  O2-  O214  1  0.00743294  -0.14127426  0.61340552  1
  O2-  O215  1  0.00477652  0.54817117  0.09523038  1
  O2-  O216  1  0.00341667  0.67896684  0.18303530  1
  O2-  O217  1  0.00118221  0.59303173  0.35707481  1
  O2-  O218  1  -0.00232624  0.65975871  0.87050594  1
  O2-  O219  1  0.24175399  0.15844425  -0.09765688  1
  O2-  O220  1  0.24405308  0.12251791  0.12292087  1
  O2-  O221  1  0.26596907  -0.08136484  0.59921069  1
  O2-  O222  1  0.28190503  -0.00943895  0.87793340  1
  O2-  O223  1  0.25025641  0.35127911  -0.09282645  1
  O2-  O224  1  0.26139348  0.38059258  0.11255845  1
  O2-  O225  1  0.24438483  0.65148258  0.62628602  1
  O2-  O226  1  0.23658819  0.65406139  0.88176565  1
  O2-  O227  1  0.49098257  -0.11908895  0.06392990  1
  O2-  O228  1  0.48748213  -0.13448109  0.21675057  1
  O2-  O229  1  0.52326591  -0.03019447  0.35594977  1
  O2-  O230  1  0.49816579  -0.14993322  0.88408476  1
  O2-  O231  1  0.50159646  0.67001763  0.13186571  1
  O2-  O232  1  0.49252185  0.57982438  0.29359906  1
  O2-  O233  1  0.49976125  0.62240799  0.44376743  1
  O2-  O234  1  0.49591695  0.63332619  0.60478618  1
  O2-  O235  1  0.74122041  -0.09868341  -0.06251488  1
  O2-  O236  1  0.74950767  0.12966632  0.13999911  1
  O2-  O237  1  0.75564459  -0.15249032  0.62029869  1
  O2-  O238  1  0.72435956  -0.11366189  0.77887359  1
  O2-  O239  1  0.75180462  0.64036877  -0.04586508  1
  O2-  O240  1  0.76131219  0.32929047  0.13816102  1
  O2-  O241  1  0.74544937  0.63327630  0.62979707  1
  O2-  O242  1  0.75441527  0.60941540  0.80355266  1
