# generated using pymatgen
data_Gd19Ta56(WO20)8
_symmetry_space_group_name_H-M   'P 1'
_cell_length_a   15.50721993
_cell_length_b   15.46713409
_cell_length_c   15.27819234
_cell_angle_alpha   90.09784132
_cell_angle_beta   89.93008729
_cell_angle_gamma   89.88318001
_symmetry_Int_Tables_number   1
_chemical_formula_structural   Gd19Ta56(WO20)8
_chemical_formula_sum   'Gd19 Ta56 W8 O160'
_cell_volume   3664.49310779
_cell_formula_units_Z   1
loop_
 _symmetry_equiv_pos_site_id
 _symmetry_equiv_pos_as_xyz
  1  'x, y, z'
loop_
 _atom_type_symbol
 _atom_type_oxidation_number
  Gd3+  3.0
  Ta5+  5.0
  W6+  6.0
  O2-  -2.0
loop_
 _atom_site_type_symbol
 _atom_site_label
 _atom_site_symmetry_multiplicity
 _atom_site_fract_x
 _atom_site_fract_y
 _atom_site_fract_z
 _atom_site_occupancy
  Gd3+  Gd0  1  0.48361985  0.27212060  0.48837141  1
  Gd3+  Gd1  1  0.71922766  0.26330777  0.47213678  1
  Gd3+  Gd2  1  0.26828479  0.22163367  -0.01820222  1
  Gd3+  Gd3  1  0.74456702  0.73633416  0.00096805  1
  Gd3+  Gd4  1  0.47237050  0.75914057  0.76743787  1
  Gd3+  Gd5  1  0.01095983  0.74020068  0.24842464  1
  Gd3+  Gd6  1  0.22594447  0.25345183  0.48907195  1
  Gd3+  Gd7  1  0.73657795  0.75704974  0.49493174  1
  Gd3+  Gd8  1  0.22254469  0.23592031  0.22303841  1
  Gd3+  Gd9  1  0.74584811  0.72041459  0.25479419  1
  Gd3+  Gd10  1  0.27517278  0.73863375  0.49770621  1
  Gd3+  Gd11  1  0.49601991  0.25307616  0.75407494  1
  Gd3+  Gd12  1  0.53806940  0.26445237  0.24769018  1
  Gd3+  Gd13  1  0.03975977  0.22196386  0.00278807  1
  Gd3+  Gd14  1  0.03994052  0.77434964  0.73062719  1
  Gd3+  Gd15  1  -0.01854776  0.24968039  0.49459314  1
  Gd3+  Gd16  1  0.74870680  0.23591880  0.73564190  1
  Gd3+  Gd17  1  0.77803265  0.26081026  0.02220108  1
  Gd3+  Gd18  1  0.48905786  0.75470533  0.21109886  1
  Ta5+  Ta19  1  0.37914610  0.37606674  0.64201422  1
  Ta5+  Ta20  1  0.16850575  0.86574268  0.87006911  1
  Ta5+  Ta21  1  0.16065527  0.62163528  0.85016570  1
  Ta5+  Ta22  1  0.15949200  0.85200274  0.11900099  1
  Ta5+  Ta23  1  0.38928968  0.37709701  0.12945567  1
  Ta5+  Ta24  1  0.57951395  0.45131711  0.38540728  1
  Ta5+  Ta25  1  0.11445998  0.38049362  0.35135743  1
  Ta5+  Ta26  1  0.37209073  0.11521953  0.36360168  1
  Ta5+  Ta27  1  0.32803089  0.62531785  0.86514609  1
  Ta5+  Ta28  1  0.62343144  0.60336602  0.13198149  1
  Ta5+  Ta29  1  0.15989626  0.62102816  0.63290672  1
  Ta5+  Ta30  1  0.61737999  0.11366407  0.62036983  1
  Ta5+  Ta31  1  0.60279068  0.12434635  0.89129504  1
  Ta5+  Ta32  1  0.86545640  0.11376622  0.61768659  1
  Ta5+  Ta33  1  0.86263330  0.62555045  0.86868153  1
  Ta5+  Ta34  1  0.13223794  0.05607152  0.86553460  1
  Ta5+  Ta35  1  0.37213767  0.12243527  0.64340033  1
  Ta5+  Ta36  1  0.89910870  0.63809025  0.62546473  1
  Ta5+  Ta37  1  0.38202214  0.38400812  0.88868930  1
  Ta5+  Ta38  1  0.58013630  0.10230707  0.37533824  1
  Ta5+  Ta39  1  0.34792982  0.88282241  0.63000818  1
  Ta5+  Ta40  1  0.43528049  0.10385948  0.88758380  1
  Ta5+  Ta41  1  0.11708763  0.87081375  0.37738317  1
  Ta5+  Ta42  1  0.88124955  0.88157688  0.37975076  1
  Ta5+  Ta43  1  0.40212387  0.86705392  0.37738857  1
  Ta5+  Ta44  1  0.88577268  0.42360494  0.39662962  1
  Ta5+  Ta45  1  0.12026616  0.39842833  0.10007257  1
  Ta5+  Ta46  1  0.65030361  0.87876985  0.13844606  1
  Ta5+  Ta47  1  0.39988611  0.11549722  0.13183221  1
  Ta5+  Ta48  1  0.15189335  0.05904888  0.11575460  1
  Ta5+  Ta49  1  0.11309946  0.11463191  0.36038437  1
  Ta5+  Ta50  1  0.85524665  0.39191005  0.62790644  1
  Ta5+  Ta51  1  0.87030273  0.87675114  0.88278234  1
  Ta5+  Ta52  1  0.12945153  0.38489445  0.86670547  1
  Ta5+  Ta53  1  0.62367733  0.87582684  0.88279537  1
  Ta5+  Ta54  1  0.87170004  0.60363087  0.12593669  1
  Ta5+  Ta55  1  0.13482959  0.62439352  0.37260153  1
  Ta5+  Ta56  1  0.61016654  0.63715611  0.62947308  1
  Ta5+  Ta57  1  0.33739250  0.87778546  0.12604678  1
  Ta5+  Ta58  1  0.36686659  0.62496636  0.10930665  1
  Ta5+  Ta59  1  0.62597452  0.86921620  0.63293384  1
  Ta5+  Ta60  1  0.39373756  0.62369930  0.37106533  1
  Ta5+  Ta61  1  0.86899685  0.87666969  0.63485230  1
  Ta5+  Ta62  1  0.89522802  0.12843054  0.87198177  1
  Ta5+  Ta63  1  0.86671156  0.87535181  0.13079234  1
  Ta5+  Ta64  1  0.64679300  0.12036913  0.13545833  1
  Ta5+  Ta65  1  0.33784197  0.88650205  0.87501127  1
  Ta5+  Ta66  1  0.64039493  0.38744596  0.62800525  1
  Ta5+  Ta67  1  0.56305113  0.65701658  0.38687023  1
  Ta5+  Ta68  1  0.60660997  0.38301409  0.88968379  1
  Ta5+  Ta69  1  0.91335238  0.37396827  0.19837377  1
  Ta5+  Ta70  1  0.35362871  0.61868575  0.63986929  1
  Ta5+  Ta71  1  0.88848972  0.37890700  0.86189263  1
  Ta5+  Ta72  1  0.12932399  0.63444426  0.10042782  1
  Ta5+  Ta73  1  0.56936084  0.85393247  0.38334199  1
  Ta5+  Ta74  1  0.36140416  0.38718667  0.33871062  1
  W6+  W75  1  0.85746506  0.12826003  0.37273261  1
  W6+  W76  1  0.12586175  0.37790358  0.62781995  1
  W6+  W77  1  0.88110633  0.62202114  0.39013433  1
  W6+  W78  1  0.64362049  0.38987822  0.13714224  1
  W6+  W79  1  0.93635616  0.08555000  0.19030503  1
  W6+  W80  1  0.13077303  0.11772732  0.62110697  1
  W6+  W81  1  0.18179620  0.88300548  0.61647086  1
  W6+  W82  1  0.60638668  0.62683025  0.87927518  1
  O2-  O83  1  0.08050023  -0.04028442  0.11168057  1
  O2-  O84  1  0.13458078  -0.00633617  0.37486547  1
  O2-  O85  1  0.15323285  0.00077915  0.58566478  1
  O2-  O86  1  0.06587534  -0.04226709  0.88239625  1
  O2-  O87  1  0.08499789  0.51944444  0.10872869  1
  O2-  O88  1  0.13327592  0.49922737  0.36838861  1
  O2-  O89  1  0.13362517  0.50370039  0.61609854  1
  O2-  O90  1  0.11114064  0.50654204  0.84952160  1
  O2-  O91  1  0.40065167  -0.00404028  0.13545924  1
  O2-  O92  1  0.36903507  -0.00551345  0.37105969  1
  O2-  O93  1  0.38298202  0.00573219  0.61118359  1
  O2-  O94  1  0.42552269  -0.01397484  0.89327362  1
  O2-  O95  1  0.38603430  0.49803514  0.11084593  1
  O2-  O96  1  0.33422409  0.50425978  0.35550952  1
  O2-  O97  1  0.34042861  0.49061230  0.63770620  1
  O2-  O98  1  0.32314385  0.48920718  0.87619903  1
  O2-  O99  1  0.67240282  -0.00006561  0.12799437  1
  O2-  O100  1  0.57710991  -0.01694996  0.38922825  1
  O2-  O101  1  0.59539518  -0.00440204  0.62797333  1
  O2-  O102  1  0.61835521  -0.00251815  0.88228129  1
  O2-  O103  1  0.56533298  0.50194901  0.12436073  1
  O2-  O104  1  0.64250739  0.54829490  0.41704138  1
  O2-  O105  1  0.62334992  0.50832293  0.62831298  1
  O2-  O106  1  0.64056733  0.49490491  0.86730227  1
  O2-  O107  1  0.86862729  -0.00366319  0.12659402  1
  O2-  O108  1  0.83981908  -0.00924515  0.36351024  1
  O2-  O109  1  0.90422380  -0.00693227  0.63146791  1
  O2-  O110  1  0.86900598  0.01131408  0.88108021  1
  O2-  O111  1  0.90106612  0.48242723  0.14290861  1
  O2-  O112  1  0.80845741  0.50866398  0.42385924  1
  O2-  O113  1  0.87556558  0.51141802  0.63366024  1
  O2-  O114  1  0.87636693  0.49921869  0.84314059  1
  O2-  O115  1  0.16907756  0.27570890  0.08958347  1
  O2-  O116  1  0.11884755  0.24315513  0.33148229  1
  O2-  O117  1  0.13146949  0.24997590  0.61716683  1
  O2-  O118  1  0.15069074  0.26289463  0.90545136  1
  O2-  O119  1  0.06907686  0.74544103  0.11156503  1
  O2-  O120  1  0.07771693  0.73909497  0.38582544  1
  O2-  O121  1  0.15071029  0.75203530  0.62631889  1
  O2-  O122  1  0.14400644  0.74812755  0.84161282  1
  O2-  O123  1  0.42777545  0.25347144  0.14047955  1
  O2-  O124  1  0.38833554  0.25867568  0.36522946  1
  O2-  O125  1  0.36317340  0.25523325  0.67871645  1
  O2-  O126  1  0.37999879  0.25311530  0.87451870  1
  O2-  O127  1  0.37831205  0.75517753  0.11085937  1
  O2-  O128  1  0.35030127  0.74336086  0.37154537  1
  O2-  O129  1  0.35274395  0.75027089  0.64395269  1
  O2-  O130  1  0.35079595  0.75917124  0.85626849  1
  O2-  O131  1  0.66362623  0.24585368  0.15175817  1
  O2-  O132  1  0.59093636  0.23881243  0.38570054  1
  O2-  O133  1  0.64926890  0.25323615  0.61203576  1
  O2-  O134  1  0.57173217  0.25092742  0.88812536  1
  O2-  O135  1  0.65732762  0.74560268  0.13042641  1
  O2-  O136  1  0.65904934  0.75431323  0.37017885  1
  O2-  O137  1  0.67800003  0.74367965  0.63791995  1
  O2-  O138  1  0.56676634  0.76046963  0.89100764  1
  O2-  O139  1  0.85346277  0.28983097  0.14192147  1
  O2-  O140  1  0.85596538  0.26651769  0.41120837  1
  O2-  O141  1  0.84119413  0.24471713  0.60544577  1
  O2-  O142  1  0.82794409  0.25250414  0.85990416  1
  O2-  O143  1  0.84541525  0.73875963  0.11688060  1
  O2-  O144  1  0.83257394  0.76096504  0.37143257  1
  O2-  O145  1  0.93751599  0.76658698  0.61733896  1
  O2-  O146  1  0.88029059  0.74934819  0.89810134  1
  O2-  O147  1  0.14804222  0.10237559  -0.01351246  1
  O2-  O148  1  0.15700266  0.09871106  0.23568241  1
  O2-  O149  1  0.09821332  0.14940977  0.48235357  1
  O2-  O150  1  0.15430608  0.10051637  0.75554607  1
  O2-  O151  1  0.14156064  0.63331054  -0.02289490  1
  O2-  O152  1  0.12035090  0.63715997  0.24598263  1
  O2-  O153  1  0.16846854  0.63231266  0.49634257  1
  O2-  O154  1  0.08004431  0.63320572  0.73406127  1
  O2-  O155  1  0.39825792  0.13860183  0.00678355  1
  O2-  O156  1  0.33518955  0.14029648  0.24165917  1
  O2-  O157  1  0.26827062  0.14304657  0.58272606  1
  O2-  O158  1  0.39190645  0.10895099  0.76477683  1
  O2-  O159  1  0.36352988  0.62880837  -0.01879872  1
  O2-  O160  1  0.39872475  0.63529990  0.23546311  1
  O2-  O161  1  0.37266933  0.62150053  0.51105458  1
  O2-  O162  1  0.40638806  0.62107322  0.75798295  1
  O2-  O163  1  0.66895477  0.14013958  0.00682387  1
  O2-  O164  1  0.64848543  0.11182519  0.26960658  1
  O2-  O165  1  0.64073205  0.12218743  0.49372367  1
  O2-  O166  1  0.62072017  0.14747472  0.75226851  1
  O2-  O167  1  0.64897710  0.62593241  0.00824790  1
  O2-  O168  1  0.60093360  0.64545337  0.25206171  1
  O2-  O169  1  0.56866805  0.66538494  0.51838418  1
  O2-  O170  1  0.57757488  0.64758190  0.74967042  1
  O2-  O171  1  0.89682537  0.17188810  -0.00902867  1
  O2-  O172  1  0.83897410  0.13940975  0.24054747  1
  O2-  O173  1  0.91440332  0.11795910  0.50346443  1
  O2-  O174  1  0.87950156  0.14075366  0.74416689  1
  O2-  O175  1  0.87101786  0.60427200  0.00024919  1
  O2-  O176  1  0.90340127  0.63553037  0.24767088  1
  O2-  O177  1  0.83467019  0.65380833  0.52134598  1
  O2-  O178  1  0.89308739  0.65536709  0.74874868  1
  O2-  O179  1  0.17030034  0.41630641  -0.01441604  1
  O2-  O180  1  0.14008506  0.38791050  0.22401714  1
  O2-  O181  1  0.09863872  0.35017911  0.47631038  1
  O2-  O182  1  0.17689059  0.36973837  0.75623219  1
  O2-  O183  1  0.15972662  0.84756666  -0.00373842  1
  O2-  O184  1  0.12415610  0.84678400  0.25449136  1
  O2-  O185  1  0.18982206  0.85469543  0.47490970  1
  O2-  O186  1  0.13690174  0.88640653  0.74310033  1
  O2-  O187  1  0.33973055  0.35038040  0.01394753  1
  O2-  O188  1  0.45423499  0.38763983  0.24712177  1
  O2-  O189  1  0.34308552  0.33657721  0.52818868  1
  O2-  O190  1  0.42197335  0.38802330  0.76964486  1
  O2-  O191  1  0.33802501  0.88546346  0.00105258  1
  O2-  O192  1  0.38617900  0.85942620  0.24786614  1
  O2-  O193  1  0.37753404  0.85654286  0.50580058  1
  O2-  O194  1  0.38896720  0.88924479  0.75093927  1
  O2-  O195  1  0.66520726  0.35963832  -0.00511894  1
  O2-  O196  1  0.62369326  0.39785454  0.28526819  1
  O2-  O197  1  0.60810174  0.37709616  0.48861503  1
  O2-  O198  1  0.60477698  0.35264288  0.75900845  1
  O2-  O199  1  0.65672914  0.86301377  0.00920165  1
  O2-  O200  1  0.58359479  0.86902454  0.24572631  1
  O2-  O201  1  0.60593043  0.85088023  0.51174484  1
  O2-  O202  1  0.59102872  0.86311525  0.75682352  1
  O2-  O203  1  0.84519398  0.37879484  -0.02622279  1
  O2-  O204  1  0.82823558  0.39744351  0.28486859  1
  O2-  O205  1  0.92306220  0.38420816  0.51725358  1
  O2-  O206  1  0.91055393  0.34981970  0.73199234  1
  O2-  O207  1  0.89719397  0.87552402  0.00725465  1
  O2-  O208  1  0.91892450  0.85978241  0.25158093  1
  O2-  O209  1  0.84185037  0.86813884  0.50503078  1
  O2-  O210  1  0.91414454  0.86764502  0.76264485  1
  O2-  O211  1  0.04213447  0.13013282  0.11763049  1
  O2-  O212  1  -0.00499406  0.11189420  0.32522908  1
  O2-  O213  1  -0.00203041  -0.11107612  0.41338496  1
  O2-  O214  1  0.01666939  0.13162460  0.87339025  1
  O2-  O215  1  0.01047444  0.34675221  0.09519015  1
  O2-  O216  1  -0.01040772  0.36230436  0.30875004  1
  O2-  O217  1  -0.03559378  0.51294784  0.38319127  1
  O2-  O218  1  0.00649679  0.35482984  0.88967910  1
  O2-  O219  1  0.23588928  -0.04237914  0.15062985  1
  O2-  O220  1  0.26474327  0.12858422  0.10003127  1
  O2-  O221  1  0.24998331  0.14212015  0.39003795  1
  O2-  O222  1  0.23973118  -0.01510384  0.87162186  1
  O2-  O223  1  0.24724207  0.62094986  0.12547793  1
  O2-  O224  1  0.30083173  0.36349737  0.21333511  1
  O2-  O225  1  0.24063419  0.35045911  0.36921444  1
  O2-  O226  1  0.24545634  0.62305088  0.73315200  1
  O2-  O227  1  0.52855849  0.11839874  0.12556749  1
  O2-  O228  1  0.48445744  0.12732115  0.29042638  1
  O2-  O229  1  0.46457616  0.12522282  0.45220453  1
  O2-  O230  1  0.49569328  0.16128543  0.61949189  1
  O2-  O231  1  0.49372794  0.40795448  -0.06556801  1
  O2-  O232  1  0.49824702  0.54506603  0.35144819  1
  O2-  O233  1  0.46344657  0.40040696  0.41655509  1
  O2-  O234  1  0.50324299  0.35875741  0.61904337  1
  O2-  O235  1  0.74986812  -0.13524339  -0.13379121  1
  O2-  O236  1  0.75859720  -0.13692847  0.20613700  1
  O2-  O237  1  0.74500701  0.09963626  0.63520809  1
  O2-  O238  1  0.75180589  -0.11206866  0.65855529  1
  O2-  O239  1  0.74511248  0.64603184  -0.13138595  1
  O2-  O240  1  0.75207051  0.59306897  0.15623573  1
  O2-  O241  1  0.75011780  0.38509176  0.55103860  1
  O2-  O242  1  0.74901727  0.38133164  0.70732143  1
