# generated using pymatgen
data_Gd19Ta56(WO20)8
_symmetry_space_group_name_H-M   'P 1'
_cell_length_a   15.46734502
_cell_length_b   15.39401537
_cell_length_c   15.11680035
_cell_angle_alpha   89.92521460
_cell_angle_beta   90.53147008
_cell_angle_gamma   89.52051843
_symmetry_Int_Tables_number   1
_chemical_formula_structural   Gd19Ta56(WO20)8
_chemical_formula_sum   'Gd19 Ta56 W8 O160'
_cell_volume   3599.09458063
_cell_formula_units_Z   1
loop_
 _symmetry_equiv_pos_site_id
 _symmetry_equiv_pos_as_xyz
  1  'x, y, z'
loop_
 _atom_type_symbol
 _atom_type_oxidation_number
  Gd3+  3.0
  Ta5+  5.0
  W6+  6.0
  O2-  -2.0
loop_
 _atom_site_type_symbol
 _atom_site_label
 _atom_site_symmetry_multiplicity
 _atom_site_fract_x
 _atom_site_fract_y
 _atom_site_fract_z
 _atom_site_occupancy
  Gd3+  Gd0  1  0.73918620  0.25539094  0.23871455  1
  Gd3+  Gd1  1  0.52358378  0.75157014  0.72944900  1
  Gd3+  Gd2  1  -0.01262640  0.76753878  0.26199232  1
  Gd3+  Gd3  1  -0.03524551  0.75817290  -0.01197206  1
  Gd3+  Gd4  1  0.25802555  0.27050261  -0.00835344  1
  Gd3+  Gd5  1  0.22406849  0.74090677  0.75900069  1
  Gd3+  Gd6  1  0.48706127  0.76784817  0.48571822  1
  Gd3+  Gd7  1  0.51082857  0.26077928  0.49679107  1
  Gd3+  Gd8  1  0.27264934  0.78440522  0.26360062  1
  Gd3+  Gd9  1  0.73598979  0.24162802  0.01053280  1
  Gd3+  Gd10  1  0.72134880  0.23804344  0.78053501  1
  Gd3+  Gd11  1  0.52209585  0.74673369  0.00875486  1
  Gd3+  Gd12  1  -0.01397387  0.28179716  0.75978628  1
  Gd3+  Gd13  1  0.29444184  0.77631553  0.02033430  1
  Gd3+  Gd14  1  0.00520955  0.25719166  0.26347457  1
  Gd3+  Gd15  1  0.50418331  0.24194322  0.03076668  1
  Gd3+  Gd16  1  0.49363830  0.75754219  0.24999581  1
  Gd3+  Gd17  1  -0.01617574  0.24427649  0.51090132  1
  Gd3+  Gd18  1  -0.01466410  0.28954875  0.00490626  1
  Ta5+  Ta19  1  0.63500039  0.12187912  0.37612029  1
  Ta5+  Ta20  1  0.62404858  0.60055965  0.61672939  1
  Ta5+  Ta21  1  0.09640482  0.63916504  0.89662921  1
  Ta5+  Ta22  1  0.41534402  0.13672374  0.63214490  1
  Ta5+  Ta23  1  0.61836756  0.39223432  0.12828355  1
  Ta5+  Ta24  1  0.86299295  0.39182665  0.38159630  1
  Ta5+  Ta25  1  0.13097335  0.88324605  0.91158500  1
  Ta5+  Ta26  1  0.16431108  0.14285969  0.64944391  1
  Ta5+  Ta27  1  0.35374954  0.61243509  0.36645413  1
  Ta5+  Ta28  1  0.67764117  0.85630150  0.13255566  1
  Ta5+  Ta29  1  0.89190673  0.11594921  0.87519154  1
  Ta5+  Ta30  1  0.14691605  0.63435675  0.14070378  1
  Ta5+  Ta31  1  0.37685010  0.38621115  0.62597882  1
  Ta5+  Ta32  1  0.83351551  0.88007726  0.86276808  1
  Ta5+  Ta33  1  0.63631913  0.59674212  0.37231475  1
  Ta5+  Ta34  1  0.34938936  0.94540592  0.38822657  1
  Ta5+  Ta35  1  0.86917182  0.12338103  0.36608124  1
  Ta5+  Ta36  1  0.35725284  0.60679864  0.13956196  1
  Ta5+  Ta37  1  0.64819636  0.86239168  0.60000223  1
  Ta5+  Ta38  1  0.38224242  0.61499238  0.87507380  1
  Ta5+  Ta39  1  0.87343419  0.89508876  0.61495919  1
  Ta5+  Ta40  1  0.83219374  0.87819728  0.36936996  1
  Ta5+  Ta41  1  0.85332959  0.40533305  0.87701983  1
  Ta5+  Ta42  1  0.16101484  0.13346570  0.39505029  1
  Ta5+  Ta43  1  0.81398669  0.65535486  0.86709684  1
  Ta5+  Ta44  1  0.14664359  0.14515249  0.13781475  1
  Ta5+  Ta45  1  0.90922502  0.12065889  0.09662651  1
  Ta5+  Ta46  1  0.37613300  0.13616579  0.37510211  1
  Ta5+  Ta47  1  0.63718843  0.04255475  0.13884335  1
  Ta5+  Ta48  1  0.85075762  0.63626606  0.38285535  1
  Ta5+  Ta49  1  0.38684125  0.10566312  0.13991111  1
  Ta5+  Ta50  1  0.86404194  0.63616713  0.12520393  1
  Ta5+  Ta51  1  0.07870105  0.64484870  0.62880228  1
  Ta5+  Ta52  1  0.38748387  0.88891480  0.63630042  1
  Ta5+  Ta53  1  0.64642750  0.63382776  0.86724488  1
  Ta5+  Ta54  1  0.13176500  0.38261057  0.40847611  1
  Ta5+  Ta55  1  0.36505522  0.37606905  0.82430914  1
  Ta5+  Ta56  1  0.84248987  0.88947702  0.12063507  1
  Ta5+  Ta57  1  0.67080756  0.83976699  0.87289286  1
  Ta5+  Ta58  1  0.32321204  0.12940753  0.80657012  1
  Ta5+  Ta59  1  0.65798156  0.11406432  0.61972559  1
  Ta5+  Ta60  1  0.38025988  0.61381025  0.61889027  1
  Ta5+  Ta61  1  0.11989339  0.39723815  0.61321034  1
  Ta5+  Ta62  1  0.82548418  0.13711891  0.62035281  1
  Ta5+  Ta63  1  0.66133233  0.36308260  0.62412908  1
  Ta5+  Ta64  1  0.66009050  0.61720187  0.12385891  1
  Ta5+  Ta65  1  0.82744001  0.36166648  0.62284055  1
  Ta5+  Ta66  1  0.11970632  0.63342679  0.38513199  1
  Ta5+  Ta67  1  0.09947729  0.12979592  0.89106882  1
  Ta5+  Ta68  1  0.85261770  0.60893709  0.63002184  1
  Ta5+  Ta69  1  0.63013501  0.38376370  0.37755246  1
  Ta5+  Ta70  1  0.60238390  0.38760761  0.87467178  1
  Ta5+  Ta71  1  0.85856539  0.43241738  0.12863625  1
  Ta5+  Ta72  1  0.11876633  0.39927893  0.87486948  1
  Ta5+  Ta73  1  0.11863889  0.38979304  0.14687466  1
  Ta5+  Ta74  1  0.10938198  0.89878023  0.38722615  1
  W6+  W75  1  0.12076451  0.89536126  0.12801395  1
  W6+  W76  1  0.47170329  0.97411577  0.01495662  1
  W6+  W77  1  0.67053139  0.88249431  0.34780018  1
  W6+  W78  1  0.33959787  0.88336570  0.84890632  1
  W6+  W79  1  0.12480150  0.89063559  0.64850360  1
  W6+  W80  1  0.37699965  0.35245190  0.16461073  1
  W6+  W81  1  0.34234183  0.36472223  0.38338800  1
  W6+  W82  1  0.64722916  0.07666495  0.88804409  1
  O2-  O83  1  0.13465843  0.02826751  0.13344509  1
  O2-  O84  1  0.09901847  0.02947806  0.38480837  1
  O2-  O85  1  0.12369439  0.03320472  0.66346516  1
  O2-  O86  1  0.11605572  0.01040493  0.89399553  1
  O2-  O87  1  0.15249085  0.50529865  0.15017325  1
  O2-  O88  1  0.12770640  0.50952377  0.39392002  1
  O2-  O89  1  0.11178725  0.52169571  0.62432945  1
  O2-  O90  1  0.12989392  0.52021602  0.88752809  1
  O2-  O91  1  0.38106928  -0.01517982  0.11315058  1
  O2-  O92  1  0.44309684  0.02484197  0.38411646  1
  O2-  O93  1  0.38269714  0.00940460  0.63228616  1
  O2-  O94  1  0.31904142  0.02348848  0.86193887  1
  O2-  O95  1  0.35561702  0.48863881  0.13504497  1
  O2-  O96  1  0.32098145  0.49800620  0.37456320  1
  O2-  O97  1  0.32482699  0.50427797  0.60432522  1
  O2-  O98  1  0.35882063  0.49305238  0.87519068  1
  O2-  O99  1  0.56161966  -0.06091269  0.11731524  1
  O2-  O100  1  0.65240135  0.00497933  0.39223248  1
  O2-  O101  1  0.65751965  -0.01687382  0.60261503  1
  O2-  O102  1  0.72026730  -0.04314772  0.88388214  1
  O2-  O103  1  0.60555899  0.51130913  0.09799388  1
  O2-  O104  1  0.56607642  0.49354269  0.36556232  1
  O2-  O105  1  0.65700291  0.48760241  0.65162317  1
  O2-  O106  1  0.61838225  0.50484135  0.87191828  1
  O2-  O107  1  0.91231561  0.00394399  0.12718223  1
  O2-  O108  1  0.85211329  0.00600878  0.35614632  1
  O2-  O109  1  0.85019394  0.01487902  0.62025788  1
  O2-  O110  1  0.89861879  -0.00384464  0.87033055  1
  O2-  O111  1  0.93756518  0.53135690  0.12941965  1
  O2-  O112  1  0.88396537  0.51255519  0.38241345  1
  O2-  O113  1  0.84736704  0.48941637  0.63543982  1
  O2-  O114  1  0.83377836  0.52261949  0.86530987  1
  O2-  O115  1  0.17988760  0.28059294  0.12873802  1
  O2-  O116  1  0.09753374  0.24880552  0.40654120  1
  O2-  O117  1  0.09265819  0.25102249  0.64093971  1
  O2-  O118  1  0.08909149  0.26775356  0.88492423  1
  O2-  O119  1  0.16083649  0.76121575  0.15204495  1
  O2-  O120  1  0.09827088  0.76756873  0.37161563  1
  O2-  O121  1  0.14877469  0.74610881  0.62716809  1
  O2-  O122  1  0.15433957  0.74863268  0.92044020  1
  O2-  O123  1  0.43313023  0.22748706  0.16106037  1
  O2-  O124  1  0.41832932  0.24936362  0.36858904  1
  O2-  O125  1  0.43127331  0.26385690  0.63504087  1
  O2-  O126  1  0.33700569  0.24169778  0.86224725  1
  O2-  O127  1  0.37082685  0.74682633  0.14935338  1
  O2-  O128  1  0.38238866  0.74172350  0.35858810  1
  O2-  O129  1  0.39079030  0.74407978  0.61595801  1
  O2-  O130  1  0.32720646  0.73402141  0.87563357  1
  O2-  O131  1  0.63708536  0.25872068  0.12243962  1
  O2-  O132  1  0.60035991  0.25844258  0.36383198  1
  O2-  O133  1  0.62412381  0.23967644  0.62362670  1
  O2-  O134  1  0.63071843  0.21666462  0.89734011  1
  O2-  O135  1  0.55041588  0.67991903  0.13908784  1
  O2-  O136  1  0.55601632  0.69044006  0.37452144  1
  O2-  O137  1  0.59062021  0.72850679  0.59268147  1
  O2-  O138  1  0.57464078  0.75179488  0.87089403  1
  O2-  O139  1  0.86491465  0.24533838  0.09261835  1
  O2-  O140  1  0.91220947  0.26050682  0.37383706  1
  O2-  O141  1  0.90396562  0.24689587  0.63875292  1
  O2-  O142  1  0.88571530  0.25636416  0.89200511  1
  O2-  O143  1  0.91018461  0.75881147  0.12694345  1
  O2-  O144  1  0.89347174  0.75563811  0.38141987  1
  O2-  O145  1  0.96308077  0.67519942  0.64006267  1
  O2-  O146  1  0.88948359  0.76510258  0.85850312  1
  O2-  O147  1  0.15591146  0.15876792  0.00388413  1
  O2-  O148  1  0.14524595  0.16182878  0.26553713  1
  O2-  O149  1  0.17670140  0.14103472  0.52571632  1
  O2-  O150  1  0.18707494  0.15044988  0.79595709  1
  O2-  O151  1  0.07700019  0.63773464  0.03481833  1
  O2-  O152  1  0.07993989  0.63640912  0.25764706  1
  O2-  O153  1  0.06831335  0.64420354  0.49712643  1
  O2-  O154  1  0.09943720  0.64986746  0.76489232  1
  O2-  O155  1  0.32576214  0.14750695  0.04206057  1
  O2-  O156  1  0.33458736  0.11019715  0.25309163  1
  O2-  O157  1  0.39952814  0.14300972  0.50724197  1
  O2-  O158  1  0.43717373  0.12729914  0.76317080  1
  O2-  O159  1  0.40826156  0.63361227  0.00617264  1
  O2-  O160  1  0.42449734  0.61056387  0.25660904  1
  O2-  O161  1  0.40320435  0.62305787  0.48480476  1
  O2-  O162  1  0.33832447  0.62613147  0.74203305  1
  O2-  O163  1  0.66373234  0.10210910  0.03120907  1
  O2-  O164  1  0.63869386  0.12326431  0.23772234  1
  O2-  O165  1  0.59820683  0.13267774  0.49680967  1
  O2-  O166  1  0.65271438  0.10608115  0.74892821  1
  O2-  O167  1  0.64446931  0.64806353  -0.00144208  1
  O2-  O168  1  0.67444592  0.60688188  0.25348224  1
  O2-  O169  1  0.66294105  0.58971824  0.49754307  1
  O2-  O170  1  0.63813125  0.64488142  0.73718993  1
  O2-  O171  1  0.82990308  0.11522664  -0.00925256  1
  O2-  O172  1  0.88497560  0.15074484  0.23553110  1
  O2-  O173  1  0.87063007  0.14064630  0.49554502  1
  O2-  O174  1  0.83498433  0.13959524  0.76062836  1
  O2-  O175  1  0.85016599  0.65343742  -0.00350684  1
  O2-  O176  1  0.85898984  0.64487274  0.25253743  1
  O2-  O177  1  0.83061675  0.64053620  0.50917553  1
  O2-  O178  1  0.81507450  0.65617843  0.73642233  1
  O2-  O179  1  0.24128223  0.37617528  -0.11719238  1
  O2-  O180  1  0.10837658  0.37012354  0.27817841  1
  O2-  O181  1  0.20433303  0.37153165  0.52402386  1
  O2-  O182  1  0.10889769  0.38490545  0.74510279  1
  O2-  O183  1  0.04782496  0.87674554  0.00762786  1
  O2-  O184  1  0.06638064  0.89270674  0.25802104  1
  O2-  O185  1  0.11443983  0.89637658  0.50884268  1
  O2-  O186  1  0.12614736  0.85580339  0.78754105  1
  O2-  O187  1  0.38338439  0.32974039  0.03096426  1
  O2-  O188  1  0.29618318  0.34952270  0.25481778  1
  O2-  O189  1  0.41529053  0.37857958  0.50593509  1
  O2-  O190  1  0.43710775  0.42721312  0.72746827  1
  O2-  O191  1  0.41769701  0.85623087  -0.02949943  1
  O2-  O192  1  0.37972792  0.88941838  0.28374744  1
  O2-  O193  1  0.36863344  0.88156312  0.49535724  1
  O2-  O194  1  0.27677790  0.87113287  0.70091632  1
  O2-  O195  1  0.59104713  0.36061771  0.00005584  1
  O2-  O196  1  0.66283771  0.38839028  0.24781691  1
  O2-  O197  1  0.61166224  0.37825493  0.50511813  1
  O2-  O198  1  0.62374930  0.34938506  0.75632850  1
  O2-  O199  1  0.65222180  0.82925622  0.00482647  1
  O2-  O200  1  0.63679267  0.80096809  0.24365216  1
  O2-  O201  1  0.62320360  0.84506359  0.47154122  1
  O2-  O202  1  0.64021804  0.84347999  0.73319851  1
  O2-  O203  1  0.88910816  0.40520179  0.00600654  1
  O2-  O204  1  0.85713527  0.37441317  0.24342157  1
  O2-  O205  1  0.87654524  0.36356155  0.50479568  1
  O2-  O206  1  0.84015852  0.35333846  0.75837634  1
  O2-  O207  1  0.86274136  0.86572282  -0.00305514  1
  O2-  O208  1  0.87489570  0.86907851  0.24778827  1
  O2-  O209  1  0.87777786  0.89201413  0.48648605  1
  O2-  O210  1  0.83781891  0.88368002  0.73936485  1
  O2-  O211  1  -0.01110290  0.13204106  -0.02545525  1
  O2-  O212  1  0.02351712  0.18164233  0.13044137  1
  O2-  O213  1  -0.01043902  -0.12194748  0.63810141  1
  O2-  O214  1  0.00346510  0.13921465  0.80305650  1
  O2-  O215  1  0.10855889  0.38568876  0.01078591  1
  O2-  O216  1  -0.00437441  0.36527606  0.14470993  1
  O2-  O217  1  0.04407487  0.38413706  0.51191376  1
  O2-  O218  1  -0.01611708  0.40082125  0.86390405  1
  O2-  O219  1  0.21125044  -0.10720689  0.01451358  1
  O2-  O220  1  0.22983619  -0.10969184  0.36342489  1
  O2-  O221  1  0.27222422  0.05189546  0.40180809  1
  O2-  O222  1  0.28897354  0.15465434  0.67228063  1
  O2-  O223  1  0.25209267  0.63540754  0.06436056  1
  O2-  O224  1  0.26308981  0.63159099  0.23185952  1
  O2-  O225  1  0.23773594  0.66111662  0.40036576  1
  O2-  O226  1  0.29438759  0.34868747  0.71637309  1
  O2-  O227  1  0.53310373  0.01719281  -0.08359931  1
  O2-  O228  1  0.50932684  0.09419639  0.09209417  1
  O2-  O229  1  0.50887349  -0.12859348  0.60148142  1
  O2-  O230  1  0.43746503  -0.13198293  0.75418655  1
  O2-  O231  1  0.49362722  0.62060385  -0.15966046  1
  O2-  O232  1  0.50292919  0.38174721  0.15977346  1
  O2-  O233  1  0.49613403  0.58834617  0.64111758  1
  O2-  O234  1  0.47948069  0.34783031  0.87136242  1
  O2-  O235  1  0.74334347  -0.03304806  0.08731587  1
  O2-  O236  1  0.68155087  -0.04576664  0.22936429  1
  O2-  O237  1  0.75143362  0.16926793  0.36470029  1
  O2-  O238  1  0.76450669  -0.17581246  0.59479569  1
  O2-  O239  1  0.74852979  0.37739101  0.09524818  1
  O2-  O240  1  0.77658695  0.53835125  0.11947597  1
  O2-  O241  1  0.75004859  0.34133681  0.38303199  1
  O2-  O242  1  0.73322347  0.35869558  0.89989341  1
