# generated using pymatgen
data_Gd19Ta56(WO20)8
_symmetry_space_group_name_H-M   'P 1'
_cell_length_a   15.55136529
_cell_length_b   15.45789536
_cell_length_c   15.34001177
_cell_angle_alpha   89.99707480
_cell_angle_beta   89.92340608
_cell_angle_gamma   89.96274268
_symmetry_Int_Tables_number   1
_chemical_formula_structural   Gd19Ta56(WO20)8
_chemical_formula_sum   'Gd19 Ta56 W8 O160'
_cell_volume   3687.60247902
_cell_formula_units_Z   1
loop_
 _symmetry_equiv_pos_site_id
 _symmetry_equiv_pos_as_xyz
  1  'x, y, z'
loop_
 _atom_type_symbol
 _atom_type_oxidation_number
  Gd3+  3.0
  Ta5+  5.0
  W6+  6.0
  O2-  -2.0
loop_
 _atom_site_type_symbol
 _atom_site_label
 _atom_site_symmetry_multiplicity
 _atom_site_fract_x
 _atom_site_fract_y
 _atom_site_fract_z
 _atom_site_occupancy
  Gd3+  Gd0  1  0.48791370  0.24022372  0.02559852  1
  Gd3+  Gd1  1  0.26290452  0.75132696  0.73291907  1
  Gd3+  Gd2  1  0.25186609  0.25277871  -0.01433355  1
  Gd3+  Gd3  1  0.49215054  0.22930734  0.72339533  1
  Gd3+  Gd4  1  0.76984453  0.73936769  0.49210369  1
  Gd3+  Gd5  1  0.49491710  0.73674842  0.25344896  1
  Gd3+  Gd6  1  0.76394858  0.26238391  -0.00648694  1
  Gd3+  Gd7  1  0.25854847  0.76494386  0.25764438  1
  Gd3+  Gd8  1  0.22452675  0.73492712  0.01202847  1
  Gd3+  Gd9  1  0.02472638  0.26362979  0.72578785  1
  Gd3+  Gd10  1  0.52823028  0.76309706  0.50919219  1
  Gd3+  Gd11  1  0.71892332  0.21373977  0.75202368  1
  Gd3+  Gd12  1  0.52124793  0.76490349  0.74513156  1
  Gd3+  Gd13  1  -0.03319494  0.22846459  0.24771517  1
  Gd3+  Gd14  1  0.45546242  0.74319325  0.02614479  1
  Gd3+  Gd15  1  0.75768159  0.74029849  0.75141782  1
  Gd3+  Gd16  1  0.00430815  0.75418820  0.01598095  1
  Gd3+  Gd17  1  0.00234336  0.24330080  0.00204065  1
  Gd3+  Gd18  1  0.01962304  0.75421813  0.25508156  1
  Ta5+  Ta19  1  0.34694276  0.92466333  0.09451612  1
  Ta5+  Ta20  1  0.63985467  0.61696242  0.36884315  1
  Ta5+  Ta21  1  0.16935636  0.13091015  0.62005592  1
  Ta5+  Ta22  1  0.41976421  0.14064606  0.38610540  1
  Ta5+  Ta23  1  0.32765625  0.15406705  0.15663431  1
  Ta5+  Ta24  1  0.65330977  0.12604227  0.35743562  1
  Ta5+  Ta25  1  0.87210321  0.87970039  0.37207449  1
  Ta5+  Ta26  1  0.89174541  0.87346649  0.62740210  1
  Ta5+  Ta27  1  0.63220835  0.10691895  0.90376419  1
  Ta5+  Ta28  1  0.39190292  0.61198283  0.85911547  1
  Ta5+  Ta29  1  0.85937970  0.37919555  0.85887688  1
  Ta5+  Ta30  1  0.17893905  0.38002416  0.61939768  1
  Ta5+  Ta31  1  0.38309919  0.87737480  0.86098102  1
  Ta5+  Ta32  1  0.88239566  0.61829632  0.35010468  1
  Ta5+  Ta33  1  0.37414475  0.91332108  0.39793138  1
  Ta5+  Ta34  1  0.11508784  0.62124067  0.63205165  1
  Ta5+  Ta35  1  0.61366441  0.60342561  0.86125633  1
  Ta5+  Ta36  1  0.13991118  0.38475245  0.87292061  1
  Ta5+  Ta37  1  0.63681252  0.62017455  0.10960896  1
  Ta5+  Ta38  1  0.34503239  0.59200536  0.15394784  1
  Ta5+  Ta39  1  0.88895196  0.86610261  0.87792349  1
  Ta5+  Ta40  1  0.34573320  0.36109996  0.61745760  1
  Ta5+  Ta41  1  0.61806503  0.60605416  0.63417799  1
  Ta5+  Ta42  1  0.14542944  0.58083316  0.16493181  1
  Ta5+  Ta43  1  0.64759723  0.11207995  0.11419092  1
  Ta5+  Ta44  1  0.62643364  0.86436261  0.89085475  1
  Ta5+  Ta45  1  0.35540264  0.61305406  0.40418391  1
  Ta5+  Ta46  1  0.38274711  0.36373744  0.86874098  1
  Ta5+  Ta47  1  0.62690393  0.11868120  0.54520332  1
  Ta5+  Ta48  1  0.16898584  0.35237119  0.13985644  1
  Ta5+  Ta49  1  0.87611549  0.62417259  0.14270509  1
  Ta5+  Ta50  1  0.40061179  0.60232403  0.63059200  1
  Ta5+  Ta51  1  0.33682893  0.13116511  0.61620171  1
  Ta5+  Ta52  1  0.15567400  0.60143845  0.39471912  1
  Ta5+  Ta53  1  0.12789375  0.39053548  0.37674953  1
  Ta5+  Ta54  1  0.09665867  0.61277566  0.83247292  1
  Ta5+  Ta55  1  0.60383439  0.36769995  0.37645367  1
  Ta5+  Ta56  1  0.65011246  0.86196102  0.12496185  1
  Ta5+  Ta57  1  0.88053441  0.61072429  0.87983659  1
  Ta5+  Ta58  1  0.61046376  0.36573438  0.87991616  1
  Ta5+  Ta59  1  0.40522547  0.89506224  0.64734348  1
  Ta5+  Ta60  1  0.40179534  0.38206749  0.38121161  1
  Ta5+  Ta61  1  0.15720794  0.17149807  0.14859771  1
  Ta5+  Ta62  1  0.88023575  0.12225214  0.61679338  1
  Ta5+  Ta63  1  0.36967196  0.12191739  0.87595166  1
  Ta5+  Ta64  1  0.12387713  0.12759891  0.87184251  1
  Ta5+  Ta65  1  0.62371332  0.37669306  0.12399809  1
  Ta5+  Ta66  1  0.34067994  0.35819804  0.14234091  1
  Ta5+  Ta67  1  0.82184585  0.12498899  0.37766488  1
  Ta5+  Ta68  1  0.87936878  0.11522586  0.86632978  1
  Ta5+  Ta69  1  0.88757392  0.60417206  0.62125718  1
  Ta5+  Ta70  1  0.81409823  0.36780234  0.62266820  1
  Ta5+  Ta71  1  0.13544497  0.92711931  0.38494306  1
  Ta5+  Ta72  1  0.81907469  0.11913079  0.12177171  1
  Ta5+  Ta73  1  0.13232901  0.87992607  0.86928096  1
  Ta5+  Ta74  1  0.86772193  0.38190193  0.12782296  1
  W6+  W75  1  0.13881395  0.87734817  0.61336067  1
  W6+  W76  1  0.09834074  0.16611427  0.39689827  1
  W6+  W77  1  0.86277409  0.37177053  0.37605414  1
  W6+  W78  1  0.63685893  0.87635056  0.36628636  1
  W6+  W79  1  0.88791666  0.88413396  0.13763180  1
  W6+  W80  1  0.15219036  0.97110974  0.09646392  1
  W6+  W81  1  0.65082484  0.35665016  0.62209382  1
  W6+  W82  1  0.65796600  0.88768810  0.63119105  1
  O2-  O83  1  0.08125247  0.05995142  0.13649160  1
  O2-  O84  1  0.07977130  0.03030834  0.37379560  1
  O2-  O85  1  0.15136467  0.01079249  0.61905896  1
  O2-  O86  1  0.13910337  0.00068580  0.87276161  1
  O2-  O87  1  0.09389013  0.47533784  0.14763043  1
  O2-  O88  1  0.07939887  0.50310778  0.36388483  1
  O2-  O89  1  0.16974983  0.51091321  0.62102434  1
  O2-  O90  1  0.14856285  0.50640900  0.87979278  1
  O2-  O91  1  0.37542100  0.03057983  0.14414451  1
  O2-  O92  1  0.44070448  0.00767009  0.37216482  1
  O2-  O93  1  0.37621279  0.00731462  0.61782969  1
  O2-  O94  1  0.39031219  0.00172696  0.88782399  1
  O2-  O95  1  0.37001998  0.48058892  0.11254486  1
  O2-  O96  1  0.41983877  0.50875041  0.39156614  1
  O2-  O97  1  0.39308836  0.48361489  0.63229078  1
  O2-  O98  1  0.38839845  0.48978075  0.86903597  1
  O2-  O99  1  0.63522287  -0.01895192  0.11094408  1
  O2-  O100  1  0.64496105  0.00320656  0.37439841  1
  O2-  O101  1  0.65266142  0.02030257  0.60584387  1
  O2-  O102  1  0.61701487  -0.01408799  0.89679636  1
  O2-  O103  1  0.60551109  0.50374487  0.11262812  1
  O2-  O104  1  0.60668256  0.50324563  0.37569877  1
  O2-  O105  1  0.62967120  0.49054797  0.62675244  1
  O2-  O106  1  0.58544252  0.48460594  0.85005939  1
  O2-  O107  1  0.84103591  0.00360801  0.10839637  1
  O2-  O108  1  0.84299354  -0.00389915  0.37905465  1
  O2-  O109  1  0.87066181  -0.00497922  0.62867350  1
  O2-  O110  1  0.88011838  -0.01154811  0.87464922  1
  O2-  O111  1  0.89005792  0.50405797  0.11939039  1
  O2-  O112  1  0.88791185  0.50025577  0.37166171  1
  O2-  O113  1  0.82803953  0.49992389  0.62516159  1
  O2-  O114  1  0.82378690  0.50620231  0.88777860  1
  O2-  O115  1  0.05963194  0.27101948  0.13411441  1
  O2-  O116  1  0.05041060  0.29451853  0.37227366  1
  O2-  O117  1  0.13147031  0.26125329  0.62429583  1
  O2-  O118  1  0.08128297  0.26396372  0.86827512  1
  O2-  O119  1  0.09862636  0.69359466  0.11734810  1
  O2-  O120  1  0.25108588  0.69141277  0.38913307  1
  O2-  O121  1  0.17002950  0.73510492  0.61863857  1
  O2-  O122  1  0.23418387  0.80619241  0.87551479  1
  O2-  O123  1  0.41171344  0.25007498  0.15253738  1
  O2-  O124  1  0.44002306  0.26284073  0.38765056  1
  O2-  O125  1  0.39418315  0.24245489  0.60700807  1
  O2-  O126  1  0.43737534  0.23691474  0.87465175  1
  O2-  O127  1  0.31635075  0.71801265  0.12825900  1
  O2-  O128  1  0.43979770  0.69900577  0.41313090  1
  O2-  O129  1  0.39953240  0.75700921  0.64966431  1
  O2-  O130  1  0.39714100  0.75010365  0.83117243  1
  O2-  O131  1  0.63226672  0.24742515  0.10225312  1
  O2-  O132  1  0.61710189  0.24962958  0.35976820  1
  O2-  O133  1  0.63374439  0.21361160  0.62464903  1
  O2-  O134  1  0.64345521  0.23983908  0.91050575  1
  O2-  O135  1  0.59384277  0.74225476  0.09484049  1
  O2-  O136  1  0.59525214  0.73822894  0.37295586  1
  O2-  O137  1  0.63605146  0.74385248  0.65062071  1
  O2-  O138  1  0.62837159  0.73538655  0.84868405  1
  O2-  O139  1  0.86514650  0.24994747  0.12701431  1
  O2-  O140  1  0.86501441  0.24123223  0.36118511  1
  O2-  O141  1  0.81968944  0.23297287  0.63842327  1
  O2-  O142  1  0.84586445  0.24844900  0.85697768  1
  O2-  O143  1  0.92423842  0.74614741  0.14144783  1
  O2-  O144  1  0.92317562  0.74063585  0.36791174  1
  O2-  O145  1  0.84139286  0.74219383  0.62482805  1
  O2-  O146  1  0.83992514  0.74168593  0.87646131  1
  O2-  O147  1  0.13449267  0.16229009  0.00285085  1
  O2-  O148  1  0.11894207  0.17505703  0.26866206  1
  O2-  O149  1  0.17039192  0.14436858  0.49432381  1
  O2-  O150  1  0.11594020  0.14337712  0.74735796  1
  O2-  O151  1  0.10667855  0.68734693  -0.07220459  1
  O2-  O152  1  0.12969422  0.65665849  0.27970362  1
  O2-  O153  1  0.10532543  0.63315265  0.50054729  1
  O2-  O154  1  0.18808316  0.62146626  0.74806652  1
  O2-  O155  1  0.36149992  0.15161067  0.00982790  1
  O2-  O156  1  0.34883389  0.14456795  0.28632288  1
  O2-  O157  1  0.35095642  0.12673696  0.48412480  1
  O2-  O158  1  0.37536029  0.13236755  0.74794958  1
  O2-  O159  1  0.32968822  0.65006374  -0.04644531  1
  O2-  O160  1  0.37384917  0.64410454  0.27291504  1
  O2-  O161  1  0.33187359  0.62302472  0.53345455  1
  O2-  O162  1  0.34415304  0.61898041  0.74295930  1
  O2-  O163  1  0.55450264  0.11222593  0.00430264  1
  O2-  O164  1  0.64904821  0.12479881  0.23508213  1
  O2-  O165  1  0.53767114  0.12745765  0.46027148  1
  O2-  O166  1  0.58661507  0.13561475  0.79102306  1
  O2-  O167  1  0.65515923  0.60578673  -0.02554431  1
  O2-  O168  1  0.62012136  0.63403874  0.24131335  1
  O2-  O169  1  0.65350042  0.64165334  0.51200152  1
  O2-  O170  1  0.68429619  0.60766685  0.75140135  1
  O2-  O171  1  0.87810575  0.15192915  -0.00420191  1
  O2-  O172  1  0.85507394  0.12293416  0.24618788  1
  O2-  O173  1  0.88752356  0.12672235  0.49701907  1
  O2-  O174  1  0.91828730  0.13237867  0.74485585  1
  O2-  O175  1  0.90665803  0.63979310  0.00405810  1
  O2-  O176  1  0.81209846  0.64412026  0.24801595  1
  O2-  O177  1  0.87697934  0.63260561  0.49916353  1
  O2-  O178  1  0.86357030  0.62840055  0.75053638  1
  O2-  O179  1  0.14239766  0.36044268  0.00239446  1
  O2-  O180  1  0.18006317  0.36711130  0.27055950  1
  O2-  O181  1  0.16871213  0.37464031  0.49055822  1
  O2-  O182  1  0.12044270  0.38010769  0.74441030  1
  O2-  O183  1  0.12332271  0.85404062  0.00041504  1
  O2-  O184  1  0.13426317  0.84318096  0.29467362  1
  O2-  O185  1  0.09721193  0.86957758  0.48041157  1
  O2-  O186  1  0.14290558  0.85984794  0.74924036  1
  O2-  O187  1  0.37218243  0.34449053  0.00090319  1
  O2-  O188  1  0.35866769  0.37806416  0.26730891  1
  O2-  O189  1  0.34674823  0.37306279  0.49206066  1
  O2-  O190  1  0.39481617  0.34562387  0.74440867  1
  O2-  O191  1  0.35283950  0.84269781  -0.01642568  1
  O2-  O192  1  0.38158647  0.83327787  0.30546244  1
  O2-  O193  1  0.39708011  0.86511122  0.50709438  1
  O2-  O194  1  0.31849899  0.88988189  0.74821134  1
  O2-  O195  1  0.56560273  0.37222553  -0.00038125  1
  O2-  O196  1  0.61611841  0.37876804  0.24306759  1
  O2-  O197  1  0.64695913  0.36660843  0.48718697  1
  O2-  O198  1  0.60744694  0.32508995  0.75786050  1
  O2-  O199  1  0.68626310  0.84793644  -0.00587427  1
  O2-  O200  1  0.59249299  0.85162622  0.23632311  1
  O2-  O201  1  0.65872326  0.84451995  0.49916235  1
  O2-  O202  1  0.67480457  0.87459350  0.77402322  1
  O2-  O203  1  0.89466489  0.35933825  -0.00770854  1
  O2-  O204  1  0.91477112  0.36866293  0.24160354  1
  O2-  O205  1  0.84216858  0.35881947  0.50751762  1
  O2-  O206  1  0.88853248  0.37174366  0.73868994  1
  O2-  O207  1  0.89239342  0.85554726  0.00068077  1
  O2-  O208  1  0.76656010  0.82199987  0.35977600  1
  O2-  O209  1  0.87643936  0.85838308  0.49958372  1
  O2-  O210  1  0.85775793  0.85848994  0.75122992  1
  O2-  O211  1  0.00251316  0.11981964  -0.10414243  1
  O2-  O212  1  -0.05865718  -0.11448368  0.26905414  1
  O2-  O213  1  0.00512132  -0.13781299  0.63789535  1
  O2-  O214  1  0.00939511  -0.15653411  0.86688978  1
  O2-  O215  1  -0.01223437  0.55868503  -0.13837164  1
  O2-  O216  1  -0.03619391  0.61298263  0.24480434  1
  O2-  O217  1  -0.00093414  0.56453779  0.61478663  1
  O2-  O218  1  0.03948301  0.66659678  0.73245686  1
  O2-  O219  1  0.25492332  -0.02534898  0.02088643  1
  O2-  O220  1  0.25109602  -0.11887636  0.15848943  1
  O2-  O221  1  0.25703604  -0.05176393  0.39803514  1
  O2-  O222  1  0.25055116  0.15290492  0.86884776  1
  O2-  O223  1  0.22911511  0.58921025  0.07367815  1
  O2-  O224  1  0.24766516  0.55521187  0.23192141  1
  O2-  O225  1  0.24515036  0.52249552  0.41049559  1
  O2-  O226  1  0.25866424  0.34689737  0.86038086  1
  O2-  O227  1  0.50724961  -0.15475223  -0.08001436  1
  O2-  O228  1  0.44539818  -0.14783811  0.12426440  1
  O2-  O229  1  0.52375808  -0.12500725  0.61264908  1
  O2-  O230  1  0.47274772  -0.09762951  0.76556714  1
  O2-  O231  1  0.50052895  0.63734576  -0.08683296  1
  O2-  O232  1  0.46673506  0.63546901  0.13029115  1
  O2-  O233  1  0.50696494  0.62715626  0.56937194  1
  O2-  O234  1  0.51784030  0.61541001  0.73249893  1
  O2-  O235  1  0.72301478  0.11608085  0.00768704  1
  O2-  O236  1  0.75869658  -0.15925062  0.16247112  1
  O2-  O237  1  0.72562091  0.15171838  0.47510287  1
  O2-  O238  1  0.75237294  0.10437295  0.84281681  1
  O2-  O239  1  0.74611279  0.38435861  0.09285255  1
  O2-  O240  1  0.75533240  0.62885499  0.10235532  1
  O2-  O241  1  0.75686813  0.62544003  0.38848398  1
  O2-  O242  1  0.73360878  0.37436114  0.88028801  1
