# generated using pymatgen
data_Gd19Ta56(WO20)8
_symmetry_space_group_name_H-M   'P 1'
_cell_length_a   15.49784070
_cell_length_b   15.55280918
_cell_length_c   15.29788977
_cell_angle_alpha   90.09523843
_cell_angle_beta   90.08761165
_cell_angle_gamma   89.92822056
_symmetry_Int_Tables_number   1
_chemical_formula_structural   Gd19Ta56(WO20)8
_chemical_formula_sum   'Gd19 Ta56 W8 O160'
_cell_volume   3687.31394892
_cell_formula_units_Z   1
loop_
 _symmetry_equiv_pos_site_id
 _symmetry_equiv_pos_as_xyz
  1  'x, y, z'
loop_
 _atom_type_symbol
 _atom_type_oxidation_number
  Gd3+  3.0
  Ta5+  5.0
  W6+  6.0
  O2-  -2.0
loop_
 _atom_site_type_symbol
 _atom_site_label
 _atom_site_symmetry_multiplicity
 _atom_site_fract_x
 _atom_site_fract_y
 _atom_site_fract_z
 _atom_site_occupancy
  Gd3+  Gd0  1  0.25981106  0.74197446  0.49919277  1
  Gd3+  Gd1  1  0.72377993  0.26367696  0.22500234  1
  Gd3+  Gd2  1  0.28760103  0.24962019  0.72312954  1
  Gd3+  Gd3  1  0.73003843  0.73740592  0.50068932  1
  Gd3+  Gd4  1  0.23666536  0.23572009  0.50023921  1
  Gd3+  Gd5  1  0.24558449  0.74373284  0.75856023  1
  Gd3+  Gd6  1  0.48768455  0.25000449  0.49000867  1
  Gd3+  Gd7  1  0.73154203  0.26787038  0.50778773  1
  Gd3+  Gd8  1  -0.00790176  0.23950807  0.00550697  1
  Gd3+  Gd9  1  0.25335869  0.25395217  0.00091020  1
  Gd3+  Gd10  1  0.27311160  0.73106294  0.00186309  1
  Gd3+  Gd11  1  0.75159053  0.76038754  0.74208629  1
  Gd3+  Gd12  1  0.00474912  0.76482073  0.74243450  1
  Gd3+  Gd13  1  0.02211312  0.77213920  0.50308210  1
  Gd3+  Gd14  1  0.51020785  0.26321655  0.03517338  1
  Gd3+  Gd15  1  -0.00759927  0.23802272  0.25088296  1
  Gd3+  Gd16  1  0.52690705  0.75920891  -0.00263708  1
  Gd3+  Gd17  1  0.74888661  0.75441214  -0.01686819  1
  Gd3+  Gd18  1  -0.02322726  0.73830658  0.02060856  1
  Ta5+  Ta19  1  0.90585430  0.61302373  0.61809518  1
  Ta5+  Ta20  1  0.10809732  0.37900064  0.13218618  1
  Ta5+  Ta21  1  0.60924771  0.38539863  0.63100962  1
  Ta5+  Ta22  1  0.61170734  0.58092328  0.62446239  1
  Ta5+  Ta23  1  0.44177481  0.41035095  0.64633338  1
  Ta5+  Ta24  1  0.08435816  0.13114702  0.64100232  1
  Ta5+  Ta25  1  0.35803339  0.39299083  0.88095940  1
  Ta5+  Ta26  1  0.11204383  0.60464747  0.61864376  1
  Ta5+  Ta27  1  0.65415246  0.64316659  0.13844525  1
  Ta5+  Ta28  1  0.58992232  0.91537884  0.62904104  1
  Ta5+  Ta29  1  0.12474109  0.86858594  0.90081492  1
  Ta5+  Ta30  1  0.38439086  0.91094281  0.62467648  1
  Ta5+  Ta31  1  0.85591406  0.38545086  0.37354005  1
  Ta5+  Ta32  1  0.87029065  0.61439303  0.86813815  1
  Ta5+  Ta33  1  0.63495967  0.44440166  0.11842799  1
  Ta5+  Ta34  1  0.12055687  0.61065748  0.87975562  1
  Ta5+  Ta35  1  0.91132554  0.36556542  0.61775794  1
  Ta5+  Ta36  1  0.83520320  0.86805751  0.13394066  1
  Ta5+  Ta37  1  0.58129866  0.63350280  0.37583679  1
  Ta5+  Ta38  1  0.15037053  0.86099171  0.11718169  1
  Ta5+  Ta39  1  0.10885847  0.37160997  0.87872897  1
  Ta5+  Ta40  1  0.85585436  0.07031033  0.12054342  1
  Ta5+  Ta41  1  0.35301577  0.37694502  0.14760783  1
  Ta5+  Ta42  1  0.66598350  0.88290840  0.13442196  1
  Ta5+  Ta43  1  0.84125076  0.36680335  0.86124760  1
  Ta5+  Ta44  1  0.89520688  0.62491067  0.37806245  1
  Ta5+  Ta45  1  0.82213275  0.62756765  0.13688449  1
  Ta5+  Ta46  1  0.41300071  0.58204793  0.87411056  1
  Ta5+  Ta47  1  0.38984080  0.87307602  0.12194018  1
  Ta5+  Ta48  1  0.88098533  0.88757284  0.87913197  1
  Ta5+  Ta49  1  0.38124266  0.87018857  0.37127536  1
  Ta5+  Ta50  1  0.36970606  0.38460759  0.39573001  1
  Ta5+  Ta51  1  0.13723221  0.61487620  0.36926901  1
  Ta5+  Ta52  1  0.88283555  0.88821613  0.61875241  1
  Ta5+  Ta53  1  0.62639088  0.88324568  0.38250043  1
  Ta5+  Ta54  1  0.07895531  0.35954366  0.62810807  1
  Ta5+  Ta55  1  0.60062038  0.14366382  0.63781566  1
  Ta5+  Ta56  1  0.10531280  0.11571507  0.38300365  1
  Ta5+  Ta57  1  0.37882231  0.12155312  0.13198995  1
  Ta5+  Ta58  1  0.36042059  0.11018339  0.37970241  1
  Ta5+  Ta59  1  0.15292577  0.62064982  0.12471960  1
  Ta5+  Ta60  1  0.12456329  0.37048792  0.37934343  1
  Ta5+  Ta61  1  0.38975126  0.62227020  0.63310123  1
  Ta5+  Ta62  1  0.85551372  0.12401754  0.37005221  1
  Ta5+  Ta63  1  0.61045355  0.38898160  0.37029189  1
  Ta5+  Ta64  1  0.85851748  0.40248219  0.11267243  1
  Ta5+  Ta65  1  0.86883999  0.87792168  0.37518640  1
  Ta5+  Ta66  1  0.63994602  0.10904478  0.12530244  1
  Ta5+  Ta67  1  0.41422135  0.62766803  0.37880112  1
  Ta5+  Ta68  1  0.13834166  0.11372143  0.87592370  1
  Ta5+  Ta69  1  0.58359059  0.14088139  0.87443266  1
  Ta5+  Ta70  1  0.38845364  0.88082809  0.86371826  1
  Ta5+  Ta71  1  0.43285890  0.11048840  0.63035114  1
  Ta5+  Ta72  1  0.35395024  0.12418065  0.87262644  1
  Ta5+  Ta73  1  0.63200540  0.89759480  0.86831607  1
  Ta5+  Ta74  1  0.13641484  0.10847760  0.12582086  1
  W6+  W75  1  0.13997240  0.87015065  0.36425498  1
  W6+  W76  1  0.14246965  0.88746426  0.63478436  1
  W6+  W77  1  0.63684268  0.62439634  0.86281358  1
  W6+  W78  1  0.86709035  0.12292614  0.87893713  1
  W6+  W79  1  0.42555296  0.61776278  0.12598807  1
  W6+  W80  1  0.83381015  0.13228280  0.62967832  1
  W6+  W81  1  0.64326912  0.12679655  0.37746902  1
  W6+  W82  1  0.59231118  0.38822667  0.86706608  1
  O2-  O83  1  0.15503051  -0.00889514  0.12271661  1
  O2-  O84  1  0.10951228  -0.00072476  0.37076127  1
  O2-  O85  1  0.12842967  0.02190750  0.64040928  1
  O2-  O86  1  0.12192193  -0.00642336  0.88399827  1
  O2-  O87  1  0.12288018  0.49863228  0.13461066  1
  O2-  O88  1  0.13921307  0.49241929  0.36606690  1
  O2-  O89  1  0.10533608  0.48354333  0.62735919  1
  O2-  O90  1  0.08618036  0.49282594  0.87585239  1
  O2-  O91  1  0.38269314  0.00311002  0.11919522  1
  O2-  O92  1  0.33930716  -0.01278784  0.38350848  1
  O2-  O93  1  0.33021010  0.01815441  0.62575726  1
  O2-  O94  1  0.37123642  0.00123195  0.87053336  1
  O2-  O95  1  0.38560657  0.48787221  0.12811594  1
  O2-  O96  1  0.38414663  0.50264691  0.39290927  1
  O2-  O97  1  0.35103803  0.50855970  0.63354531  1
  O2-  O98  1  0.46777626  0.46222673  0.88231558  1
  O2-  O99  1  0.59476029  -0.00280369  0.12781237  1
  O2-  O100  1  0.63864269  -0.00209394  0.41195515  1
  O2-  O101  1  0.64464000  0.02507112  0.62911038  1
  O2-  O102  1  0.59843840  0.01265129  0.87413549  1
  O2-  O103  1  0.55808617  0.53896400  0.12284050  1
  O2-  O104  1  0.58512848  0.50441100  0.38790792  1
  O2-  O105  1  0.69061374  0.48765291  0.62093479  1
  O2-  O106  1  0.65102618  0.50424096  0.86326929  1
  O2-  O107  1  0.92568622  -0.02700275  0.12115044  1
  O2-  O108  1  0.85107701  0.00225135  0.36533415  1
  O2-  O109  1  0.84520990  -0.00207797  0.62747001  1
  O2-  O110  1  0.91612716  0.00032831  0.88350316  1
  O2-  O111  1  0.89710791  0.51490201  0.13015520  1
  O2-  O112  1  0.89675354  0.50010156  0.38395088  1
  O2-  O113  1  0.89940615  0.49245015  0.61009713  1
  O2-  O114  1  0.85502368  0.49669260  0.86153512  1
  O2-  O115  1  0.10194559  0.24553820  0.12686226  1
  O2-  O116  1  0.11144560  0.24630243  0.35208354  1
  O2-  O117  1  0.15773804  0.24058514  0.63769754  1
  O2-  O118  1  0.11944967  0.24186147  0.91309254  1
  O2-  O119  1  0.11442747  0.73671046  0.08874841  1
  O2-  O120  1  0.14169751  0.73824943  0.39744165  1
  O2-  O121  1  0.12341654  0.73963413  0.62733056  1
  O2-  O122  1  0.15200731  0.73647657  0.89799244  1
  O2-  O123  1  0.40137708  0.25912507  0.14356552  1
  O2-  O124  1  0.36230062  0.24200429  0.40643805  1
  O2-  O125  1  0.34399526  0.20429714  0.59571517  1
  O2-  O126  1  0.33538205  0.25452438  0.87198550  1
  O2-  O127  1  0.43687587  0.75544270  0.11751160  1
  O2-  O128  1  0.34920241  0.74881945  0.37854377  1
  O2-  O129  1  0.31200285  0.72106030  0.63450281  1
  O2-  O130  1  0.32695591  0.77181061  0.87480524  1
  O2-  O131  1  0.58936466  0.21992464  0.15509626  1
  O2-  O132  1  0.65310064  0.26244860  0.35516896  1
  O2-  O133  1  0.64505703  0.26744968  0.63851280  1
  O2-  O134  1  0.54010314  0.25873015  0.88803381  1
  O2-  O135  1  0.62181790  0.76626598  0.13221733  1
  O2-  O136  1  0.62202506  0.75179130  0.39455575  1
  O2-  O137  1  0.77284976  0.82602798  0.60950525  1
  O2-  O138  1  0.66009310  0.76019312  0.86297088  1
  O2-  O139  1  0.94241891  0.31035647  0.12924237  1
  O2-  O140  1  0.84463834  0.25164764  0.34249510  1
  O2-  O141  1  0.83352628  0.26535626  0.61486972  1
  O2-  O142  1  0.89669898  0.25559796  0.89075096  1
  O2-  O143  1  0.87455178  0.73984166  0.13035945  1
  O2-  O144  1  0.90923326  0.75278112  0.39927407  1
  O2-  O145  1  0.92034034  0.74591925  0.61307435  1
  O2-  O146  1  0.84460609  0.74609891  0.86680134  1
  O2-  O147  1  0.08347941  0.11566330  0.01207807  1
  O2-  O148  1  0.08459677  0.11872156  0.23891963  1
  O2-  O149  1  0.11867119  0.14133989  0.50540807  1
  O2-  O150  1  0.07396629  0.13824505  0.77058066  1
  O2-  O151  1  0.18010249  0.60137041  -0.00731894  1
  O2-  O152  1  0.16762346  0.63490332  0.24974661  1
  O2-  O153  1  0.17769517  0.61159111  0.50325599  1
  O2-  O154  1  0.16568315  0.61524610  0.76109996  1
  O2-  O155  1  0.39821897  0.15297987  0.00675437  1
  O2-  O156  1  0.39604550  0.12028304  0.26164253  1
  O2-  O157  1  0.43345542  0.10748832  0.48037408  1
  O2-  O158  1  0.40123382  0.14055558  0.75415491  1
  O2-  O159  1  0.38167307  0.62800062  -0.01278915  1
  O2-  O160  1  0.43088081  0.62829505  0.25848115  1
  O2-  O161  1  0.38572262  0.64281065  0.50931650  1
  O2-  O162  1  0.36805829  0.63155702  0.77022389  1
  O2-  O163  1  0.59245702  0.13835516  0.00568113  1
  O2-  O164  1  0.68630220  0.11494713  0.24739591  1
  O2-  O165  1  0.61521029  0.16701859  0.50668245  1
  O2-  O166  1  0.62554541  0.15283564  0.76184647  1
  O2-  O167  1  0.63715035  0.65483251  0.00240603  1
  O2-  O168  1  0.62752897  0.63014327  0.26091374  1
  O2-  O169  1  0.62777351  0.62987206  0.51054805  1
  O2-  O170  1  0.66441324  0.64233846  0.72168940  1
  O2-  O171  1  0.90132151  0.12357131  0.01672794  1
  O2-  O172  1  0.88257252  0.12777750  0.22870338  1
  O2-  O173  1  0.81235668  0.13993352  0.48504875  1
  O2-  O174  1  0.83199471  0.13315074  0.76220362  1
  O2-  O175  1  0.84862645  0.63221380  -0.00266900  1
  O2-  O176  1  0.83830397  0.62967521  0.27164183  1
  O2-  O177  1  0.83817205  0.63015447  0.49806015  1
  O2-  O178  1  0.84986937  0.63514958  0.73419390  1
  O2-  O179  1  0.06747305  0.37449979  0.01203617  1
  O2-  O180  1  0.06325328  0.37223911  0.25198307  1
  O2-  O181  1  0.09490247  0.35271348  0.49725697  1
  O2-  O182  1  0.09588426  0.34959639  0.76064871  1
  O2-  O183  1  0.20583073  0.86878044  -0.00413702  1
  O2-  O184  1  0.15319208  0.84358108  0.23655129  1
  O2-  O185  1  0.15070541  0.86586625  0.49939772  1
  O2-  O186  1  0.13422428  0.84910625  0.77182842  1
  O2-  O187  1  0.37419511  0.35391754  0.00557264  1
  O2-  O188  1  0.33756025  0.37640433  0.26878451  1
  O2-  O189  1  0.40370343  0.37208851  0.52506795  1
  O2-  O190  1  0.36682001  0.37220498  0.75359561  1
  O2-  O191  1  0.38979753  0.87037631  -0.00684052  1
  O2-  O192  1  0.37205051  0.87015505  0.24898962  1
  O2-  O193  1  0.35872394  0.86158043  0.51258151  1
  O2-  O194  1  0.33628838  0.87463532  0.74012315  1
  O2-  O195  1  0.59034928  0.38777005  0.01700498  1
  O2-  O196  1  0.63176742  0.39735583  0.23905819  1
  O2-  O197  1  0.60318787  0.35580912  0.49817563  1
  O2-  O198  1  0.53903330  0.37921545  0.73808815  1
  O2-  O199  1  0.63481729  0.86916362  -0.00187823  1
  O2-  O200  1  0.65211909  0.88664876  0.26355042  1
  O2-  O201  1  0.61929802  0.85840962  0.52697601  1
  O2-  O202  1  0.64859480  0.88024001  0.73718868  1
  O2-  O203  1  0.87257418  0.38861778  -0.01080905  1
  O2-  O204  1  0.84022058  0.38519998  0.24577689  1
  O2-  O205  1  0.90409640  0.35121914  0.48325112  1
  O2-  O206  1  0.89035282  0.36764399  0.74864847  1
  O2-  O207  1  0.87288280  0.84909678  0.00398718  1
  O2-  O208  1  0.86787961  0.85800196  0.25594238  1
  O2-  O209  1  0.92205855  0.88980408  0.49614807  1
  O2-  O210  1  0.87747064  0.85796956  0.75120486  1
  O2-  O211  1  0.00127369  -0.16970722  -0.11111290  1
  O2-  O212  1  -0.02125318  0.13595618  0.38189452  1
  O2-  O213  1  -0.02948263  0.13174918  0.61322598  1
  O2-  O214  1  0.00612920  -0.11835993  0.64853692  1
  O2-  O215  1  -0.00213747  0.64727395  -0.11355008  1
  O2-  O216  1  0.01553995  0.62190068  0.35316169  1
  O2-  O217  1  0.01128596  0.62336216  0.53332876  1
  O2-  O218  1  0.01004928  0.62010686  0.69786958  1
  O2-  O219  1  0.24542302  0.11507136  -0.04522587  1
  O2-  O220  1  0.25392460  0.15039939  0.13363578  1
  O2-  O221  1  0.23773643  0.13242197  0.38466751  1
  O2-  O222  1  0.23819637  0.12959360  0.79634980  1
  O2-  O223  1  0.22755143  0.37187602  -0.09331066  1
  O2-  O224  1  0.23137189  0.35952847  0.11666154  1
  O2-  O225  1  0.24366163  0.36231592  0.41973189  1
  O2-  O226  1  0.30973793  0.50582110  0.88014197  1
  O2-  O227  1  0.50731443  -0.14495044  -0.13561615  1
  O2-  O228  1  0.49998686  -0.11887890  0.38190633  1
  O2-  O229  1  0.48567102  -0.01305368  0.59125295  1
  O2-  O230  1  0.48878632  -0.15144564  0.66555008  1
  O2-  O231  1  0.50934083  0.66378349  -0.11786051  1
  O2-  O232  1  0.49021628  0.34939344  0.36391330  1
  O2-  O233  1  0.52459208  0.49162364  0.58524864  1
  O2-  O234  1  0.50506076  0.64996008  0.65241061  1
  O2-  O235  1  0.75319556  0.15149345  0.09373542  1
  O2-  O236  1  0.76188356  -0.01416184  0.12804794  1
  O2-  O237  1  0.75523800  -0.14683855  0.41307477  1
  O2-  O238  1  0.75756058  -0.09414878  0.87831323  1
  O2-  O239  1  0.74126853  0.35697402  0.10816475  1
  O2-  O240  1  0.72983516  0.52388127  0.11827810  1
  O2-  O241  1  0.73966674  0.40065433  0.40511671  1
  O2-  O242  1  0.72599206  0.34369538  0.85726065  1
