# generated using pymatgen
data_Gd19Ta56(WO20)8
_symmetry_space_group_name_H-M   'P 1'
_cell_length_a   15.40187473
_cell_length_b   15.41850333
_cell_length_c   15.16373931
_cell_angle_alpha   90.04065782
_cell_angle_beta   90.01808761
_cell_angle_gamma   89.68646899
_symmetry_Int_Tables_number   1
_chemical_formula_structural   Gd19Ta56(WO20)8
_chemical_formula_sum   'Gd19 Ta56 W8 O160'
_cell_volume   3600.93666106
_cell_formula_units_Z   1
loop_
 _symmetry_equiv_pos_site_id
 _symmetry_equiv_pos_as_xyz
  1  'x, y, z'
loop_
 _atom_type_symbol
 _atom_type_oxidation_number
  Gd3+  3.0
  Ta5+  5.0
  W6+  6.0
  O2-  -2.0
loop_
 _atom_site_type_symbol
 _atom_site_label
 _atom_site_symmetry_multiplicity
 _atom_site_fract_x
 _atom_site_fract_y
 _atom_site_fract_z
 _atom_site_occupancy
  Gd3+  Gd0  1  -0.03218269  0.27755363  0.72538328  1
  Gd3+  Gd1  1  0.01134261  0.24691119  0.28030113  1
  Gd3+  Gd2  1  0.23560854  0.23451918  0.48059480  1
  Gd3+  Gd3  1  0.49402056  0.23981256  0.75442293  1
  Gd3+  Gd4  1  0.46638569  0.77047021  0.24862854  1
  Gd3+  Gd5  1  0.51250675  0.76437565  0.48077287  1
  Gd3+  Gd6  1  0.26820427  0.25910720  -0.01498959  1
  Gd3+  Gd7  1  0.01088520  0.23998507  0.01868218  1
  Gd3+  Gd8  1  0.49581622  0.75181598  0.72283093  1
  Gd3+  Gd9  1  -0.01185794  0.73429142  0.00311312  1
  Gd3+  Gd10  1  0.50088483  0.26551950  0.24055807  1
  Gd3+  Gd11  1  0.26527314  0.75787565  0.02012545  1
  Gd3+  Gd12  1  0.74583967  0.74164347  0.01583926  1
  Gd3+  Gd13  1  0.56212059  0.24541007  0.49838376  1
  Gd3+  Gd14  1  0.20846567  0.75744705  0.51332766  1
  Gd3+  Gd15  1  -0.03574645  0.72541519  0.74080589  1
  Gd3+  Gd16  1  0.49713610  0.75125223  0.00636639  1
  Gd3+  Gd17  1  0.81381572  0.25786061  0.49224732  1
  Gd3+  Gd18  1  0.73449234  0.24999682  0.73733496  1
  Ta5+  Ta19  1  0.87750022  0.40023805  0.90779710  1
  Ta5+  Ta20  1  0.64189135  0.38803410  0.88467291  1
  Ta5+  Ta21  1  0.84363112  0.86944516  0.18184309  1
  Ta5+  Ta22  1  0.65302257  0.14131605  0.90930151  1
  Ta5+  Ta23  1  0.09030517  0.87736322  0.37101050  1
  Ta5+  Ta24  1  0.62366066  0.63164210  0.86282535  1
  Ta5+  Ta25  1  0.84903684  0.85705121  0.61184968  1
  Ta5+  Ta26  1  0.86717909  0.11396167  0.15906649  1
  Ta5+  Ta27  1  0.13216178  0.60046248  0.12317494  1
  Ta5+  Ta28  1  0.08576839  0.87121959  0.63081864  1
  Ta5+  Ta29  1  0.81980876  0.87431379  0.41520871  1
  Ta5+  Ta30  1  0.59795878  0.62271791  0.14629275  1
  Ta5+  Ta31  1  0.11815003  0.62886430  0.35820298  1
  Ta5+  Ta32  1  0.29266441  0.60721453  0.36144553  1
  Ta5+  Ta33  1  0.86397752  0.09921551  0.64955126  1
  Ta5+  Ta34  1  0.65778040  0.87870579  0.35685316  1
  Ta5+  Ta35  1  0.65974297  0.38782713  0.13409454  1
  Ta5+  Ta36  1  0.07850770  0.88709601  0.11826913  1
  Ta5+  Ta37  1  0.38258869  0.61400117  0.13503003  1
  Ta5+  Ta38  1  0.38686667  0.10308188  0.62706618  1
  Ta5+  Ta39  1  0.93670972  0.08510617  0.42102660  1
  Ta5+  Ta40  1  0.11939496  0.41939387  0.37861127  1
  Ta5+  Ta41  1  0.14616632  0.07519270  0.37806638  1
  Ta5+  Ta42  1  0.16052972  0.35015125  0.14209877  1
  Ta5+  Ta43  1  0.63221951  0.13718545  0.13088720  1
  Ta5+  Ta44  1  0.60633583  0.89331667  0.14440019  1
  Ta5+  Ta45  1  0.10256688  0.11092502  0.61391079  1
  Ta5+  Ta46  1  0.33964308  0.12038634  0.86243511  1
  Ta5+  Ta47  1  0.92428610  0.44239728  0.36843575  1
  Ta5+  Ta48  1  0.32995308  0.89864615  0.37183199  1
  Ta5+  Ta49  1  0.10847074  0.87696078  0.86952430  1
  Ta5+  Ta50  1  0.10142393  0.61164137  0.61599465  1
  Ta5+  Ta51  1  0.16875265  0.12099988  0.86004509  1
  Ta5+  Ta52  1  0.17568416  0.11309469  0.12618036  1
  Ta5+  Ta53  1  0.84715270  0.63910898  0.38893356  1
  Ta5+  Ta54  1  0.12302786  0.61135100  0.86918491  1
  Ta5+  Ta55  1  0.36850035  0.62966632  0.87139859  1
  Ta5+  Ta56  1  0.67143358  0.63743084  0.37944642  1
  Ta5+  Ta57  1  0.83750784  0.37075073  0.15385035  1
  Ta5+  Ta58  1  0.66352868  0.64601900  0.60176962  1
  Ta5+  Ta59  1  0.65837144  0.38953993  0.34661892  1
  Ta5+  Ta60  1  0.37074496  0.94068043  0.12035738  1
  Ta5+  Ta61  1  0.62959875  0.91053042  0.89362687  1
  Ta5+  Ta62  1  0.34791030  0.61824033  0.61601099  1
  Ta5+  Ta63  1  0.13562758  0.36539564  0.61892517  1
  Ta5+  Ta64  1  0.85203087  0.87385226  0.86504796  1
  Ta5+  Ta65  1  0.83011232  0.61790805  0.60767868  1
  Ta5+  Ta66  1  0.67490902  0.13081128  0.33062668  1
  Ta5+  Ta67  1  0.32843698  0.37486734  0.13561203  1
  Ta5+  Ta68  1  0.88743671  0.09735283  0.90043352  1
  Ta5+  Ta69  1  0.34897960  0.14099889  0.12900797  1
  Ta5+  Ta70  1  0.39131541  0.36685680  0.61218713  1
  Ta5+  Ta71  1  0.68870583  0.85132783  0.55345397  1
  Ta5+  Ta72  1  0.61306863  0.06979075  0.64899541  1
  Ta5+  Ta73  1  0.12272643  0.36607909  0.87415874  1
  Ta5+  Ta74  1  0.32854795  0.91561848  0.62605039  1
  W6+  W75  1  0.39381405  0.38684164  0.38026334  1
  W6+  W76  1  0.84569021  0.61217500  0.87278237  1
  W6+  W77  1  0.63983955  0.39587917  0.61536407  1
  W6+  W78  1  0.39206460  0.38040654  0.87616884  1
  W6+  W79  1  0.95783596  0.46346288  0.54455218  1
  W6+  W80  1  0.40233507  0.13207244  0.38000803  1
  W6+  W81  1  0.86103575  0.61832208  0.15385943  1
  W6+  W82  1  0.34819667  0.89076646  0.86779294  1
  O2-  O83  1  0.09704815  0.00474790  0.09874453  1
  O2-  O84  1  0.20648358  -0.05569974  0.37056802  1
  O2-  O85  1  0.09873216  -0.00810235  0.64609926  1
  O2-  O86  1  0.13137181  -0.00492808  0.86822913  1
  O2-  O87  1  0.14136419  0.48172617  0.13209191  1
  O2-  O88  1  0.20183738  0.51793197  0.34595337  1
  O2-  O89  1  0.09310429  0.48822787  0.60811275  1
  O2-  O90  1  0.14589374  0.48674097  0.88435910  1
  O2-  O91  1  0.43842440  0.03985392  0.12569842  1
  O2-  O92  1  0.39125200  -0.00374463  0.38541011  1
  O2-  O93  1  0.42704892  -0.01817225  0.59178440  1
  O2-  O94  1  0.38842314  0.00943897  0.84671840  1
  O2-  O95  1  0.35086336  0.49884432  0.15057904  1
  O2-  O96  1  0.37200922  0.51202926  0.37720891  1
  O2-  O97  1  0.37606888  0.50207671  0.60894247  1
  O2-  O98  1  0.39405400  0.51460520  0.86216931  1
  O2-  O99  1  0.63620138  0.00766451  0.11342294  1
  O2-  O100  1  0.66869529  0.01115923  0.34668098  1
  O2-  O101  1  0.62710599  -0.04709254  0.63964477  1
  O2-  O102  1  0.59137777  0.02295405  0.90579726  1
  O2-  O103  1  0.65153896  0.51535960  0.12236142  1
  O2-  O104  1  0.65087210  0.50817501  0.37345027  1
  O2-  O105  1  0.65384357  0.52685612  0.61316839  1
  O2-  O106  1  0.61152575  0.51276006  0.87329600  1
  O2-  O107  1  0.84073544  -0.01071027  0.14642012  1
  O2-  O108  1  0.86175673  -0.00001361  0.38538755  1
  O2-  O109  1  0.89045492  -0.01750632  0.65576007  1
  O2-  O110  1  0.91817614  -0.01921019  0.87366625  1
  O2-  O111  1  0.85339399  0.48948380  0.13594916  1
  O2-  O112  1  0.82755799  0.51395004  0.34747125  1
  O2-  O113  1  0.85140988  0.49760127  0.62042364  1
  O2-  O114  1  0.93303370  0.50472024  0.88361517  1
  O2-  O115  1  0.09679357  0.22693744  0.14768372  1
  O2-  O116  1  0.11888581  0.19584826  0.38272292  1
  O2-  O117  1  0.14147688  0.23390121  0.59631800  1
  O2-  O118  1  0.18585547  0.25792811  0.85914942  1
  O2-  O119  1  0.12723378  0.77048352  0.08516770  1
  O2-  O120  1  0.13392308  0.75955918  0.37263881  1
  O2-  O121  1  0.07157557  0.73767518  0.62822757  1
  O2-  O122  1  0.07747560  0.73097085  0.87724999  1
  O2-  O123  1  0.38752436  0.25954133  0.10515729  1
  O2-  O124  1  0.45232097  0.26130599  0.38763746  1
  O2-  O125  1  0.43189870  0.23996091  0.61538437  1
  O2-  O126  1  0.38627665  0.24225050  0.87737523  1
  O2-  O127  1  0.38824041  0.74725142  0.11491564  1
  O2-  O128  1  0.40745429  0.79944666  0.38055480  1
  O2-  O129  1  0.43002576  0.70863073  0.59095102  1
  O2-  O130  1  0.37556997  0.76290447  0.90683959  1
  O2-  O131  1  0.63583712  0.26028967  0.14920036  1
  O2-  O132  1  0.62217304  0.25986401  0.33535841  1
  O2-  O133  1  0.61812235  0.26046654  0.64076830  1
  O2-  O134  1  0.69081516  0.26029592  0.88971684  1
  O2-  O135  1  0.58939588  0.75529477  0.13927393  1
  O2-  O136  1  0.60736599  0.75378582  0.35324290  1
  O2-  O137  1  0.60113887  0.76979465  0.61198692  1
  O2-  O138  1  0.50156221  0.66576701  0.86944792  1
  O2-  O139  1  0.87558340  0.24117361  0.16155987  1
  O2-  O140  1  0.90845328  0.19944316  0.38341963  1
  O2-  O141  1  0.84660585  0.24236406  0.63944873  1
  O2-  O142  1  0.98337352  0.17052771  0.88678594  1
  O2-  O143  1  0.82136617  0.75155981  0.14221993  1
  O2-  O144  1  0.86070195  0.75805556  0.42448180  1
  O2-  O145  1  0.88938896  0.73682831  0.60182367  1
  O2-  O146  1  0.90531144  0.75823237  0.87967225  1
  O2-  O147  1  0.14761237  0.14730757  -0.00450515  1
  O2-  O148  1  0.16700124  0.08893017  0.25487808  1
  O2-  O149  1  0.18627946  0.08956561  0.50403734  1
  O2-  O150  1  0.14149071  0.13068090  0.73958113  1
  O2-  O151  1  0.08468834  0.61253896  0.00047451  1
  O2-  O152  1  0.08880968  0.64254909  0.22999287  1
  O2-  O153  1  0.11544914  0.62680194  0.49006796  1
  O2-  O154  1  0.07745768  0.60312089  0.75273715  1
  O2-  O155  1  0.34202480  0.12434455  -0.00651130  1
  O2-  O156  1  0.38396836  0.15715127  0.25158660  1
  O2-  O157  1  0.35497046  0.13884356  0.51018702  1
  O2-  O158  1  0.34358809  0.15740293  0.73360585  1
  O2-  O159  1  0.34349948  0.62634331  -0.00227455  1
  O2-  O160  1  0.33885698  0.66111966  0.26136215  1
  O2-  O161  1  0.30785771  0.64454452  0.48755091  1
  O2-  O162  1  0.37907618  0.65106238  0.73911737  1
  O2-  O163  1  0.58723770  0.16003895  0.01368944  1
  O2-  O164  1  0.57203036  0.12462920  0.24248684  1
  O2-  O165  1  0.70800699  0.16945582  0.44280723  1
  O2-  O166  1  0.62783271  0.14423959  0.78303592  1
  O2-  O167  1  0.62554816  0.65966129  -0.00163144  1
  O2-  O168  1  0.67047557  0.63526234  0.24855711  1
  O2-  O169  1  0.58830599  0.64102800  0.48514261  1
  O2-  O170  1  0.61593327  0.65547058  0.73750765  1
  O2-  O171  1  0.91111275  0.11777945  0.03602196  1
  O2-  O172  1  0.95511743  0.10441854  0.24028194  1
  O2-  O173  1  0.86108257  0.11350833  0.52383882  1
  O2-  O174  1  0.84553947  0.13107909  0.78533089  1
  O2-  O175  1  0.86394724  0.64280050  0.01382362  1
  O2-  O176  1  0.88917191  0.65688723  0.27294011  1
  O2-  O177  1  0.91358045  0.59307755  0.49518946  1
  O2-  O178  1  0.85056358  0.63128729  0.73554407  1
  O2-  O179  1  0.13462275  0.33810111  0.00715853  1
  O2-  O180  1  0.14298097  0.35931477  0.27222943  1
  O2-  O181  1  0.16494571  0.37432337  0.48776652  1
  O2-  O182  1  0.09959772  0.36246152  0.74566561  1
  O2-  O183  1  0.04371401  0.87497622  -0.02515630  1
  O2-  O184  1  0.09430391  0.88103149  0.24001058  1
  O2-  O185  1  0.09171511  0.87316420  0.50290212  1
  O2-  O186  1  0.04666609  0.86031550  0.75967245  1
  O2-  O187  1  0.33309747  0.38967092  0.00314959  1
  O2-  O188  1  0.37863595  0.35618785  0.25416094  1
  O2-  O189  1  0.34199689  0.34208624  0.49343989  1
  O2-  O190  1  0.41590174  0.36693782  0.73602637  1
  O2-  O191  1  0.32657179  0.89454597  0.01197800  1
  O2-  O192  1  0.35180168  0.89028447  0.23660461  1
  O2-  O193  1  0.30826490  0.87201078  0.50282108  1
  O2-  O194  1  0.37713544  0.85687809  0.72606990  1
  O2-  O195  1  0.63289350  0.37723967  0.01413514  1
  O2-  O196  1  0.57612943  0.39998238  0.24436581  1
  O2-  O197  1  0.66889626  0.35539556  0.47490639  1
  O2-  O198  1  0.66724596  0.38329384  0.75726073  1
  O2-  O199  1  0.63628045  0.85421154  0.00620670  1
  O2-  O200  1  0.71420445  0.87118710  0.21327535  1
  O2-  O201  1  0.58998882  0.89137301  0.46399117  1
  O2-  O202  1  0.55583807  0.84258028  0.82856885  1
  O2-  O203  1  0.88832021  0.34575472  0.02379567  1
  O2-  O204  1  0.92571881  0.37445287  0.25467964  1
  O2-  O205  1  0.86383314  0.39114958  0.46731854  1
  O2-  O206  1  0.85591557  0.32697087  0.80832442  1
  O2-  O207  1  0.81883333  0.86597403  -0.01519309  1
  O2-  O208  1  0.88603652  0.86392053  0.29199669  1
  O2-  O209  1  0.78393786  0.93744614  0.52760890  1
  O2-  O210  1  0.85286059  0.83565957  0.74284664  1
  O2-  O211  1  -0.04055994  -0.14761478  0.11944411  1
  O2-  O212  1  0.04142769  0.00547563  0.36976062  1
  O2-  O213  1  0.02441212  0.09144390  0.51115097  1
  O2-  O214  1  -0.01361489  0.14122619  0.66935572  1
  O2-  O215  1  0.00472446  0.34080937  -0.10448194  1
  O2-  O216  1  0.03493931  0.51508041  0.34400317  1
  O2-  O217  1  0.01847844  0.34523436  0.39402873  1
  O2-  O218  1  0.00576337  0.34238793  0.60051176  1
  O2-  O219  1  0.22035295  -0.16842150  -0.11383888  1
  O2-  O220  1  0.27213704  0.02120558  0.12478760  1
  O2-  O221  1  0.28164127  0.02564399  0.64931742  1
  O2-  O222  1  0.21039477  -0.15482701  0.64179328  1
  O2-  O223  1  0.23985881  0.63898871  -0.14425489  1
  O2-  O224  1  0.24559034  0.63916833  0.12358644  1
  O2-  O225  1  0.25743213  0.36355409  0.64114590  1
  O2-  O226  1  0.22604890  0.63806334  0.64014876  1
  O2-  O227  1  0.48734079  -0.11614354  0.08983030  1
  O2-  O228  1  0.55127217  -0.10469206  0.25632981  1
  O2-  O229  1  0.57199474  0.10433301  0.54033860  1
  O2-  O230  1  0.49622202  0.09628295  0.69814325  1
  O2-  O231  1  0.48950588  0.60888336  0.06440511  1
  O2-  O232  1  0.49310860  0.62361234  0.22234313  1
  O2-  O233  1  0.50744425  0.38446716  0.56495728  1
  O2-  O234  1  0.52775122  0.34351677  0.86942307  1
  O2-  O235  1  0.76384930  0.09739423  -0.05958802  1
  O2-  O236  1  0.74638241  0.12975857  0.21519924  1
  O2-  O237  1  0.73485589  0.10639548  0.65276050  1
  O2-  O238  1  0.73654664  -0.07851889  0.83562262  1
  O2-  O239  1  0.76241781  0.43788282  -0.08548336  1
  O2-  O240  1  0.74506189  0.37442866  0.24887593  1
  O2-  O241  1  0.74988001  0.63231124  0.49190362  1
  O2-  O242  1  0.73111639  0.69625486  0.87115544  1
