# generated using pymatgen
data_Gd19Ta56(WO20)8
_symmetry_space_group_name_H-M   'P 1'
_cell_length_a   15.60032908
_cell_length_b   15.38335281
_cell_length_c   15.11960997
_cell_angle_alpha   90.45912243
_cell_angle_beta   90.22984643
_cell_angle_gamma   89.59763893
_symmetry_Int_Tables_number   1
_chemical_formula_structural   Gd19Ta56(WO20)8
_chemical_formula_sum   'Gd19 Ta56 W8 O160'
_cell_volume   3628.25078986
_cell_formula_units_Z   1
loop_
 _symmetry_equiv_pos_site_id
 _symmetry_equiv_pos_as_xyz
  1  'x, y, z'
loop_
 _atom_type_symbol
 _atom_type_oxidation_number
  Gd3+  3.0
  Ta5+  5.0
  W6+  6.0
  O2-  -2.0
loop_
 _atom_site_type_symbol
 _atom_site_label
 _atom_site_symmetry_multiplicity
 _atom_site_fract_x
 _atom_site_fract_y
 _atom_site_fract_z
 _atom_site_occupancy
  Gd3+  Gd0  1  0.48851523  0.27134178  0.24025085  1
  Gd3+  Gd1  1  0.51322350  0.75437178  -0.00084109  1
  Gd3+  Gd2  1  0.50437110  0.21759046  0.46732900  1
  Gd3+  Gd3  1  0.74293080  0.25935851  0.48520780  1
  Gd3+  Gd4  1  0.76032721  0.25933548  0.18401895  1
  Gd3+  Gd5  1  0.49850495  0.22368673  0.73778285  1
  Gd3+  Gd6  1  0.04209302  0.74720989  0.25303261  1
  Gd3+  Gd7  1  0.22452715  0.76589628  0.79046563  1
  Gd3+  Gd8  1  0.65577529  0.20810969  -0.02327917  1
  Gd3+  Gd9  1  0.75180947  0.75582743  0.47842298  1
  Gd3+  Gd10  1  0.00927014  0.25943599  0.76107210  1
  Gd3+  Gd11  1  0.04452121  0.24358437  0.29164727  1
  Gd3+  Gd12  1  0.74492151  0.26877197  0.75681179  1
  Gd3+  Gd13  1  0.00737279  0.76438528  0.49542490  1
  Gd3+  Gd14  1  0.23924520  0.71375716  0.04692425  1
  Gd3+  Gd15  1  0.74652019  0.76257946  -0.03595745  1
  Gd3+  Gd16  1  0.47389216  0.76152857  0.74160759  1
  Gd3+  Gd17  1  0.50559476  0.74512367  0.48353858  1
  Gd3+  Gd18  1  -0.00911357  0.73519580  0.75399792  1
  Ta5+  Ta19  1  0.20147290  0.14608242  0.41263318  1
  Ta5+  Ta20  1  0.59698951  0.39250078  0.87037734  1
  Ta5+  Ta21  1  0.85647642  0.87781210  0.62476683  1
  Ta5+  Ta22  1  0.54667821  0.07261399  0.18104321  1
  Ta5+  Ta23  1  0.87174193  0.11430181  0.86492802  1
  Ta5+  Ta24  1  0.42400031  0.58901430  0.11415617  1
  Ta5+  Ta25  1  0.65072798  0.11467228  0.33335476  1
  Ta5+  Ta26  1  0.38088670  0.38168292  0.60953592  1
  Ta5+  Ta27  1  0.34498631  0.35467715  0.10468473  1
  Ta5+  Ta28  1  0.14146253  0.13137617  0.90713190  1
  Ta5+  Ta29  1  0.64499902  0.86669454  0.35071281  1
  Ta5+  Ta30  1  0.15203851  0.61921790  0.40331205  1
  Ta5+  Ta31  1  0.35500095  0.12791490  0.59128097  1
  Ta5+  Ta32  1  0.63053653  0.12366332  0.60389420  1
  Ta5+  Ta33  1  0.11950558  0.38471456  0.63450113  1
  Ta5+  Ta34  1  0.88156014  0.62729278  0.34922679  1
  Ta5+  Ta35  1  0.88285218  0.38008853  0.35733838  1
  Ta5+  Ta36  1  0.62877524  0.84270090  0.15808088  1
  Ta5+  Ta37  1  0.17891068  0.37084214  0.40437249  1
  Ta5+  Ta38  1  0.86941508  0.09394947  0.09433076  1
  Ta5+  Ta39  1  0.39092564  0.58842693  0.85710821  1
  Ta5+  Ta40  1  0.60392595  0.42291334  0.10471265  1
  Ta5+  Ta41  1  0.88763197  0.88397606  0.08852679  1
  Ta5+  Ta42  1  0.53484158  0.97385253  0.83695654  1
  Ta5+  Ta43  1  0.40292111  0.89250075  0.35291432  1
  Ta5+  Ta44  1  0.37271110  0.62847529  0.35608535  1
  Ta5+  Ta45  1  0.90851025  0.87451647  0.87898956  1
  Ta5+  Ta46  1  0.36544957  0.88549354  0.91392199  1
  Ta5+  Ta47  1  0.88631942  0.12539221  0.59800426  1
  Ta5+  Ta48  1  0.11806881  0.89018187  0.93402167  1
  Ta5+  Ta49  1  0.34687412  0.62510215  0.59893281  1
  Ta5+  Ta50  1  0.34012433  0.07774595  0.34024650  1
  Ta5+  Ta51  1  0.64525331  0.63542428  0.62844710  1
  Ta5+  Ta52  1  0.12141736  0.12531900  0.63764349  1
  Ta5+  Ta53  1  0.20285851  0.16555018  0.15420348  1
  Ta5+  Ta54  1  0.13520042  0.37124043  0.14569443  1
  Ta5+  Ta55  1  0.91363304  0.43606159  0.13510632  1
  Ta5+  Ta56  1  0.49370039  0.03582064  1.02374351  1
  Ta5+  Ta57  1  0.16061842  0.36607105  0.89227445  1
  Ta5+  Ta58  1  0.86634856  0.62129829  0.61408673  1
  Ta5+  Ta59  1  0.12666583  0.57208528  0.15832895  1
  Ta5+  Ta60  1  0.87209696  0.12348706  0.34446908  1
  Ta5+  Ta61  1  0.37270999  0.11251194  0.85555922  1
  Ta5+  Ta62  1  0.32085924  0.35185433  0.84919878  1
  Ta5+  Ta63  1  0.64247732  0.40049760  0.35134136  1
  Ta5+  Ta64  1  0.14546247  0.63113900  0.62819032  1
  Ta5+  Ta65  1  0.07502441  0.95438526  0.16132036  1
  Ta5+  Ta66  1  0.34195234  0.38416337  0.36048158  1
  Ta5+  Ta67  1  0.63051338  0.62065410  0.35817707  1
  Ta5+  Ta68  1  0.61201641  0.88697277  0.62507033  1
  Ta5+  Ta69  1  0.16302927  0.88372235  0.60081994  1
  Ta5+  Ta70  1  0.62630366  0.39061372  0.60759712  1
  Ta5+  Ta71  1  0.87925905  0.37531126  0.61455753  1
  Ta5+  Ta72  1  0.60579591  0.59327399  0.86703426  1
  Ta5+  Ta73  1  0.88639032  0.59512056  0.87676039  1
  Ta5+  Ta74  1  0.36977105  0.10817623  0.13477068  1
  W6+  W75  1  0.13789496  0.61391832  0.89681229  1
  W6+  W76  1  0.85754517  0.62616255  0.10967240  1
  W6+  W77  1  0.65330843  0.62109006  0.11814891  1
  W6+  W78  1  0.36469372  0.87717833  0.58591333  1
  W6+  W79  1  0.16659303  0.89786617  0.39396756  1
  W6+  W80  1  0.37179517  0.86535626  0.12984130  1
  W6+  W81  1  0.79022562  0.43919715  0.97033533  1
  W6+  W82  1  0.88185410  0.87325502  0.34368269  1
  O2-  O83  1  0.14030837  0.05085965  0.16501988  1
  O2-  O84  1  0.16425238  0.03381409  0.42094649  1
  O2-  O85  1  0.15133938  -0.00083606  0.64057356  1
  O2-  O86  1  0.09182536  0.01777689  0.92334072  1
  O2-  O87  1  0.20402070  0.48146163  0.17749164  1
  O2-  O88  1  0.16164421  0.49701533  0.41400234  1
  O2-  O89  1  0.14456240  0.50958872  0.64130075  1
  O2-  O90  1  0.16062486  0.48411734  0.87565503  1
  O2-  O91  1  0.33033398  -0.00837707  0.13781991  1
  O2-  O92  1  0.44445531  0.00623391  0.36941864  1
  O2-  O93  1  0.34867446  0.01039225  0.58349083  1
  O2-  O94  1  0.39316509  -0.02009615  0.82928967  1
  O2-  O95  1  0.36532015  0.48431632  0.10544351  1
  O2-  O96  1  0.34581958  0.50463749  0.36237573  1
  O2-  O97  1  0.34910605  0.50559737  0.62288530  1
  O2-  O98  1  0.35433415  0.47559967  0.84335553  1
  O2-  O99  1  0.59580255  -0.03879773  0.14596843  1
  O2-  O100  1  0.66086932  -0.00534821  0.35329484  1
  O2-  O101  1  0.64914851  0.00352530  0.59764995  1
  O2-  O102  1  0.49999591  0.09766931  0.81482229  1
  O2-  O103  1  0.70003151  0.48746322  0.07321944  1
  O2-  O104  1  0.58038433  0.50459252  0.37766046  1
  O2-  O105  1  0.65108073  0.51115958  0.62340900  1
  O2-  O106  1  0.68516321  0.49720106  0.88662123  1
  O2-  O107  1  0.81167340  -0.01365871  0.11017664  1
  O2-  O108  1  0.86652898  0.00658118  0.31977194  1
  O2-  O109  1  0.86276700  -0.00093598  0.62757198  1
  O2-  O110  1  0.88585975  -0.00290831  0.84505006  1
  O2-  O111  1  0.83716596  0.51040703  0.18729662  1
  O2-  O112  1  0.88973409  0.50533341  0.35957025  1
  O2-  O113  1  0.85471186  0.49944354  0.61700696  1
  O2-  O114  1  0.86754618  0.47826317  0.86096341  1
  O2-  O115  1  0.08833658  0.25037930  0.14876757  1
  O2-  O116  1  0.12131391  0.25215016  0.42362904  1
  O2-  O117  1  0.09209633  0.24970106  0.63597389  1
  O2-  O118  1  0.08771683  0.24594813  0.89016379  1
  O2-  O119  1  0.15295842  0.70028672  0.16409945  1
  O2-  O120  1  0.11890096  0.75120207  0.38938086  1
  O2-  O121  1  0.10601862  0.77018456  0.63299678  1
  O2-  O122  1  0.14471732  0.75907976  0.93373192  1
  O2-  O123  1  0.41518841  0.25315804  0.10573360  1
  O2-  O124  1  0.43912512  0.30146548  0.37474596  1
  O2-  O125  1  0.41386638  0.25498016  0.59487563  1
  O2-  O126  1  0.38327365  0.23635417  0.85394372  1
  O2-  O127  1  0.38425119  0.71513472  0.09777427  1
  O2-  O128  1  0.40235893  0.75136650  0.37011031  1
  O2-  O129  1  0.40287837  0.74169108  0.60295248  1
  O2-  O130  1  0.28131133  0.64073904  0.88194407  1
  O2-  O131  1  0.65437016  0.30426598  0.09353496  1
  O2-  O132  1  0.61796487  0.27608963  0.36491288  1
  O2-  O133  1  0.60850081  0.26318701  0.57460000  1
  O2-  O134  1  0.56295168  0.27240877  0.86936694  1
  O2-  O135  1  0.56900608  0.73066200  0.14575496  1
  O2-  O136  1  0.59297561  0.74309635  0.35129076  1
  O2-  O137  1  0.59021467  0.75357542  0.63643480  1
  O2-  O138  1  0.49648500  0.85537290  0.87088159  1
  O2-  O139  1  0.77577654  0.16604215  0.06020292  1
  O2-  O140  1  0.91623298  0.24888887  0.36729933  1
  O2-  O141  1  0.90699870  0.24746056  0.58998767  1
  O2-  O142  1  0.75860595  0.15362549  0.86737285  1
  O2-  O143  1  0.84223666  0.76921201  0.08276288  1
  O2-  O144  1  0.93871592  0.74568748  0.36568350  1
  O2-  O145  1  0.92022036  0.74758972  0.62040764  1
  O2-  O146  1  0.88877529  0.75142232  0.87536484  1
  O2-  O147  1  0.17724237  0.15345627  0.02190260  1
  O2-  O148  1  0.18172414  0.17181768  0.28314666  1
  O2-  O149  1  0.22837153  0.15178705  0.56299559  1
  O2-  O150  1  0.09994405  0.12889945  0.76151668  1
  O2-  O151  1  0.15220476  0.59013950  0.03519885  1
  O2-  O152  1  0.09290139  0.60165851  0.28953524  1
  O2-  O153  1  0.07567788  0.63279649  0.51607088  1
  O2-  O154  1  0.11226147  0.65267176  0.75605154  1
  O2-  O155  1  0.38504954  0.09954543  -0.01214355  1
  O2-  O156  1  0.36572534  0.16778169  0.25993999  1
  O2-  O157  1  0.37573224  0.14101452  0.45800913  1
  O2-  O158  1  0.36016632  0.13468500  0.71719881  1
  O2-  O159  1  0.42954816  0.59371997  -0.01950951  1
  O2-  O160  1  0.42298941  0.61151376  0.24389740  1
  O2-  O161  1  0.41411828  0.61762654  0.48399632  1
  O2-  O162  1  0.40738806  0.62624752  0.73315342  1
  O2-  O163  1  0.57048138  0.13249996  0.06060189  1
  O2-  O164  1  0.67013677  0.14052661  0.20928850  1
  O2-  O165  1  0.64178590  0.13696008  0.47113613  1
  O2-  O166  1  0.63456598  0.17188945  0.72170504  1
  O2-  O167  1  0.62703722  0.65487835  -0.02270564  1
  O2-  O168  1  0.68237216  0.60244230  0.25127055  1
  O2-  O169  1  0.63998539  0.64922819  0.49335505  1
  O2-  O170  1  0.65029803  0.63674757  0.76237310  1
  O2-  O171  1  0.92449903  0.12544369  -0.02054802  1
  O2-  O172  1  0.88008796  0.15324552  0.20616998  1
  O2-  O173  1  0.86853044  0.11070020  0.47589607  1
  O2-  O174  1  0.90101020  0.15204247  0.74734375  1
  O2-  O175  1  0.80650823  0.62940799  -0.03177404  1
  O2-  O176  1  0.92236698  0.65397937  0.22814342  1
  O2-  O177  1  0.85806872  0.64217487  0.48130880  1
  O2-  O178  1  0.88424622  0.62758157  0.75007771  1
  O2-  O179  1  0.14264117  0.37077657  0.02048087  1
  O2-  O180  1  0.13140986  0.36218483  0.28295534  1
  O2-  O181  1  0.18930449  0.36199696  0.53912673  1
  O2-  O182  1  0.12027446  0.35973146  0.75945548  1
  O2-  O183  1  0.12665159  0.89327546  0.06462908  1
  O2-  O184  1  0.10017373  0.89248199  0.26647276  1
  O2-  O185  1  0.07569781  0.89085305  0.50363860  1
  O2-  O186  1  0.22356045  0.90329416  0.87489214  1
  O2-  O187  1  0.32583809  0.35438458  -0.01989165  1
  O2-  O188  1  0.37091907  0.36663927  0.23508335  1
  O2-  O189  1  0.34308203  0.38115810  0.49376593  1
  O2-  O190  1  0.32044906  0.34873664  0.71289563  1
  O2-  O191  1  0.29892313  0.84436801  0.01393357  1
  O2-  O192  1  0.44615973  0.86234656  0.24061844  1
  O2-  O193  1  0.44451187  0.87602001  0.47557573  1
  O2-  O194  1  0.35610262  0.79399905  0.82765544  1
  O2-  O195  1  0.55278563  0.40733720  -0.01094449  1
  O2-  O196  1  0.58429260  0.39327785  0.23183233  1
  O2-  O197  1  0.66712147  0.39382047  0.48188979  1
  O2-  O198  1  0.62611158  0.36470458  0.73710969  1
  O2-  O199  1  0.63587234  0.83123862  0.02717867  1
  O2-  O200  1  0.71791667  0.84025619  0.24513833  1
  O2-  O201  1  0.62790814  0.85059693  0.49005864  1
  O2-  O202  1  0.61629974  0.92866947  0.75542965  1
  O2-  O203  1  0.84014702  0.35068965  0.08144511  1
  O2-  O204  1  0.93841855  0.35998717  0.24182684  1
  O2-  O205  1  0.85098361  0.36946183  0.48243916  1
  O2-  O206  1  0.88118688  0.33575794  0.73626407  1
  O2-  O207  1  0.81592678  0.89321640  -0.03758944  1
  O2-  O208  1  0.94166843  0.86216555  0.20113030  1
  O2-  O209  1  0.86636140  0.85573118  0.49525912  1
  O2-  O210  1  0.89507605  0.85996890  0.74429793  1
  O2-  O211  1  -0.02360482  -0.12497444  -0.00592466  1
  O2-  O212  1  -0.02794647  0.00663800  0.11275440  1
  O2-  O213  1  0.01039339  0.09781769  0.59562837  1
  O2-  O214  1  0.03602172  -0.13819632  0.83847773  1
  O2-  O215  1  -0.09721027  0.51232896  0.03115056  1
  O2-  O216  1  0.03991981  0.47418473  0.14732165  1
  O2-  O217  1  0.00154037  0.39997430  0.60796516  1
  O2-  O218  1  0.00163397  0.61341717  0.89470655  1
  O2-  O219  1  0.24973018  0.10395513  -0.14059205  1
  O2-  O220  1  0.28930578  -0.05841251  0.33204075  1
  O2-  O221  1  0.24494664  -0.13186848  0.50905535  1
  O2-  O222  1  0.25891199  -0.14290444  0.67965815  1
  O2-  O223  1  0.24389339  0.29251744  0.14299760  1
  O2-  O224  1  0.25500228  0.65195986  0.34149331  1
  O2-  O225  1  0.23837940  0.63111478  0.52437424  1
  O2-  O226  1  0.25606009  0.67037867  0.67880954  1
  O2-  O227  1  0.44704868  -0.09436330  0.01846326  1
  O2-  O228  1  0.53172505  0.14160031  0.30850774  1
  O2-  O229  1  0.50553028  0.11994637  0.60155549  1
  O2-  O230  1  0.49064052  -0.10913575  0.64701598  1
  O2-  O231  1  0.52510169  0.50133132  -0.16427551  1
  O2-  O232  1  0.53515349  0.53540292  0.12288721  1
  O2-  O233  1  0.50288792  0.40758915  0.60630455  1
  O2-  O234  1  0.50210176  0.67532556  0.86251511  1
  O2-  O235  1  0.59774377  -0.00103704  -0.06289917  1
  O2-  O236  1  0.76138877  0.18517966  0.34748461  1
  O2-  O237  1  0.76046331  0.16010152  0.61001911  1
  O2-  O238  1  0.74063266  -0.14451187  0.63357587  1
  O2-  O239  1  0.71473355  0.33491305  -0.10211387  1
  O2-  O240  1  0.76350200  0.36802861  0.31013017  1
  O2-  O241  1  0.75183276  0.34426402  0.62408935  1
  O2-  O242  1  0.75825078  0.68644117  0.61823223  1
