# generated using pymatgen
data_Gd19Ta56(WO20)8
_symmetry_space_group_name_H-M   'P 1'
_cell_length_a   15.54432589
_cell_length_b   15.58790494
_cell_length_c   15.33080291
_cell_angle_alpha   89.98298697
_cell_angle_beta   89.94752773
_cell_angle_gamma   89.88970463
_symmetry_Int_Tables_number   1
_chemical_formula_structural   Gd19Ta56(WO20)8
_chemical_formula_sum   'Gd19 Ta56 W8 O160'
_cell_volume   3714.69820863
_cell_formula_units_Z   1
loop_
 _symmetry_equiv_pos_site_id
 _symmetry_equiv_pos_as_xyz
  1  'x, y, z'
loop_
 _atom_type_symbol
 _atom_type_oxidation_number
  Gd3+  3.0
  Ta5+  5.0
  W6+  6.0
  O2-  -2.0
loop_
 _atom_site_type_symbol
 _atom_site_label
 _atom_site_symmetry_multiplicity
 _atom_site_fract_x
 _atom_site_fract_y
 _atom_site_fract_z
 _atom_site_occupancy
  Gd3+  Gd0  1  0.26570276  0.26708353  0.76727663  1
  Gd3+  Gd1  1  0.52019809  0.23022459  -0.00388813  1
  Gd3+  Gd2  1  -0.00921606  0.74358208  0.00073728  1
  Gd3+  Gd3  1  0.21722548  0.74259784  0.75895689  1
  Gd3+  Gd4  1  0.77444048  0.25699252  0.48300392  1
  Gd3+  Gd5  1  0.75859149  0.24095514  0.01131149  1
  Gd3+  Gd6  1  0.49091344  0.25947570  0.24530613  1
  Gd3+  Gd7  1  0.01850640  0.23991883  0.52360603  1
  Gd3+  Gd8  1  0.48993055  0.73451963  0.48741683  1
  Gd3+  Gd9  1  0.42867991  0.80275022  0.78506126  1
  Gd3+  Gd10  1  0.22779288  0.76107676  0.24139468  1
  Gd3+  Gd11  1  0.21326789  0.76054995  -0.01453533  1
  Gd3+  Gd12  1  0.49582425  0.27066799  0.76261450  1
  Gd3+  Gd13  1  0.49041069  0.75131327  0.01828010  1
  Gd3+  Gd14  1  0.74399961  0.74831150  0.49906404  1
  Gd3+  Gd15  1  0.77661109  0.75066453  0.76393068  1
  Gd3+  Gd16  1  0.00059190  0.24519010  0.24644992  1
  Gd3+  Gd17  1  0.22867799  0.24500690  0.25813162  1
  Gd3+  Gd18  1  0.72298228  0.25827434  0.77031402  1
  Ta5+  Ta19  1  0.33655631  0.59084554  0.87791666  1
  Ta5+  Ta20  1  0.39711135  0.41358706  0.89201061  1
  Ta5+  Ta21  1  0.89443417  0.88795044  0.87725882  1
  Ta5+  Ta22  1  0.65280345  0.37485114  0.35045034  1
  Ta5+  Ta23  1  0.88544146  0.61856046  0.61686297  1
  Ta5+  Ta24  1  0.60271151  0.87987003  0.61503040  1
  Ta5+  Ta25  1  0.12056763  0.62618603  0.60839979  1
  Ta5+  Ta26  1  0.91293926  0.87755707  0.13280815  1
  Ta5+  Ta27  1  0.64928104  0.12213737  0.60720856  1
  Ta5+  Ta28  1  0.90465573  0.11836923  0.87240707  1
  Ta5+  Ta29  1  0.87763058  0.61837423  0.12329391  1
  Ta5+  Ta30  1  0.31091097  0.62964830  0.11030171  1
  Ta5+  Ta31  1  0.88260448  0.62418923  0.37316027  1
  Ta5+  Ta32  1  0.89289520  0.37274865  0.63251341  1
  Ta5+  Ta33  1  0.36689378  0.13594548  0.38285029  1
  Ta5+  Ta34  1  0.35715612  0.38899830  0.12212979  1
  Ta5+  Ta35  1  0.37891757  0.39844133  0.63065421  1
  Ta5+  Ta36  1  0.14077940  0.61880820  0.11640811  1
  Ta5+  Ta37  1  0.61301078  0.12310006  0.36650062  1
  Ta5+  Ta38  1  0.38812857  0.89136184  0.59762797  1
  Ta5+  Ta39  1  0.89042952  0.12092334  0.13199786  1
  Ta5+  Ta40  1  0.13642625  0.38239354  0.63116323  1
  Ta5+  Ta41  1  0.86078343  0.11148041  0.62586829  1
  Ta5+  Ta42  1  0.62538799  0.64887436  0.87232974  1
  Ta5+  Ta43  1  0.89406756  0.87193614  0.62093913  1
  Ta5+  Ta44  1  0.61799688  0.61897429  0.36086338  1
  Ta5+  Ta45  1  0.08749629  0.38126449  0.37885952  1
  Ta5+  Ta46  1  0.42195882  0.07333673  0.88060158  1
  Ta5+  Ta47  1  0.07801782  0.88470935  0.86613382  1
  Ta5+  Ta48  1  0.93276323  0.10978023  0.38727657  1
  Ta5+  Ta49  1  0.62473870  0.38564320  0.60665785  1
  Ta5+  Ta50  1  0.34870681  0.38382925  0.38149033  1
  Ta5+  Ta51  1  0.11644953  0.37743028  0.11799201  1
  Ta5+  Ta52  1  0.62003501  0.62024464  0.62238006  1
  Ta5+  Ta53  1  0.11818322  0.62399017  0.37260870  1
  Ta5+  Ta54  1  0.37791244  0.62895220  0.62676520  1
  Ta5+  Ta55  1  0.62094447  0.88097779  0.37274033  1
  Ta5+  Ta56  1  0.32083749  0.93228560  0.92665451  1
  Ta5+  Ta57  1  0.15068385  0.11098035  0.87479215  1
  Ta5+  Ta58  1  0.88375524  0.87046886  0.37541551  1
  Ta5+  Ta59  1  0.08174685  0.88241939  0.12792214  1
  Ta5+  Ta60  1  0.61894811  0.06779512  0.13976966  1
  Ta5+  Ta61  1  0.38138708  0.88994456  0.36338586  1
  Ta5+  Ta62  1  0.33709460  0.89288155  0.11638806  1
  Ta5+  Ta63  1  0.91488870  0.37921849  0.38355896  1
  Ta5+  Ta64  1  0.36804203  0.62915514  0.35984582  1
  Ta5+  Ta65  1  0.11373218  0.87364927  0.38155986  1
  Ta5+  Ta66  1  0.87721799  0.37591106  0.13219613  1
  Ta5+  Ta67  1  0.12055777  0.12413323  0.11576832  1
  Ta5+  Ta68  1  0.10376066  0.36665176  0.86950426  1
  Ta5+  Ta69  1  0.87171593  0.37064221  0.87842795  1
  Ta5+  Ta70  1  0.10521984  0.11651196  0.38240369  1
  Ta5+  Ta71  1  0.37097326  0.13457199  0.12031755  1
  Ta5+  Ta72  1  0.63905767  0.63943443  0.12892257  1
  Ta5+  Ta73  1  0.08263317  0.61317393  0.86553435  1
  Ta5+  Ta74  1  0.63262933  0.40769249  0.11644981  1
  W6+  W75  1  0.91064174  0.61774123  0.86725694  1
  W6+  W76  1  0.15199351  0.87808630  0.62256403  1
  W6+  W77  1  0.61889196  0.40785476  0.87073242  1
  W6+  W78  1  0.65325535  0.01710599  0.95540832  1
  W6+  W79  1  0.64128798  0.86571555  0.12591379  1
  W6+  W80  1  0.16842336  0.12438761  0.63249035  1
  W6+  W81  1  0.62638058  0.83743520  0.86097098  1
  W6+  W82  1  0.40153669  0.13863392  0.63514927  1
  O2-  O83  1  0.10126660  0.00629902  0.12709976  1
  O2-  O84  1  0.10580217  -0.00411024  0.36182826  1
  O2-  O85  1  0.14948728  0.00598008  0.64064564  1
  O2-  O86  1  0.14310530  -0.00896352  0.87152185  1
  O2-  O87  1  0.11127776  0.49538448  0.13090615  1
  O2-  O88  1  0.10663143  0.50267056  0.36299701  1
  O2-  O89  1  0.13778163  0.50509144  0.62915845  1
  O2-  O90  1  0.08680048  0.49316881  0.85950579  1
  O2-  O91  1  0.36794097  0.01618239  0.13799188  1
  O2-  O92  1  0.36788063  0.01274310  0.36440473  1
  O2-  O93  1  0.39395180  0.00656201  0.61629209  1
  O2-  O94  1  0.42598915  -0.04763019  0.84407108  1
  O2-  O95  1  0.33224507  0.50610206  0.12115683  1
  O2-  O96  1  0.35812281  0.50397387  0.36148081  1
  O2-  O97  1  0.33500680  0.51302422  0.63827769  1
  O2-  O98  1  0.44901777  0.52718663  0.87307347  1
  O2-  O99  1  0.55703573  -0.03038232  0.16647399  1
  O2-  O100  1  0.63358587  0.00553617  0.38755438  1
  O2-  O101  1  0.62351720  0.00429393  0.61299770  1
  O2-  O102  1  0.67528027  -0.03616409  0.85123601  1
  O2-  O103  1  0.59490423  0.52971088  0.15061049  1
  O2-  O104  1  0.64264650  0.49964546  0.34942579  1
  O2-  O105  1  0.66747756  0.49878536  0.62054087  1
  O2-  O106  1  0.65765182  0.53589143  0.86264570  1
  O2-  O107  1  0.89051107  0.00291131  0.12958437  1
  O2-  O108  1  0.89441040  -0.01029403  0.38613697  1
  O2-  O109  1  0.85811089  -0.01114740  0.62300684  1
  O2-  O110  1  0.84864700  0.01324089  0.88047530  1
  O2-  O111  1  0.90289676  0.49513569  0.12840494  1
  O2-  O112  1  0.88957120  0.50407706  0.38458173  1
  O2-  O113  1  0.89279388  0.49765324  0.62927198  1
  O2-  O114  1  0.88829881  0.48358521  0.86978111  1
  O2-  O115  1  0.07820158  0.24792742  0.11144316  1
  O2-  O116  1  0.09271109  0.24972531  0.38038080  1
  O2-  O117  1  0.17803607  0.26070606  0.64060663  1
  O2-  O118  1  0.16229926  0.25386111  0.87175744  1
  O2-  O119  1  0.12544060  0.75448539  0.11638763  1
  O2-  O120  1  0.16123036  0.75095051  0.37410742  1
  O2-  O121  1  0.17537918  0.73644346  0.61548020  1
  O2-  O122  1  0.09636120  0.75119707  0.88256220  1
  O2-  O123  1  0.41376365  0.26537005  0.11172684  1
  O2-  O124  1  0.40749196  0.27133850  0.37305817  1
  O2-  O125  1  0.37501106  0.27241163  0.65473973  1
  O2-  O126  1  0.41610596  0.28853154  0.88805426  1
  O2-  O127  1  0.31567714  0.76487359  0.10652040  1
  O2-  O128  1  0.38872199  0.75696425  0.37403569  1
  O2-  O129  1  0.40893397  0.75331522  0.61598353  1
  O2-  O130  1  0.30304462  0.81541854  0.86971865  1
  O2-  O131  1  0.51264653  0.13965364  0.13749905  1
  O2-  O132  1  0.61504201  0.25428151  0.34156744  1
  O2-  O133  1  0.69356743  0.27923387  0.60966582  1
  O2-  O134  1  0.59855988  0.26810049  0.87224905  1
  O2-  O135  1  0.57138863  0.74206580  0.14532557  1
  O2-  O136  1  0.61084631  0.75231064  0.39470419  1
  O2-  O137  1  0.60549096  0.74422654  0.58913813  1
  O2-  O138  1  0.52260611  0.72691766  0.86326001  1
  O2-  O139  1  0.83676993  0.24483222  0.13826598  1
  O2-  O140  1  0.90854250  0.24285265  0.40783894  1
  O2-  O141  1  0.87744067  0.24446899  0.60683524  1
  O2-  O142  1  0.83339275  0.22213624  0.86705550  1
  O2-  O143  1  0.90689928  0.74205538  0.12642937  1
  O2-  O144  1  0.82807755  0.74397945  0.37961920  1
  O2-  O145  1  0.83310311  0.74826978  0.62198389  1
  O2-  O146  1  0.89561233  0.75956360  0.87520163  1
  O2-  O147  1  0.15928176  0.12552449  -0.00500395  1
  O2-  O148  1  0.11913244  0.14543669  0.24716265  1
  O2-  O149  1  0.12040367  0.13609904  0.50813603  1
  O2-  O150  1  0.21117620  0.13313730  0.76433485  1
  O2-  O151  1  0.09884904  0.62372710  -0.00513772  1
  O2-  O152  1  0.14738732  0.63322432  0.25101081  1
  O2-  O153  1  0.16288531  0.61328765  0.48923533  1
  O2-  O154  1  0.10447885  0.63918840  0.73888543  1
  O2-  O155  1  0.39965889  0.13727371  -0.00398185  1
  O2-  O156  1  0.36539359  0.17261620  0.24745979  1
  O2-  O157  1  0.38819652  0.14570205  0.49907966  1
  O2-  O158  1  0.41474866  0.13954702  0.77797439  1
  O2-  O159  1  0.36306469  0.65021610  -0.01660235  1
  O2-  O160  1  0.33782809  0.64284179  0.24087191  1
  O2-  O161  1  0.37963729  0.62727480  0.49809308  1
  O2-  O162  1  0.36111349  0.66002958  0.76169424  1
  O2-  O163  1  0.65907499  0.13076939  0.03094338  1
  O2-  O164  1  0.49685164  0.12577479  0.34073582  1
  O2-  O165  1  0.61617209  0.15895082  0.48685525  1
  O2-  O166  1  0.55177673  0.17461930  0.66023787  1
  O2-  O167  1  0.60552770  0.64805699  0.00297933  1
  O2-  O168  1  0.67280386  0.65148702  0.25724760  1
  O2-  O169  1  0.64407780  0.61653603  0.48754021  1
  O2-  O170  1  0.64919042  0.65331439  0.73860315  1
  O2-  O171  1  0.88678965  0.14111181  0.00135955  1
  O2-  O172  1  0.90579217  0.12710505  0.26138731  1
  O2-  O173  1  0.94008993  0.11141200  0.52625184  1
  O2-  O174  1  0.90664850  0.12191969  0.74111728  1
  O2-  O175  1  0.91650391  0.61772721  0.00539294  1
  O2-  O176  1  0.86605064  0.62105482  0.25291361  1
  O2-  O177  1  0.83163869  0.62210643  0.50155753  1
  O2-  O178  1  0.85947364  0.63150933  0.73660751  1
  O2-  O179  1  0.11728371  0.37897135  -0.00978162  1
  O2-  O180  1  0.10702928  0.35305033  0.24592497  1
  O2-  O181  1  0.11051505  0.37142142  0.50835874  1
  O2-  O182  1  0.17412667  0.38300306  0.76122265  1
  O2-  O183  1  0.08396634  0.87420624  -0.00355284  1
  O2-  O184  1  0.13033850  0.86978544  0.25101472  1
  O2-  O185  1  0.16459814  0.88818457  0.48886511  1
  O2-  O186  1  0.12906524  0.85565715  0.75394835  1
  O2-  O187  1  0.42425450  0.40258920  0.01866031  1
  O2-  O188  1  0.39271415  0.37751882  0.24292712  1
  O2-  O189  1  0.35611147  0.38769677  0.50353314  1
  O2-  O190  1  0.39274951  0.39750142  0.76073722  1
  O2-  O191  1  0.41142967  0.87953610  0.01165373  1
  O2-  O192  1  0.33411998  0.87312280  0.24912023  1
  O2-  O193  1  0.33974396  0.88074427  0.48152703  1
  O2-  O194  1  0.29322992  0.86217454  0.67169639  1
  O2-  O195  1  0.62528650  0.28675920  0.08870602  1
  O2-  O196  1  0.58507514  0.37873373  0.23683051  1
  O2-  O197  1  0.63397426  0.37378915  0.47645097  1
  O2-  O198  1  0.62096700  0.36495744  0.73429896  1
  O2-  O199  1  0.59691606  0.84273937  -0.00150195  1
  O2-  O200  1  0.67638016  0.86872920  0.26905324  1
  O2-  O201  1  0.66961019  0.87593300  0.49652868  1
  O2-  O202  1  0.66859773  0.84411792  0.71197475  1
  O2-  O203  1  0.88485110  0.34934247  0.00292855  1
  O2-  O204  1  0.90697180  0.36423611  0.25301181  1
  O2-  O205  1  0.85634103  0.37703413  0.51139258  1
  O2-  O206  1  0.83409652  0.35646679  0.74278811  1
  O2-  O207  1  0.89943103  0.87918064  0.00154482  1
  O2-  O208  1  0.87500871  0.86644934  0.25419580  1
  O2-  O209  1  0.84674066  0.85949546  0.50208901  1
  O2-  O210  1  0.86116987  0.86660702  0.74407319  1
  O2-  O211  1  0.02736666  0.12768947  -0.12929802  1
  O2-  O212  1  -0.00123528  -0.16325673  0.39857295  1
  O2-  O213  1  0.00954551  -0.13425002  0.60909215  1
  O2-  O214  1  -0.01318442  -0.04650960  0.82270871  1
  O2-  O215  1  -0.01028361  0.32940812  -0.15094028  1
  O2-  O216  1  -0.00085985  0.65396887  0.38609058  1
  O2-  O217  1  -0.00023739  0.64667231  0.58741908  1
  O2-  O218  1  0.01171079  0.35804403  0.65423682  1
  O2-  O219  1  0.24638147  -0.09057033  0.02986211  1
  O2-  O220  1  0.24976496  0.15600962  0.12933997  1
  O2-  O221  1  0.24537320  0.15104244  0.37340805  1
  O2-  O222  1  0.29303491  0.05285710  0.89866488  1
  O2-  O223  1  0.28937813  0.47511460  -0.09639005  1
  O2-  O224  1  0.24296991  0.34292000  0.13028105  1
  O2-  O225  1  0.23494865  0.35727890  0.36067796  1
  O2-  O226  1  0.21983838  0.64005444  0.87321129  1
  O2-  O227  1  0.53926722  0.08930502  -0.08469313  1
  O2-  O228  1  0.50160389  -0.10919090  0.34304880  1
  O2-  O229  1  0.50275399  -0.12602983  0.52109740  1
  O2-  O230  1  0.49613992  -0.11853338  0.68413814  1
  O2-  O231  1  0.60340444  0.43480812  0.00338368  1
  O2-  O232  1  0.49787644  0.61892048  0.35336584  1
  O2-  O233  1  0.50432874  0.39078318  0.60826530  1
  O2-  O234  1  0.50220123  0.60081643  0.63485464  1
  O2-  O235  1  0.69783484  -0.01722143  0.07871273  1
  O2-  O236  1  0.66104444  0.11613660  0.24515363  1
  O2-  O237  1  0.76380524  0.12176583  0.53814007  1
  O2-  O238  1  0.73770274  0.13084595  0.69843617  1
  O2-  O239  1  0.75704193  0.62624125  0.09935175  1
  O2-  O240  1  0.75215995  0.40481587  0.12782494  1
  O2-  O241  1  0.76888813  0.35265058  0.35470423  1
  O2-  O242  1  0.74684903  0.35457791  0.89957733  1
