# generated using pymatgen
data_Gd19Ta56(WO20)8
_symmetry_space_group_name_H-M   'P 1'
_cell_length_a   15.47273701
_cell_length_b   15.43702129
_cell_length_c   15.21102785
_cell_angle_alpha   89.92337599
_cell_angle_beta   89.71673743
_cell_angle_gamma   89.98355785
_symmetry_Int_Tables_number   1
_chemical_formula_structural   Gd19Ta56(WO20)8
_chemical_formula_sum   'Gd19 Ta56 W8 O160'
_cell_volume   3633.15139673
_cell_formula_units_Z   1
loop_
 _symmetry_equiv_pos_site_id
 _symmetry_equiv_pos_as_xyz
  1  'x, y, z'
loop_
 _atom_type_symbol
 _atom_type_oxidation_number
  Gd3+  3.0
  Ta5+  5.0
  W6+  6.0
  O2-  -2.0
loop_
 _atom_site_type_symbol
 _atom_site_label
 _atom_site_symmetry_multiplicity
 _atom_site_fract_x
 _atom_site_fract_y
 _atom_site_fract_z
 _atom_site_occupancy
  Gd3+  Gd0  1  0.24984879  0.75396048  0.26684869  1
  Gd3+  Gd1  1  0.25639312  0.75647721  0.76004237  1
  Gd3+  Gd2  1  0.52304079  0.26271362  0.25481471  1
  Gd3+  Gd3  1  0.73307852  0.22980232  -0.00603184  1
  Gd3+  Gd4  1  0.71451746  0.72169418  0.24051761  1
  Gd3+  Gd5  1  0.48787677  0.25910152  0.02330757  1
  Gd3+  Gd6  1  0.04180048  0.73828983  0.01791579  1
  Gd3+  Gd7  1  0.28242221  0.28093808  0.24509552  1
  Gd3+  Gd8  1  0.50083450  0.25436958  0.74703810  1
  Gd3+  Gd9  1  0.01638266  0.75583928  0.26297443  1
  Gd3+  Gd10  1  0.26537260  0.73922346  0.51506846  1
  Gd3+  Gd11  1  -0.02759743  0.74204385  0.76556463  1
  Gd3+  Gd12  1  0.51876326  0.76331738  0.50497852  1
  Gd3+  Gd13  1  0.01943752  0.25168612  0.03389714  1
  Gd3+  Gd14  1  0.73470892  0.24302488  0.74503915  1
  Gd3+  Gd15  1  0.51526727  0.26082429  0.49641955  1
  Gd3+  Gd16  1  0.20944672  0.27504233  0.47593052  1
  Gd3+  Gd17  1  -0.02653983  0.25106815  0.51208371  1
  Gd3+  Gd18  1  0.73147528  0.73607048  0.76568449  1
  Ta5+  Ta19  1  0.15416905  0.13300477  0.63574079  1
  Ta5+  Ta20  1  0.38952981  0.07520025  0.37457027  1
  Ta5+  Ta21  1  0.15949348  0.39057058  0.67005959  1
  Ta5+  Ta22  1  0.86537109  0.87677680  0.35582745  1
  Ta5+  Ta23  1  0.39223675  0.88116393  0.36975558  1
  Ta5+  Ta24  1  0.11561357  0.88733620  0.87028945  1
  Ta5+  Ta25  1  0.85511789  0.13364428  0.19916746  1
  Ta5+  Ta26  1  0.09023495  0.37102561  0.32329118  1
  Ta5+  Ta27  1  0.57279577  0.62448376  0.86355910  1
  Ta5+  Ta28  1  0.88737564  0.88806354  0.14025360  1
  Ta5+  Ta29  1  0.11935703  0.13183940  0.87989669  1
  Ta5+  Ta30  1  0.56911995  0.61725519  0.11254079  1
  Ta5+  Ta31  1  0.82924793  0.37031214  0.40100446  1
  Ta5+  Ta32  1  0.58990829  0.87462167  0.87080644  1
  Ta5+  Ta33  1  0.87830883  0.61338847  0.36253622  1
  Ta5+  Ta34  1  0.87118117  0.87567719  0.89566015  1
  Ta5+  Ta35  1  0.36690358  0.86040394  0.11166618  1
  Ta5+  Ta36  1  0.65581811  0.12053637  0.37543167  1
  Ta5+  Ta37  1  0.88817975  0.10354723  0.82917083  1
  Ta5+  Ta38  1  0.38481682  0.89093451  0.63126507  1
  Ta5+  Ta39  1  0.12027246  0.88459244  0.62190051  1
  Ta5+  Ta40  1  0.66183972  0.38671259  0.38479869  1
  Ta5+  Ta41  1  0.65145554  0.11729159  0.60623721  1
  Ta5+  Ta42  1  0.38161280  0.43988350  0.12994163  1
  Ta5+  Ta43  1  0.58933083  0.60741385  0.37702891  1
  Ta5+  Ta44  1  0.10837073  0.61710838  0.61982394  1
  Ta5+  Ta45  1  0.61575061  0.11345489  0.12971491  1
  Ta5+  Ta46  1  0.36338758  0.39540027  0.62560541  1
  Ta5+  Ta47  1  0.11731475  0.60742229  0.38672656  1
  Ta5+  Ta48  1  0.34548003  0.11396335  0.83261428  1
  Ta5+  Ta49  1  0.90503343  0.61787517  0.57813585  1
  Ta5+  Ta50  1  0.40267238  0.62878283  0.37483557  1
  Ta5+  Ta51  1  0.42151525  0.88720105  0.86874803  1
  Ta5+  Ta52  1  0.36571907  0.13372781  0.61121415  1
  Ta5+  Ta53  1  0.66565157  0.39066857  0.13839042  1
  Ta5+  Ta54  1  0.83263239  0.38194467  0.61528267  1
  Ta5+  Ta55  1  0.89083727  0.62271762  0.91383502  1
  Ta5+  Ta56  1  0.40198998  0.64673816  0.11857399  1
  Ta5+  Ta57  1  0.62754268  0.87629341  0.63883611  1
  Ta5+  Ta58  1  0.66332433  0.38332089  0.60784883  1
  Ta5+  Ta59  1  0.86770605  0.38080222  0.16938681  1
  Ta5+  Ta60  1  0.61770901  0.37912047  0.87653554  1
  Ta5+  Ta61  1  0.60541906  0.86201992  0.11857862  1
  Ta5+  Ta62  1  0.91366475  0.86417707  0.58159237  1
  Ta5+  Ta63  1  0.37849691  0.39757469  0.87420205  1
  Ta5+  Ta64  1  0.38477327  0.43532513  0.38712559  1
  Ta5+  Ta65  1  0.88009251  0.61627733  0.12371877  1
  Ta5+  Ta66  1  0.41599705  0.63369994  0.64822013  1
  Ta5+  Ta67  1  0.16218853  0.12325402  0.13172726  1
  Ta5+  Ta68  1  0.82594168  0.12060156  0.40216793  1
  Ta5+  Ta69  1  0.14317636  0.62005982  0.87480094  1
  Ta5+  Ta70  1  0.86621848  0.38276480  0.86568140  1
  Ta5+  Ta71  1  0.40493922  0.64451314  0.86722048  1
  Ta5+  Ta72  1  0.85991710  0.10472788  0.61175778  1
  Ta5+  Ta73  1  0.18881907  0.61639815  0.12922632  1
  Ta5+  Ta74  1  0.14174524  0.37834247  0.89353628  1
  W6+  W75  1  0.63653513  0.86841668  0.37436782  1
  W6+  W76  1  0.59573364  0.10606919  0.86290086  1
  W6+  W77  1  0.14198500  0.87682751  0.13513119  1
  W6+  W78  1  0.10786525  0.88153216  0.40289082  1
  W6+  W79  1  0.58890879  0.61692510  0.64441913  1
  W6+  W80  1  0.12352600  0.39918695  0.13400060  1
  W6+  W81  1  0.09809915  0.12534664  0.36618485  1
  W6+  W82  1  0.38784702  0.07879226  0.20369740  1
  O2-  O83  1  0.17588006  0.00629566  0.11724606  1
  O2-  O84  1  0.10344533  0.01319571  0.40790576  1
  O2-  O85  1  0.13314212  0.00961382  0.62643611  1
  O2-  O86  1  0.14169349  0.00639073  0.87922071  1
  O2-  O87  1  0.10343605  0.53641623  0.13372027  1
  O2-  O88  1  0.09934808  0.48657387  0.37550137  1
  O2-  O89  1  0.10731913  0.48963191  0.61788053  1
  O2-  O90  1  0.16774362  0.50090387  0.89042619  1
  O2-  O91  1  0.35687979  -0.02159460  0.11672158  1
  O2-  O92  1  0.30846119  -0.01759532  0.38553134  1
  O2-  O93  1  0.37630805  0.01069628  0.59999177  1
  O2-  O94  1  0.35776661  0.00778098  0.88184883  1
  O2-  O95  1  0.29460768  0.54482644  0.11935079  1
  O2-  O96  1  0.31640779  0.53380060  0.41029262  1
  O2-  O97  1  0.39561910  0.51343553  0.63023632  1
  O2-  O98  1  0.38414251  0.51388051  0.86440503  1
  O2-  O99  1  0.61329968  -0.00621477  0.12462588  1
  O2-  O100  1  0.65422925  0.00195322  0.37418256  1
  O2-  O101  1  0.61893566  0.00085948  0.62417964  1
  O2-  O102  1  0.52437954  -0.01477259  0.85352048  1
  O2-  O103  1  0.61991007  0.49368288  0.10028413  1
  O2-  O104  1  0.66709896  0.51425172  0.37831004  1
  O2-  O105  1  0.62228108  0.49327128  0.62936446  1
  O2-  O106  1  0.57959711  0.49128286  0.86810715  1
  O2-  O107  1  0.88164338  0.01877523  0.16201934  1
  O2-  O108  1  0.84098373  -0.00520721  0.37507769  1
  O2-  O109  1  0.86797636  -0.02908202  0.61520994  1
  O2-  O110  1  0.84025885  -0.00232195  0.86169795  1
  O2-  O111  1  0.91196672  0.49276274  0.12778433  1
  O2-  O112  1  0.86683821  0.49352302  0.37479448  1
  O2-  O113  1  0.85609761  0.51603960  0.61938345  1
  O2-  O114  1  0.89861926  0.49497495  0.88754969  1
  O2-  O115  1  0.13704101  0.26050313  0.12684570  1
  O2-  O116  1  0.15498062  0.24825045  0.32952040  1
  O2-  O117  1  0.14960304  0.27026887  0.64107898  1
  O2-  O118  1  0.09757485  0.25694893  0.89765877  1
  O2-  O119  1  0.11647763  0.72957116  0.15036458  1
  O2-  O120  1  0.11710269  0.73872002  0.38813085  1
  O2-  O121  1  0.13805813  0.74458678  0.62339787  1
  O2-  O122  1  0.10672008  0.75381858  0.85121139  1
  O2-  O123  1  0.48913039  0.14582050  0.12306870  1
  O2-  O124  1  0.31418062  0.32886831  0.38468022  1
  O2-  O125  1  0.40082697  0.26213925  0.62187144  1
  O2-  O126  1  0.49467131  0.33379505  0.88118719  1
  O2-  O127  1  0.29939178  0.74125170  0.12188040  1
  O2-  O128  1  0.33584986  0.74946527  0.38433329  1
  O2-  O129  1  0.34584315  0.76080666  0.64215367  1
  O2-  O130  1  0.38093493  0.76947253  0.84324881  1
  O2-  O131  1  0.61548069  0.26291383  0.13766935  1
  O2-  O132  1  0.61551917  0.25561188  0.37779968  1
  O2-  O133  1  0.65651820  0.24907220  0.59888677  1
  O2-  O134  1  0.64668867  0.23852390  0.86729376  1
  O2-  O135  1  0.63189725  0.73454426  0.11487474  1
  O2-  O136  1  0.65154738  0.72455491  0.37426857  1
  O2-  O137  1  0.63949410  0.74792912  0.64852842  1
  O2-  O138  1  0.60644569  0.75186153  0.85301881  1
  O2-  O139  1  0.90632960  0.23178400  0.13918212  1
  O2-  O140  1  0.84101268  0.24411986  0.43107378  1
  O2-  O141  1  0.85354035  0.23731573  0.61862631  1
  O2-  O142  1  0.82015056  0.20187512  0.86042411  1
  O2-  O143  1  0.91654950  0.74798062  0.13038032  1
  O2-  O144  1  0.88173460  0.74368125  0.33553782  1
  O2-  O145  1  0.88565034  0.74196865  0.62169939  1
  O2-  O146  1  0.91829872  0.75317245  0.92866488  1
  O2-  O147  1  0.10621967  0.13132310  0.01520266  1
  O2-  O148  1  0.09360688  0.11687043  0.23130223  1
  O2-  O149  1  0.09735248  0.16238806  0.52092293  1
  O2-  O150  1  0.10530790  0.13934572  0.75400446  1
  O2-  O151  1  0.16772379  0.64980494  0.00094662  1
  O2-  O152  1  0.18144067  0.61617355  0.27598837  1
  O2-  O153  1  0.17849217  0.61439310  0.50310553  1
  O2-  O154  1  0.15141831  0.61881443  0.74462331  1
  O2-  O155  1  0.42052235  0.18369870  -0.09941074  1
  O2-  O156  1  0.39860189  0.18511471  0.29873399  1
  O2-  O157  1  0.41024930  0.14799204  0.48651786  1
  O2-  O158  1  0.42623881  0.12836821  0.72937582  1
  O2-  O159  1  0.38727768  0.65057970  -0.01120179  1
  O2-  O160  1  0.39031390  0.64545735  0.25246454  1
  O2-  O161  1  0.40146912  0.66008361  0.51650926  1
  O2-  O162  1  0.33120658  0.62927599  0.74893983  1
  O2-  O163  1  0.60777300  0.14172200  0.00214339  1
  O2-  O164  1  0.59595730  0.13047120  0.25670841  1
  O2-  O165  1  0.59118064  0.12788288  0.49240188  1
  O2-  O166  1  0.60202333  0.14632439  0.72351769  1
  O2-  O167  1  0.58360919  0.62839411  -0.01410204  1
  O2-  O168  1  0.59977402  0.61922668  0.24387743  1
  O2-  O169  1  0.58084874  0.62774966  0.50363717  1
  O2-  O170  1  0.66090835  0.61026101  0.76585088  1
  O2-  O171  1  0.98478096  0.11687695  -0.10175379  1
  O2-  O172  1  0.92121424  0.13740061  0.30274570  1
  O2-  O173  1  0.92377577  0.10811992  0.50302941  1
  O2-  O174  1  0.93679141  0.10264653  0.71546557  1
  O2-  O175  1  0.81784379  0.61891192  0.01580256  1
  O2-  O176  1  0.83119524  0.61584415  0.24102073  1
  O2-  O177  1  0.83293015  0.64034747  0.47809875  1
  O2-  O178  1  0.85475386  0.65110583  0.79859872  1
  O2-  O179  1  0.07862429  0.38857725  0.00059195  1
  O2-  O180  1  0.00888311  0.37386970  0.22968982  1
  O2-  O181  1  0.07679288  0.33430321  0.44578311  1
  O2-  O182  1  0.09073046  0.38672959  0.77860863  1
  O2-  O183  1  0.12706841  0.85671233  -0.00904308  1
  O2-  O184  1  0.15588220  0.86436113  0.27555467  1
  O2-  O185  1  0.19348646  0.86992784  0.51862651  1
  O2-  O186  1  0.16384590  0.87896795  0.74526992  1
  O2-  O187  1  0.39407931  0.39514176  0.00257347  1
  O2-  O188  1  0.42159150  0.31604471  0.14995636  1
  O2-  O189  1  0.41885909  0.39119056  0.50854947  1
  O2-  O190  1  0.41146023  0.37245829  0.74811222  1
  O2-  O191  1  0.39499062  0.86031318  -0.01128335  1
  O2-  O192  1  0.35768256  0.85711208  0.25060768  1
  O2-  O193  1  0.38839687  0.85678213  0.50210646  1
  O2-  O194  1  0.35030436  0.90221907  0.75068161  1
  O2-  O195  1  0.61970143  0.34830795  0.00240506  1
  O2-  O196  1  0.61518073  0.38424315  0.25640462  1
  O2-  O197  1  0.59440091  0.38252042  0.49194675  1
  O2-  O198  1  0.62578205  0.35195952  0.74446331  1
  O2-  O199  1  0.61157734  0.87370132  -0.00803815  1
  O2-  O200  1  0.64714584  0.85467161  0.23787758  1
  O2-  O201  1  0.63197522  0.86109443  0.51223847  1
  O2-  O202  1  0.66950701  0.88641665  0.75909746  1
  O2-  O203  1  0.91657845  0.31271861  -0.05174271  1
  O2-  O204  1  0.85340839  0.33207226  0.28119097  1
  O2-  O205  1  0.91111259  0.38471528  0.51172091  1
  O2-  O206  1  0.86476203  0.35672592  0.74420917  1
  O2-  O207  1  0.86089649  0.89345403  0.02130621  1
  O2-  O208  1  0.81406927  0.86048256  0.23668131  1
  O2-  O209  1  0.84755024  0.84482783  0.47879640  1
  O2-  O210  1  0.84994876  0.82963247  0.78100228  1
  O2-  O211  1  -0.00553035  -0.10102390  -0.13317758  1
  O2-  O212  1  -0.01373289  -0.11637932  0.33298466  1
  O2-  O213  1  0.02351344  -0.11807668  0.52238579  1
  O2-  O214  1  0.00625305  -0.14242735  0.68040182  1
  O2-  O215  1  0.01899557  0.61782177  -0.10037171  1
  O2-  O216  1  0.00191940  0.62030748  0.32812209  1
  O2-  O217  1  0.01431618  0.61484422  0.51208414  1
  O2-  O218  1  -0.00382822  0.62603913  0.67764016  1
  O2-  O219  1  0.24108582  0.15428936  -0.11343320  1
  O2-  O220  1  0.27740652  0.15835825  0.15902131  1
  O2-  O221  1  0.25606338  0.15580311  0.55268262  1
  O2-  O222  1  0.26981602  0.12208718  0.70906793  1
  O2-  O223  1  0.26370604  0.34919991  -0.11347738  1
  O2-  O224  1  0.19123893  0.39761241  0.25543711  1
  O2-  O225  1  0.25190319  0.38411566  0.56414845  1
  O2-  O226  1  0.26271583  0.42330493  0.72211680  1
  O2-  O227  1  0.48867254  -0.14998876  0.13864243  1
  O2-  O228  1  0.50500590  -0.17669439  0.37019176  1
  O2-  O229  1  0.47157475  -0.01215820  0.36706763  1
  O2-  O230  1  0.50311001  -0.14036932  0.64376222  1
  O2-  O231  1  0.46619991  0.52671455  0.12067594  1
  O2-  O232  1  0.37614487  0.43721877  0.25749178  1
  O2-  O233  1  0.48623469  0.52380815  0.37825254  1
  O2-  O234  1  0.49517413  0.66479115  0.75089396  1
  O2-  O235  1  0.74274920  0.13791809  0.11606086  1
  O2-  O236  1  0.75964448  0.14971210  0.28744592  1
  O2-  O237  1  0.75774698  0.09973081  0.52609613  1
  O2-  O238  1  0.76137667  0.10456576  0.69774907  1
  O2-  O239  1  0.77913583  0.33677207  0.08329850  1
  O2-  O240  1  0.76371028  0.44643763  0.19452516  1
  O2-  O241  1  0.74983791  0.39645589  0.50354243  1
  O2-  O242  1  0.74685615  0.38421751  0.88744483  1
