# generated using pymatgen
data_Gd19Ta56(WO20)8
_symmetry_space_group_name_H-M   'P 1'
_cell_length_a   15.60867232
_cell_length_b   15.51044892
_cell_length_c   15.29285975
_cell_angle_alpha   89.95247750
_cell_angle_beta   90.33884999
_cell_angle_gamma   90.22193606
_symmetry_Int_Tables_number   1
_chemical_formula_structural   Gd19Ta56(WO20)8
_chemical_formula_sum   'Gd19 Ta56 W8 O160'
_cell_volume   3702.26961064
_cell_formula_units_Z   1
loop_
 _symmetry_equiv_pos_site_id
 _symmetry_equiv_pos_as_xyz
  1  'x, y, z'
loop_
 _atom_type_symbol
 _atom_type_oxidation_number
  Gd3+  3.0
  Ta5+  5.0
  W6+  6.0
  O2-  -2.0
loop_
 _atom_site_type_symbol
 _atom_site_label
 _atom_site_symmetry_multiplicity
 _atom_site_fract_x
 _atom_site_fract_y
 _atom_site_fract_z
 _atom_site_occupancy
  Gd3+  Gd0  1  0.01751363  0.73558778  0.72825309  1
  Gd3+  Gd1  1  -0.03122775  0.74606672  -0.00680791  1
  Gd3+  Gd2  1  -0.01545853  0.24818353  0.76721231  1
  Gd3+  Gd3  1  0.26863510  0.24885407  0.73197090  1
  Gd3+  Gd4  1  -0.01174587  0.74582577  0.48634932  1
  Gd3+  Gd5  1  0.26104647  0.75318307  0.49006724  1
  Gd3+  Gd6  1  0.25882890  0.75676217  0.75519886  1
  Gd3+  Gd7  1  0.46904178  0.25441649  0.49585056  1
  Gd3+  Gd8  1  0.48823511  0.25801836  0.25049458  1
  Gd3+  Gd9  1  0.73723619  0.74435870  -0.02025808  1
  Gd3+  Gd10  1  0.74684762  0.28229152  0.24675829  1
  Gd3+  Gd11  1  0.26450462  0.74253010  0.25066422  1
  Gd3+  Gd12  1  0.01217383  0.24298075  0.01865160  1
  Gd3+  Gd13  1  0.24268253  0.75074936  0.00762519  1
  Gd3+  Gd14  1  0.73225590  0.74022952  0.50918073  1
  Gd3+  Gd15  1  -0.02773746  0.26880150  0.26769578  1
  Gd3+  Gd16  1  0.26036287  0.25010423  -0.00729935  1
  Gd3+  Gd17  1  0.74854628  0.21998250  0.74938759  1
  Gd3+  Gd18  1  0.73017390  0.72845657  0.26253932  1
  Ta5+  Ta19  1  0.37547917  0.89147201  0.37253862  1
  Ta5+  Ta20  1  0.33530903  0.13107372  0.36245426  1
  Ta5+  Ta21  1  0.11842541  0.38019629  0.62814674  1
  Ta5+  Ta22  1  0.62507235  0.87035421  0.12231596  1
  Ta5+  Ta23  1  0.38635996  0.62370757  0.88198517  1
  Ta5+  Ta24  1  0.11929356  0.88259714  0.13439437  1
  Ta5+  Ta25  1  0.88129645  0.10695572  0.13666552  1
  Ta5+  Ta26  1  0.86308804  0.60166138  0.64704769  1
  Ta5+  Ta27  1  0.92334828  0.86764829  0.18926158  1
  Ta5+  Ta28  1  0.86116002  0.59812099  0.40344514  1
  Ta5+  Ta29  1  0.62931304  0.88055899  0.63042486  1
  Ta5+  Ta30  1  0.36593275  0.39120131  0.62045864  1
  Ta5+  Ta31  1  0.38184967  0.11583490  0.61385998  1
  Ta5+  Ta32  1  0.38764437  0.87462740  0.88343080  1
  Ta5+  Ta33  1  0.62275359  0.61640267  0.64080234  1
  Ta5+  Ta34  1  0.90179565  0.90754256  0.61579385  1
  Ta5+  Ta35  1  0.67779492  0.37238715  0.62360042  1
  Ta5+  Ta36  1  0.88892595  0.60257674  0.84840780  1
  Ta5+  Ta37  1  0.87483888  0.15184824  0.61388879  1
  Ta5+  Ta38  1  0.35602906  0.38967287  0.13543646  1
  Ta5+  Ta39  1  0.11813010  0.61442075  0.13435637  1
  Ta5+  Ta40  1  0.61810320  0.12816321  0.38472163  1
  Ta5+  Ta41  1  0.67616213  0.35720637  0.87764152  1
  Ta5+  Ta42  1  0.82546471  0.12375691  0.38696215  1
  Ta5+  Ta43  1  0.81330169  0.36581412  0.44625250  1
  Ta5+  Ta44  1  0.61519091  0.38806145  0.42282725  1
  Ta5+  Ta45  1  0.38213512  0.63383650  0.62568543  1
  Ta5+  Ta46  1  0.13954108  0.36643646  0.85078700  1
  Ta5+  Ta47  1  0.61710337  0.88065271  0.37681347  1
  Ta5+  Ta48  1  0.61476548  0.11497929  0.87012390  1
  Ta5+  Ta49  1  0.86591281  0.87064796  0.84564943  1
  Ta5+  Ta50  1  0.10660974  0.61617788  0.35597100  1
  Ta5+  Ta51  1  0.64449261  0.11769811  0.11649747  1
  Ta5+  Ta52  1  0.58994069  0.58787681  0.88474529  1
  Ta5+  Ta53  1  0.37547342  0.10671116  0.86646170  1
  Ta5+  Ta54  1  0.91894789  0.61391871  0.16978047  1
  Ta5+  Ta55  1  0.14470281  0.10607549  0.81187004  1
  Ta5+  Ta56  1  0.42380830  0.63320965  0.37622178  1
  Ta5+  Ta57  1  0.65667528  0.11757963  0.59907154  1
  Ta5+  Ta58  1  0.12196741  0.37393868  0.40113933  1
  Ta5+  Ta59  1  0.12039408  0.87649986  0.35739434  1
  Ta5+  Ta60  1  0.84491021  0.36197007  0.89421718  1
  Ta5+  Ta61  1  0.13286567  0.61146431  0.87866263  1
  Ta5+  Ta62  1  0.14174404  0.12807278  0.17195642  1
  Ta5+  Ta63  1  0.11332793  0.12381189  0.61188230  1
  Ta5+  Ta64  1  0.15389241  0.37990759  0.18219544  1
  Ta5+  Ta65  1  0.37906233  0.42221601  0.87421369  1
  Ta5+  Ta66  1  0.39992132  0.62694752  0.12294838  1
  Ta5+  Ta67  1  0.62375562  0.87602968  0.86654168  1
  Ta5+  Ta68  1  0.39723521  0.88141439  0.12173282  1
  Ta5+  Ta69  1  0.14542667  0.62322019  0.60752450  1
  Ta5+  Ta70  1  0.64645708  0.35196721  0.07820821  1
  Ta5+  Ta71  1  0.11844580  0.12679152  0.37995034  1
  Ta5+  Ta72  1  0.11146497  0.88495316  0.60878567  1
  Ta5+  Ta73  1  0.85118668  0.35751229  0.63184850  1
  Ta5+  Ta74  1  0.86284762  0.39002983  0.09673841  1
  W6+  W75  1  0.39403647  0.13066304  0.11848474  1
  W6+  W76  1  0.34968390  0.39425430  0.36323367  1
  W6+  W77  1  0.38135478  0.88712617  0.62451866  1
  W6+  W78  1  0.58697344  0.62062614  0.38236478  1
  W6+  W79  1  0.64950545  0.60051862  0.12003373  1
  W6+  W80  1  0.89942384  0.10900676  0.88691442  1
  W6+  W81  1  0.14220468  0.88611840  0.86951324  1
  W6+  W82  1  0.83835957  0.87246422  0.39053088  1
  O2-  O83  1  0.12610449  0.00926981  0.14945508  1
  O2-  O84  1  0.11941437  0.00427429  0.36499135  1
  O2-  O85  1  0.13789383  0.00178662  0.59283281  1
  O2-  O86  1  0.11754416  0.02086961  0.88951264  1
  O2-  O87  1  0.12175852  0.48689389  0.13427371  1
  O2-  O88  1  0.12277637  0.49811341  0.38237950  1
  O2-  O89  1  0.12704384  0.50504331  0.61905241  1
  O2-  O90  1  0.13735587  0.49081575  0.86720671  1
  O2-  O91  1  0.41418911  -0.00381045  0.11159120  1
  O2-  O92  1  0.33251915  0.00649488  0.36026158  1
  O2-  O93  1  0.43295202  0.01171669  0.62977326  1
  O2-  O94  1  0.34283970  -0.00930133  0.88157271  1
  O2-  O95  1  0.34983795  0.51646376  0.13289550  1
  O2-  O96  1  0.37757150  0.52529697  0.36878453  1
  O2-  O97  1  0.35474800  0.51513014  0.62653804  1
  O2-  O98  1  0.30689569  0.52012102  0.87128220  1
  O2-  O99  1  0.62238605  -0.00884126  0.13115378  1
  O2-  O100  1  0.61748101  0.00769280  0.36533836  1
  O2-  O101  1  0.67712599  -0.00759752  0.61915661  1
  O2-  O102  1  0.65380444  0.00565465  0.88579211  1
  O2-  O103  1  0.65181152  0.46988640  0.09464926  1
  O2-  O104  1  0.56130468  0.48524723  0.38538949  1
  O2-  O105  1  0.64626356  0.50005800  0.64158071  1
  O2-  O106  1  0.63729664  0.47490205  0.88221880  1
  O2-  O107  1  0.91101478  -0.00894124  0.16888388  1
  O2-  O108  1  0.83237637  0.00739997  0.37921411  1
  O2-  O109  1  0.88573851  0.02411196  0.61906287  1
  O2-  O110  1  0.91400304  -0.02296534  0.85718512  1
  O2-  O111  1  0.86908850  0.51493236  0.11415788  1
  O2-  O112  1  0.84392055  0.48129999  0.39160395  1
  O2-  O113  1  0.85262194  0.48247170  0.65245144  1
  O2-  O114  1  0.86571508  0.48846791  0.87356564  1
  O2-  O115  1  0.09429310  0.26750125  0.16076447  1
  O2-  O116  1  0.08419231  0.25341498  0.37162823  1
  O2-  O117  1  0.13498173  0.24891409  0.63162415  1
  O2-  O118  1  0.12757548  0.23802448  0.81598429  1
  O2-  O119  1  0.14156182  0.74290141  0.13415205  1
  O2-  O120  1  0.10989508  0.74629157  0.35224581  1
  O2-  O121  1  0.10184179  0.74883959  0.59852884  1
  O2-  O122  1  0.16332704  0.73998497  0.87695530  1
  O2-  O123  1  0.37895940  0.26684744  0.12865845  1
  O2-  O124  1  0.38184712  0.25479380  0.36779237  1
  O2-  O125  1  0.36752796  0.25335653  0.61395139  1
  O2-  O126  1  0.26645903  0.34239504  0.86490843  1
  O2-  O127  1  0.33861029  0.74565218  0.12394498  1
  O2-  O128  1  0.35317749  0.75747308  0.37146459  1
  O2-  O129  1  0.32744399  0.75500314  0.62318769  1
  O2-  O130  1  0.34079288  0.75274540  0.88664379  1
  O2-  O131  1  0.70334388  0.23257373  0.10760582  1
  O2-  O132  1  0.57500757  0.26030504  0.38072389  1
  O2-  O133  1  0.67265993  0.24148148  0.60897557  1
  O2-  O134  1  0.68642095  0.21847178  0.88370071  1
  O2-  O135  1  0.68246862  0.74667920  0.12021281  1
  O2-  O136  1  0.64794308  0.75284744  0.38403273  1
  O2-  O137  1  0.66105911  0.75616002  0.64188143  1
  O2-  O138  1  0.63578626  0.75705947  0.87580436  1
  O2-  O139  1  0.90335379  0.24004000  0.12244540  1
  O2-  O140  1  0.84753359  0.26745375  0.37004662  1
  O2-  O141  1  0.94548584  0.25438478  0.62689253  1
  O2-  O142  1  0.90236160  0.24490910  0.91072942  1
  O2-  O143  1  0.90635693  0.73765418  0.14674619  1
  O2-  O144  1  0.85099557  0.73156559  0.40907747  1
  O2-  O145  1  0.92309952  0.71601937  0.61398740  1
  O2-  O146  1  0.92986766  0.75931161  0.83923788  1
  O2-  O147  1  0.16156157  0.16191596  0.05345897  1
  O2-  O148  1  0.05066173  0.13434760  0.25916276  1
  O2-  O149  1  0.07038567  0.12868502  0.49362826  1
  O2-  O150  1  0.04986910  0.10755970  0.72468521  1
  O2-  O151  1  0.16429488  0.61673801  0.00453010  1
  O2-  O152  1  0.18762016  0.61544363  0.25180226  1
  O2-  O153  1  0.15805778  0.63653214  0.47655485  1
  O2-  O154  1  0.14586834  0.63897667  0.74538521  1
  O2-  O155  1  0.37948163  0.15905498  -0.02127355  1
  O2-  O156  1  0.40404264  0.13008667  0.25795494  1
  O2-  O157  1  0.38641119  0.12382056  0.48342581  1
  O2-  O158  1  0.37658893  0.14707450  0.74539706  1
  O2-  O159  1  0.34633129  0.63156188  0.00217373  1
  O2-  O160  1  0.40184401  0.65635955  0.24708419  1
  O2-  O161  1  0.38218927  0.65209000  0.49883876  1
  O2-  O162  1  0.36361560  0.64449596  0.75809024  1
  O2-  O163  1  0.59472069  0.12548927  0.00538027  1
  O2-  O164  1  0.58605492  0.14279698  0.22318720  1
  O2-  O165  1  0.56837760  0.13398562  0.50402132  1
  O2-  O166  1  0.63839342  0.12012033  0.73846120  1
  O2-  O167  1  0.66350989  0.61746531  -0.02075926  1
  O2-  O168  1  0.62752181  0.62415369  0.24944466  1
  O2-  O169  1  0.62920178  0.63258900  0.51675259  1
  O2-  O170  1  0.61737134  0.61995682  0.77261165  1
  O2-  O171  1  0.94499601  0.10389727  0.02933841  1
  O2-  O172  1  0.87746965  0.14359163  0.26206783  1
  O2-  O173  1  0.89127942  0.14819510  0.48734716  1
  O2-  O174  1  0.87211501  0.14351568  0.75067995  1
  O2-  O175  1  0.85458785  0.65484143  -0.04337387  1
  O2-  O176  1  0.84496918  0.61991132  0.27258569  1
  O2-  O177  1  0.81825892  0.60760785  0.52482547  1
  O2-  O178  1  0.96143958  0.59840122  0.73822117  1
  O2-  O179  1  0.12083407  0.32577280  -0.03563950  1
  O2-  O180  1  0.06941364  0.38593892  0.27744625  1
  O2-  O181  1  0.07277838  0.37136292  0.51359826  1
  O2-  O182  1  0.06243575  0.38073797  0.74469768  1
  O2-  O183  1  0.16598335  0.87906490  0.02060911  1
  O2-  O184  1  0.18922740  0.87064039  0.24425858  1
  O2-  O185  1  0.15674667  0.86247738  0.47801403  1
  O2-  O186  1  0.16744520  0.86649269  0.72371415  1
  O2-  O187  1  0.38348370  0.39100555  -0.00420639  1
  O2-  O188  1  0.42521077  0.39171044  0.24105199  1
  O2-  O189  1  0.39696366  0.38732059  0.50102822  1
  O2-  O190  1  0.39297837  0.38090479  0.75347121  1
  O2-  O191  1  0.34423844  0.86650701  0.00746122  1
  O2-  O192  1  0.36412207  0.87154135  0.24037547  1
  O2-  O193  1  0.34436257  0.88145829  0.49166853  1
  O2-  O194  1  0.37590181  0.86323335  0.76187338  1
  O2-  O195  1  0.58589845  0.32866432  -0.02375505  1
  O2-  O196  1  0.60288173  0.32935704  0.19323304  1
  O2-  O197  1  0.57066049  0.35418123  0.53657169  1
  O2-  O198  1  0.66788603  0.35048813  0.75243751  1
  O2-  O199  1  0.65961107  0.87197710  0.00288240  1
  O2-  O200  1  0.63998893  0.85629152  0.24901004  1
  O2-  O201  1  0.62045372  0.87100643  0.50309473  1
  O2-  O202  1  0.58470236  0.89033143  0.74803276  1
  O2-  O203  1  0.94592645  0.37788522  0.00811060  1
  O2-  O204  1  0.86751935  0.36922514  0.21929628  1
  O2-  O205  1  0.90869551  0.37578627  0.51682824  1
  O2-  O206  1  0.86265919  0.33833924  0.76604745  1
  O2-  O207  1  0.85632267  0.83507014  -0.02978723  1
  O2-  O208  1  0.82020960  0.84943887  0.24947032  1
  O2-  O209  1  0.82123435  0.86293989  0.53318410  1
  O2-  O210  1  0.84891891  0.85915621  0.71582698  1
  O2-  O211  1  0.00575239  -0.13687515  0.08419597  1
  O2-  O212  1  0.02937836  -0.12701369  0.25228924  1
  O2-  O213  1  -0.00164819  -0.11416914  0.53098564  1
  O2-  O214  1  0.00921988  -0.11839357  0.68956994  1
  O2-  O215  1  0.00860578  0.62337503  0.07425464  1
  O2-  O216  1  0.02619743  0.61086746  0.23916035  1
  O2-  O217  1  -0.01363742  0.61602283  0.40818199  1
  O2-  O218  1  0.01461521  0.62356721  0.89421667  1
  O2-  O219  1  0.25392364  0.15442459  -0.13163140  1
  O2-  O220  1  0.22458157  0.13938986  0.26237519  1
  O2-  O221  1  0.22795292  0.15337917  0.42617298  1
  O2-  O222  1  0.21427782  0.11092122  0.70163518  1
  O2-  O223  1  0.23879550  0.36162840  0.08672850  1
  O2-  O224  1  0.25926488  0.39153527  0.24585927  1
  O2-  O225  1  0.23495400  0.35912922  0.42693360  1
  O2-  O226  1  0.24321538  0.37747625  0.64641884  1
  O2-  O227  1  0.50248831  -0.11179644  -0.08957866  1
  O2-  O228  1  0.50904314  -0.16712203  0.11121177  1
  O2-  O229  1  0.49460967  -0.11996890  0.36974063  1
  O2-  O230  1  0.49635582  0.09638269  0.85534483  1
  O2-  O231  1  0.49490634  0.66977164  -0.08911097  1
  O2-  O232  1  0.51195006  0.61744764  0.09768232  1
  O2-  O233  1  0.50050495  0.63143775  0.63892941  1
  O2-  O234  1  0.46962032  0.51517495  0.87393088  1
  O2-  O235  1  0.76692725  0.08138983  0.11203636  1
  O2-  O236  1  0.72053012  0.15946974  0.31686160  1
  O2-  O237  1  0.71750288  0.12111601  0.47133389  1
  O2-  O238  1  0.74658343  -0.12184153  0.84386963  1
  O2-  O239  1  0.77060102  0.35633713  0.01267796  1
  O2-  O240  1  0.71147896  0.37499144  0.34545357  1
  O2-  O241  1  0.71052868  0.42946775  0.49941943  1
  O2-  O242  1  0.80597296  0.63632420  0.76104497  1
