# generated using pymatgen
data_Gd19Ta56(WO20)8
_symmetry_space_group_name_H-M   'P 1'
_cell_length_a   15.55814237
_cell_length_b   15.49639255
_cell_length_c   15.16206094
_cell_angle_alpha   90.18189199
_cell_angle_beta   90.39391652
_cell_angle_gamma   90.07283321
_symmetry_Int_Tables_number   1
_chemical_formula_structural   Gd19Ta56(WO20)8
_chemical_formula_sum   'Gd19 Ta56 W8 O160'
_cell_volume   3655.39044953
_cell_formula_units_Z   1
loop_
 _symmetry_equiv_pos_site_id
 _symmetry_equiv_pos_as_xyz
  1  'x, y, z'
loop_
 _atom_type_symbol
 _atom_type_oxidation_number
  Gd3+  3.0
  Ta5+  5.0
  W6+  6.0
  O2-  -2.0
loop_
 _atom_site_type_symbol
 _atom_site_label
 _atom_site_symmetry_multiplicity
 _atom_site_fract_x
 _atom_site_fract_y
 _atom_site_fract_z
 _atom_site_occupancy
  Gd3+  Gd0  1  0.73384573  0.25691359  0.25056437  1
  Gd3+  Gd1  1  0.50770231  0.26751430  0.01059472  1
  Gd3+  Gd2  1  0.53015402  0.26532153  0.50493704  1
  Gd3+  Gd3  1  0.74950308  0.74829052  -0.02925210  1
  Gd3+  Gd4  1  0.24573983  0.74944534  0.47050729  1
  Gd3+  Gd5  1  0.51328781  0.77590012  0.75352576  1
  Gd3+  Gd6  1  0.23415458  0.74131348  -0.02924221  1
  Gd3+  Gd7  1  -0.04033953  0.24756156  0.49000940  1
  Gd3+  Gd8  1  0.49995329  0.76020631  0.49867663  1
  Gd3+  Gd9  1  0.78404584  0.73909466  0.75264878  1
  Gd3+  Gd10  1  0.50141676  0.74125843  0.24800345  1
  Gd3+  Gd11  1  0.01279048  0.76930077  0.49489446  1
  Gd3+  Gd12  1  0.76936785  0.73548152  0.50302254  1
  Gd3+  Gd13  1  0.00425781  0.74557513  0.75097083  1
  Gd3+  Gd14  1  -0.01575248  0.24583327  0.03874979  1
  Gd3+  Gd15  1  0.04728766  0.73188729  0.25282006  1
  Gd3+  Gd16  1  -0.01118324  0.22861362  0.76940506  1
  Gd3+  Gd17  1  0.24475644  0.26270272  0.74249630  1
  Gd3+  Gd18  1  -0.02619770  0.74277907  -0.00253950  1
  Ta5+  Ta19  1  0.38248142  0.13433402  0.63050964  1
  Ta5+  Ta20  1  0.39485737  0.12606337  0.87227410  1
  Ta5+  Ta21  1  0.83444269  0.13584194  0.89929952  1
  Ta5+  Ta22  1  0.83094678  0.34407672  0.89936888  1
  Ta5+  Ta23  1  0.60377227  0.62653103  0.09813139  1
  Ta5+  Ta24  1  0.12972853  0.35514831  0.89420291  1
  Ta5+  Ta25  1  0.36937549  0.88437915  0.36568248  1
  Ta5+  Ta26  1  0.78212954  0.87430150  0.13828092  1
  Ta5+  Ta27  1  0.83087199  0.62558080  0.13892371  1
  Ta5+  Ta28  1  0.65220257  0.13092413  0.38101005  1
  Ta5+  Ta29  1  0.39241241  0.89423440  0.62713464  1
  Ta5+  Ta30  1  0.15298823  0.15922475  0.37359361  1
  Ta5+  Ta31  1  0.37476489  0.63463028  0.62342704  1
  Ta5+  Ta32  1  0.81654512  0.12097888  0.12096105  1
  Ta5+  Ta33  1  0.14260362  0.59236798  0.37204804  1
  Ta5+  Ta34  1  0.16257646  0.34633054  0.13448144  1
  Ta5+  Ta35  1  0.60968837  0.61109962  0.62430906  1
  Ta5+  Ta36  1  0.58366299  0.89017159  0.10665998  1
  Ta5+  Ta37  1  0.37670550  0.38296405  0.87698013  1
  Ta5+  Ta38  1  0.63626430  0.89803700  0.61631395  1
  Ta5+  Ta39  1  0.66160784  0.39434790  0.11914217  1
  Ta5+  Ta40  1  0.67025824  0.14726912  0.63608666  1
  Ta5+  Ta41  1  0.66895625  0.37974456  0.64168046  1
  Ta5+  Ta42  1  0.64332977  0.13167956  0.11578494  1
  Ta5+  Ta43  1  0.09370920  0.92823890  0.88631148  1
  Ta5+  Ta44  1  0.64649437  0.60516683  0.36081234  1
  Ta5+  Ta45  1  0.82077741  0.38289865  0.38868093  1
  Ta5+  Ta46  1  0.34157785  0.38979019  0.61540863  1
  Ta5+  Ta47  1  0.82242098  0.12379061  0.38188339  1
  Ta5+  Ta48  1  0.83314277  0.33454142  0.64505478  1
  Ta5+  Ta49  1  0.14926109  0.61380828  0.63319323  1
  Ta5+  Ta50  1  0.32578376  0.38280190  0.12257731  1
  Ta5+  Ta51  1  0.40548953  0.88166732  0.91343888  1
  Ta5+  Ta52  1  0.66945422  0.15314923  0.88920039  1
  Ta5+  Ta53  1  0.86707391  0.88168216  0.35786137  1
  Ta5+  Ta54  1  0.63736767  0.88121164  0.36052178  1
  Ta5+  Ta55  1  0.12111259  0.34716147  0.37118736  1
  Ta5+  Ta56  1  0.37956261  0.88843332  0.12671195  1
  Ta5+  Ta57  1  0.64421236  0.90438028  0.87142004  1
  Ta5+  Ta58  1  0.08589502  0.37844977  0.62514065  1
  Ta5+  Ta59  1  0.36617672  0.63062424  0.11641329  1
  Ta5+  Ta60  1  0.66715295  0.38114313  0.89429034  1
  Ta5+  Ta61  1  0.89239167  0.60277963  0.36420101  1
  Ta5+  Ta62  1  0.09036833  0.59492130  0.86888472  1
  Ta5+  Ta63  1  0.13658636  0.14296039  0.61269006  1
  Ta5+  Ta64  1  0.83518575  0.12608598  0.63966632  1
  Ta5+  Ta65  1  0.89141998  0.90872734  0.86519621  1
  Ta5+  Ta66  1  0.61708125  0.61901702  0.84136830  1
  Ta5+  Ta67  1  0.18868982  0.12288246  0.12855846  1
  Ta5+  Ta68  1  0.40185588  0.62258634  0.86881149  1
  Ta5+  Ta69  1  0.87815659  0.88112736  0.61881306  1
  Ta5+  Ta70  1  0.35681208  0.13807059  0.12131092  1
  Ta5+  Ta71  1  0.15739674  0.11533844  0.88791406  1
  Ta5+  Ta72  1  0.87645464  0.54361840  0.90901498  1
  Ta5+  Ta73  1  0.83289633  0.38078845  0.12550665  1
  Ta5+  Ta74  1  0.64136904  0.39438880  0.37970347  1
  W6+  W75  1  0.38553401  0.61244438  0.36969581  1
  W6+  W76  1  0.12815876  0.92968635  0.35474161  1
  W6+  W77  1  0.41470173  0.13313700  0.37134552  1
  W6+  W78  1  0.38001712  0.37152049  0.37161605  1
  W6+  W79  1  0.06516908  0.92506901  0.15712540  1
  W6+  W80  1  0.07844015  0.95994762  0.69673697  1
  W6+  W81  1  0.16608206  0.57496299  0.11310369  1
  W6+  W82  1  0.89595283  0.50576354  0.72595639  1
  O2-  O83  1  0.16017801  0.00529577  0.12862638  1
  O2-  O84  1  0.16579769  0.04088058  0.40193797  1
  O2-  O85  1  0.06407981  0.05234992  0.59403511  1
  O2-  O86  1  0.07479581  0.04499844  0.94407345  1
  O2-  O87  1  0.12235830  0.46066493  0.14786323  1
  O2-  O88  1  0.14623639  0.47003332  0.36803198  1
  O2-  O89  1  0.12089253  0.49357876  0.64818396  1
  O2-  O90  1  0.11241480  0.47189323  0.87032316  1
  O2-  O91  1  0.35940247  0.00681801  0.11127162  1
  O2-  O92  1  0.39422124  -0.00086319  0.37970277  1
  O2-  O93  1  0.35899873  0.00824605  0.61136923  1
  O2-  O94  1  0.38050087  0.00052735  0.88687606  1
  O2-  O95  1  0.30428634  0.51785458  0.11714923  1
  O2-  O96  1  0.35705300  0.48562097  0.39558914  1
  O2-  O97  1  0.33956767  0.51373717  0.61076742  1
  O2-  O98  1  0.41942553  0.50235118  0.86493796  1
  O2-  O99  1  0.60489899  0.00723914  0.10963687  1
  O2-  O100  1  0.64783577  -0.00233839  0.36977879  1
  O2-  O101  1  0.66040233  0.01469190  0.61730146  1
  O2-  O102  1  0.64182328  0.02056512  0.88583438  1
  O2-  O103  1  0.66701263  0.52131808  0.11124331  1
  O2-  O104  1  0.57174372  0.51134790  0.38412920  1
  O2-  O105  1  0.60518016  0.49188103  0.63507375  1
  O2-  O106  1  0.61849939  0.50437057  0.86889900  1
  O2-  O107  1  0.78914285  -0.00830377  0.11651109  1
  O2-  O108  1  0.86201439  -0.00070038  0.37639398  1
  O2-  O109  1  0.85361545  -0.00078724  0.62986061  1
  O2-  O110  1  0.83773951  0.00901934  0.90635400  1
  O2-  O111  1  0.85178836  0.50756217  0.13864996  1
  O2-  O112  1  0.89351513  0.48822473  0.39808516  1
  O2-  O113  1  0.96709374  0.40071415  0.65682784  1
  O2-  O114  1  0.92722001  0.44476115  0.85298534  1
  O2-  O115  1  0.11458616  0.22412334  0.11472317  1
  O2-  O116  1  0.05030728  0.23705080  0.36667380  1
  O2-  O117  1  0.06757680  0.24649627  0.61522545  1
  O2-  O118  1  0.09527494  0.22452883  0.90242468  1
  O2-  O119  1  0.03051404  0.80506244  0.12114619  1
  O2-  O120  1  0.11724328  0.72420132  0.39977431  1
  O2-  O121  1  0.05827463  0.69223658  0.62271136  1
  O2-  O122  1  0.06851911  0.72055474  0.88697317  1
  O2-  O123  1  0.36198942  0.26317574  0.10025551  1
  O2-  O124  1  0.44575717  0.26511475  0.37632843  1
  O2-  O125  1  0.36552550  0.25658408  0.64395532  1
  O2-  O126  1  0.42245689  0.26566640  0.87475512  1
  O2-  O127  1  0.40150013  0.75230740  0.12963681  1
  O2-  O128  1  0.39867873  0.75364082  0.35538584  1
  O2-  O129  1  0.41576545  0.75787437  0.63948163  1
  O2-  O130  1  0.36441900  0.77030681  0.87263579  1
  O2-  O131  1  0.63843474  0.26286614  0.11884189  1
  O2-  O132  1  0.63420960  0.26354024  0.37173077  1
  O2-  O133  1  0.61568781  0.26676352  0.63456798  1
  O2-  O134  1  0.61336280  0.26899051  0.89745664  1
  O2-  O135  1  0.58240886  0.75060596  0.11535395  1
  O2-  O136  1  0.59343468  0.71732709  0.38178066  1
  O2-  O137  1  0.59656558  0.75289164  0.62333234  1
  O2-  O138  1  0.65785621  0.74725694  0.84244035  1
  O2-  O139  1  0.83561401  0.25016443  0.12754346  1
  O2-  O140  1  0.84372111  0.25226837  0.37226592  1
  O2-  O141  1  0.91382667  0.22878488  0.63588869  1
  O2-  O142  1  0.92148361  0.24032689  0.90258124  1
  O2-  O143  1  0.75397269  0.72719228  0.13388656  1
  O2-  O144  1  0.96418982  0.80778775  0.35311472  1
  O2-  O145  1  0.86742260  0.74189160  0.62660962  1
  O2-  O146  1  0.88101843  0.76470341  0.87777707  1
  O2-  O147  1  0.22030234  0.12756789  -0.00255700  1
  O2-  O148  1  0.18962239  0.14715929  0.25707059  1
  O2-  O149  1  0.17904386  0.18342861  0.50121347  1
  O2-  O150  1  0.12264846  0.15844520  0.75037806  1
  O2-  O151  1  0.16566044  0.60410288  -0.02663195  1
  O2-  O152  1  0.24915104  0.68291769  0.10999306  1
  O2-  O153  1  0.15123873  0.59244729  0.50536694  1
  O2-  O154  1  0.15952843  0.62425210  0.76464162  1
  O2-  O155  1  0.41574432  0.13988765  -0.00478166  1
  O2-  O156  1  0.38739483  0.14018621  0.23809773  1
  O2-  O157  1  0.43808446  0.14414202  0.52034439  1
  O2-  O158  1  0.43490655  0.11962002  0.74592960  1
  O2-  O159  1  0.34684778  0.63284151  -0.02148038  1
  O2-  O160  1  0.41034651  0.61568352  0.23376915  1
  O2-  O161  1  0.36398322  0.66563909  0.49743144  1
  O2-  O162  1  0.35557593  0.63306329  0.75232589  1
  O2-  O163  1  0.59241436  0.14601152  -0.00085212  1
  O2-  O164  1  0.63877649  0.13381624  0.24559820  1
  O2-  O165  1  0.62863695  0.14630481  0.50511654  1
  O2-  O166  1  0.66172915  0.14859322  0.76117127  1
  O2-  O167  1  0.64978279  0.63968714  -0.01908598  1
  O2-  O168  1  0.61482979  0.62450189  0.23936525  1
  O2-  O169  1  0.66882275  0.62353848  0.51279945  1
  O2-  O170  1  0.68826201  0.62613980  0.72706413  1
  O2-  O171  1  0.89626073  0.12478686  0.02158397  1
  O2-  O172  1  0.82685859  0.12204407  0.24681979  1
  O2-  O173  1  0.85757251  0.13399399  0.50666176  1
  O2-  O174  1  0.86100496  0.13438319  0.77134699  1
  O2-  O175  1  0.83837436  0.63293975  0.00886302  1
  O2-  O176  1  0.89969495  0.65656785  0.24161057  1
  O2-  O177  1  0.89671455  0.67230195  0.46601061  1
  O2-  O178  1  0.82919696  0.60158918  0.81099276  1
  O2-  O179  1  0.09541887  0.35575701  0.01325192  1
  O2-  O180  1  0.16961205  0.32415575  0.26051697  1
  O2-  O181  1  0.07009785  0.36740452  0.49926485  1
  O2-  O182  1  0.11037608  0.33553020  0.75813221  1
  O2-  O183  1  0.16169506  0.86567446  -0.03852334  1
  O2-  O184  1  0.13396893  0.84920810  0.25374351  1
  O2-  O185  1  0.09055435  0.88789587  0.46075492  1
  O2-  O186  1  0.09806365  0.85211566  0.78112224  1
  O2-  O187  1  0.38405867  0.39572897  0.00112799  1
  O2-  O188  1  0.35698089  0.37839989  0.24156902  1
  O2-  O189  1  0.41584002  0.36658691  0.51909983  1
  O2-  O190  1  0.35614050  0.38777828  0.74241536  1
  O2-  O191  1  0.32455255  0.85791866  0.01196760  1
  O2-  O192  1  0.33369484  0.87974527  0.24300427  1
  O2-  O193  1  0.37452266  0.84836083  0.50110228  1
  O2-  O194  1  0.40860824  0.88935770  0.75004012  1
  O2-  O195  1  0.59556944  0.39296457  0.00670455  1
  O2-  O196  1  0.64302691  0.39000222  0.24595249  1
  O2-  O197  1  0.63505255  0.37789710  0.50775117  1
  O2-  O198  1  0.66181912  0.37622863  0.76696276  1
  O2-  O199  1  0.66385049  0.86790716  0.00303101  1
  O2-  O200  1  0.66914661  0.87395326  0.21489649  1
  O2-  O201  1  0.51594687  0.86663129  0.36784082  1
  O2-  O202  1  0.61242157  0.89275030  0.74351382  1
  O2-  O203  1  0.89948880  0.36654276  0.01579646  1
  O2-  O204  1  0.83384506  0.37720046  0.25789705  1
  O2-  O205  1  0.85390184  0.35032548  0.51196233  1
  O2-  O206  1  0.84558412  0.32084762  0.77244448  1
  O2-  O207  1  0.84657786  0.83752840  0.03957765  1
  O2-  O208  1  0.86212807  0.87220900  0.22926752  1
  O2-  O209  1  0.87097161  0.85626692  0.49124486  1
  O2-  O210  1  0.88989751  0.85461905  0.74585772  1
  O2-  O211  1  -0.01403523  -0.11664117  -0.05379825  1
  O2-  O212  1  0.03803942  -0.02344742  0.27517876  1
  O2-  O213  1  0.00132260  -0.13170344  0.61702833  1
  O2-  O214  1  -0.01740276  -0.02476524  0.80645101  1
  O2-  O215  1  -0.01353145  0.58618901  -0.04511919  1
  O2-  O216  1  0.13627400  0.61511702  0.24240213  1
  O2-  O217  1  0.01475897  0.60364437  0.35795389  1
  O2-  O218  1  -0.00568060  0.59288172  0.77692396  1
  O2-  O219  1  0.28011725  0.15386962  -0.15868312  1
  O2-  O220  1  0.25065124  -0.12347385  0.39424583  1
  O2-  O221  1  0.25707335  0.13359422  0.65279510  1
  O2-  O222  1  0.16810062  0.00725156  0.81176551  1
  O2-  O223  1  0.25367559  0.34379052  -0.12092052  1
  O2-  O224  1  0.25582015  0.64225194  0.36627117  1
  O2-  O225  1  0.22285276  0.35509766  0.61401191  1
  O2-  O226  1  0.25198269  0.68355595  0.61687657  1
  O2-  O227  1  0.47810756  -0.10474789  0.02859626  1
  O2-  O228  1  0.49267094  -0.11613362  0.19450184  1
  O2-  O229  1  0.50956314  -0.09578786  0.59157130  1
  O2-  O230  1  0.52414254  -0.13970915  0.88034830  1
  O2-  O231  1  0.50946244  0.67157424  -0.10427203  1
  O2-  O232  1  0.48961953  0.59409500  0.07916799  1
  O2-  O233  1  0.49286192  0.61757929  0.57519057  1
  O2-  O234  1  0.53092636  0.62620917  0.74357225  1
  O2-  O235  1  0.76146525  -0.12774119  -0.14866030  1
  O2-  O236  1  0.75587676  -0.17534430  0.36618348  1
  O2-  O237  1  0.64750403  -0.14182574  0.48886376  1
  O2-  O238  1  0.74906950  -0.15120139  0.63571401  1
  O2-  O239  1  0.77533448  0.46587398  -0.07284239  1
  O2-  O240  1  0.76649360  0.64270992  0.36339758  1
  O2-  O241  1  0.73198617  0.48194103  0.38329631  1
  O2-  O242  1  0.78579134  0.45536265  0.65180901  1
