# generated using pymatgen
data_Gd19Ta56(WO20)8
_symmetry_space_group_name_H-M   'P 1'
_cell_length_a   15.58194876
_cell_length_b   15.41915810
_cell_length_c   15.26945457
_cell_angle_alpha   89.84015964
_cell_angle_beta   89.96859228
_cell_angle_gamma   89.96945382
_symmetry_Int_Tables_number   1
_chemical_formula_structural   Gd19Ta56(WO20)8
_chemical_formula_sum   'Gd19 Ta56 W8 O160'
_cell_volume   3668.63192628
_cell_formula_units_Z   1
loop_
 _symmetry_equiv_pos_site_id
 _symmetry_equiv_pos_as_xyz
  1  'x, y, z'
loop_
 _atom_type_symbol
 _atom_type_oxidation_number
  Gd3+  3.0
  Ta5+  5.0
  W6+  6.0
  O2-  -2.0
loop_
 _atom_site_type_symbol
 _atom_site_label
 _atom_site_symmetry_multiplicity
 _atom_site_fract_x
 _atom_site_fract_y
 _atom_site_fract_z
 _atom_site_occupancy
  Gd3+  Gd0  1  0.54340368  0.23838313  0.49187189  1
  Gd3+  Gd1  1  0.71957318  0.25431386  0.02817513  1
  Gd3+  Gd2  1  0.48407585  0.25222109  0.74977983  1
  Gd3+  Gd3  1  0.75957989  0.24216025  0.74753175  1
  Gd3+  Gd4  1  0.26497528  0.74990071  0.22859074  1
  Gd3+  Gd5  1  0.77702911  0.26145691  0.46812939  1
  Gd3+  Gd6  1  0.01088511  0.76095172  0.48439515  1
  Gd3+  Gd7  1  0.73626693  0.76419226  0.01555130  1
  Gd3+  Gd8  1  0.26172867  0.26858703  0.72270319  1
  Gd3+  Gd9  1  0.25771877  0.75282131  -0.01568863  1
  Gd3+  Gd10  1  0.78978811  0.75492341  0.52032742  1
  Gd3+  Gd11  1  0.47767195  0.74358179  0.74015892  1
  Gd3+  Gd12  1  0.02375808  0.74459506  0.22058904  1
  Gd3+  Gd13  1  0.25494984  0.21990737  0.47871491  1
  Gd3+  Gd14  1  0.51828219  0.75270380  0.26287497  1
  Gd3+  Gd15  1  -0.01568778  0.26932226  0.01703607  1
  Gd3+  Gd16  1  0.25741408  0.22996387  0.23085531  1
  Gd3+  Gd17  1  0.80069113  0.78016995  0.78344578  1
  Gd3+  Gd18  1  -0.00560722  0.25443631  0.74912410  1
  Ta5+  Ta19  1  0.15365500  0.37631961  0.92251189  1
  Ta5+  Ta20  1  0.85586053  0.13318260  0.19445959  1
  Ta5+  Ta21  1  0.61857803  0.38078944  0.31356883  1
  Ta5+  Ta22  1  0.10038554  0.88107927  0.09632339  1
  Ta5+  Ta23  1  0.42352635  0.37213625  0.13762891  1
  Ta5+  Ta24  1  0.86681901  0.61666572  0.90392727  1
  Ta5+  Ta25  1  0.39514850  0.09844075  0.59957544  1
  Ta5+  Ta26  1  0.58732529  0.39316898  0.10953312  1
  Ta5+  Ta27  1  0.86638464  0.88715640  0.35329207  1
  Ta5+  Ta28  1  0.67002996  0.41348580  0.61626328  1
  Ta5+  Ta29  1  0.38190848  0.61334178  0.86906781  1
  Ta5+  Ta30  1  0.58357983  0.63158154  0.11194364  1
  Ta5+  Ta31  1  0.60634245  0.63111943  0.60119019  1
  Ta5+  Ta32  1  0.90515806  0.09449296  0.60541048  1
  Ta5+  Ta33  1  0.38799223  0.61984329  0.37776297  1
  Ta5+  Ta34  1  0.82401750  0.38366810  0.16601458  1
  Ta5+  Ta35  1  0.93215431  0.39083574  0.37934987  1
  Ta5+  Ta36  1  0.92531862  0.64210382  0.65260920  1
  Ta5+  Ta37  1  0.35218599  0.86817752  0.61732980  1
  Ta5+  Ta38  1  0.61830830  0.38253219  0.86238590  1
  Ta5+  Ta39  1  0.14827850  0.62378861  0.37706136  1
  Ta5+  Ta40  1  0.86426129  0.62934295  0.36169123  1
  Ta5+  Ta41  1  0.82406190  0.63098892  0.15477701  1
  Ta5+  Ta42  1  0.05900459  0.12260763  0.13909476  1
  Ta5+  Ta43  1  0.65754648  0.88297672  0.36113988  1
  Ta5+  Ta44  1  0.58150100  0.08577228  0.65246285  1
  Ta5+  Ta45  1  0.61573036  0.87114368  0.60223213  1
  Ta5+  Ta46  1  0.41207853  0.86717295  0.10874975  1
  Ta5+  Ta47  1  0.10430746  0.61909119  0.88510090  1
  Ta5+  Ta48  1  0.09456661  0.12023399  0.36501168  1
  Ta5+  Ta49  1  0.40778078  0.11520466  0.13176130  1
  Ta5+  Ta50  1  0.84992447  0.88927709  0.14714102  1
  Ta5+  Ta51  1  0.41436559  0.62125353  0.11660046  1
  Ta5+  Ta52  1  0.65375718  0.62132894  0.36239600  1
  Ta5+  Ta53  1  0.13071234  0.12209860  0.89177331  1
  Ta5+  Ta54  1  0.57931782  0.88413541  0.11370552  1
  Ta5+  Ta55  1  0.56969798  0.12870422  0.10812439  1
  Ta5+  Ta56  1  0.07213459  0.38353047  0.16906534  1
  Ta5+  Ta57  1  0.39172116  0.37077654  0.35995321  1
  Ta5+  Ta58  1  0.40891889  0.10833925  0.35963746  1
  Ta5+  Ta59  1  0.66149688  0.12972016  0.34079423  1
  Ta5+  Ta60  1  0.11424063  0.10707054  0.62759132  1
  Ta5+  Ta61  1  0.90707660  0.90032439  0.64898588  1
  Ta5+  Ta62  1  0.65973443  0.10644427  0.88986127  1
  Ta5+  Ta63  1  0.13856332  0.88089118  0.36327115  1
  Ta5+  Ta64  1  0.87323170  0.42101719  0.58434859  1
  Ta5+  Ta65  1  0.33175777  0.12519885  0.90409794  1
  Ta5+  Ta66  1  0.12373569  0.87228867  0.63281400  1
  Ta5+  Ta67  1  0.08679004  0.87415570  0.88048053  1
  Ta5+  Ta68  1  0.33972499  0.61313864  0.61658247  1
  Ta5+  Ta69  1  0.62698305  0.62920243  0.86110904  1
  Ta5+  Ta70  1  0.60591255  0.86818492  0.86430353  1
  Ta5+  Ta71  1  0.35757071  0.36924381  0.90963444  1
  Ta5+  Ta72  1  0.38467308  0.87186705  0.37390677  1
  Ta5+  Ta73  1  0.07744954  0.38566180  0.59106968  1
  Ta5+  Ta74  1  0.09515305  0.62402312  0.63477748  1
  W6+  W75  1  0.36979845  0.88185050  0.86387499  1
  W6+  W76  1  0.93026601  0.87933220  0.92657473  1
  W6+  W77  1  0.86161946  0.10543488  0.94694303  1
  W6+  W78  1  0.14731682  0.61729834  0.11308683  1
  W6+  W79  1  0.36316857  0.36931991  0.56689185  1
  W6+  W80  1  0.84034231  0.37472019  0.91177032  1
  W6+  W81  1  0.93460497  0.13166090  0.37709601  1
  W6+  W82  1  0.15914761  0.37023303  0.36508120  1
  O2-  O83  1  0.08133970  0.00072760  0.11272988  1
  O2-  O84  1  0.10644717  -0.00414643  0.35305602  1
  O2-  O85  1  0.15656070  -0.00728970  0.63071536  1
  O2-  O86  1  0.11195483  0.00544063  0.87660891  1
  O2-  O87  1  0.09261830  0.49879648  0.14763989  1
  O2-  O88  1  0.15492403  0.50699365  0.37261593  1
  O2-  O89  1  0.11411115  0.49688230  0.61622601  1
  O2-  O90  1  0.11376276  0.48304875  0.88482556  1
  O2-  O91  1  0.40176655  -0.01254900  0.12684012  1
  O2-  O92  1  0.43402778  -0.01647148  0.35485550  1
  O2-  O93  1  0.33031548  -0.00405905  0.61289495  1
  O2-  O94  1  0.36583890  0.02033425  0.86002856  1
  O2-  O95  1  0.40516909  0.49937909  0.13110644  1
  O2-  O96  1  0.40607483  0.50079991  0.36416275  1
  O2-  O97  1  0.33117931  0.49527554  0.60493252  1
  O2-  O98  1  0.37108660  0.48610957  0.87256793  1
  O2-  O99  1  0.59250255  0.00544049  0.09735632  1
  O2-  O100  1  0.66217932  0.01013292  0.35944492  1
  O2-  O101  1  0.65205174  -0.00660056  0.61460095  1
  O2-  O102  1  0.63567624  -0.01190680  0.87365759  1
  O2-  O103  1  0.61801961  0.51274647  0.11584253  1
  O2-  O104  1  0.65540446  0.48699949  0.35880914  1
  O2-  O105  1  0.58767445  0.50291975  0.61556314  1
  O2-  O106  1  0.63392594  0.50423889  0.84849667  1
  O2-  O107  1  0.83735004  0.01370459  0.16495828  1
  O2-  O108  1  0.90747312  -0.00561730  0.37657699  1
  O2-  O109  1  0.82939910  -0.00521867  0.63234762  1
  O2-  O110  1  0.93687645  0.01463638  0.92608461  1
  O2-  O111  1  0.82461448  0.50569680  0.16798854  1
  O2-  O112  1  0.92076486  0.52417726  0.37396456  1
  O2-  O113  1  0.92313800  0.52024075  0.64371254  1
  O2-  O114  1  0.82743646  0.50670397  0.88362284  1
  O2-  O115  1  0.05580568  0.24899769  0.15039106  1
  O2-  O116  1  0.17222534  0.23066964  0.35694359  1
  O2-  O117  1  0.21636247  0.17167940  0.61797742  1
  O2-  O118  1  0.08942885  0.27189818  0.88193616  1
  O2-  O119  1  0.16476350  0.75717784  0.10547625  1
  O2-  O120  1  0.08635773  0.75695707  0.35893319  1
  O2-  O121  1  0.06981076  0.75385046  0.62407572  1
  O2-  O122  1  0.10748686  0.74877931  0.89193765  1
  O2-  O123  1  0.39084357  0.24617018  0.15456735  1
  O2-  O124  1  0.36374516  0.23563192  0.35656592  1
  O2-  O125  1  0.39718538  0.23041599  0.54331653  1
  O2-  O126  1  0.37606924  0.24576194  0.86635758  1
  O2-  O127  1  0.34721801  0.74305968  0.10798072  1
  O2-  O128  1  0.42986955  0.75201238  0.38302491  1
  O2-  O129  1  0.38978856  0.74495836  0.62032652  1
  O2-  O130  1  0.34572592  0.73721199  0.85622012  1
  O2-  O131  1  0.59456262  0.26151299  0.10994882  1
  O2-  O132  1  0.67423819  0.27681526  0.34771294  1
  O2-  O133  1  0.57894855  0.21326138  0.63587330  1
  O2-  O134  1  0.67431710  0.26313956  0.87484597  1
  O2-  O135  1  0.62254479  0.75554690  0.13500565  1
  O2-  O136  1  0.64880445  0.75192561  0.35511271  1
  O2-  O137  1  0.65485516  0.75261737  0.58498148  1
  O2-  O138  1  0.67244023  0.75307993  0.85938528  1
  O2-  O139  1  0.80784265  0.24383982  0.15695279  1
  O2-  O140  1  0.92605547  0.27043076  0.40696232  1
  O2-  O141  1  0.78726284  0.32330300  0.61324227  1
  O2-  O142  1  0.85446704  0.23904321  0.95544988  1
  O2-  O143  1  0.82096073  0.76051523  0.14526043  1
  O2-  O144  1  0.88973869  0.75627485  0.38310526  1
  O2-  O145  1  0.86674647  0.77037837  0.65165310  1
  O2-  O146  1  0.85562077  0.74992535  0.91715917  1
  O2-  O147  1  0.07634433  0.15026900  0.00391089  1
  O2-  O148  1  0.14277083  0.12328220  0.23391603  1
  O2-  O149  1  0.12630197  0.11631748  0.48586016  1
  O2-  O150  1  0.08660533  0.13248663  0.75156050  1
  O2-  O151  1  0.18732865  0.61533076  -0.02322443  1
  O2-  O152  1  0.13773983  0.64851463  0.25012660  1
  O2-  O153  1  0.10056106  0.63813215  0.49216144  1
  O2-  O154  1  0.11306339  0.62206123  0.76102847  1
  O2-  O155  1  0.39669340  0.13636163  0.00738077  1
  O2-  O156  1  0.34510326  0.10203722  0.25353560  1
  O2-  O157  1  0.34289038  0.09346763  0.46617362  1
  O2-  O158  1  0.37456572  0.16337151  0.70343226  1
  O2-  O159  1  0.37380718  0.62328578  -0.00696406  1
  O2-  O160  1  0.38778227  0.65158116  0.24714799  1
  O2-  O161  1  0.39400077  0.62145478  0.50155511  1
  O2-  O162  1  0.39168271  0.61323949  0.73341235  1
  O2-  O163  1  0.57898853  0.14620536  -0.02588485  1
  O2-  O164  1  0.61985313  0.13287580  0.22399037  1
  O2-  O165  1  0.66924610  0.16106566  0.46614825  1
  O2-  O166  1  0.60532517  0.12979408  0.77414546  1
  O2-  O167  1  0.63025343  0.64501311  -0.01171137  1
  O2-  O168  1  0.58430614  0.62068276  0.25539055  1
  O2-  O169  1  0.59263822  0.62205548  0.47068725  1
  O2-  O170  1  0.60339743  0.65151767  0.72664332  1
  O2-  O171  1  0.93148189  0.13525212  0.08172659  1
  O2-  O172  1  0.78184035  0.13637185  0.30228656  1
  O2-  O173  1  0.85665949  0.13901391  0.50293406  1
  O2-  O174  1  0.87464478  0.16657802  0.69723001  1
  O2-  O175  1  0.82554860  0.62355033  0.03012389  1
  O2-  O176  1  0.92181032  0.64704291  0.24332538  1
  O2-  O177  1  0.90873428  0.65860078  0.52260232  1
  O2-  O178  1  0.87960539  0.64920384  0.77601414  1
  O2-  O179  1  0.09547969  0.36710299  0.03542917  1
  O2-  O180  1  0.17869840  0.35476896  0.22359957  1
  O2-  O181  1  0.13968021  0.33044798  0.50277029  1
  O2-  O182  1  0.11929866  0.31949872  0.68884839  1
  O2-  O183  1  0.16503345  0.88200884  -0.01085853  1
  O2-  O184  1  0.13117845  0.86244796  0.22859785  1
  O2-  O185  1  0.11840946  0.87088909  0.49298750  1
  O2-  O186  1  0.09687672  0.87141760  0.75481220  1
  O2-  O187  1  0.42576815  0.35675406  0.01155330  1
  O2-  O188  1  0.34404143  0.37611118  0.24865361  1
  O2-  O189  1  0.29037836  0.37118007  0.43207963  1
  O2-  O190  1  0.38842241  0.34062332  0.69918599  1
  O2-  O191  1  0.35342173  0.86884859  -0.00396115  1
  O2-  O192  1  0.38644649  0.84170959  0.24149877  1
  O2-  O193  1  0.39143988  0.88057484  0.49933647  1
  O2-  O194  1  0.40431156  0.87542484  0.72866842  1
  O2-  O195  1  0.61650834  0.38548260  -0.01388665  1
  O2-  O196  1  0.68844110  0.38145738  0.20522914  1
  O2-  O197  1  0.64658315  0.34876026  0.51570809  1
  O2-  O198  1  0.65075868  0.36143838  0.73021004  1
  O2-  O199  1  0.62134668  0.85742374  -0.00793362  1
  O2-  O200  1  0.58747690  0.88582885  0.25293402  1
  O2-  O201  1  0.59671020  0.88288449  0.47160249  1
  O2-  O202  1  0.59791244  0.85547637  0.72738388  1
  O2-  O203  1  0.94429046  0.37272533  0.13561199  1
  O2-  O204  1  0.84605845  0.37545483  0.29210658  1
  O2-  O205  1  0.82687496  0.40425227  0.46652071  1
  O2-  O206  1  0.86833395  0.31976054  0.78990800  1
  O2-  O207  1  0.81619916  0.89117478  0.02745254  1
  O2-  O208  1  0.93643218  0.86218730  0.24660147  1
  O2-  O209  1  0.91517715  0.86593389  0.52478240  1
  O2-  O210  1  0.90337800  0.88587559  0.77662471  1
  O2-  O211  1  -0.02156658  -0.14080099  0.07841024  1
  O2-  O212  1  -0.02671639  0.10952356  0.23976688  1
  O2-  O213  1  0.01100132  0.17234526  0.60144451  1
  O2-  O214  1  -0.00762025  0.00151893  0.63096565  1
  O2-  O215  1  -0.01112562  0.61274381  -0.07983970  1
  O2-  O216  1  0.03111071  0.38494984  0.30034289  1
  O2-  O217  1  -0.01672964  0.42272173  0.50208388  1
  O2-  O218  1  -0.03748498  0.34855833  0.64067326  1
  O2-  O219  1  0.23064075  0.10119866  -0.02963010  1
  O2-  O220  1  0.26052453  -0.14572490  0.36246663  1
  O2-  O221  1  0.23730099  -0.16869322  0.63142417  1
  O2-  O222  1  0.23209600  0.16528996  0.82441336  1
  O2-  O223  1  0.26128163  0.37801516  -0.00922353  1
  O2-  O224  1  0.26578215  0.66471297  0.37564034  1
  O2-  O225  1  0.22715057  0.64699193  0.61989945  1
  O2-  O226  1  0.24586086  0.36116204  0.83344760  1
  O2-  O227  1  0.49394196  -0.17528674  -0.12993931  1
  O2-  O228  1  0.52405642  0.14807381  0.36633440  1
  O2-  O229  1  0.50711089  0.09408400  0.53892182  1
  O2-  O230  1  0.47836250  0.03666667  0.68577327  1
  O2-  O231  1  0.50229394  0.63341390  -0.13356773  1
  O2-  O232  1  0.52111283  0.38955948  0.23202520  1
  O2-  O233  1  0.51351872  0.34935810  0.39043844  1
  O2-  O234  1  0.50096858  0.36244961  0.84730976  1
  O2-  O235  1  0.74118702  0.11034055  -0.00279655  1
  O2-  O236  1  0.77284223  -0.11424267  0.26811205  1
  O2-  O237  1  0.76550258  -0.12676879  0.43383639  1
  O2-  O238  1  0.77572050  0.11908408  0.83793125  1
  O2-  O239  1  0.79017438  0.38236382  0.04334201  1
  O2-  O240  1  0.76470689  0.63134013  0.27833907  1
  O2-  O241  1  0.76330005  0.62927249  0.43999717  1
  O2-  O242  1  0.76579555  0.48866474  0.61067777  1
