# generated using pymatgen
data_Gd19Ta56(WO20)8
_symmetry_space_group_name_H-M   'P 1'
_cell_length_a   15.66097510
_cell_length_b   15.52809436
_cell_length_c   15.26400503
_cell_angle_alpha   90.40691756
_cell_angle_beta   89.84950860
_cell_angle_gamma   89.78081882
_symmetry_Int_Tables_number   1
_chemical_formula_structural   Gd19Ta56(WO20)8
_chemical_formula_sum   'Gd19 Ta56 W8 O160'
_cell_volume   3711.84473192
_cell_formula_units_Z   1
loop_
 _symmetry_equiv_pos_site_id
 _symmetry_equiv_pos_as_xyz
  1  'x, y, z'
loop_
 _atom_type_symbol
 _atom_type_oxidation_number
  Gd3+  3.0
  Ta5+  5.0
  W6+  6.0
  O2-  -2.0
loop_
 _atom_site_type_symbol
 _atom_site_label
 _atom_site_symmetry_multiplicity
 _atom_site_fract_x
 _atom_site_fract_y
 _atom_site_fract_z
 _atom_site_occupancy
  Gd3+  Gd0  1  0.75893730  0.26157414  0.75179490  1
  Gd3+  Gd1  1  0.49753315  0.74387640  0.49887279  1
  Gd3+  Gd2  1  0.24014821  0.24637279  -0.02420084  1
  Gd3+  Gd3  1  0.26249907  0.25341858  0.22962336  1
  Gd3+  Gd4  1  0.49926223  0.23672237  0.24352340  1
  Gd3+  Gd5  1  0.00736745  0.75830068  -0.03261783  1
  Gd3+  Gd6  1  0.76800820  0.74527059  -0.00500029  1
  Gd3+  Gd7  1  -0.00822868  0.77066392  0.72707925  1
  Gd3+  Gd8  1  0.76958109  0.74990793  0.26189712  1
  Gd3+  Gd9  1  0.27486090  0.74169007  0.25264909  1
  Gd3+  Gd10  1  0.24667727  0.25617311  0.51830664  1
  Gd3+  Gd11  1  0.24634535  0.74448387  0.00481215  1
  Gd3+  Gd12  1  -0.00244960  0.25242939  0.73537044  1
  Gd3+  Gd13  1  -0.00141060  0.77168843  0.28017142  1
  Gd3+  Gd14  1  0.69773107  0.73926250  0.74224557  1
  Gd3+  Gd15  1  0.74766337  0.25586976  0.51159797  1
  Gd3+  Gd16  1  0.77614928  0.24933887  0.01085997  1
  Gd3+  Gd17  1  0.49735327  0.75088382  -0.03649610  1
  Gd3+  Gd18  1  0.76309641  0.25484419  0.26141124  1
  Ta5+  Ta19  1  0.60076357  0.36454346  0.88074095  1
  Ta5+  Ta20  1  0.12802212  0.88485746  0.60030668  1
  Ta5+  Ta21  1  0.40763022  0.36920185  0.06153180  1
  Ta5+  Ta22  1  0.64091049  0.60436532  0.89267264  1
  Ta5+  Ta23  1  0.88885072  0.39018081  0.13755627  1
  Ta5+  Ta24  1  0.36019317  0.87936342  0.62074926  1
  Ta5+  Ta25  1  0.08438460  0.63728814  0.12031867  1
  Ta5+  Ta26  1  0.60453713  0.60658514  0.62754341  1
  Ta5+  Ta27  1  0.38959689  0.36110663  0.37927596  1
  Ta5+  Ta28  1  0.85718570  0.87738481  0.46239573  1
  Ta5+  Ta29  1  0.63045251  0.62721999  0.10949352  1
  Ta5+  Ta30  1  0.12519293  0.39270445  0.11410306  1
  Ta5+  Ta31  1  0.06811346  0.38409579  0.60273478  1
  Ta5+  Ta32  1  0.87095113  0.11969813  0.61934185  1
  Ta5+  Ta33  1  0.59591601  0.87746792  0.12185262  1
  Ta5+  Ta34  1  0.11389727  0.88696656  0.11964481  1
  Ta5+  Ta35  1  0.40399162  0.11793034  0.87244142  1
  Ta5+  Ta36  1  0.60378163  0.36854686  0.63969112  1
  Ta5+  Ta37  1  0.14066306  0.62682356  0.36791400  1
  Ta5+  Ta38  1  0.82634837  0.88819470  0.65994518  1
  Ta5+  Ta39  1  0.64387020  0.88560051  0.87836294  1
  Ta5+  Ta40  1  0.61982594  0.12125423  0.38570598  1
  Ta5+  Ta41  1  0.88612261  0.38746795  0.39227866  1
  Ta5+  Ta42  1  0.64071305  0.62298112  0.37079160  1
  Ta5+  Ta43  1  0.39560928  0.38035958  0.85250663  1
  Ta5+  Ta44  1  0.07678106  0.12337636  0.86760055  1
  Ta5+  Ta45  1  0.36029630  0.61792627  0.61299006  1
  Ta5+  Ta46  1  0.35730408  0.87507851  0.84923785  1
  Ta5+  Ta47  1  0.88316857  0.88123868  0.12469295  1
  Ta5+  Ta48  1  0.63063988  0.87381472  0.37690880  1
  Ta5+  Ta49  1  0.11711387  0.62650451  0.60690332  1
  Ta5+  Ta50  1  0.40987759  0.06719963  0.12125041  1
  Ta5+  Ta51  1  0.85207605  0.61643748  0.64173444  1
  Ta5+  Ta52  1  0.90126792  0.37739835  0.61192784  1
  Ta5+  Ta53  1  0.61010832  0.12438070  0.63837366  1
  Ta5+  Ta54  1  0.12006422  0.13195241  0.35951220  1
  Ta5+  Ta55  1  0.62918077  0.37947576  0.12403219  1
  Ta5+  Ta56  1  0.14770776  0.60557865  0.85751367  1
  Ta5+  Ta57  1  0.64359419  0.11442249  0.12602586  1
  Ta5+  Ta58  1  0.38690502  0.36955426  0.63228147  1
  Ta5+  Ta59  1  0.40307132  0.12379758  0.62131421  1
  Ta5+  Ta60  1  0.87896484  0.11553189  0.38915807  1
  Ta5+  Ta61  1  0.12327853  0.38099253  0.36028836  1
  Ta5+  Ta62  1  0.86157882  0.89507490  0.87044571  1
  Ta5+  Ta63  1  0.88928565  0.37919458  0.87831837  1
  Ta5+  Ta64  1  0.14578942  0.88810014  0.37366951  1
  Ta5+  Ta65  1  0.39142315  0.86979169  0.11673410  1
  Ta5+  Ta66  1  0.88372926  0.62375624  0.86316719  1
  Ta5+  Ta67  1  0.11743558  0.12443746  0.12064134  1
  Ta5+  Ta68  1  0.63728266  0.12722941  0.87712960  1
  Ta5+  Ta69  1  0.09818030  0.12423620  0.60716680  1
  Ta5+  Ta70  1  0.10494962  0.37504382  0.86026669  1
  Ta5+  Ta71  1  0.15254401  0.88704854  0.84311759  1
  Ta5+  Ta72  1  0.34913305  0.61510749  0.85223659  1
  Ta5+  Ta73  1  0.38967146  0.87786016  0.37286501  1
  Ta5+  Ta74  1  0.91934587  0.63532431  0.12734002  1
  W6+  W75  1  0.91191204  0.13343049  0.87816729  1
  W6+  W76  1  0.63566794  0.38249900  0.38237149  1
  W6+  W77  1  0.89502970  0.63775815  0.39856260  1
  W6+  W78  1  0.58392994  0.87705493  0.63321931  1
  W6+  W79  1  0.39078380  0.60973304  0.36854014  1
  W6+  W80  1  0.86604494  0.11642424  0.13710577  1
  W6+  W81  1  0.38091668  0.61327625  0.11090005  1
  W6+  W82  1  0.37108111  0.12186449  0.37896831  1
  O2-  O83  1  0.15359617  0.00053053  0.11314497  1
  O2-  O84  1  0.15061618  0.01166727  0.37094102  1
  O2-  O85  1  0.14250401  0.00565771  0.59851596  1
  O2-  O86  1  0.11536436  -0.00144401  0.86771121  1
  O2-  O87  1  0.11714405  0.51190624  0.10998515  1
  O2-  O88  1  0.14219637  0.50321926  0.36123248  1
  O2-  O89  1  0.07801333  0.51259741  0.60773093  1
  O2-  O90  1  0.08945522  0.50097303  0.87954355  1
  O2-  O91  1  0.32488959  -0.01972482  0.12539545  1
  O2-  O92  1  0.41264791  -0.00626507  0.36252048  1
  O2-  O93  1  0.35912140  0.00074499  0.61849110  1
  O2-  O94  1  0.37873697  -0.00593620  0.87693326  1
  O2-  O95  1  0.39148126  0.47641275  0.10584049  1
  O2-  O96  1  0.36611601  0.47570155  0.36989178  1
  O2-  O97  1  0.37351846  0.49617255  0.62423134  1
  O2-  O98  1  0.41174894  0.50074244  0.85753906  1
  O2-  O99  1  0.64786762  -0.00690671  0.11761803  1
  O2-  O100  1  0.63785293  -0.00089532  0.37977299  1
  O2-  O101  1  0.58180224  0.00862700  0.64843841  1
  O2-  O102  1  0.62881015  0.00445765  0.86555330  1
  O2-  O103  1  0.61455076  0.49844260  0.12017252  1
  O2-  O104  1  0.60441519  0.51092011  0.35461190  1
  O2-  O105  1  0.56864033  0.49293466  0.63885192  1
  O2-  O106  1  0.61978520  0.48536469  0.88814503  1
  O2-  O107  1  0.82957834  -0.01489584  0.12097040  1
  O2-  O108  1  0.88500534  -0.01639112  0.41239619  1
  O2-  O109  1  0.82080383  0.01093774  0.65340420  1
  O2-  O110  1  0.91216431  -0.00246538  0.89660360  1
  O2-  O111  1  0.89501015  0.51371536  0.13560551  1
  O2-  O112  1  0.89019909  0.50505262  0.39269297  1
  O2-  O113  1  0.86920528  0.49869090  0.63835942  1
  O2-  O114  1  0.88889314  0.50260477  0.86950663  1
  O2-  O115  1  0.15758421  0.24751166  0.11795763  1
  O2-  O116  1  0.14293451  0.25448350  0.33785634  1
  O2-  O117  1  0.08614490  0.25101628  0.60804511  1
  O2-  O118  1  0.13357704  0.24536577  0.86048857  1
  O2-  O119  1  0.16991506  0.76704892  0.13679648  1
  O2-  O120  1  0.12580504  0.76073797  0.36053625  1
  O2-  O121  1  0.08631832  0.75243879  0.61329648  1
  O2-  O122  1  0.08567391  0.77924631  0.84393633  1
  O2-  O123  1  0.33314253  0.27714658  0.09400659  1
  O2-  O124  1  0.31003905  0.25329123  0.38133652  1
  O2-  O125  1  0.40955220  0.24690421  0.63906261  1
  O2-  O126  1  0.35205584  0.22951617  0.87866060  1
  O2-  O127  1  0.34671698  0.74966866  0.11543443  1
  O2-  O128  1  0.41108123  0.74998623  0.37660330  1
  O2-  O129  1  0.38493464  0.74671075  0.60741472  1
  O2-  O130  1  0.40048707  0.75595452  0.85425637  1
  O2-  O131  1  0.67171488  0.24412269  0.12786682  1
  O2-  O132  1  0.67219654  0.24366167  0.38410954  1
  O2-  O133  1  0.58678059  0.24839019  0.65671442  1
  O2-  O134  1  0.66609682  0.25448677  0.87799162  1
  O2-  O135  1  0.64059301  0.76026070  0.09235363  1
  O2-  O136  1  0.59957159  0.74483533  0.37342474  1
  O2-  O137  1  0.58524403  0.73430599  0.62995727  1
  O2-  O138  1  0.64651543  0.74521854  0.89660705  1
  O2-  O139  1  0.85462991  0.26028013  0.14311113  1
  O2-  O140  1  0.86079190  0.24724492  0.38802469  1
  O2-  O141  1  0.88721595  0.24732412  0.59526108  1
  O2-  O142  1  0.83931685  0.26026586  0.87648299  1
  O2-  O143  1  0.83091851  0.75494056  0.12386350  1
  O2-  O144  1  0.91250403  0.78073972  0.40797573  1
  O2-  O145  1  0.83190914  0.75601593  0.67587467  1
  O2-  O146  1  0.89301193  0.75935272  0.85811494  1
  O2-  O147  1  0.12592034  0.13418408  -0.00625888  1
  O2-  O148  1  0.17617947  0.12532997  0.23920753  1
  O2-  O149  1  0.14843990  0.15019004  0.48125778  1
  O2-  O150  1  0.08300715  0.12245104  0.73514844  1
  O2-  O151  1  0.12147864  0.65538356  -0.01609232  1
  O2-  O152  1  0.08842728  0.63989790  0.25203169  1
  O2-  O153  1  0.09382638  0.63326492  0.48264970  1
  O2-  O154  1  0.11428345  0.63132824  0.74175559  1
  O2-  O155  1  0.37689675  0.11153933  0.01256017  1
  O2-  O156  1  0.38054381  0.13813138  0.22390786  1
  O2-  O157  1  0.34333417  0.14161139  0.51158003  1
  O2-  O158  1  0.41706743  0.11281627  0.75093162  1
  O2-  O159  1  0.37132387  0.64083763  -0.02513995  1
  O2-  O160  1  0.35268503  0.62382221  0.24057967  1
  O2-  O161  1  0.42286104  0.61373594  0.50510185  1
  O2-  O162  1  0.38864770  0.63027295  0.73543223  1
  O2-  O163  1  0.67945668  0.12512822  -0.00307285  1
  O2-  O164  1  0.63976477  0.12974785  0.25353221  1
  O2-  O165  1  0.62708742  0.13477913  0.51330507  1
  O2-  O166  1  0.67727767  0.13425545  0.75556076  1
  O2-  O167  1  0.55677475  0.62115805  -0.01041663  1
  O2-  O168  1  0.65532944  0.64401086  0.23083616  1
  O2-  O169  1  0.61341312  0.61832948  0.49938977  1
  O2-  O170  1  0.60429917  0.62277903  0.77053930  1
  O2-  O171  1  0.88370290  0.14895695  0.01013496  1
  O2-  O172  1  0.83040423  0.11142180  0.27809966  1
  O2-  O173  1  0.81450473  0.11877603  0.49794501  1
  O2-  O174  1  0.87984616  0.15547028  0.74137170  1
  O2-  O175  1  0.89712765  0.64673693  -0.00807839  1
  O2-  O176  1  0.89552834  0.66484552  0.25749301  1
  O2-  O177  1  0.89521634  0.64629135  0.53552481  1
  O2-  O178  1  0.93371710  0.63053708  0.74155251  1
  O2-  O179  1  0.15304699  0.36842155  -0.00703045  1
  O2-  O180  1  0.17927689  0.38184067  0.23038417  1
  O2-  O181  1  0.14166143  0.36550250  0.48391333  1
  O2-  O182  1  0.08993654  0.37890880  0.73616448  1
  O2-  O183  1  0.10729386  0.86019141  -0.00457123  1
  O2-  O184  1  0.09919197  0.88586646  0.25451351  1
  O2-  O185  1  0.08323377  0.88386081  0.48107953  1
  O2-  O186  1  0.09523308  0.88717035  0.72157540  1
  O2-  O187  1  0.32570087  0.37656213  -0.04094880  1
  O2-  O188  1  0.38525731  0.33000562  0.25324074  1
  O2-  O189  1  0.36052938  0.35394826  0.50794642  1
  O2-  O190  1  0.33044526  0.36913778  0.75026886  1
  O2-  O191  1  0.39774764  0.86009741  -0.01052376  1
  O2-  O192  1  0.36990266  0.85767572  0.24539529  1
  O2-  O193  1  0.40795112  0.87556115  0.50345836  1
  O2-  O194  1  0.41503797  0.87878641  0.73308846  1
  O2-  O195  1  0.66321650  0.36239506  0.00281482  1
  O2-  O196  1  0.66499616  0.36897064  0.24331869  1
  O2-  O197  1  0.63374696  0.36285575  0.51992173  1
  O2-  O198  1  0.65894865  0.37591839  0.76190147  1
  O2-  O199  1  0.57541126  0.87846052  -0.01637937  1
  O2-  O200  1  0.61754285  0.86651028  0.24644725  1
  O2-  O201  1  0.58400059  0.86882711  0.49252558  1
  O2-  O202  1  0.59609335  0.84830711  0.77025401  1
  O2-  O203  1  0.85832245  0.38092721  0.01448264  1
  O2-  O204  1  0.85237035  0.38151262  0.26092249  1
  O2-  O205  1  0.82465970  0.38114716  0.50111275  1
  O2-  O206  1  0.88517167  0.35791170  0.74687068  1
  O2-  O207  1  0.89712244  0.84987652  -0.00412554  1
  O2-  O208  1  0.88202410  0.85526231  0.24719446  1
  O2-  O209  1  0.92298397  0.87553340  0.57087281  1
  O2-  O210  1  0.91988766  0.89322054  0.75331126  1
  O2-  O211  1  -0.00235856  -0.07770794  0.12326200  1
  O2-  O212  1  0.00738246  0.12656068  0.15262801  1
  O2-  O213  1  0.00056922  0.12540715  0.36658003  1
  O2-  O214  1  -0.01499931  0.09604467  0.57164252  1
  O2-  O215  1  0.00220463  0.75215840  0.12404030  1
  O2-  O216  1  0.00973976  0.36452290  0.13408780  1
  O2-  O217  1  0.00612644  0.36753948  0.35500403  1
  O2-  O218  1  -0.00170654  0.34255112  0.91725426  1
  O2-  O219  1  0.24992507  -0.13451643  -0.07679291  1
  O2-  O220  1  0.26344830  -0.13346155  0.38464090  1
  O2-  O221  1  0.24266335  -0.14740682  0.58979035  1
  O2-  O222  1  0.25588252  -0.11250009  0.76780892  1
  O2-  O223  1  0.24428969  0.69315929  -0.13694551  1
  O2-  O224  1  0.25637492  0.65274459  0.37825870  1
  O2-  O225  1  0.23865703  0.62464403  0.60309032  1
  O2-  O226  1  0.25124452  0.53798886  0.83947114  1
  O2-  O227  1  0.52146485  0.13906071  0.12150912  1
  O2-  O228  1  0.48622147  -0.03667444  0.12757058  1
  O2-  O229  1  0.50404711  0.14952003  0.36877279  1
  O2-  O230  1  0.51876712  0.14462796  0.90090281  1
  O2-  O231  1  0.49116427  0.37148108  -0.03463503  1
  O2-  O232  1  0.51394825  0.33524736  0.12967370  1
  O2-  O233  1  0.50619494  0.33611084  0.37346734  1
  O2-  O234  1  0.50178764  0.32765378  0.81115563  1
  O2-  O235  1  0.75181060  -0.11442444  -0.05585073  1
  O2-  O236  1  0.75096773  -0.15035536  0.37948119  1
  O2-  O237  1  0.76365667  -0.12491645  0.54822990  1
  O2-  O238  1  0.75980967  -0.11994026  0.78218329  1
  O2-  O239  1  0.71373121  0.60986229  0.00937189  1
  O2-  O240  1  0.75822080  0.65016913  0.37443136  1
  O2-  O241  1  0.72828167  0.61817384  0.63999627  1
  O2-  O242  1  0.76169271  0.63199226  0.84189624  1
