# generated using pymatgen
data_Gd19Ta56(WO20)8
_symmetry_space_group_name_H-M   'P 1'
_cell_length_a   15.58301310
_cell_length_b   15.46034529
_cell_length_c   15.26468349
_cell_angle_alpha   89.88699452
_cell_angle_beta   89.81397475
_cell_angle_gamma   89.95983640
_symmetry_Int_Tables_number   1
_chemical_formula_structural   Gd19Ta56(WO20)8
_chemical_formula_sum   'Gd19 Ta56 W8 O160'
_cell_volume   3677.52124585
_cell_formula_units_Z   1
loop_
 _symmetry_equiv_pos_site_id
 _symmetry_equiv_pos_as_xyz
  1  'x, y, z'
loop_
 _atom_type_symbol
 _atom_type_oxidation_number
  Gd3+  3.0
  Ta5+  5.0
  W6+  6.0
  O2-  -2.0
loop_
 _atom_site_type_symbol
 _atom_site_label
 _atom_site_symmetry_multiplicity
 _atom_site_fract_x
 _atom_site_fract_y
 _atom_site_fract_z
 _atom_site_occupancy
  Gd3+  Gd0  1  0.51123131  0.24426793  0.23704312  1
  Gd3+  Gd1  1  -0.02193613  0.25234550  0.73842001  1
  Gd3+  Gd2  1  0.26507872  0.76084775  0.01553956  1
  Gd3+  Gd3  1  0.78507698  0.73556575  0.74825716  1
  Gd3+  Gd4  1  0.03036729  0.24113412  -0.02485221  1
  Gd3+  Gd5  1  0.50724501  0.74161851  0.73431696  1
  Gd3+  Gd6  1  0.48858470  0.74257262  0.49422214  1
  Gd3+  Gd7  1  0.25307709  0.25004260  -0.00093588  1
  Gd3+  Gd8  1  -0.00007517  0.74891834  0.75208570  1
  Gd3+  Gd9  1  -0.00207883  0.75019432  0.49552037  1
  Gd3+  Gd10  1  0.24340473  0.26017983  0.76438843  1
  Gd3+  Gd11  1  0.26206817  0.26320540  0.26618515  1
  Gd3+  Gd12  1  -0.00410213  0.77251394  0.25706279  1
  Gd3+  Gd13  1  0.70941541  0.77193118  -0.00927668  1
  Gd3+  Gd14  1  0.51333167  0.23996943  0.52902942  1
  Gd3+  Gd15  1  0.74159927  0.23440897  0.24506931  1
  Gd3+  Gd16  1  0.74047801  0.24415290  0.01256564  1
  Gd3+  Gd17  1  0.49279668  0.76678727  0.00984660  1
  Gd3+  Gd18  1  0.01948069  0.76722442  0.01763495  1
  Ta5+  Ta19  1  0.88304022  0.12445005  0.38019569  1
  Ta5+  Ta20  1  0.35377851  0.61162439  0.62761399  1
  Ta5+  Ta21  1  0.32461173  0.88095361  0.17922933  1
  Ta5+  Ta22  1  0.89624226  0.11132741  0.13529093  1
  Ta5+  Ta23  1  0.88438054  0.41260083  0.12419600  1
  Ta5+  Ta24  1  0.61842383  0.41602348  0.12783970  1
  Ta5+  Ta25  1  0.36387258  0.36599078  0.62726584  1
  Ta5+  Ta26  1  0.67540050  0.35819598  0.62891201  1
  Ta5+  Ta27  1  0.12286967  0.40136428  0.88235821  1
  Ta5+  Ta28  1  0.84125101  0.36494409  0.61792909  1
  Ta5+  Ta29  1  0.38004726  0.62548294  0.14214991  1
  Ta5+  Ta30  1  0.36120750  0.87816877  0.62821010  1
  Ta5+  Ta31  1  0.63842928  0.61689953  0.85264319  1
  Ta5+  Ta32  1  0.66917578  0.13341676  0.63535045  1
  Ta5+  Ta33  1  0.63630621  0.88662669  0.81961349  1
  Ta5+  Ta34  1  0.88041563  0.12316768  0.87327490  1
  Ta5+  Ta35  1  0.63871237  0.88644135  0.59858047  1
  Ta5+  Ta36  1  0.87424387  0.88323516  0.88692786  1
  Ta5+  Ta37  1  0.84299425  0.87227997  0.14218740  1
  Ta5+  Ta38  1  0.86597206  0.37668804  0.36468652  1
  Ta5+  Ta39  1  0.83787379  0.60389604  0.56666258  1
  Ta5+  Ta40  1  0.61029934  0.37549746  0.86601043  1
  Ta5+  Ta41  1  0.86020098  0.62420217  0.34948508  1
  Ta5+  Ta42  1  0.63396509  0.61347542  0.38263336  1
  Ta5+  Ta43  1  0.15669595  0.87939216  0.36714219  1
  Ta5+  Ta44  1  0.13797400  0.87084208  0.87522649  1
  Ta5+  Ta45  1  0.68174383  0.66019197  0.18178842  1
  Ta5+  Ta46  1  0.13482268  0.62475839  0.13283397  1
  Ta5+  Ta47  1  0.12488821  0.12883267  0.39043934  1
  Ta5+  Ta48  1  0.87966579  0.62742261  0.91402475  1
  Ta5+  Ta49  1  0.10093285  0.12159366  0.15220284  1
  Ta5+  Ta50  1  0.12331136  0.06566140  0.87592298  1
  Ta5+  Ta51  1  0.41581989  0.13838380  0.86687582  1
  Ta5+  Ta52  1  0.84037200  0.65651100  0.11927493  1
  Ta5+  Ta53  1  0.60601945  0.37058116  0.37946678  1
  Ta5+  Ta54  1  0.16222007  0.63655337  0.86607004  1
  Ta5+  Ta55  1  0.16555378  0.12063936  0.63417304  1
  Ta5+  Ta56  1  0.33485569  0.12097566  0.62802153  1
  Ta5+  Ta57  1  0.63488074  0.60479871  0.60592626  1
  Ta5+  Ta58  1  0.84274262  0.90272187  0.62024295  1
  Ta5+  Ta59  1  0.12848733  0.88169365  0.62130737  1
  Ta5+  Ta60  1  0.40991899  0.37454509  0.88023243  1
  Ta5+  Ta61  1  0.33898055  0.90919904  0.86223044  1
  Ta5+  Ta62  1  0.08971838  0.38932515  0.13333579  1
  Ta5+  Ta63  1  0.62262831  0.86622408  0.37384919  1
  Ta5+  Ta64  1  0.37809590  0.11739394  0.12189001  1
  Ta5+  Ta65  1  0.68435930  0.84307274  0.19296706  1
  Ta5+  Ta66  1  0.38728090  0.10667054  0.38249375  1
  Ta5+  Ta67  1  0.32510042  0.86513141  0.38281525  1
  Ta5+  Ta68  1  0.15534448  0.88551406  0.15075759  1
  Ta5+  Ta69  1  0.13296910  0.62502578  0.62367308  1
  Ta5+  Ta70  1  0.10370407  0.37182281  0.38749622  1
  Ta5+  Ta71  1  0.61306603  0.13055283  0.87243307  1
  Ta5+  Ta72  1  0.36819570  0.61732692  0.86134368  1
  Ta5+  Ta73  1  0.62387287  0.09933874  0.37969791  1
  Ta5+  Ta74  1  0.83227863  0.15199087  0.61653780  1
  W6+  W75  1  0.44088578  0.37183584  0.38840287  1
  W6+  W76  1  0.84462617  0.87690559  0.39788608  1
  W6+  W77  1  0.12223357  0.37504423  0.63592381  1
  W6+  W78  1  0.63867410  0.07708487  0.11713054  1
  W6+  W79  1  0.86507664  0.38076648  0.87696671  1
  W6+  W80  1  0.37802318  0.61601021  0.37310492  1
  W6+  W81  1  0.11679101  0.62125349  0.37003702  1
  W6+  W82  1  0.37403031  0.37709608  0.12713572  1
  O2-  O83  1  0.15063468  0.01588020  0.12513706  1
  O2-  O84  1  0.13621155  0.01008813  0.38421624  1
  O2-  O85  1  0.12562671  0.00213845  0.62138124  1
  O2-  O86  1  0.05792999  -0.03602117  0.90658316  1
  O2-  O87  1  0.13855687  0.50333009  0.11209249  1
  O2-  O88  1  0.13681215  0.48508682  0.37273006  1
  O2-  O89  1  0.14071875  0.50865057  0.62165897  1
  O2-  O90  1  0.12161997  0.52650156  0.89647352  1
  O2-  O91  1  0.34772127  0.00264994  0.14314637  1
  O2-  O92  1  0.33894774  -0.00265722  0.37180515  1
  O2-  O93  1  0.36506919  -0.00044107  0.64114119  1
  O2-  O94  1  0.40073140  0.01379694  0.86197851  1
  O2-  O95  1  0.39602889  0.50845371  0.14350841  1
  O2-  O96  1  0.41361308  0.50328207  0.37330833  1
  O2-  O97  1  0.33621504  0.49335263  0.63309721  1
  O2-  O98  1  0.40019889  0.50388426  0.88510684  1
  O2-  O99  1  0.66498262  -0.05443189  0.12124247  1
  O2-  O100  1  0.66520202  -0.01332713  0.40075367  1
  O2-  O101  1  0.64929576  0.00524208  0.61174264  1
  O2-  O102  1  0.61658035  0.00240092  0.84349047  1
  O2-  O103  1  0.64031461  0.53289463  0.13469673  1
  O2-  O104  1  0.64405480  0.48758578  0.38320664  1
  O2-  O105  1  0.64919599  0.48448896  0.61191147  1
  O2-  O106  1  0.64164247  0.49852989  0.88506856  1
  O2-  O107  1  0.85195577  0.00037125  0.12850768  1
  O2-  O108  1  0.87205446  0.00718228  0.39913891  1
  O2-  O109  1  0.84557255  0.01990434  0.62509453  1
  O2-  O110  1  0.88483793  0.00014292  0.85455308  1
  O2-  O111  1  0.84514273  0.52522029  0.11086666  1
  O2-  O112  1  0.85142909  0.49953350  0.34341797  1
  O2-  O113  1  0.86069977  0.49726480  0.61554551  1
  O2-  O114  1  0.86889296  0.51022378  0.90172475  1
  O2-  O115  1  0.13555457  0.23613598  0.10878374  1
  O2-  O116  1  0.16833449  0.26181015  0.38264466  1
  O2-  O117  1  0.11369200  0.24097726  0.67201441  1
  O2-  O118  1  0.15464464  0.27184554  0.88178035  1
  O2-  O119  1  0.11555514  0.75943158  0.15051918  1
  O2-  O120  1  0.09469629  0.75889817  0.36998109  1
  O2-  O121  1  0.07662094  0.75740608  0.62577921  1
  O2-  O122  1  0.09363131  0.74521689  0.87172310  1
  O2-  O123  1  0.32729157  0.24036568  0.12645546  1
  O2-  O124  1  0.44483715  0.23056768  0.39179783  1
  O2-  O125  1  0.39756479  0.23953177  0.62420224  1
  O2-  O126  1  0.35150374  0.25119197  0.88094683  1
  O2-  O127  1  0.36713969  0.77304609  0.12167327  1
  O2-  O128  1  0.35744532  0.74010224  0.40759937  1
  O2-  O129  1  0.40785787  0.75303600  0.62378908  1
  O2-  O130  1  0.44196782  0.71506981  0.87030414  1
  O2-  O131  1  0.65361143  0.21524147  0.12610761  1
  O2-  O132  1  0.62023980  0.23636680  0.34700289  1
  O2-  O133  1  0.61001933  0.24665592  0.64226905  1
  O2-  O134  1  0.65073646  0.25336987  0.88853073  1
  O2-  O135  1  0.61763810  0.75285498  0.11449298  1
  O2-  O136  1  0.60988497  0.74334971  0.40447220  1
  O2-  O137  1  0.60114465  0.73915506  0.60811112  1
  O2-  O138  1  0.64291828  0.74722026  0.79802285  1
  O2-  O139  1  0.83640074  0.21888829  0.12895496  1
  O2-  O140  1  0.84200565  0.25371469  0.35420593  1
  O2-  O141  1  0.91308237  0.25736666  0.60513608  1
  O2-  O142  1  0.90302903  0.25126449  0.88713985  1
  O2-  O143  1  0.91942846  0.76789915  0.12369329  1
  O2-  O144  1  0.89033108  0.74689165  0.38670034  1
  O2-  O145  1  0.89734312  0.70360230  0.61278744  1
  O2-  O146  1  0.92238791  0.76597866  0.89857173  1
  O2-  O147  1  0.15778597  0.12637478  -0.02575257  1
  O2-  O148  1  0.16555417  0.14446977  0.26265082  1
  O2-  O149  1  0.15608701  0.14343683  0.50768263  1
  O2-  O150  1  0.16450230  0.10985095  0.76875533  1
  O2-  O151  1  0.12757511  0.66424957  0.00829822  1
  O2-  O152  1  0.07604809  0.62226258  0.23990035  1
  O2-  O153  1  0.09507165  0.63742529  0.50700461  1
  O2-  O154  1  0.09794362  0.63424285  0.74856932  1
  O2-  O155  1  0.34665090  0.12664636  0.00118802  1
  O2-  O156  1  0.36193819  0.14605670  0.25943324  1
  O2-  O157  1  0.34580071  0.12644322  0.49655590  1
  O2-  O158  1  0.33680596  0.13945584  0.75717313  1
  O2-  O159  1  0.41804968  0.64369128  0.02312829  1
  O2-  O160  1  0.41246686  0.65876363  0.25401591  1
  O2-  O161  1  0.39853364  0.61501177  0.51539981  1
  O2-  O162  1  0.41576571  0.61866611  0.73665088  1
  O2-  O163  1  0.67302212  0.10729876  -0.01800342  1
  O2-  O164  1  0.65054353  0.09816752  0.25518849  1
  O2-  O165  1  0.62623426  0.14131434  0.49990109  1
  O2-  O166  1  0.67730963  0.13150540  0.75840149  1
  O2-  O167  1  0.59578743  0.66852592  -0.04568474  1
  O2-  O168  1  0.58628335  0.62218498  0.27297916  1
  O2-  O169  1  0.56561093  0.60802483  0.49883375  1
  O2-  O170  1  0.58871727  0.60501392  0.73368055  1
  O2-  O171  1  0.85365936  0.12055692  -0.00540417  1
  O2-  O172  1  0.83784796  0.11687305  0.26129131  1
  O2-  O173  1  0.82864923  0.14940794  0.48776879  1
  O2-  O174  1  0.86948272  0.15222039  0.74626381  1
  O2-  O175  1  0.94804862  0.63777443  0.01739207  1
  O2-  O176  1  0.90368837  0.64686588  0.23717858  1
  O2-  O177  1  0.91760656  0.60479360  0.46827268  1
  O2-  O178  1  0.90226610  0.64705204  0.78803556  1
  O2-  O179  1  0.13946861  0.37310330  0.00891252  1
  O2-  O180  1  0.14141825  0.35469378  0.24018217  1
  O2-  O181  1  0.08426651  0.36483119  0.50496335  1
  O2-  O182  1  0.17358893  0.39752432  0.76859061  1
  O2-  O183  1  0.15362835  0.85725856  0.01164923  1
  O2-  O184  1  0.07765169  0.89512387  0.25508984  1
  O2-  O185  1  0.12317727  0.86469591  0.49794616  1
  O2-  O186  1  0.09943209  0.87396166  0.75315021  1
  O2-  O187  1  0.33763541  0.37808569  -0.01218025  1
  O2-  O188  1  0.39334810  0.33630937  0.25852996  1
  O2-  O189  1  0.25177195  0.33403703  0.60517223  1
  O2-  O190  1  0.35916450  0.35985094  0.75609837  1
  O2-  O191  1  0.38133164  0.85927503  -0.03485907  1
  O2-  O192  1  0.39218935  0.85408243  0.27818816  1
  O2-  O193  1  0.36484301  0.88075081  0.50544332  1
  O2-  O194  1  0.39158117  0.86090548  0.76089687  1
  O2-  O195  1  0.65659328  0.37713397  0.01731888  1
  O2-  O196  1  0.64543461  0.36794158  0.24412170  1
  O2-  O197  1  0.63168690  0.34105014  0.49829316  1
  O2-  O198  1  0.67480004  0.36778378  0.75857755  1
  O2-  O199  1  0.59021329  0.84921266  -0.07015380  1
  O2-  O200  1  0.56899867  0.87583466  0.26869733  1
  O2-  O201  1  0.56243153  0.87850369  0.49881247  1
  O2-  O202  1  0.56639958  0.88104394  0.71113271  1
  O2-  O203  1  0.83737205  0.36759151  0.01673830  1
  O2-  O204  1  0.82977764  0.37049747  0.22679648  1
  O2-  O205  1  0.84394981  0.37821961  0.48387471  1
  O2-  O206  1  0.87841029  0.36095820  0.74101508  1
  O2-  O207  1  0.83630032  0.87685044  0.00640640  1
  O2-  O208  1  0.88717054  0.87335272  0.26337128  1
  O2-  O209  1  0.92268696  0.87569154  0.52974419  1
  O2-  O210  1  0.89127765  0.85539656  0.73403594  1
  O2-  O211  1  0.00327253  0.12891275  0.06378836  1
  O2-  O212  1  -0.00234702  0.10351334  0.22061638  1
  O2-  O213  1  0.00385493  0.15031381  0.39540761  1
  O2-  O214  1  0.01260585  0.13077600  0.86188837  1
  O2-  O215  1  -0.01218003  0.33112905  0.08167029  1
  O2-  O216  1  -0.00661096  0.45076546  0.18121162  1
  O2-  O217  1  -0.01328519  0.36207507  0.35101895  1
  O2-  O218  1  0.00752974  0.37724036  0.87255597  1
  O2-  O219  1  0.25082275  -0.19369239  -0.13396268  1
  O2-  O220  1  0.23369542  -0.08626693  0.26449077  1
  O2-  O221  1  0.24463690  -0.14930151  0.64651674  1
  O2-  O222  1  0.22640840  -0.02580184  0.87451934  1
  O2-  O223  1  0.26997557  0.63600101  -0.05926342  1
  O2-  O224  1  0.25725697  0.63912958  0.13389506  1
  O2-  O225  1  0.24595491  0.66810069  0.61477618  1
  O2-  O226  1  0.26075971  0.61427739  0.78555929  1
  O2-  O227  1  0.50988598  0.12829784  -0.05099080  1
  O2-  O228  1  0.49585099  0.12895165  0.14021399  1
  O2-  O229  1  0.50589610  0.06943880  0.37350762  1
  O2-  O230  1  0.50853140  0.16421449  0.79318755  1
  O2-  O231  1  0.50599492  0.33281999  -0.05922534  1
  O2-  O232  1  0.51030566  0.35612520  0.13419823  1
  O2-  O233  1  0.44720198  0.37815384  0.53502344  1
  O2-  O234  1  0.51267722  0.40368245  0.79886441  1
  O2-  O235  1  0.75386803  -0.14235900  -0.14097211  1
  O2-  O236  1  0.73451302  -0.16015796  0.32597080  1
  O2-  O237  1  0.75302894  -0.12796046  0.52889277  1
  O2-  O238  1  0.73120935  -0.13477952  0.69133888  1
  O2-  O239  1  0.75546025  0.65715098  -0.11711864  1
  O2-  O240  1  0.74284053  0.64613595  0.31886908  1
  O2-  O241  1  0.73184496  0.61437010  0.49813476  1
  O2-  O242  1  0.74657616  0.63139155  0.66094228  1
