# generated using pymatgen
data_Gd19Ta56(WO20)8
_symmetry_space_group_name_H-M   'P 1'
_cell_length_a   15.54324680
_cell_length_b   15.53355960
_cell_length_c   15.33396914
_cell_angle_alpha   89.98101139
_cell_angle_beta   90.02864600
_cell_angle_gamma   90.08801578
_symmetry_Int_Tables_number   1
_chemical_formula_structural   Gd19Ta56(WO20)8
_chemical_formula_sum   'Gd19 Ta56 W8 O160'
_cell_volume   3702.25838722
_cell_formula_units_Z   1
loop_
 _symmetry_equiv_pos_site_id
 _symmetry_equiv_pos_as_xyz
  1  'x, y, z'
loop_
 _atom_type_symbol
 _atom_type_oxidation_number
  Gd3+  3.0
  Ta5+  5.0
  W6+  6.0
  O2-  -2.0
loop_
 _atom_site_type_symbol
 _atom_site_label
 _atom_site_symmetry_multiplicity
 _atom_site_fract_x
 _atom_site_fract_y
 _atom_site_fract_z
 _atom_site_occupancy
  Gd3+  Gd0  1  0.22773094  0.76456424  0.00532741  1
  Gd3+  Gd1  1  0.74018388  0.24991169  0.71574820  1
  Gd3+  Gd2  1  0.25891461  0.24818026  0.49321136  1
  Gd3+  Gd3  1  0.50721434  0.25308241  0.26606717  1
  Gd3+  Gd4  1  0.46820061  0.74891580  0.74980340  1
  Gd3+  Gd5  1  -0.00071723  0.25232604  0.25160770  1
  Gd3+  Gd6  1  0.50505126  0.23884880  0.00406590  1
  Gd3+  Gd7  1  -0.00882738  0.24255468  0.50880325  1
  Gd3+  Gd8  1  0.53120751  0.76133684  -0.02328347  1
  Gd3+  Gd9  1  0.25272812  0.23988474  0.00669547  1
  Gd3+  Gd10  1  0.00477985  0.25548364  -0.00481893  1
  Gd3+  Gd11  1  0.26097126  0.25300994  0.25912435  1
  Gd3+  Gd12  1  0.24541923  0.74104919  0.48734215  1
  Gd3+  Gd13  1  -0.00991084  0.73650879  0.76521440  1
  Gd3+  Gd14  1  0.24856699  0.72418667  0.25575221  1
  Gd3+  Gd15  1  0.76532393  0.74139245  0.75103948  1
  Gd3+  Gd16  1  0.00657070  0.24142440  0.75408761  1
  Gd3+  Gd17  1  0.49397131  0.74051950  0.48980908  1
  Gd3+  Gd18  1  0.51075341  0.23395977  0.75274561  1
  Ta5+  Ta19  1  0.62235403  0.88538009  0.10949552  1
  Ta5+  Ta20  1  0.13905233  0.10927502  0.12902368  1
  Ta5+  Ta21  1  0.35753992  0.61325080  0.61810272  1
  Ta5+  Ta22  1  0.87381762  0.12536780  0.37203862  1
  Ta5+  Ta23  1  0.87766345  0.10524987  0.62992571  1
  Ta5+  Ta24  1  0.62832263  0.11544829  0.59781170  1
  Ta5+  Ta25  1  0.08383400  0.62067418  0.10170064  1
  Ta5+  Ta26  1  0.62076269  0.61790054  0.84864088  1
  Ta5+  Ta27  1  0.36132702  0.39072162  0.12073269  1
  Ta5+  Ta28  1  0.87447850  0.38580570  0.86452665  1
  Ta5+  Ta29  1  0.37309077  0.08739789  0.38388159  1
  Ta5+  Ta30  1  0.39950663  0.60039545  0.36395642  1
  Ta5+  Ta31  1  0.14710629  0.38968823  0.12423052  1
  Ta5+  Ta32  1  0.63746824  0.63132546  0.35607107  1
  Ta5+  Ta33  1  0.88414134  0.63108096  0.14674853  1
  Ta5+  Ta34  1  0.39407234  0.36985689  0.62601145  1
  Ta5+  Ta35  1  0.64076124  0.12028127  0.13912965  1
  Ta5+  Ta36  1  0.14275015  0.37741446  0.62463928  1
  Ta5+  Ta37  1  0.86909442  0.11551752  0.88478891  1
  Ta5+  Ta38  1  0.88942343  0.39332217  0.38252342  1
  Ta5+  Ta39  1  0.86788929  0.38967896  0.64109922  1
  Ta5+  Ta40  1  0.61888604  0.37859169  0.60776951  1
  Ta5+  Ta41  1  0.39236430  0.41245759  0.39126311  1
  Ta5+  Ta42  1  0.38983109  0.12537399  0.13866218  1
  Ta5+  Ta43  1  0.88975149  0.63141288  0.59750470  1
  Ta5+  Ta44  1  0.39807395  0.63157641  0.11404762  1
  Ta5+  Ta45  1  0.35336123  0.87847181  0.62400670  1
  Ta5+  Ta46  1  0.63171516  0.12019293  0.37933066  1
  Ta5+  Ta47  1  0.62422806  0.87070045  0.36255226  1
  Ta5+  Ta48  1  0.64695738  0.37269943  0.87752049  1
  Ta5+  Ta49  1  0.11873998  0.39149651  0.37053624  1
  Ta5+  Ta50  1  0.86774136  0.38222948  0.12340886  1
  Ta5+  Ta51  1  0.62636026  0.38358622  0.12233188  1
  Ta5+  Ta52  1  0.93394510  0.86854692  0.60515409  1
  Ta5+  Ta53  1  0.15616935  0.10000497  0.87028802  1
  Ta5+  Ta54  1  0.67239416  0.12407169  0.91715163  1
  Ta5+  Ta55  1  0.13033324  0.11419584  0.62143899  1
  Ta5+  Ta56  1  0.10235900  0.87072461  0.62589705  1
  Ta5+  Ta57  1  0.60415698  0.87524165  0.62006185  1
  Ta5+  Ta58  1  0.08893285  0.87042181  0.16522922  1
  Ta5+  Ta59  1  0.86179608  0.12687188  0.11614505  1
  Ta5+  Ta60  1  0.37146768  0.11881249  0.62665365  1
  Ta5+  Ta61  1  0.12329587  0.61981811  0.65429791  1
  Ta5+  Ta62  1  0.85753805  0.62193077  0.94036667  1
  Ta5+  Ta63  1  0.08937588  0.88307437  0.87924190  1
  Ta5+  Ta64  1  0.15231631  0.37583364  0.87318823  1
  Ta5+  Ta65  1  0.87075355  0.87546889  0.11731993  1
  Ta5+  Ta66  1  0.38742684  0.89602046  0.37028606  1
  Ta5+  Ta67  1  0.12482710  0.11415083  0.37373707  1
  Ta5+  Ta68  1  0.84247516  0.63312096  0.38156531  1
  Ta5+  Ta69  1  0.63577835  0.38417300  0.37004557  1
  Ta5+  Ta70  1  0.35012053  0.90835268  0.87504385  1
  Ta5+  Ta71  1  0.39174913  0.37367072  0.87651885  1
  Ta5+  Ta72  1  0.36753373  0.10794093  0.87694853  1
  Ta5+  Ta73  1  0.37634869  0.87892879  0.12578752  1
  Ta5+  Ta74  1  0.61005568  0.61786374  0.61544658  1
  W6+  W75  1  0.65054395  0.88533711  0.84946857  1
  W6+  W76  1  0.88377325  0.87479381  0.35862672  1
  W6+  W77  1  0.86296188  0.86409102  0.87887500  1
  W6+  W78  1  0.35101698  0.61751518  0.86497847  1
  W6+  W79  1  0.11823687  0.86130077  0.37439347  1
  W6+  W80  1  0.64918857  0.63498296  0.10315688  1
  W6+  W81  1  0.07728191  0.55990603  0.30144847  1
  W6+  W82  1  0.13272144  0.62520138  0.87148830  1
  O2-  O83  1  0.12992359  -0.01037801  0.13802924  1
  O2-  O84  1  0.12249126  -0.00204139  0.38048439  1
  O2-  O85  1  0.13357336  -0.00184430  0.60446377  1
  O2-  O86  1  0.07261700  0.01226925  0.88664247  1
  O2-  O87  1  0.09287544  0.49567395  0.09596683  1
  O2-  O88  1  0.16640482  0.49965045  0.38656687  1
  O2-  O89  1  0.11346323  0.49300027  0.61949166  1
  O2-  O90  1  0.15838927  0.49057874  0.87490428  1
  O2-  O91  1  0.37587479  -0.00084386  0.13642163  1
  O2-  O92  1  0.30267263  -0.01341892  0.35497033  1
  O2-  O93  1  0.34480308  0.00057421  0.60362856  1
  O2-  O94  1  0.43120285  0.00067333  0.89658531  1
  O2-  O95  1  0.39842396  0.50732935  0.11187451  1
  O2-  O96  1  0.32667563  0.50289187  0.33726119  1
  O2-  O97  1  0.37464480  0.49469221  0.62747462  1
  O2-  O98  1  0.37860397  0.48995723  0.88872662  1
  O2-  O99  1  0.66920629  0.00098474  0.12078092  1
  O2-  O100  1  0.64851721  -0.00991373  0.38487459  1
  O2-  O101  1  0.63176637  -0.00883299  0.59521797  1
  O2-  O102  1  0.65634361  0.02202543  0.86519508  1
  O2-  O103  1  0.62968108  0.49958890  0.10794805  1
  O2-  O104  1  0.65442101  0.50858913  0.36713575  1
  O2-  O105  1  0.58943903  0.49621778  0.62958006  1
  O2-  O106  1  0.63719283  0.49072615  0.86118119  1
  O2-  O107  1  0.85862115  0.01050211  0.11962952  1
  O2-  O108  1  0.86243310  0.00961907  0.36462678  1
  O2-  O109  1  0.88467708  -0.01177763  0.63429908  1
  O2-  O110  1  0.85567089  0.00117981  0.87835334  1
  O2-  O111  1  0.87721776  0.49943165  0.12883751  1
  O2-  O112  1  0.84092141  0.50174381  0.38535208  1
  O2-  O113  1  0.89640424  0.50473641  0.62918641  1
  O2-  O114  1  0.88234672  0.50848456  0.88980554  1
  O2-  O115  1  0.13441307  0.25430481  0.12366010  1
  O2-  O116  1  0.13349936  0.26222180  0.34702458  1
  O2-  O117  1  0.08822827  0.25864359  0.63024698  1
  O2-  O118  1  0.09640229  0.22946996  0.87437420  1
  O2-  O119  1  0.10864030  0.75788991  0.11424611  1
  O2-  O120  1  0.16076727  0.73341901  0.37276581  1
  O2-  O121  1  0.10901135  0.74102647  0.64748642  1
  O2-  O122  1  0.08930624  0.75729407  0.87770571  1
  O2-  O123  1  0.37976820  0.26352161  0.14753369  1
  O2-  O124  1  0.25281405  0.15023550  0.36999919  1
  O2-  O125  1  0.41406864  0.24118612  0.63951982  1
  O2-  O126  1  0.42516968  0.23559348  0.87239591  1
  O2-  O127  1  0.32656625  0.75270209  0.12181725  1
  O2-  O128  1  0.34347220  0.72233925  0.37489722  1
  O2-  O129  1  0.38113013  0.74969118  0.60910072  1
  O2-  O130  1  0.43135527  0.81111428  0.88123206  1
  O2-  O131  1  0.58913034  0.24983203  0.13334523  1
  O2-  O132  1  0.63293620  0.25010149  0.36216853  1
  O2-  O133  1  0.62947362  0.24868983  0.61104614  1
  O2-  O134  1  0.60946488  0.23226469  0.88335022  1
  O2-  O135  1  0.66184195  0.77271859  0.09771004  1
  O2-  O136  1  0.67471863  0.75666731  0.36757878  1
  O2-  O137  1  0.56492271  0.73884982  0.63503340  1
  O2-  O138  1  0.60709580  0.75046932  0.83645653  1
  O2-  O139  1  0.92325403  0.25491990  0.12074864  1
  O2-  O140  1  0.90965365  0.26255883  0.37731808  1
  O2-  O141  1  0.87965255  0.25402883  0.65226660  1
  O2-  O142  1  0.91041715  0.25996787  0.87591946  1
  O2-  O143  1  0.88715759  0.75125434  0.12873465  1
  O2-  O144  1  0.88991722  0.74187823  0.37622601  1
  O2-  O145  1  0.93747046  0.74278768  0.58453756  1
  O2-  O146  1  0.90287851  0.72363536  0.89287932  1
  O2-  O147  1  0.15321769  0.12512786  0.00187372  1
  O2-  O148  1  0.09800129  0.13007708  0.24792600  1
  O2-  O149  1  0.13461666  0.15898891  0.49634595  1
  O2-  O150  1  0.12843794  0.11657270  0.74817434  1
  O2-  O151  1  0.16644693  0.63276166  0.00953672  1
  O2-  O152  1  0.16272357  0.61718422  0.20278727  1
  O2-  O153  1  0.23507586  0.62728407  0.58736400  1
  O2-  O154  1  0.05606276  0.60320501  0.75597261  1
  O2-  O155  1  0.36850045  0.14207870  0.00824290  1
  O2-  O156  1  0.40405454  0.12952267  0.26988709  1
  O2-  O157  1  0.37214830  0.14733929  0.49480695  1
  O2-  O158  1  0.38900217  0.10809748  0.75111158  1
  O2-  O159  1  0.35739038  0.64443638  -0.00295420  1
  O2-  O160  1  0.37009457  0.63191848  0.23596570  1
  O2-  O161  1  0.39048958  0.62109501  0.49427210  1
  O2-  O162  1  0.34978437  0.65035609  0.73940906  1
  O2-  O163  1  0.59184424  0.11716961  0.01700727  1
  O2-  O164  1  0.59575014  0.11295496  0.25461163  1
  O2-  O165  1  0.57314468  0.13032649  0.48712502  1
  O2-  O166  1  0.58072888  0.11855820  0.71046634  1
  O2-  O167  1  0.60935195  0.63705260  -0.02953906  1
  O2-  O168  1  0.64794287  0.63344814  0.23695571  1
  O2-  O169  1  0.60863956  0.63955343  0.49388221  1
  O2-  O170  1  0.67273200  0.62474639  0.72677283  1
  O2-  O171  1  0.93402620  0.12738107  -0.00174211  1
  O2-  O172  1  0.89816990  0.13966010  0.24012242  1
  O2-  O173  1  0.87067344  0.13742078  0.50541898  1
  O2-  O174  1  0.91333649  0.12342734  0.76251949  1
  O2-  O175  1  0.79191027  0.62371369  0.04767102  1
  O2-  O176  1  0.82533103  0.62404607  0.25399461  1
  O2-  O177  1  0.81005467  0.63025782  0.50455589  1
  O2-  O178  1  0.87449572  0.65219599  0.72146537  1
  O2-  O179  1  0.10670716  0.35947510  -0.00947968  1
  O2-  O180  1  0.08669409  0.38079062  0.23679625  1
  O2-  O181  1  0.12242214  0.35138324  0.49780080  1
  O2-  O182  1  0.12289321  0.36067365  0.75305941  1
  O2-  O183  1  0.15191868  0.88260562  -0.01485680  1
  O2-  O184  1  0.18802031  0.85802699  0.24408255  1
  O2-  O185  1  0.14997495  0.84879504  0.50599489  1
  O2-  O186  1  0.10436250  0.88506920  0.75411481  1
  O2-  O187  1  0.41152225  0.35450011  0.00387191  1
  O2-  O188  1  0.38252313  0.30116043  0.32921359  1
  O2-  O189  1  0.37841390  0.34519230  0.50111386  1
  O2-  O190  1  0.42424546  0.37049580  0.75485720  1
  O2-  O191  1  0.33129750  0.88269716  0.00551322  1
  O2-  O192  1  0.37125649  0.85539028  0.25194410  1
  O2-  O193  1  0.35369169  0.85954786  0.48604108  1
  O2-  O194  1  0.34113292  0.88531587  0.75101540  1
  O2-  O195  1  0.59448230  0.36182139  -0.00697845  1
  O2-  O196  1  0.59550347  0.38074305  0.24505419  1
  O2-  O197  1  0.59871849  0.37867923  0.48668918  1
  O2-  O198  1  0.61932528  0.34469094  0.75278269  1
  O2-  O199  1  0.60365984  0.88752342  -0.01779138  1
  O2-  O200  1  0.61795527  0.87967898  0.24057479  1
  O2-  O201  1  0.60891413  0.84308520  0.50083664  1
  O2-  O202  1  0.68749165  0.86048498  0.70976532  1
  O2-  O203  1  0.91069702  0.37332101  0.00128624  1
  O2-  O204  1  0.89360480  0.36985969  0.24903811  1
  O2-  O205  1  0.90514261  0.36785884  0.51775371  1
  O2-  O206  1  0.79427843  0.38225059  0.76368432  1
  O2-  O207  1  0.81457317  0.87068225  0.01116966  1
  O2-  O208  1  0.83060890  0.87830429  0.23430894  1
  O2-  O209  1  0.92246821  0.88910806  0.48612628  1
  O2-  O210  1  0.88720024  0.83860368  0.73254483  1
  O2-  O211  1  -0.01108329  -0.10266065  0.09317792  1
  O2-  O212  1  0.02219332  -0.13495348  0.26780276  1
  O2-  O213  1  0.00338153  0.13509743  0.39249995  1
  O2-  O214  1  0.00351808  0.12500285  0.61160156  1
  O2-  O215  1  -0.03200166  0.62112795  0.03403952  1
  O2-  O216  1  -0.00392717  0.62351742  0.20318710  1
  O2-  O217  1  0.00283666  0.44520965  0.37833763  1
  O2-  O218  1  -0.05029376  0.37983372  0.75595344  1
  O2-  O219  1  0.26096654  0.17712518  -0.12722791  1
  O2-  O220  1  0.25815584  0.14148740  0.15378430  1
  O2-  O221  1  0.25031126  0.16187336  0.62134658  1
  O2-  O222  1  0.26313522  0.01636365  0.87453779  1
  O2-  O223  1  0.25371350  0.38557354  0.04512791  1
  O2-  O224  1  0.25514711  0.38966313  0.20130988  1
  O2-  O225  1  0.26055798  0.35211344  0.62680463  1
  O2-  O226  1  0.26876498  0.34075135  0.87285496  1
  O2-  O227  1  0.49529457  -0.13926163  0.10978609  1
  O2-  O228  1  0.50280241  -0.16120632  0.37379494  1
  O2-  O229  1  0.45765181  -0.00246575  0.40139262  1
  O2-  O230  1  0.48232543  -0.11409681  0.63998195  1
  O2-  O231  1  0.50996421  0.67064798  0.10878919  1
  O2-  O232  1  0.51380628  0.65961438  0.35638508  1
  O2-  O233  1  0.47484430  0.49996310  0.40883149  1
  O2-  O234  1  0.49976330  0.62048747  0.82240332  1
  O2-  O235  1  0.77439925  0.12682969  -0.00892829  1
  O2-  O236  1  0.75119770  0.16875426  0.15351613  1
  O2-  O237  1  0.75314104  0.12165115  0.64195334  1
  O2-  O238  1  0.76245953  0.16795084  0.83345498  1
  O2-  O239  1  0.75936368  0.35563909  -0.08143782  1
  O2-  O240  1  0.74868370  0.35756675  0.11771730  1
  O2-  O241  1  0.74773809  0.38061892  0.60754340  1
  O2-  O242  1  0.75573882  0.63773047  0.87231519  1
