# generated using pymatgen
data_Gd19Ta56(WO20)8
_symmetry_space_group_name_H-M   'P 1'
_cell_length_a   15.63240412
_cell_length_b   15.52882421
_cell_length_c   15.08564288
_cell_angle_alpha   89.93408611
_cell_angle_beta   89.85909375
_cell_angle_gamma   89.97139786
_symmetry_Int_Tables_number   1
_chemical_formula_structural   Gd19Ta56(WO20)8
_chemical_formula_sum   'Gd19 Ta56 W8 O160'
_cell_volume   3662.06893601
_cell_formula_units_Z   1
loop_
 _symmetry_equiv_pos_site_id
 _symmetry_equiv_pos_as_xyz
  1  'x, y, z'
loop_
 _atom_type_symbol
 _atom_type_oxidation_number
  Gd3+  3.0
  Ta5+  5.0
  W6+  6.0
  O2-  -2.0
loop_
 _atom_site_type_symbol
 _atom_site_label
 _atom_site_symmetry_multiplicity
 _atom_site_fract_x
 _atom_site_fract_y
 _atom_site_fract_z
 _atom_site_occupancy
  Gd3+  Gd0  1  0.23140072  0.75467797  0.01467993  1
  Gd3+  Gd1  1  0.28205016  0.24448579  -0.01488926  1
  Gd3+  Gd2  1  -0.04473329  0.24762722  0.03520584  1
  Gd3+  Gd3  1  0.27420705  0.74963642  0.74564669  1
  Gd3+  Gd4  1  0.23847409  0.24835589  0.74102560  1
  Gd3+  Gd5  1  0.73987796  0.24403995  0.72990482  1
  Gd3+  Gd6  1  0.50188094  0.73683082  0.02567486  1
  Gd3+  Gd7  1  0.51736756  0.74211325  0.74574513  1
  Gd3+  Gd8  1  0.28608955  0.23666579  0.23621016  1
  Gd3+  Gd9  1  0.71044259  0.76758684  0.27930983  1
  Gd3+  Gd10  1  0.52727939  0.72395357  0.48051179  1
  Gd3+  Gd11  1  0.26217711  0.23753443  0.49151962  1
  Gd3+  Gd12  1  0.01055146  0.24455711  0.78700416  1
  Gd3+  Gd13  1  -0.01466473  0.75644649  0.00951391  1
  Gd3+  Gd14  1  0.02189764  0.75093045  0.50648314  1
  Gd3+  Gd15  1  0.27715088  0.76495916  0.49904114  1
  Gd3+  Gd16  1  -0.02133136  0.74369657  0.26986076  1
  Gd3+  Gd17  1  -0.00759576  0.26119705  0.27747249  1
  Gd3+  Gd18  1  0.01592867  0.75017594  0.76112325  1
  Ta5+  Ta19  1  0.63378065  0.16323710  0.38646585  1
  Ta5+  Ta20  1  0.84434997  0.87341236  0.13607788  1
  Ta5+  Ta21  1  0.09356532  0.12513952  0.57888174  1
  Ta5+  Ta22  1  0.61880302  0.37333981  0.12084906  1
  Ta5+  Ta23  1  0.41095117  0.88037552  0.61916945  1
  Ta5+  Ta24  1  0.10962603  0.87995478  0.14716026  1
  Ta5+  Ta25  1  0.42417167  0.12742106  0.10960312  1
  Ta5+  Ta26  1  0.38191483  0.38386889  0.62068061  1
  Ta5+  Ta27  1  0.62165894  0.87624896  0.88826633  1
  Ta5+  Ta28  1  0.85751372  0.62227154  0.40853588  1
  Ta5+  Ta29  1  0.69117956  0.60161392  0.40540436  1
  Ta5+  Ta30  1  0.08679572  0.37077569  0.58097243  1
  Ta5+  Ta31  1  0.10972500  0.37717081  0.92400373  1
  Ta5+  Ta32  1  0.84900433  0.87398024  0.87236106  1
  Ta5+  Ta33  1  0.15675448  0.62348322  0.36697288  1
  Ta5+  Ta34  1  0.40278507  0.37514756  0.84168913  1
  Ta5+  Ta35  1  0.86510991  0.38032106  0.89291619  1
  Ta5+  Ta36  1  0.15507552  0.88804421  0.87644544  1
  Ta5+  Ta37  1  0.89206798  0.37888417  0.41381479  1
  Ta5+  Ta38  1  0.34483775  0.38914013  0.36348716  1
  Ta5+  Ta39  1  0.85651735  0.62535954  0.87997403  1
  Ta5+  Ta40  1  0.89152031  0.12293493  0.62491494  1
  Ta5+  Ta41  1  0.40490508  0.10991035  0.37076057  1
  Ta5+  Ta42  1  0.39176244  0.38684751  0.10738243  1
  Ta5+  Ta43  1  0.63559755  0.12520108  0.88820694  1
  Ta5+  Ta44  1  0.17434960  0.38194446  0.34605219  1
  Ta5+  Ta45  1  0.63186486  0.36543365  0.88370111  1
  Ta5+  Ta46  1  0.58913141  0.37956487  0.64138114  1
  Ta5+  Ta47  1  0.15280958  0.61399156  0.87756195  1
  Ta5+  Ta48  1  0.86877518  0.88005957  0.66170250  1
  Ta5+  Ta49  1  0.36233391  0.61496692  0.87885297  1
  Ta5+  Ta50  1  0.10288077  0.12028405  0.15342117  1
  Ta5+  Ta51  1  0.37811508  0.11743145  0.63257946  1
  Ta5+  Ta52  1  0.32428740  0.63478186  0.35143909  1
  Ta5+  Ta53  1  0.34213984  0.61439588  0.11041735  1
  Ta5+  Ta54  1  0.10909140  0.12312182  0.92876418  1
  Ta5+  Ta55  1  0.13427477  0.11969596  0.32579997  1
  Ta5+  Ta56  1  0.83472467  0.37632049  0.16385654  1
  Ta5+  Ta57  1  0.85765480  0.11865386  0.15943835  1
  Ta5+  Ta58  1  0.84446764  0.87788814  0.40854307  1
  Ta5+  Ta59  1  0.60081969  0.94152940  0.38552895  1
  Ta5+  Ta60  1  0.58955828  0.13505574  0.13501290  1
  Ta5+  Ta61  1  0.11261160  0.38320805  0.14479778  1
  Ta5+  Ta62  1  0.59837861  0.88559273  0.14250498  1
  Ta5+  Ta63  1  0.64096773  0.62050991  0.14778978  1
  Ta5+  Ta64  1  0.37989945  0.89560946  0.35748979  1
  Ta5+  Ta65  1  0.89995131  0.11797155  0.41236426  1
  Ta5+  Ta66  1  0.65062657  0.61193043  0.63253264  1
  Ta5+  Ta67  1  0.10136898  0.61482674  0.13062251  1
  Ta5+  Ta68  1  0.86981017  0.62438463  0.63256807  1
  Ta5+  Ta69  1  0.72313286  0.36736402  0.43567485  1
  Ta5+  Ta70  1  0.40538644  0.12517013  0.84567174  1
  Ta5+  Ta71  1  0.86428540  0.11615667  0.89245041  1
  Ta5+  Ta72  1  0.36337603  0.88522199  0.87631161  1
  Ta5+  Ta73  1  0.14577410  0.88637361  0.62682426  1
  Ta5+  Ta74  1  0.13981172  0.61069028  0.62530504  1
  W6+  W75  1  0.38518020  0.61703521  0.61232113  1
  W6+  W76  1  0.57705529  0.88128791  0.62144791  1
  W6+  W77  1  0.87097811  0.62215762  0.14342508  1
  W6+  W78  1  0.89235407  0.37489337  0.63200238  1
  W6+  W79  1  0.58473759  0.13209203  0.62793714  1
  W6+  W80  1  0.61034724  0.61425531  0.88753752  1
  W6+  W81  1  0.38786826  0.88223772  0.11356838  1
  W6+  W82  1  0.13332302  0.87716300  0.35337170  1
  O2-  O83  1  0.11247063  -0.00336198  0.11883450  1
  O2-  O84  1  0.11574351  0.00385837  0.35133265  1
  O2-  O85  1  0.12999008  0.01250330  0.61396014  1
  O2-  O86  1  0.13141323  0.00346782  0.90046489  1
  O2-  O87  1  0.07961555  0.49589757  0.09869962  1
  O2-  O88  1  0.15817860  0.50314307  0.37362709  1
  O2-  O89  1  0.11873599  0.48878031  0.61001743  1
  O2-  O90  1  0.13372201  0.49624749  0.90108478  1
  O2-  O91  1  0.41171212  0.01074770  0.10652435  1
  O2-  O92  1  0.32666862  0.00838935  0.35760327  1
  O2-  O93  1  0.37429952  -0.00434502  0.63696690  1
  O2-  O94  1  0.39844318  0.00171326  0.85672532  1
  O2-  O95  1  0.32716100  0.48832124  0.10569967  1
  O2-  O96  1  0.34503438  0.50713642  0.36434530  1
  O2-  O97  1  0.33719952  0.49339179  0.62312534  1
  O2-  O98  1  0.39481043  0.49606763  0.85917991  1
  O2-  O99  1  0.59881630  0.00367795  0.13720874  1
  O2-  O100  1  0.66858956  0.04173273  0.38854797  1
  O2-  O101  1  0.57882741  0.01420893  0.61472278  1
  O2-  O102  1  0.63235045  -0.00210735  0.89511332  1
  O2-  O103  1  0.64021911  0.49739334  0.14785893  1
  O2-  O104  1  0.68645371  0.47527860  0.39865471  1
  O2-  O105  1  0.65177732  0.48975381  0.63988501  1
  O2-  O106  1  0.63925565  0.48297662  0.89608909  1
  O2-  O107  1  0.85109789  -0.00744129  0.14866154  1
  O2-  O108  1  0.89603674  -0.01545416  0.40048039  1
  O2-  O109  1  0.89126222  -0.00121378  0.65422491  1
  O2-  O110  1  0.83452984  -0.00371642  0.88219338  1
  O2-  O111  1  0.83891233  0.49390046  0.15314036  1
  O2-  O112  1  0.88883286  0.50686157  0.40365849  1
  O2-  O113  1  0.88038000  0.50949895  0.64351450  1
  O2-  O114  1  0.84947311  0.50152643  0.88201518  1
  O2-  O115  1  0.07647805  0.25745346  0.13955347  1
  O2-  O116  1  0.15268275  0.25096433  0.32937048  1
  O2-  O117  1  0.14638511  0.24603703  0.61456493  1
  O2-  O118  1  0.07126997  0.24981091  0.94269862  1
  O2-  O119  1  0.08114283  0.74635424  0.13927745  1
  O2-  O120  1  0.09367245  0.74678608  0.36858859  1
  O2-  O121  1  0.11064657  0.75158319  0.63904409  1
  O2-  O122  1  0.15708280  0.75136093  0.85805422  1
  O2-  O123  1  0.36557201  0.25544058  0.10723774  1
  O2-  O124  1  0.35072243  0.23652310  0.37000365  1
  O2-  O125  1  0.34423487  0.25153944  0.62593657  1
  O2-  O126  1  0.35727584  0.24897627  0.84687319  1
  O2-  O127  1  0.35817105  0.74372878  0.09342382  1
  O2-  O128  1  0.33023865  0.77540944  0.35603808  1
  O2-  O129  1  0.41370661  0.75064833  0.60431590  1
  O2-  O130  1  0.33847501  0.74716112  0.88912593  1
  O2-  O131  1  0.56252383  0.26618370  0.13842221  1
  O2-  O132  1  0.70437070  0.26309809  0.36875744  1
  O2-  O133  1  0.59654176  0.25597046  0.66553910  1
  O2-  O134  1  0.69277304  0.24513912  0.87606890  1
  O2-  O135  1  0.58676277  0.74297372  0.16242449  1
  O2-  O136  1  0.65307414  0.72501488  0.40792161  1
  O2-  O137  1  0.59874434  0.73512934  0.61473899  1
  O2-  O138  1  0.56677463  0.74977853  0.88775460  1
  O2-  O139  1  0.87791619  0.25023247  0.16631078  1
  O2-  O140  1  0.91266947  0.24448274  0.41459953  1
  O2-  O141  1  0.85879697  0.24153046  0.62729240  1
  O2-  O142  1  0.89617892  0.24798804  0.89288143  1
  O2-  O143  1  0.90531803  0.75767417  0.13361924  1
  O2-  O144  1  0.90240600  0.76168659  0.41204705  1
  O2-  O145  1  0.92431648  0.76275655  0.64298727  1
  O2-  O146  1  0.90579167  0.75336332  0.87829055  1
  O2-  O147  1  0.18098257  0.14056326  0.02894986  1
  O2-  O148  1  0.21630829  0.11170185  0.22119854  1
  O2-  O149  1  0.14843244  0.14208966  0.46780510  1
  O2-  O150  1  0.13412253  0.16183647  0.81054755  1
  O2-  O151  1  0.09735628  0.65321015  -0.00934774  1
  O2-  O152  1  0.08417829  0.61441297  0.25592764  1
  O2-  O153  1  0.12867634  0.63945925  0.49986289  1
  O2-  O154  1  0.09743285  0.61691204  0.75575492  1
  O2-  O155  1  0.38341064  0.13799522  -0.02446460  1
  O2-  O156  1  0.40635425  0.13429539  0.24271406  1
  O2-  O157  1  0.37040537  0.12193433  0.50206978  1
  O2-  O158  1  0.31068798  0.11930187  0.75035243  1
  O2-  O159  1  0.42091527  0.61303132  -0.00269305  1
  O2-  O160  1  0.37156459  0.62367632  0.22944285  1
  O2-  O161  1  0.37128566  0.64644490  0.47522107  1
  O2-  O162  1  0.40365007  0.64915788  0.75751409  1
  O2-  O163  1  0.64240553  0.13849787  0.01478850  1
  O2-  O164  1  0.62677097  0.14533548  0.25372086  1
  O2-  O165  1  0.64395911  0.16301597  0.51262950  1
  O2-  O166  1  0.66228683  0.12049479  0.76008327  1
  O2-  O167  1  0.60342449  0.62765100  0.02604082  1
  O2-  O168  1  0.66834346  0.61763112  0.27922889  1
  O2-  O169  1  0.60000896  0.59910176  0.51347641  1
  O2-  O170  1  0.59334136  0.61568181  0.74390692  1
  O2-  O171  1  0.84257961  0.13503519  0.01902707  1
  O2-  O172  1  0.87304925  0.12155094  0.28722823  1
  O2-  O173  1  0.82578707  0.10611708  0.51572355  1
  O2-  O174  1  0.85160195  0.13814391  0.76453458  1
  O2-  O175  1  0.90098691  0.62974463  -0.00177322  1
  O2-  O176  1  0.85745458  0.65168297  0.28156702  1
  O2-  O177  1  0.93872036  0.63418848  0.52536256  1
  O2-  O178  1  0.91189275  0.63541148  0.76050405  1
  O2-  O179  1  0.18270962  0.35777859  0.02495810  1
  O2-  O180  1  0.21683907  0.37092190  0.20891405  1
  O2-  O181  1  0.15765533  0.35336866  0.47842518  1
  O2-  O182  1  0.14552400  0.33811829  0.81332052  1
  O2-  O183  1  0.10490045  0.84861324  0.00344811  1
  O2-  O184  1  0.03024126  0.87930403  0.24560409  1
  O2-  O185  1  0.12979426  0.86540892  0.49999705  1
  O2-  O186  1  0.10326666  0.88315905  0.75081470  1
  O2-  O187  1  0.36397519  0.36645896  -0.02656059  1
  O2-  O188  1  0.38847215  0.37008812  0.23530212  1
  O2-  O189  1  0.34207657  0.36555834  0.49749230  1
  O2-  O190  1  0.31475660  0.37516999  0.74705018  1
  O2-  O191  1  0.42967069  0.86432015  -0.02056527  1
  O2-  O192  1  0.42124496  0.87805915  0.24303423  1
  O2-  O193  1  0.38095599  0.87887814  0.48976328  1
  O2-  O194  1  0.40458144  0.84463826  0.75595416  1
  O2-  O195  1  0.66597247  0.35375282  0.01074258  1
  O2-  O196  1  0.72043134  0.34492199  0.18902028  1
  O2-  O197  1  0.64774657  0.34917776  0.53627370  1
  O2-  O198  1  0.65918310  0.37025648  0.75891718  1
  O2-  O199  1  0.59435453  0.86132622  0.01577901  1
  O2-  O200  1  0.60461193  0.87908792  0.27662904  1
  O2-  O201  1  0.56936779  0.86646144  0.47700590  1
  O2-  O202  1  0.59219300  0.87203862  0.76710493  1
  O2-  O203  1  0.85337469  0.36088864  0.02626560  1
  O2-  O204  1  0.88252171  0.36853131  0.28435478  1
  O2-  O205  1  0.81012203  0.39344826  0.52469387  1
  O2-  O206  1  0.84049709  0.35587942  0.77106981  1
  O2-  O207  1  0.87992554  0.87095869  0.00381628  1
  O2-  O208  1  0.84616327  0.84653132  0.26956074  1
  O2-  O209  1  0.83486904  0.87060782  0.53784717  1
  O2-  O210  1  0.93982220  0.88135987  0.78047583  1
  O2-  O211  1  -0.01608011  0.10066707  -0.09580085  1
  O2-  O212  1  -0.02288667  0.11884218  0.12480907  1
  O2-  O213  1  -0.01502943  0.10459371  0.52098350  1
  O2-  O214  1  0.00818728  0.14470333  0.67894022  1
  O2-  O215  1  -0.01259971  0.39310850  -0.09740290  1
  O2-  O216  1  0.06079473  0.39110685  0.26132839  1
  O2-  O217  1  -0.01670547  0.38463392  0.51753350  1
  O2-  O218  1  0.01640937  0.34962479  0.68927560  1
  O2-  O219  1  0.25987917  -0.11031672  -0.04009297  1
  O2-  O220  1  0.19851768  -0.13530508  0.22676712  1
  O2-  O221  1  0.26465551  -0.14846071  0.62465256  1
  O2-  O222  1  0.25539546  -0.10836917  0.79861306  1
  O2-  O223  1  0.26080248  0.61341593  -0.03403469  1
  O2-  O224  1  0.22197307  0.63913806  0.13023183  1
  O2-  O225  1  0.25303689  0.66377442  0.61998211  1
  O2-  O226  1  0.25520377  0.60645034  0.80280128  1
  O2-  O227  1  0.52101211  0.15269710  -0.12352119  1
  O2-  O228  1  0.48519650  -0.00719435  0.37629253  1
  O2-  O229  1  0.51275361  0.16808478  0.39082188  1
  O2-  O230  1  0.46911308  0.13544129  0.71864804  1
  O2-  O231  1  0.51542350  0.34176499  -0.10992582  1
  O2-  O232  1  0.50243998  0.42250649  0.08736252  1
  O2-  O233  1  0.49174738  0.40930707  0.56790190  1
  O2-  O234  1  0.47408542  0.37750251  0.72642889  1
  O2-  O235  1  0.73477707  -0.16092889  -0.09606037  1
  O2-  O236  1  0.72517696  -0.13991564  0.13738044  1
  O2-  O237  1  0.72678590  -0.11418063  0.39074802  1
  O2-  O238  1  0.78327368  -0.13742678  0.74483037  1
  O2-  O239  1  0.74471855  0.65219762  -0.12060071  1
  O2-  O240  1  0.74764461  0.67219142  0.13072586  1
  O2-  O241  1  0.77343013  0.62040852  0.51754790  1
  O2-  O242  1  0.75701391  0.65713639  0.67688467  1
