# generated using pymatgen
data_Gd19Ta56(WO20)8
_symmetry_space_group_name_H-M   'P 1'
_cell_length_a   15.65035256
_cell_length_b   15.49984698
_cell_length_c   15.09726032
_cell_angle_alpha   90.26822960
_cell_angle_beta   89.67242158
_cell_angle_gamma   90.30991775
_symmetry_Int_Tables_number   1
_chemical_formula_structural   Gd19Ta56(WO20)8
_chemical_formula_sum   'Gd19 Ta56 W8 O160'
_cell_volume   3662.11123367
_cell_formula_units_Z   1
loop_
 _symmetry_equiv_pos_site_id
 _symmetry_equiv_pos_as_xyz
  1  'x, y, z'
loop_
 _atom_type_symbol
 _atom_type_oxidation_number
  Gd3+  3.0
  Ta5+  5.0
  W6+  6.0
  O2-  -2.0
loop_
 _atom_site_type_symbol
 _atom_site_label
 _atom_site_symmetry_multiplicity
 _atom_site_fract_x
 _atom_site_fract_y
 _atom_site_fract_z
 _atom_site_occupancy
  Gd3+  Gd0  1  0.50578426  0.74568248  0.00999753  1
  Gd3+  Gd1  1  0.26148100  0.74955456  0.00430974  1
  Gd3+  Gd2  1  0.23596320  0.75336513  0.26257395  1
  Gd3+  Gd3  1  0.22664727  0.23963490  0.47584653  1
  Gd3+  Gd4  1  -0.01544913  0.76031176  0.23459187  1
  Gd3+  Gd5  1  0.49389814  0.74152606  0.50965836  1
  Gd3+  Gd6  1  0.53183856  0.28808606  0.49914487  1
  Gd3+  Gd7  1  0.49227745  0.74606358  0.75403047  1
  Gd3+  Gd8  1  0.50441465  0.26814533  0.25574618  1
  Gd3+  Gd9  1  0.75521130  0.24182220  0.75294577  1
  Gd3+  Gd10  1  -0.00601968  0.75305245  0.49156084  1
  Gd3+  Gd11  1  0.50656416  0.26722929  0.73831242  1
  Gd3+  Gd12  1  0.23740322  0.23763857  0.23617593  1
  Gd3+  Gd13  1  0.25172211  0.25768271  -0.00694385  1
  Gd3+  Gd14  1  0.76515469  0.73967565  0.45508988  1
  Gd3+  Gd15  1  -0.00677338  0.74700996  0.73392254  1
  Gd3+  Gd16  1  0.78676961  0.69560012  0.08109465  1
  Gd3+  Gd17  1  0.75351302  0.24914741  0.01399124  1
  Gd3+  Gd18  1  0.00386118  0.74577853  -0.02510270  1
  Ta5+  Ta19  1  0.84380169  0.88205776  0.62143037  1
  Ta5+  Ta20  1  0.62294522  0.11983952  0.87809841  1
  Ta5+  Ta21  1  0.91337168  0.14167533  0.35929790  1
  Ta5+  Ta22  1  0.37409446  0.88632253  0.88360313  1
  Ta5+  Ta23  1  0.63699033  0.61982718  0.87338140  1
  Ta5+  Ta24  1  0.38326501  0.38982952  0.12930483  1
  Ta5+  Ta25  1  0.33299891  0.62448215  0.64013851  1
  Ta5+  Ta26  1  0.40655703  0.12430079  0.60904706  1
  Ta5+  Ta27  1  0.90884302  0.35759795  0.35831676  1
  Ta5+  Ta28  1  0.10387117  0.61568386  0.09776141  1
  Ta5+  Ta29  1  0.86467694  0.89145541  0.86111498  1
  Ta5+  Ta30  1  0.67992006  0.37975802  0.62136456  1
  Ta5+  Ta31  1  0.32809335  0.62862877  0.41612235  1
  Ta5+  Ta32  1  0.91030836  0.12224772  0.10998756  1
  Ta5+  Ta33  1  0.88842663  0.12352359  0.86991146  1
  Ta5+  Ta34  1  0.13054531  0.12246300  0.85680704  1
  Ta5+  Ta35  1  0.37653962  0.88273390  0.15257387  1
  Ta5+  Ta36  1  0.09842749  0.60918879  0.35140429  1
  Ta5+  Ta37  1  0.87425048  0.38738003  0.87853967  1
  Ta5+  Ta38  1  0.14364242  0.61886629  0.83413255  1
  Ta5+  Ta39  1  0.41223701  0.12719678  0.39231834  1
  Ta5+  Ta40  1  0.90166823  0.36330548  0.13730088  1
  Ta5+  Ta41  1  0.38217170  0.62519187  0.15720611  1
  Ta5+  Ta42  1  0.14757151  0.87757352  0.83319052  1
  Ta5+  Ta43  1  0.38222218  0.13272001  0.87066466  1
  Ta5+  Ta44  1  0.34208893  0.88585956  0.41644327  1
  Ta5+  Ta45  1  0.62636604  0.87560147  0.38000539  1
  Ta5+  Ta46  1  0.64100531  0.87621073  0.63222630  1
  Ta5+  Ta47  1  0.62219784  0.13146286  0.13599873  1
  Ta5+  Ta48  1  0.12307280  0.09534029  0.10280069  1
  Ta5+  Ta49  1  0.57233792  0.57373331  0.12964835  1
  Ta5+  Ta50  1  0.37801302  0.61622648  0.88850157  1
  Ta5+  Ta51  1  0.09449017  0.36531419  0.60589492  1
  Ta5+  Ta52  1  0.11411581  0.12162726  0.61245321  1
  Ta5+  Ta53  1  0.35080332  0.88198366  0.63673472  1
  Ta5+  Ta54  1  0.87792088  0.12756791  0.60821513  1
  Ta5+  Ta55  1  0.38468970  0.12898652  0.12920884  1
  Ta5+  Ta56  1  0.66881100  0.36881108  0.36847787  1
  Ta5+  Ta57  1  0.62080363  0.60536069  0.37934426  1
  Ta5+  Ta58  1  0.93895317  0.91671322  0.10327948  1
  Ta5+  Ta59  1  0.61567005  0.88872424  0.13040929  1
  Ta5+  Ta60  1  0.10326405  0.88720043  0.35942829  1
  Ta5+  Ta61  1  0.07629012  0.36180019  0.34335524  1
  Ta5+  Ta62  1  0.11717394  0.37652156  0.85916064  1
  Ta5+  Ta63  1  0.37715740  0.39005096  0.39522032  1
  Ta5+  Ta64  1  0.57581753  0.11607503  0.38930046  1
  Ta5+  Ta65  1  0.13296417  0.61248968  0.60451972  1
  Ta5+  Ta66  1  0.86955489  0.60244828  0.34662449  1
  Ta5+  Ta67  1  0.07393879  0.13265440  0.35217730  1
  Ta5+  Ta68  1  0.87401812  0.89971384  0.35851261  1
  Ta5+  Ta69  1  0.14786319  0.87590115  0.60669329  1
  Ta5+  Ta70  1  0.10788731  0.36956245  0.11502699  1
  Ta5+  Ta71  1  0.61585363  0.40154556  0.12552228  1
  Ta5+  Ta72  1  0.60498725  0.12225823  0.60780367  1
  Ta5+  Ta73  1  0.62209011  0.37608319  0.88155502  1
  Ta5+  Ta74  1  0.63625984  0.87508318  0.87521191  1
  W6+  W75  1  0.10508611  0.88373009  0.09410267  1
  W6+  W76  1  0.37425829  0.38217402  0.61118132  1
  W6+  W77  1  0.86417744  0.61343910  0.61634611  1
  W6+  W78  1  0.38228622  0.38212229  0.87286938  1
  W6+  W79  1  0.84085906  0.63570877  0.86649841  1
  W6+  W80  1  0.84287993  0.36788655  0.60632616  1
  W6+  W81  1  0.94363409  0.60318050  0.13663757  1
  W6+  W82  1  0.64374329  0.62584823  0.64795799  1
  O2-  O83  1  0.19150920  -0.00329367  0.10261301  1
  O2-  O84  1  0.08862677  0.00451752  0.35216901  1
  O2-  O85  1  0.14173026  0.00176390  0.60792755  1
  O2-  O86  1  0.16253111  -0.00033936  0.84161645  1
  O2-  O87  1  0.11399403  0.49239189  0.11060247  1
  O2-  O88  1  0.09999727  0.48979308  0.34576761  1
  O2-  O89  1  0.12394644  0.49057605  0.60277267  1
  O2-  O90  1  0.15401296  0.49607457  0.84724100  1
  O2-  O91  1  0.38171478  0.00425153  0.14275278  1
  O2-  O92  1  0.36867654  0.00178590  0.39877996  1
  O2-  O93  1  0.36829126  0.00207851  0.63292537  1
  O2-  O94  1  0.36482832  0.00631157  0.87301799  1
  O2-  O95  1  0.35123425  0.50644776  0.14897682  1
  O2-  O96  1  0.33525216  0.50952681  0.38890914  1
  O2-  O97  1  0.33316973  0.50722299  0.63732592  1
  O2-  O98  1  0.42336054  0.50896012  0.89282605  1
  O2-  O99  1  0.65040622  0.00440169  0.12857206  1
  O2-  O100  1  0.59144839  -0.00882053  0.38731807  1
  O2-  O101  1  0.61602481  -0.00673501  0.62039788  1
  O2-  O102  1  0.64823021  0.00036319  0.87091761  1
  O2-  O103  1  0.68000731  0.50968162  0.11475627  1
  O2-  O104  1  0.64234210  0.48299303  0.39331937  1
  O2-  O105  1  0.66967678  0.49632526  0.62802000  1
  O2-  O106  1  0.63976087  0.49628771  0.88003732  1
  O2-  O107  1  0.85488801  0.01079404  0.11684324  1
  O2-  O108  1  0.87169604  0.01848911  0.36454318  1
  O2-  O109  1  0.84932991  0.00624725  0.60702135  1
  O2-  O110  1  0.83695766  0.01110455  0.85166683  1
  O2-  O111  1  0.88933108  0.47923509  0.13787857  1
  O2-  O112  1  0.88130724  0.48524186  0.34924235  1
  O2-  O113  1  0.87660516  0.49740314  0.59916503  1
  O2-  O114  1  0.84327297  0.49954048  0.87785962  1
  O2-  O115  1  0.15677589  0.23977374  0.10848318  1
  O2-  O116  1  0.14852639  0.24785618  0.35154056  1
  O2-  O117  1  0.15280462  0.24820432  0.60461825  1
  O2-  O118  1  0.14032440  0.24950244  0.87409767  1
  O2-  O119  1  0.13488842  0.74556869  0.07282948  1
  O2-  O120  1  0.06970400  0.75168661  0.36030943  1
  O2-  O121  1  0.10230940  0.75031208  0.60854175  1
  O2-  O122  1  0.11028355  0.74738411  0.83206972  1
  O2-  O123  1  0.34468842  0.25523707  0.12745791  1
  O2-  O124  1  0.42037233  0.26221208  0.39736058  1
  O2-  O125  1  0.42762842  0.25436244  0.60301670  1
  O2-  O126  1  0.33507762  0.24692986  0.86530356  1
  O2-  O127  1  0.32694557  0.75722053  0.14306339  1
  O2-  O128  1  0.36423017  0.75366932  0.41782589  1
  O2-  O129  1  0.38880477  0.75234740  0.63285690  1
  O2-  O130  1  0.41264486  0.75420044  0.89076652  1
  O2-  O131  1  0.65884580  0.24990751  0.13578536  1
  O2-  O132  1  0.60400259  0.25367702  0.36872067  1
  O2-  O133  1  0.61025546  0.25474199  0.62516886  1
  O2-  O134  1  0.67122855  0.24315637  0.88091730  1
  O2-  O135  1  0.70096470  0.80880277  0.10528124  1
  O2-  O136  1  0.62853104  0.74324200  0.38173815  1
  O2-  O137  1  0.58820636  0.75754857  0.63814895  1
  O2-  O138  1  0.59453334  0.75166209  0.87977885  1
  O2-  O139  1  0.85900904  0.23384754  0.11604021  1
  O2-  O140  1  0.98975357  0.25139631  0.35827316  1
  O2-  O141  1  0.80689357  0.22758325  0.61139027  1
  O2-  O142  1  0.85478219  0.24615847  0.87827605  1
  O2-  O143  1  0.90028852  0.79720142  0.09237284  1
  O2-  O144  1  0.87827333  0.75527810  0.34456409  1
  O2-  O145  1  0.89858171  0.76495949  0.61602793  1
  O2-  O146  1  0.90786354  0.76791370  0.86282881  1
  O2-  O147  1  0.17415905  0.12103261  -0.02218609  1
  O2-  O148  1  0.12515958  0.12786063  0.22655994  1
  O2-  O149  1  0.11047387  0.13444835  0.48383441  1
  O2-  O150  1  0.15938624  0.13464938  0.73429816  1
  O2-  O151  1  0.09310129  0.62315894  -0.04467123  1
  O2-  O152  1  0.13787611  0.64379792  0.22404751  1
  O2-  O153  1  0.07430047  0.62227116  0.48730647  1
  O2-  O154  1  0.07009775  0.61488208  0.72345178  1
  O2-  O155  1  0.35795896  0.13400300  0.00062229  1
  O2-  O156  1  0.38848096  0.14864628  0.26092942  1
  O2-  O157  1  0.32992685  0.14138213  0.50953030  1
  O2-  O158  1  0.40783097  0.14336813  0.74122260  1
  O2-  O159  1  0.37460977  0.64626925  0.01865647  1
  O2-  O160  1  0.35329992  0.64684891  0.28065296  1
  O2-  O161  1  0.40282092  0.62250069  0.52174793  1
  O2-  O162  1  0.38583412  0.63663597  0.75945755  1
  O2-  O163  1  0.65402983  0.12726446  0.00173196  1
  O2-  O164  1  0.59629076  0.12518251  0.25833027  1
  O2-  O165  1  0.65432664  0.14079548  0.49675909  1
  O2-  O166  1  0.63478377  0.13673944  0.74694806  1
  O2-  O167  1  0.57022436  0.61609377  -0.00382119  1
  O2-  O168  1  0.58438754  0.59199910  0.26173049  1
  O2-  O169  1  0.58972362  0.62580673  0.50525679  1
  O2-  O170  1  0.56075822  0.61764634  0.76843688  1
  O2-  O171  1  0.84206319  0.12231663  -0.01224923  1
  O2-  O172  1  0.94166517  0.12901306  0.22981803  1
  O2-  O173  1  0.90513891  0.14622102  0.49024357  1
  O2-  O174  1  0.85788735  0.13728837  0.74595526  1
  O2-  O175  1  0.90300863  0.64075863  0.00018855  1
  O2-  O176  1  0.98404906  0.61334172  0.29097339  1
  O2-  O177  1  0.88685833  0.64203770  0.47064577  1
  O2-  O178  1  0.89894140  0.63440949  0.74069162  1
  O2-  O179  1  0.15754598  0.37370498  -0.01087732  1
  O2-  O180  1  0.16937240  0.36546960  0.22939901  1
  O2-  O181  1  0.10175108  0.35517373  0.47642396  1
  O2-  O182  1  0.12923984  0.36361177  0.73566932  1
  O2-  O183  1  0.09536823  0.87460375  -0.05354163  1
  O2-  O184  1  0.11853012  0.85477684  0.23331141  1
  O2-  O185  1  0.08478914  0.87544358  0.49242009  1
  O2-  O186  1  0.07972447  0.88023085  0.72292237  1
  O2-  O187  1  0.34638441  0.37764252  0.00894050  1
  O2-  O188  1  0.38835382  0.36591056  0.26344604  1
  O2-  O189  1  0.29642113  0.36442576  0.49092880  1
  O2-  O190  1  0.41472329  0.37317360  0.73864669  1
  O2-  O191  1  0.35950138  0.87053824  0.01454094  1
  O2-  O192  1  0.36524081  0.86837926  0.27718595  1
  O2-  O193  1  0.41790134  0.87655902  0.52166552  1
  O2-  O194  1  0.40384381  0.87202914  0.75696903  1
  O2-  O195  1  0.65289983  0.36428719  0.00463844  1
  O2-  O196  1  0.61218222  0.37745597  0.25211745  1
  O2-  O197  1  0.67556458  0.34599363  0.49509258  1
  O2-  O198  1  0.64464361  0.35727669  0.75226315  1
  O2-  O199  1  0.58395367  0.88310245  -0.00944385  1
  O2-  O200  1  0.60203194  0.86982012  0.25446726  1
  O2-  O201  1  0.59009699  0.85927227  0.50380844  1
  O2-  O202  1  0.58413806  0.87498769  0.75961554  1
  O2-  O203  1  0.84273270  0.36783852  0.00313351  1
  O2-  O204  1  0.84382577  0.33658935  0.24755684  1
  O2-  O205  1  0.87091843  0.34693069  0.47210951  1
  O2-  O206  1  0.83763530  0.36417542  0.75811709  1
  O2-  O207  1  0.92421860  0.91445991  -0.03241218  1
  O2-  O208  1  0.92047690  0.89677442  0.23831401  1
  O2-  O209  1  0.89232194  0.87265597  0.48652728  1
  O2-  O210  1  0.90724203  0.88793950  0.73896671  1
  O2-  O211  1  0.01442789  0.14246299  0.04877874  1
  O2-  O212  1  0.03177480  0.00359497  0.12800925  1
  O2-  O213  1  -0.00178909  0.12456863  0.64243225  1
  O2-  O214  1  0.00931338  0.11350539  0.86041954  1
  O2-  O215  1  0.00197183  0.33655850  0.06024728  1
  O2-  O216  1  0.00781791  0.36288525  0.22166126  1
  O2-  O217  1  -0.01524438  0.33969731  0.62728310  1
  O2-  O218  1  -0.00282953  0.38313241  0.87000070  1
  O2-  O219  1  0.25804451  -0.16133876  -0.12385706  1
  O2-  O220  1  0.22566396  -0.13834413  0.37219935  1
  O2-  O221  1  0.25865372  -0.12796904  0.53851856  1
  O2-  O222  1  0.23930242  -0.13402682  0.70190120  1
  O2-  O223  1  0.25403125  0.64885031  -0.11289498  1
  O2-  O224  1  0.21350752  0.65615374  0.37639863  1
  O2-  O225  1  0.24364392  0.63598514  0.54107534  1
  O2-  O226  1  0.22338848  0.63917229  0.70528302  1
  O2-  O227  1  0.50409884  0.14895074  0.10833452  1
  O2-  O228  1  0.49317204  -0.14551311  0.12697467  1
  O2-  O229  1  0.49626532  0.10353204  0.51660234  1
  O2-  O230  1  0.50520301  0.13127475  0.88820944  1
  O2-  O231  1  0.49956658  0.34167003  0.11907702  1
  O2-  O232  1  0.49305206  0.68211685  0.14660017  1
  O2-  O233  1  0.45438829  0.41134869  0.49397619  1
  O2-  O234  1  0.51178917  0.32585051  0.88071232  1
  O2-  O235  1  0.75341721  -0.14872495  -0.10412984  1
  O2-  O236  1  0.74773151  -0.11845716  0.36952007  1
  O2-  O237  1  0.74118804  -0.14912997  0.55337231  1
  O2-  O238  1  0.74532665  -0.11545016  0.70909452  1
  O2-  O239  1  0.73268146  0.65735078  -0.04636660  1
  O2-  O240  1  0.74526945  0.61757910  0.36047163  1
  O2-  O241  1  0.75287575  0.66405673  0.57829574  1
  O2-  O242  1  0.72199997  0.64073089  0.78090164  1
