# generated using pymatgen
data_Gd19Ta56(WO20)8
_symmetry_space_group_name_H-M   'P 1'
_cell_length_a   15.79039298
_cell_length_b   15.43277360
_cell_length_c   15.08508475
_cell_angle_alpha   89.92838865
_cell_angle_beta   89.55971627
_cell_angle_gamma   90.10916507
_symmetry_Int_Tables_number   1
_chemical_formula_structural   Gd19Ta56(WO20)8
_chemical_formula_sum   'Gd19 Ta56 W8 O160'
_cell_volume   3675.95951869
_cell_formula_units_Z   1
loop_
 _symmetry_equiv_pos_site_id
 _symmetry_equiv_pos_as_xyz
  1  'x, y, z'
loop_
 _atom_type_symbol
 _atom_type_oxidation_number
  Gd3+  3.0
  Ta5+  5.0
  W6+  6.0
  O2-  -2.0
loop_
 _atom_site_type_symbol
 _atom_site_label
 _atom_site_symmetry_multiplicity
 _atom_site_fract_x
 _atom_site_fract_y
 _atom_site_fract_z
 _atom_site_occupancy
  Gd3+  Gd0  1  0.18726695  0.76675082  0.52073209  1
  Gd3+  Gd1  1  0.01275777  0.23949695  0.25648639  1
  Gd3+  Gd2  1  0.25502094  0.72644811  0.25647939  1
  Gd3+  Gd3  1  -0.00841744  0.76748290  0.76160510  1
  Gd3+  Gd4  1  0.21607014  0.75005139  0.75511187  1
  Gd3+  Gd5  1  0.48224934  0.27422414  -0.00067610  1
  Gd3+  Gd6  1  0.78051027  0.23753046  0.52468101  1
  Gd3+  Gd7  1  0.26169669  0.23443439  0.00714067  1
  Gd3+  Gd8  1  0.74298845  0.70387759  -0.01718511  1
  Gd3+  Gd9  1  0.72425823  0.26880607  0.00080661  1
  Gd3+  Gd10  1  0.00092153  0.23796335  0.47169264  1
  Gd3+  Gd11  1  0.21059125  0.74722635  -0.00947513  1
  Gd3+  Gd12  1  -0.00728385  0.76716247  0.01398081  1
  Gd3+  Gd13  1  0.22993125  0.22669869  0.73086681  1
  Gd3+  Gd14  1  0.23558966  0.26187593  0.47876621  1
  Gd3+  Gd15  1  0.50083331  0.24758906  0.44061378  1
  Gd3+  Gd16  1  -0.03691012  0.77520391  0.50157580  1
  Gd3+  Gd17  1  0.33182534  0.28294041  0.24002487  1
  Gd3+  Gd18  1  0.51744661  0.75077279  -0.00997057  1
  Ta5+  Ta19  1  0.67762777  0.12973797  0.32558476  1
  Ta5+  Ta20  1  0.34631099  0.87430709  0.62301069  1
  Ta5+  Ta21  1  0.91899710  0.59771623  0.62343882  1
  Ta5+  Ta22  1  0.40911196  0.49062701  0.16773764  1
  Ta5+  Ta23  1  0.81783620  0.86425923  0.63311575  1
  Ta5+  Ta24  1  0.60366731  0.39090006  0.86050518  1
  Ta5+  Ta25  1  0.37493044  0.85863258  0.12897501  1
  Ta5+  Ta26  1  0.11661045  0.40801261  0.37188946  1
  Ta5+  Ta27  1  0.40867912  0.09659860  0.11503368  1
  Ta5+  Ta28  1  0.82554975  0.38019506  0.15524326  1
  Ta5+  Ta29  1  0.07290242  0.13517057  0.63333954  1
  Ta5+  Ta30  1  0.12285281  0.56836652  0.89366861  1
  Ta5+  Ta31  1  0.33775099  0.10054330  0.36285526  1
  Ta5+  Ta32  1  0.86100049  0.14028109  0.88344256  1
  Ta5+  Ta33  1  0.37434540  0.62678153  0.65325121  1
  Ta5+  Ta34  1  0.07851429  0.86177257  0.33641960  1
  Ta5+  Ta35  1  0.92303406  0.35070852  0.63760391  1
  Ta5+  Ta36  1  0.69380453  0.63876331  0.37123096  1
  Ta5+  Ta37  1  0.83016647  0.88021823  0.11864432  1
  Ta5+  Ta38  1  0.11492960  0.95218304  0.63072190  1
  Ta5+  Ta39  1  0.65305707  0.88421772  0.61953989  1
  Ta5+  Ta40  1  0.35705293  0.62374694  0.86297502  1
  Ta5+  Ta41  1  0.90591398  0.09863431  0.64585640  1
  Ta5+  Ta42  1  0.84425222  0.90554691  0.89595153  1
  Ta5+  Ta43  1  0.08633205  0.36479332  0.62863568  1
  Ta5+  Ta44  1  0.61736230  0.13102283  0.85753876  1
  Ta5+  Ta45  1  0.65763688  0.38831496  0.36423162  1
  Ta5+  Ta46  1  0.12679995  0.92796722  0.88351816  1
  Ta5+  Ta47  1  0.12867097  0.09674492  0.37367208  1
  Ta5+  Ta48  1  0.61394892  0.38315021  0.61602384  1
  Ta5+  Ta49  1  0.90312032  0.59187250  0.88114272  1
  Ta5+  Ta50  1  0.61377247  0.13411931  0.62520963  1
  Ta5+  Ta51  1  0.37263560  0.38131751  0.60859115  1
  Ta5+  Ta52  1  0.86537837  0.62656306  0.14294593  1
  Ta5+  Ta53  1  0.87463409  0.37258283  0.88406843  1
  Ta5+  Ta54  1  0.85905410  0.62354462  0.37542712  1
  Ta5+  Ta55  1  0.60644161  0.10137894  0.09362778  1
  Ta5+  Ta56  1  0.80841648  0.85407692  0.36985243  1
  Ta5+  Ta57  1  0.38761365  0.11985890  0.61176669  1
  Ta5+  Ta58  1  0.35010590  0.87827707  0.88124609  1
  Ta5+  Ta59  1  0.59728361  0.38829716  0.13215150  1
  Ta5+  Ta60  1  0.87206009  0.09387933  0.38383530  1
  Ta5+  Ta61  1  0.68077603  0.62986096  0.61669812  1
  Ta5+  Ta62  1  0.83221696  0.13137092  0.13998944  1
  Ta5+  Ta63  1  0.11381474  0.88421681  0.14571400  1
  Ta5+  Ta64  1  0.62450153  0.61663474  0.13359505  1
  Ta5+  Ta65  1  0.11895293  0.60676372  0.38868192  1
  Ta5+  Ta66  1  0.86929159  0.36962405  0.36615090  1
  Ta5+  Ta67  1  0.08467801  0.60397368  0.64315037  1
  Ta5+  Ta68  1  0.10515105  0.33917086  0.88449821  1
  Ta5+  Ta69  1  0.62460240  0.88209771  0.85216931  1
  Ta5+  Ta70  1  0.66108646  0.87309502  0.10464069  1
  Ta5+  Ta71  1  0.38325054  0.10993104  0.86606247  1
  Ta5+  Ta72  1  0.15032240  0.37431753  0.12985708  1
  Ta5+  Ta73  1  0.36146365  0.37800586  0.85839779  1
  Ta5+  Ta74  1  0.37570823  0.85802536  0.38814762  1
  W6+  W75  1  0.32515437  0.44547132  0.41445051  1
  W6+  W76  1  0.40024465  0.66166548  0.12615076  1
  W6+  W77  1  0.10704185  0.12180835  0.89248954  1
  W6+  W78  1  0.64797905  0.89137621  0.36203549  1
  W6+  W79  1  0.60862091  0.62586259  0.85038010  1
  W6+  W80  1  0.10681259  0.61905925  0.13186310  1
  W6+  W81  1  0.40136873  0.65817078  0.40413552  1
  W6+  W82  1  0.18140810  0.11093874  0.15202502  1
  O2-  O83  1  0.18422370  -0.02136251  0.13855778  1
  O2-  O84  1  0.11250363  -0.02753010  0.38127062  1
  O2-  O85  1  0.18313312  0.05226943  0.63299499  1
  O2-  O86  1  0.20048612  0.02154379  0.85614417  1
  O2-  O87  1  0.13239406  0.49014621  0.10917870  1
  O2-  O88  1  0.20269829  0.51100069  0.39074933  1
  O2-  O89  1  0.11337879  0.48438802  0.64371459  1
  O2-  O90  1  0.16099552  0.45153344  0.88402664  1
  O2-  O91  1  0.36431941  -0.01872969  0.12135787  1
  O2-  O92  1  0.36942962  -0.01695278  0.37993354  1
  O2-  O93  1  0.37045914  -0.00061751  0.62216480  1
  O2-  O94  1  0.40712972  -0.01353155  0.86432546  1
  O2-  O95  1  0.31567589  0.54165012  0.12111096  1
  O2-  O96  1  0.41572469  0.53424685  0.40852930  1
  O2-  O97  1  0.38259403  0.50159803  0.64119198  1
  O2-  O98  1  0.36713625  0.49942977  0.85123809  1
  O2-  O99  1  0.66089916  -0.00236139  0.07671781  1
  O2-  O100  1  0.61918026  0.03103477  0.34882454  1
  O2-  O101  1  0.63762166  0.01672335  0.62871391  1
  O2-  O102  1  0.62443839  0.00795913  0.85118277  1
  O2-  O103  1  0.66154993  0.49058900  0.13574397  1
  O2-  O104  1  0.66856488  0.50604913  0.37442021  1
  O2-  O105  1  0.64421620  0.50094260  0.60405504  1
  O2-  O106  1  0.56853904  0.50355676  0.84386169  1
  O2-  O107  1  0.83194663  0.00845243  0.12117040  1
  O2-  O108  1  0.85813217  -0.02689703  0.38359805  1
  O2-  O109  1  0.84393492  -0.01798798  0.64331045  1
  O2-  O110  1  0.81913035  0.02370343  0.89712925  1
  O2-  O111  1  0.84794771  0.49872236  0.14796301  1
  O2-  O112  1  0.86384530  0.49051723  0.37550373  1
  O2-  O113  1  0.91358983  0.47800185  0.61648614  1
  O2-  O114  1  0.82996014  0.48725327  0.87113621  1
  O2-  O115  1  0.21385903  0.25897822  0.15950719  1
  O2-  O116  1  0.11959570  0.22795223  0.37844707  1
  O2-  O117  1  0.15233746  0.24650917  0.60472785  1
  O2-  O118  1  0.18842322  0.24167803  0.87554582  1
  O2-  O119  1  0.12013885  0.75621788  0.12594744  1
  O2-  O120  1  0.08938406  0.74543277  0.39711389  1
  O2-  O121  1  0.10957450  0.73520574  0.65637800  1
  O2-  O122  1  0.11740656  0.79093257  0.86837811  1
  O2-  O123  1  0.38411629  0.22828653  0.10197985  1
  O2-  O124  1  0.36171494  0.22810662  0.37472005  1
  O2-  O125  1  0.33563471  0.23854410  0.60477527  1
  O2-  O126  1  0.37073122  0.23812494  0.88886753  1
  O2-  O127  1  0.29810769  0.75887951  0.10941343  1
  O2-  O128  1  0.29303091  0.76284690  0.40674863  1
  O2-  O129  1  0.30591578  0.74431033  0.62974440  1
  O2-  O130  1  0.31839455  0.74986147  0.87322229  1
  O2-  O131  1  0.59824992  0.26369035  0.09454596  1
  O2-  O132  1  0.62385875  0.23839663  0.34817772  1
  O2-  O133  1  0.66442082  0.26483890  0.60817999  1
  O2-  O134  1  0.60727975  0.25947440  0.89175052  1
  O2-  O135  1  0.61968826  0.74890951  0.09858477  1
  O2-  O136  1  0.71176517  0.76815731  0.36873936  1
  O2-  O137  1  0.71474397  0.77077567  0.63428015  1
  O2-  O138  1  0.63143937  0.75034911  0.88465284  1
  O2-  O139  1  0.78218124  0.25334229  0.14236894  1
  O2-  O140  1  0.88298889  0.23358156  0.36606536  1
  O2-  O141  1  0.87095801  0.22560144  0.64364948  1
  O2-  O142  1  0.81170446  0.26097845  0.87160553  1
  O2-  O143  1  0.87993548  0.75442561  0.10895696  1
  O2-  O144  1  0.88899046  0.75490782  0.37358165  1
  O2-  O145  1  0.90592055  0.75881010  0.64047750  1
  O2-  O146  1  0.93263978  0.71929512  0.89020919  1
  O2-  O147  1  0.15728772  0.13331518  0.02375065  1
  O2-  O148  1  0.09282500  0.11468135  0.24682174  1
  O2-  O149  1  0.08226138  0.11332180  0.50142512  1
  O2-  O150  1  0.10003392  0.15123493  0.75621547  1
  O2-  O151  1  0.09111635  0.64838513  -0.00854899  1
  O2-  O152  1  0.14589800  0.63081130  0.26489333  1
  O2-  O153  1  0.12656593  0.62535705  0.51690623  1
  O2-  O154  1  0.10495927  0.61880148  0.78251166  1
  O2-  O155  1  0.34227282  0.10083145  -0.01118893  1
  O2-  O156  1  0.38486289  0.12981737  0.23931503  1
  O2-  O157  1  0.41318192  0.12096160  0.48914547  1
  O2-  O158  1  0.33730050  0.12514670  0.74833603  1
  O2-  O159  1  0.41208668  0.64253197  -0.02620397  1
  O2-  O160  1  0.38164891  0.66546220  0.26936134  1
  O2-  O161  1  0.42042383  0.65418457  0.54268670  1
  O2-  O162  1  0.43476850  0.65307728  0.76196104  1
  O2-  O163  1  0.66836030  0.13287895  -0.02244013  1
  O2-  O164  1  0.66910291  0.13749702  0.19360951  1
  O2-  O165  1  0.59015529  0.15276770  0.50554219  1
  O2-  O166  1  0.66648530  0.15733531  0.74707134  1
  O2-  O167  1  0.62117949  0.61623166  -0.00402700  1
  O2-  O168  1  0.63546229  0.64013047  0.25675540  1
  O2-  O169  1  0.65973266  0.65187796  0.49508247  1
  O2-  O170  1  0.61142833  0.64687425  0.71401748  1
  O2-  O171  1  0.84228501  0.15819219  0.01315989  1
  O2-  O172  1  0.94066271  0.15734024  0.16311006  1
  O2-  O173  1  0.89278782  0.11828025  0.51160866  1
  O2-  O174  1  0.91234814  0.11399266  0.77512639  1
  O2-  O175  1  0.85968042  0.61185554  0.00157261  1
  O2-  O176  1  0.91167580  0.63141490  0.25565515  1
  O2-  O177  1  0.90442553  0.63202072  0.49629904  1
  O2-  O178  1  0.92523310  0.61666111  0.75697539  1
  O2-  O179  1  0.13240916  0.32655898  0.01429171  1
  O2-  O180  1  0.10088249  0.36780515  0.24766268  1
  O2-  O181  1  0.10596325  0.36786903  0.49311842  1
  O2-  O182  1  0.10601656  0.33965673  0.75761476  1
  O2-  O183  1  0.09624403  0.87937646  0.01446277  1
  O2-  O184  1  0.17924876  0.85067403  0.26609566  1
  O2-  O185  1  0.07364603  0.87209886  0.53999072  1
  O2-  O186  1  0.11020759  0.90349499  0.74847307  1
  O2-  O187  1  0.31342547  0.37229893  -0.02897823  1
  O2-  O188  1  0.37531474  0.42145387  0.26699952  1
  O2-  O189  1  0.41627454  0.36081921  0.48857204  1
  O2-  O190  1  0.32247819  0.35084887  0.73851592  1
  O2-  O191  1  0.40479630  0.85111083  -0.00353303  1
  O2-  O192  1  0.36980312  0.85175491  0.25732550  1
  O2-  O193  1  0.40562295  0.85444806  0.51499127  1
  O2-  O194  1  0.32136071  0.87126481  0.75404663  1
  O2-  O195  1  0.63678243  0.39587959  -0.01445498  1
  O2-  O196  1  0.58469713  0.37926524  0.25635720  1
  O2-  O197  1  0.59469697  0.36668843  0.47561037  1
  O2-  O198  1  0.64682559  0.37596919  0.74319490  1
  O2-  O199  1  0.58381228  0.88122303  -0.02320568  1
  O2-  O200  1  0.64048939  0.88429765  0.22355884  1
  O2-  O201  1  0.63608353  0.88184108  0.50005813  1
  O2-  O202  1  0.58481076  0.86636826  0.73593845  1
  O2-  O203  1  0.83418145  0.36765035  0.02142085  1
  O2-  O204  1  0.91619534  0.35024635  0.22782178  1
  O2-  O205  1  0.89312306  0.33761950  0.50593676  1
  O2-  O206  1  0.90216892  0.36534054  0.76227954  1
  O2-  O207  1  0.91279793  0.88831790  0.00006383  1
  O2-  O208  1  0.82483048  0.86276735  0.24396780  1
  O2-  O209  1  0.83395647  0.84884008  0.50601114  1
  O2-  O210  1  0.91045715  0.88218748  0.79582348  1
  O2-  O211  1  0.03629514  0.00267625  -0.10081747  1
  O2-  O212  1  0.01992035  -0.10080366  0.23117457  1
  O2-  O213  1  -0.01001024  0.10961835  0.36266220  1
  O2-  O214  1  0.00770556  0.01502937  0.64259656  1
  O2-  O215  1  0.00256511  0.53076209  -0.09469951  1
  O2-  O216  1  0.04466140  0.51362030  0.37081869  1
  O2-  O217  1  -0.00507871  0.35347127  0.37195812  1
  O2-  O218  1  -0.01181404  0.34793738  0.91578814  1
  O2-  O219  1  0.24344961  -0.11258598  -0.06023890  1
  O2-  O220  1  0.23679925  0.09241836  0.28832226  1
  O2-  O221  1  0.24222952  0.11333564  0.44743975  1
  O2-  O222  1  0.22903405  -0.11025140  0.59613489  1
  O2-  O223  1  0.23791511  0.61174749  -0.07868627  1
  O2-  O224  1  0.23551699  0.35501406  0.35976437  1
  O2-  O225  1  0.27176889  0.40117793  0.54313281  1
  O2-  O226  1  0.27893687  0.61970691  0.74697630  1
  O2-  O227  1  0.50212064  0.13038301  0.02013596  1
  O2-  O228  1  0.51438598  0.05300021  0.16242061  1
  O2-  O229  1  0.49646412  0.14141500  0.65978562  1
  O2-  O230  1  0.49848571  0.13325846  0.83965367  1
  O2-  O231  1  0.48194586  0.40266276  0.09361067  1
  O2-  O232  1  0.50744863  0.56847204  0.14533993  1
  O2-  O233  1  0.49900750  0.36359694  0.64115574  1
  O2-  O234  1  0.48130498  0.36272894  0.87059782  1
  O2-  O235  1  0.75841578  -0.14884753  0.00523686  1
  O2-  O236  1  0.80131528  0.10915687  0.27294192  1
  O2-  O237  1  0.75156251  0.12924261  0.42892714  1
  O2-  O238  1  0.74238732  -0.13279802  0.83735825  1
  O2-  O239  1  0.74676448  0.64666950  0.12442471  1
  O2-  O240  1  0.76148894  0.38014073  0.27039551  1
  O2-  O241  1  0.75607556  0.34523313  0.42880394  1
  O2-  O242  1  0.78996224  0.60710132  0.64463831  1
