# generated using pymatgen
data_Gd19Ta56(WO20)8
_symmetry_space_group_name_H-M   'P 1'
_cell_length_a   15.55905408
_cell_length_b   15.50963063
_cell_length_c   15.26083032
_cell_angle_alpha   90.00595866
_cell_angle_beta   90.26892988
_cell_angle_gamma   89.95418155
_symmetry_Int_Tables_number   1
_chemical_formula_structural   Gd19Ta56(WO20)8
_chemical_formula_sum   'Gd19 Ta56 W8 O160'
_cell_volume   3682.62827911
_cell_formula_units_Z   1
loop_
 _symmetry_equiv_pos_site_id
 _symmetry_equiv_pos_as_xyz
  1  'x, y, z'
loop_
 _atom_type_symbol
 _atom_type_oxidation_number
  Gd3+  3.0
  Ta5+  5.0
  W6+  6.0
  O2-  -2.0
loop_
 _atom_site_type_symbol
 _atom_site_label
 _atom_site_symmetry_multiplicity
 _atom_site_fract_x
 _atom_site_fract_y
 _atom_site_fract_z
 _atom_site_occupancy
  Gd3+  Gd0  1  0.46019137  0.73411812  0.73085915  1
  Gd3+  Gd1  1  0.75975783  0.26496609  0.49033065  1
  Gd3+  Gd2  1  0.76822152  0.75264957  0.01641645  1
  Gd3+  Gd3  1  0.47047985  0.71537512  -0.00199004  1
  Gd3+  Gd4  1  0.77084546  0.76811218  0.25745762  1
  Gd3+  Gd5  1  -0.02157675  0.26006470  0.24007909  1
  Gd3+  Gd6  1  0.00187623  0.27288130  0.50994998  1
  Gd3+  Gd7  1  0.73775159  0.26473897  -0.01039723  1
  Gd3+  Gd8  1  0.23793836  0.74099460  0.73535380  1
  Gd3+  Gd9  1  0.01614267  0.75486534  -0.02593808  1
  Gd3+  Gd10  1  0.01332579  0.75612563  0.54595622  1
  Gd3+  Gd11  1  0.74550296  0.25717671  0.73462267  1
  Gd3+  Gd12  1  0.49537553  0.22909861  0.20730885  1
  Gd3+  Gd13  1  0.48101857  0.25851681  0.74890152  1
  Gd3+  Gd14  1  0.24267874  0.24077249  0.46927723  1
  Gd3+  Gd15  1  0.50732074  0.25067992  0.48819551  1
  Gd3+  Gd16  1  0.02717905  0.24670018  0.00791804  1
  Gd3+  Gd17  1  0.24736532  0.74093886  0.28731155  1
  Gd3+  Gd18  1  0.23596381  0.22979673  0.21752254  1
  Ta5+  Ta19  1  0.88020467  0.12771328  0.36596793  1
  Ta5+  Ta20  1  0.65434966  0.63169141  0.83191391  1
  Ta5+  Ta21  1  0.37346235  0.11432153  0.87435801  1
  Ta5+  Ta22  1  0.12146227  0.10587351  0.36378733  1
  Ta5+  Ta23  1  0.61261579  0.38582966  0.60184559  1
  Ta5+  Ta24  1  0.62002748  0.39029184  0.86001279  1
  Ta5+  Ta25  1  0.17049634  0.86970036  0.87023655  1
  Ta5+  Ta26  1  0.36793292  0.37399662  0.87591186  1
  Ta5+  Ta27  1  0.16575333  0.60781839  0.60590252  1
  Ta5+  Ta28  1  0.62592285  0.11301678  0.85743696  1
  Ta5+  Ta29  1  0.62825301  0.11310640  0.60557565  1
  Ta5+  Ta30  1  0.36396466  0.38298094  0.11047448  1
  Ta5+  Ta31  1  0.61724176  0.88145731  0.37944303  1
  Ta5+  Ta32  1  0.88123698  0.38763685  0.86776831  1
  Ta5+  Ta33  1  0.18005691  0.37540237  0.61432153  1
  Ta5+  Ta34  1  0.13805675  0.38342749  0.34510069  1
  Ta5+  Ta35  1  0.10614951  0.08108584  0.12119691  1
  Ta5+  Ta36  1  0.38229929  0.11356534  0.61957770  1
  Ta5+  Ta37  1  0.59880603  0.87036424  0.61013312  1
  Ta5+  Ta38  1  0.12489119  0.12516628  0.62396915  1
  Ta5+  Ta39  1  0.17560595  0.88315700  0.60789250  1
  Ta5+  Ta40  1  0.60299618  0.88778018  0.14261940  1
  Ta5+  Ta41  1  0.40630356  0.61395317  0.36148303  1
  Ta5+  Ta42  1  0.30145854  0.56895588  0.12090973  1
  Ta5+  Ta43  1  0.39494067  0.86974139  0.36000948  1
  Ta5+  Ta44  1  0.64101485  0.38547288  0.34656056  1
  Ta5+  Ta45  1  0.33844937  0.86452871  0.87238264  1
  Ta5+  Ta46  1  0.87186877  0.63859116  0.65582350  1
  Ta5+  Ta47  1  0.84142051  0.88887573  0.87087034  1
  Ta5+  Ta48  1  0.37537222  0.11443091  0.36129673  1
  Ta5+  Ta49  1  0.89089893  0.41924238  0.11078220  1
  Ta5+  Ta50  1  0.63226800  0.12749458  0.36234346  1
  Ta5+  Ta51  1  0.36561010  0.85113233  0.12510536  1
  Ta5+  Ta52  1  0.91395931  0.63428125  0.39032656  1
  Ta5+  Ta53  1  0.34480744  0.09745255  0.10197515  1
  Ta5+  Ta54  1  0.13406859  0.37359741  0.86375930  1
  Ta5+  Ta55  1  0.15630990  0.67683594  0.11843922  1
  Ta5+  Ta56  1  0.87262526  0.63385429  0.85943803  1
  Ta5+  Ta57  1  0.92196194  0.61386451  0.13545938  1
  Ta5+  Ta58  1  0.87434942  0.39457318  0.62687728  1
  Ta5+  Ta59  1  0.84240038  0.87797773  0.61928452  1
  Ta5+  Ta60  1  0.13415640  0.11309150  0.87006417  1
  Ta5+  Ta61  1  0.12574492  0.43039365  0.13635121  1
  Ta5+  Ta62  1  0.59082300  0.62492557  0.59948919  1
  Ta5+  Ta63  1  0.12974877  0.85095184  0.12313364  1
  Ta5+  Ta64  1  0.87652862  0.11981426  0.61854284  1
  Ta5+  Ta65  1  0.34836694  0.38031639  0.61329475  1
  Ta5+  Ta66  1  0.61417040  0.86410202  0.84656532  1
  Ta5+  Ta67  1  0.89019209  0.12871708  0.86278946  1
  Ta5+  Ta68  1  0.33558473  0.60917393  0.60184268  1
  Ta5+  Ta69  1  0.15635529  0.61878811  0.87013221  1
  Ta5+  Ta70  1  0.37095429  0.37636144  0.35791338  1
  Ta5+  Ta71  1  0.07899190  0.62113629  0.36903151  1
  Ta5+  Ta72  1  0.90581935  0.93794496  0.11890980  1
  Ta5+  Ta73  1  0.06931356  0.86514319  0.37012685  1
  Ta5+  Ta74  1  0.32398999  0.61581618  0.87360510  1
  W6+  W75  1  0.61778717  0.38128975  0.12293047  1
  W6+  W76  1  0.65511549  0.64131641  0.39907102  1
  W6+  W77  1  0.90787762  0.87634163  0.36821709  1
  W6+  W78  1  0.85335888  0.15476394  0.11335328  1
  W6+  W79  1  0.65285282  0.54748119  0.21856598  1
  W6+  W80  1  0.65699012  0.11936657  0.10469198  1
  W6+  W81  1  0.88679294  0.40536176  0.36790006  1
  W6+  W82  1  0.33741212  0.86695613  0.60423628  1
  O2-  O83  1  0.16066869  -0.02774370  0.11870651  1
  O2-  O84  1  0.10087539  -0.01015198  0.38055875  1
  O2-  O85  1  0.15489075  0.01166186  0.59290093  1
  O2-  O86  1  0.13265696  -0.00872440  0.87636165  1
  O2-  O87  1  0.16539115  0.54656575  0.14248681  1
  O2-  O88  1  0.10022981  0.49878523  0.36488931  1
  O2-  O89  1  0.13955579  0.48910186  0.59604054  1
  O2-  O90  1  0.12610272  0.49467240  0.88375675  1
  O2-  O91  1  0.33425641  -0.01980689  0.10740865  1
  O2-  O92  1  0.41216026  -0.00034674  0.36202366  1
  O2-  O93  1  0.34904476  0.00334999  0.60899026  1
  O2-  O94  1  0.36930338  -0.01005848  0.86669902  1
  O2-  O95  1  0.40400181  0.49770918  0.13791736  1
  O2-  O96  1  0.42133107  0.48687974  0.36051537  1
  O2-  O97  1  0.38153864  0.49559911  0.62058225  1
  O2-  O98  1  0.35863532  0.49694974  0.86740555  1
  O2-  O99  1  0.64394134  -0.01785664  0.08895105  1
  O2-  O100  1  0.64538811  0.00150880  0.37430555  1
  O2-  O101  1  0.60680234  -0.00397534  0.63073183  1
  O2-  O102  1  0.62955173  -0.00828236  0.84538458  1
  O2-  O103  1  0.69979456  0.42522437  0.22864648  1
  O2-  O104  1  0.63658979  0.50904168  0.35496888  1
  O2-  O105  1  0.58090017  0.50023712  0.61759170  1
  O2-  O106  1  0.66064952  0.50238076  0.83501199  1
  O2-  O107  1  0.82065257  0.02108764  0.10529238  1
  O2-  O108  1  0.88450496  0.01136486  0.36999367  1
  O2-  O109  1  0.88659423  -0.00305157  0.62232330  1
  O2-  O110  1  0.86828649  0.00961015  0.88779974  1
  O2-  O111  1  0.83215035  0.52759213  0.10068358  1
  O2-  O112  1  0.85397637  0.53164198  0.39426209  1
  O2-  O113  1  0.87774876  0.51453325  0.63680152  1
  O2-  O114  1  0.87679647  0.50920966  0.86342965  1
  O2-  O115  1  0.08255136  0.20952854  0.14387153  1
  O2-  O116  1  0.14591831  0.24933436  0.33879389  1
  O2-  O117  1  0.18347375  0.23574552  0.61478646  1
  O2-  O118  1  0.11782409  0.24601052  0.88839771  1
  O2-  O119  1  0.24578231  0.78526940  0.13375530  1
  O2-  O120  1  0.02470441  0.74344099  0.39107205  1
  O2-  O121  1  0.14860048  0.74923623  0.61757502  1
  O2-  O122  1  0.11965464  0.74806166  0.84391171  1
  O2-  O123  1  0.35807522  0.25056866  0.12058003  1
  O2-  O124  1  0.33195096  0.24423707  0.34246622  1
  O2-  O125  1  0.50368711  0.15619558  0.63429780  1
  O2-  O126  1  0.39054090  0.24600505  0.87240842  1
  O2-  O127  1  0.42648699  0.74687004  0.13451666  1
  O2-  O128  1  0.37800564  0.74305169  0.35620565  1
  O2-  O129  1  0.36801928  0.73331911  0.60936664  1
  O2-  O130  1  0.38948059  0.73402099  0.87234189  1
  O2-  O131  1  0.60649943  0.24709642  0.09912798  1
  O2-  O132  1  0.63085872  0.25267844  0.39277606  1
  O2-  O133  1  0.64334348  0.24691371  0.58667464  1
  O2-  O134  1  0.65026274  0.25635777  0.86547529  1
  O2-  O135  1  0.64693103  0.79035617  0.08423491  1
  O2-  O136  1  0.68300419  0.78396833  0.40346386  1
  O2-  O137  1  0.56229573  0.74975956  0.60461625  1
  O2-  O138  1  0.66323074  0.75811512  0.80688400  1
  O2-  O139  1  0.91892851  0.28963722  0.10508845  1
  O2-  O140  1  0.92151407  0.26860325  0.37842745  1
  O2-  O141  1  0.84489722  0.25042977  0.62266942  1
  O2-  O142  1  0.83467742  0.25555157  0.86102455  1
  O2-  O143  1  0.83735383  0.70720197  0.13715517  1
  O2-  O144  1  0.86292494  0.74512169  0.36263806  1
  O2-  O145  1  0.88838983  0.77087831  0.65772675  1
  O2-  O146  1  0.88571684  0.77163448  0.87026926  1
  O2-  O147  1  0.08830209  0.11121157  -0.00197976  1
  O2-  O148  1  0.00545291  0.13305383  0.32779962  1
  O2-  O149  1  0.10542151  0.15584979  0.48548261  1
  O2-  O150  1  0.15177986  0.11845205  0.74484230  1
  O2-  O151  1  0.13466940  0.65833792  -0.00856001  1
  O2-  O152  1  0.12728014  0.66226988  0.25757423  1
  O2-  O153  1  0.11226666  0.63756139  0.49032510  1
  O2-  O154  1  0.15507365  0.61152342  0.73546751  1
  O2-  O155  1  0.41026206  0.11444982  -0.00064109  1
  O2-  O156  1  0.36961175  0.11718735  0.22778970  1
  O2-  O157  1  0.38723214  0.15112301  0.49208720  1
  O2-  O158  1  0.36568016  0.13667555  0.74256218  1
  O2-  O159  1  0.34115973  0.61400346  0.01064458  1
  O2-  O160  1  0.32632448  0.61398324  0.25206816  1
  O2-  O161  1  0.35904777  0.60893212  0.47357525  1
  O2-  O162  1  0.34853979  0.63029657  0.74182210  1
  O2-  O163  1  0.69089061  0.12256692  -0.03699759  1
  O2-  O164  1  0.61855307  0.13228783  0.24001845  1
  O2-  O165  1  0.58512119  0.11520826  0.48658277  1
  O2-  O166  1  0.65345944  0.13916463  0.73676406  1
  O2-  O167  1  0.57348339  0.64477591  -0.08076533  1
  O2-  O168  1  0.67052267  0.66615262  0.26018430  1
  O2-  O169  1  0.68845062  0.62692844  0.53338273  1
  O2-  O170  1  0.57474957  0.62922911  0.73130525  1
  O2-  O171  1  0.90144023  0.16193260  -0.01834079  1
  O2-  O172  1  0.85217887  0.16565934  0.25186395  1
  O2-  O173  1  0.90184851  0.14986687  0.49565855  1
  O2-  O174  1  0.83922977  0.12854670  0.74378149  1
  O2-  O175  1  0.91682060  0.64425558  -0.02094336  1
  O2-  O176  1  0.94170342  0.61348827  0.25653917  1
  O2-  O177  1  0.90721790  0.65385319  0.52875683  1
  O2-  O178  1  0.94823973  0.63823944  0.75602200  1
  O2-  O179  1  0.10398590  0.37061855  0.03034659  1
  O2-  O180  1  0.05606258  0.38555769  0.23697871  1
  O2-  O181  1  0.13036218  0.34670225  0.48349252  1
  O2-  O182  1  0.15298786  0.37008581  0.74401351  1
  O2-  O183  1  0.14505957  0.84748244  -0.00845389  1
  O2-  O184  1  0.12091658  0.84875764  0.25784698  1
  O2-  O185  1  0.11127663  0.85699493  0.49271977  1
  O2-  O186  1  0.16337119  0.88181018  0.73194715  1
  O2-  O187  1  0.41303634  0.37551254  -0.00121718  1
  O2-  O188  1  0.40039073  0.35615702  0.23590324  1
  O2-  O189  1  0.37834337  0.33716174  0.48600310  1
  O2-  O190  1  0.36461759  0.35490571  0.74327071  1
  O2-  O191  1  0.36075362  0.84347667  0.00008976  1
  O2-  O192  1  0.32635393  0.87281115  0.25510136  1
  O2-  O193  1  0.34383858  0.87569675  0.46708910  1
  O2-  O194  1  0.35855824  0.84573227  0.74402027  1
  O2-  O195  1  0.65230497  0.38459601  -0.01959440  1
  O2-  O196  1  0.56732516  0.34137307  0.25532265  1
  O2-  O197  1  0.59257378  0.38561861  0.47446274  1
  O2-  O198  1  0.62603182  0.35125105  0.73205587  1
  O2-  O199  1  0.53872740  0.83348258  -0.06834607  1
  O2-  O200  1  0.66757180  0.87791047  0.25040041  1
  O2-  O201  1  0.55936863  0.88918935  0.49384131  1
  O2-  O202  1  0.55075488  0.86517658  0.73279084  1
  O2-  O203  1  0.84016202  0.38181135  -0.01310836  1
  O2-  O204  1  0.88006778  0.39879569  0.22956504  1
  O2-  O205  1  0.88111611  0.37248170  0.50272683  1
  O2-  O206  1  0.82963640  0.38038038  0.75086184  1
  O2-  O207  1  0.86467272  0.87056731  0.01517819  1
  O2-  O208  1  0.87428146  0.88305537  0.22265580  1
  O2-  O209  1  0.90362914  0.85979836  0.51290694  1
  O2-  O210  1  0.81792639  0.89848283  0.75111506  1
  O2-  O211  1  -0.00677936  0.03133143  0.13734810  1
  O2-  O212  1  0.00917423  -0.14327703  0.09797912  1
  O2-  O213  1  0.00241667  0.14468338  0.63500368  1
  O2-  O214  1  0.00394185  0.12583277  0.83590888  1
  O2-  O215  1  -0.00506914  0.48797138  0.11026879  1
  O2-  O216  1  0.02261859  0.67613578  0.10742233  1
  O2-  O217  1  -0.01280810  0.35378646  0.63805407  1
  O2-  O218  1  -0.00240025  0.36427001  0.87147526  1
  O2-  O219  1  0.23087546  0.13486547  0.09196014  1
  O2-  O220  1  0.16113975  0.09875850  0.24266440  1
  O2-  O221  1  0.25205151  0.10460966  0.39215815  1
  O2-  O222  1  0.25435672  0.12668371  0.89794236  1
  O2-  O223  1  0.25772392  0.43581743  0.08010848  1
  O2-  O224  1  0.20767452  0.37500792  0.22286046  1
  O2-  O225  1  0.25548827  0.40370802  0.38312947  1
  O2-  O226  1  0.25004518  0.35980080  0.90287087  1
  O2-  O227  1  0.48345821  -0.09565428  0.14343233  1
  O2-  O228  1  0.51372377  -0.14488190  0.32099702  1
  O2-  O229  1  0.49316497  0.16567240  0.34919609  1
  O2-  O230  1  0.50801894  0.12924193  0.84987068  1
  O2-  O231  1  0.60322561  0.51718440  0.11240295  1
  O2-  O232  1  0.51993859  0.64092949  0.37472144  1
  O2-  O233  1  0.49305440  0.33659880  0.61785061  1
  O2-  O234  1  0.50201574  0.38257812  0.84957255  1
  O2-  O235  1  0.72854204  -0.13132293  -0.08470985  1
  O2-  O236  1  0.75330967  0.14321263  0.39445057  1
  O2-  O237  1  0.75044446  0.10856596  0.58416474  1
  O2-  O238  1  0.72199971  -0.13916355  0.59774131  1
  O2-  O239  1  0.75547256  0.64735818  -0.08501923  1
  O2-  O240  1  0.75569350  0.36002746  0.38147189  1
  O2-  O241  1  0.73794249  0.38629394  0.59748544  1
  O2-  O242  1  0.78275129  0.63459937  0.74807192  1
