# generated using pymatgen
data_Gd19Ta56(WO20)8
_symmetry_space_group_name_H-M   'P 1'
_cell_length_a   15.46584676
_cell_length_b   15.42260717
_cell_length_c   15.37368826
_cell_angle_alpha   89.99748222
_cell_angle_beta   90.01510574
_cell_angle_gamma   90.11938646
_symmetry_Int_Tables_number   1
_chemical_formula_structural   Gd19Ta56(WO20)8
_chemical_formula_sum   'Gd19 Ta56 W8 O160'
_cell_volume   3666.98059215
_cell_formula_units_Z   1
loop_
 _symmetry_equiv_pos_site_id
 _symmetry_equiv_pos_as_xyz
  1  'x, y, z'
loop_
 _atom_type_symbol
 _atom_type_oxidation_number
  Gd3+  3.0
  Ta5+  5.0
  W6+  6.0
  O2-  -2.0
loop_
 _atom_site_type_symbol
 _atom_site_label
 _atom_site_symmetry_multiplicity
 _atom_site_fract_x
 _atom_site_fract_y
 _atom_site_fract_z
 _atom_site_occupancy
  Gd3+  Gd0  1  0.00558226  0.25952407  0.50400016  1
  Gd3+  Gd1  1  -0.01305804  0.74823004  0.72349322  1
  Gd3+  Gd2  1  0.52185315  0.25155129  0.47922021  1
  Gd3+  Gd3  1  0.23871391  0.71224225  0.00205746  1
  Gd3+  Gd4  1  0.76536971  0.25287390  0.49485553  1
  Gd3+  Gd5  1  0.26950798  0.25019582  0.00652601  1
  Gd3+  Gd6  1  0.24612705  0.22436557  0.72364302  1
  Gd3+  Gd7  1  0.25921540  0.75169820  0.23762671  1
  Gd3+  Gd8  1  0.24310825  0.71674759  0.50453961  1
  Gd3+  Gd9  1  0.49476486  0.75141838  0.76907872  1
  Gd3+  Gd10  1  0.51006996  0.25871680  0.76351523  1
  Gd3+  Gd11  1  0.26910938  0.25568180  0.24645815  1
  Gd3+  Gd12  1  0.74899794  0.24632181  0.24807477  1
  Gd3+  Gd13  1  -0.00869230  0.73997810  0.01429115  1
  Gd3+  Gd14  1  -0.01166353  0.74318123  0.25262682  1
  Gd3+  Gd15  1  0.48095296  0.75519057  0.52334180  1
  Gd3+  Gd16  1  0.25747313  0.71932210  0.74275775  1
  Gd3+  Gd17  1  0.00482191  0.24445699  0.24193641  1
  Gd3+  Gd18  1  0.71954098  0.76660809  0.25933320  1
  Ta5+  Ta19  1  0.11916458  0.37117783  0.11189314  1
  Ta5+  Ta20  1  0.34997699  0.57204473  0.87487763  1
  Ta5+  Ta21  1  0.88155136  0.12014529  0.37588663  1
  Ta5+  Ta22  1  0.35555559  0.87263324  0.87898517  1
  Ta5+  Ta23  1  0.38827554  0.38155652  0.36616088  1
  Ta5+  Ta24  1  0.63963230  0.38860069  0.36261900  1
  Ta5+  Ta25  1  0.87314104  0.62377416  0.87812716  1
  Ta5+  Ta26  1  0.38007431  0.11780512  0.88233551  1
  Ta5+  Ta27  1  0.13742183  0.10919050  0.87524525  1
  Ta5+  Ta28  1  0.83214566  0.63082900  0.62515861  1
  Ta5+  Ta29  1  0.87888218  0.87913909  0.87782409  1
  Ta5+  Ta30  1  0.07436139  0.56759212  0.14166906  1
  Ta5+  Ta31  1  0.13547089  0.37391264  0.37575425  1
  Ta5+  Ta32  1  0.39776066  0.41586978  0.11882468  1
  Ta5+  Ta33  1  0.39636432  0.61074224  0.12014079  1
  Ta5+  Ta34  1  0.12645842  0.88041719  0.62545366  1
  Ta5+  Ta35  1  0.64287719  0.62040179  0.87368114  1
  Ta5+  Ta36  1  0.89818102  0.39309499  0.11820274  1
  Ta5+  Ta37  1  0.65385656  0.62949602  0.11536774  1
  Ta5+  Ta38  1  0.67849558  0.37230432  0.86927150  1
  Ta5+  Ta39  1  0.64354344  0.37785743  0.62888070  1
  Ta5+  Ta40  1  0.62503988  0.11623003  0.87039103  1
  Ta5+  Ta41  1  0.38429830  0.36452713  0.61786466  1
  Ta5+  Ta42  1  0.83872019  0.88214008  0.62526944  1
  Ta5+  Ta43  1  0.11696935  0.86532262  0.88278621  1
  Ta5+  Ta44  1  0.88243354  0.12919406  0.11262246  1
  Ta5+  Ta45  1  0.37855340  0.11448902  0.36657846  1
  Ta5+  Ta46  1  0.85591366  0.62722612  0.37977742  1
  Ta5+  Ta47  1  0.89780262  0.13447898  0.87800592  1
  Ta5+  Ta48  1  0.62869469  0.37778071  0.11076251  1
  Ta5+  Ta49  1  0.37574932  0.59526173  0.62369071  1
  Ta5+  Ta50  1  0.90335839  0.12786271  0.63824964  1
  Ta5+  Ta51  1  0.65085109  0.13716367  0.63100760  1
  Ta5+  Ta52  1  0.88313388  0.88288052  0.37962380  1
  Ta5+  Ta53  1  0.56253084  0.87791412  0.36896798  1
  Ta5+  Ta54  1  0.07461520  0.11928825  0.62931036  1
  Ta5+  Ta55  1  0.63813123  0.87985027  0.87165932  1
  Ta5+  Ta56  1  0.41317041  0.62891473  0.36902723  1
  Ta5+  Ta57  1  0.82535892  0.62471451  0.13044622  1
  Ta5+  Ta58  1  0.10716346  0.61328871  0.37936323  1
  Ta5+  Ta59  1  0.13274872  0.11652225  0.38271201  1
  Ta5+  Ta60  1  0.86117085  0.88251897  0.13212191  1
  Ta5+  Ta61  1  0.35928953  0.90728179  0.62881608  1
  Ta5+  Ta62  1  0.58129683  0.87306245  0.11612008  1
  Ta5+  Ta63  1  0.13623750  0.37833221  0.63377369  1
  Ta5+  Ta64  1  0.11320583  0.89259930  0.12917211  1
  Ta5+  Ta65  1  0.39314138  0.86353507  0.37064049  1
  Ta5+  Ta66  1  0.38915395  0.10131413  0.61753616  1
  Ta5+  Ta67  1  0.62584671  0.12182417  0.10426731  1
  Ta5+  Ta68  1  0.89444826  0.38979138  0.63490532  1
  Ta5+  Ta69  1  0.40379044  0.11742955  0.13396318  1
  Ta5+  Ta70  1  0.12905018  0.11612923  0.12322782  1
  Ta5+  Ta71  1  0.13031903  0.87012402  0.38320941  1
  Ta5+  Ta72  1  0.84614378  0.37626323  0.87781590  1
  Ta5+  Ta73  1  0.38328343  0.38525185  0.87500438  1
  Ta5+  Ta74  1  0.58799880  0.11444018  0.32146846  1
  W6+  W75  1  0.90151014  0.38192813  0.37235450  1
  W6+  W76  1  0.58876089  0.62228313  0.63075307  1
  W6+  W77  1  0.41509372  0.86156713  0.11734454  1
  W6+  W78  1  0.58991282  0.90100435  0.63011403  1
  W6+  W79  1  0.09961732  0.61015483  0.85151495  1
  W6+  W80  1  0.12407945  0.54884499  0.64138405  1
  W6+  W81  1  0.13527324  0.41333210  0.86956840  1
  W6+  W82  1  0.57972135  0.63464467  0.36545354  1
  O2-  O83  1  0.17523051  -0.00045703  0.13699777  1
  O2-  O84  1  0.13252558  -0.00744986  0.36565418  1
  O2-  O85  1  0.07795720  -0.01043378  0.63583314  1
  O2-  O86  1  0.14775011  -0.00996574  0.87121876  1
  O2-  O87  1  0.16315851  0.48193133  0.15011236  1
  O2-  O88  1  0.10948589  0.49304084  0.35500713  1
  O2-  O89  1  0.01644140  0.43046802  0.63534768  1
  O2-  O90  1  0.10959255  0.52012857  0.94313245  1
  O2-  O91  1  0.41334001  -0.00041694  0.12187135  1
  O2-  O92  1  0.38247004  -0.00804354  0.36365054  1
  O2-  O93  1  0.46066957  -0.00934585  0.62333227  1
  O2-  O94  1  0.34425832  0.00023181  0.87874643  1
  O2-  O95  1  0.31871986  0.51672317  0.13209009  1
  O2-  O96  1  0.38948349  0.50300756  0.37653122  1
  O2-  O97  1  0.42205482  0.48385191  0.60564923  1
  O2-  O98  1  0.28071153  0.46212070  0.86037095  1
  O2-  O99  1  0.60742823  0.00145850  0.11919460  1
  O2-  O100  1  0.61091702  0.00053157  0.35842069  1
  O2-  O101  1  0.64864870  0.02114184  0.61431982  1
  O2-  O102  1  0.67333083  0.00689026  0.84666177  1
  O2-  O103  1  0.65038613  0.49768378  0.11794343  1
  O2-  O104  1  0.63694893  0.50560249  0.37173946  1
  O2-  O105  1  0.61743274  0.49058848  0.61175462  1
  O2-  O106  1  0.67308810  0.50176340  0.86489023  1
  O2-  O107  1  0.86124886  0.00623585  0.11266456  1
  O2-  O108  1  0.91753046  0.00410468  0.38769781  1
  O2-  O109  1  0.86902737  0.00017415  0.61850181  1
  O2-  O110  1  0.89631940  -0.00317134  0.89119345  1
  O2-  O111  1  0.83800418  0.49589976  0.13156744  1
  O2-  O112  1  0.86980346  0.50995100  0.38310478  1
  O2-  O113  1  0.85975672  0.51230546  0.60822063  1
  O2-  O114  1  0.87090118  0.50620489  0.89041022  1
  O2-  O115  1  0.17274826  0.24254408  0.12375150  1
  O2-  O116  1  0.10408375  0.24679895  0.38485225  1
  O2-  O117  1  0.10908870  0.24727269  0.61898828  1
  O2-  O118  1  0.25371154  0.17268995  0.86582170  1
  O2-  O119  1  0.20207795  0.81215599  0.10848717  1
  O2-  O120  1  0.15526928  0.73826945  0.38703846  1
  O2-  O121  1  0.04668986  0.79616174  0.59644788  1
  O2-  O122  1  0.10614311  0.73949334  0.91424395  1
  O2-  O123  1  0.35457133  0.24605227  0.12859704  1
  O2-  O124  1  0.38861385  0.24475794  0.34686174  1
  O2-  O125  1  0.40393817  0.23322769  0.63102195  1
  O2-  O126  1  0.40566388  0.25586869  0.88418736  1
  O2-  O127  1  0.35085582  0.73072521  0.11423270  1
  O2-  O128  1  0.33495208  0.74104252  0.37816679  1
  O2-  O129  1  0.38404576  0.73124832  0.64371287  1
  O2-  O130  1  0.36744666  0.74490515  0.84984862  1
  O2-  O131  1  0.66948449  0.25035206  0.12084946  1
  O2-  O132  1  0.61462193  0.23552184  0.34652812  1
  O2-  O133  1  0.57730174  0.26339992  0.62862342  1
  O2-  O134  1  0.64391474  0.24042295  0.85871171  1
  O2-  O135  1  0.64354611  0.76484181  0.10677744  1
  O2-  O136  1  0.61835929  0.76430668  0.37220696  1
  O2-  O137  1  0.56290792  0.76256827  0.64119683  1
  O2-  O138  1  0.60941423  0.75625889  0.86599446  1
  O2-  O139  1  0.86546661  0.25815871  0.14413538  1
  O2-  O140  1  0.92924522  0.24334622  0.36734326  1
  O2-  O141  1  0.92324593  0.26040420  0.64251437  1
  O2-  O142  1  0.87324354  0.25351063  0.86245042  1
  O2-  O143  1  0.85125654  0.75597567  0.15800470  1
  O2-  O144  1  0.85596925  0.76011103  0.34712718  1
  O2-  O145  1  0.87675245  0.75339749  0.62238174  1
  O2-  O146  1  0.92924982  0.75271589  0.87418240  1
  O2-  O147  1  0.16356540  0.12525449  0.00089279  1
  O2-  O148  1  0.11533700  0.13558103  0.25213827  1
  O2-  O149  1  0.08356129  0.11402441  0.49729124  1
  O2-  O150  1  0.13334422  0.13039026  0.75002183  1
  O2-  O151  1  0.11386514  0.65935579  0.07108185  1
  O2-  O152  1  0.11593368  0.64434337  0.24758498  1
  O2-  O153  1  0.13344146  0.60791758  0.50068205  1
  O2-  O154  1  0.11383594  0.67086643  0.73149135  1
  O2-  O155  1  0.35590197  0.12555210  0.00936903  1
  O2-  O156  1  0.32552399  0.11759175  0.23732994  1
  O2-  O157  1  0.36400837  0.11686405  0.49975241  1
  O2-  O158  1  0.38267697  0.12878198  0.75408327  1
  O2-  O159  1  0.36571869  0.62191438  -0.01162704  1
  O2-  O160  1  0.40634075  0.63267361  0.24460820  1
  O2-  O161  1  0.36765178  0.63195562  0.49848644  1
  O2-  O162  1  0.37477273  0.59632664  0.75459759  1
  O2-  O163  1  0.66702518  0.11632238  -0.01113658  1
  O2-  O164  1  0.67538385  0.11871153  0.22446042  1
  O2-  O165  1  0.64070911  0.16840288  0.51107408  1
  O2-  O166  1  0.58481691  0.13228701  0.74225281  1
  O2-  O167  1  0.61132199  0.62371228  -0.00881150  1
  O2-  O168  1  0.62087650  0.64714073  0.23252891  1
  O2-  O169  1  0.56092076  0.63650630  0.50008805  1
  O2-  O170  1  0.56729879  0.61954410  0.77410382  1
  O2-  O171  1  0.84683234  0.13901304  -0.00511142  1
  O2-  O172  1  0.88652215  0.12540530  0.24670487  1
  O2-  O173  1  0.88817366  0.15162641  0.50408064  1
  O2-  O174  1  0.87678575  0.10928790  0.76042311  1
  O2-  O175  1  0.87514557  0.64596673  0.00629441  1
  O2-  O176  1  0.80012941  0.62806867  0.26631654  1
  O2-  O177  1  0.81718470  0.64803946  0.49462314  1
  O2-  O178  1  0.89219117  0.63091180  0.74491945  1
  O2-  O179  1  0.15163078  0.34604142  -0.00789471  1
  O2-  O180  1  0.12270159  0.34217380  0.24434136  1
  O2-  O181  1  0.12392646  0.37683750  0.50192899  1
  O2-  O182  1  0.15970998  0.33538899  0.75702820  1
  O2-  O183  1  0.07798312  0.88657292  0.00727760  1
  O2-  O184  1  0.13321418  0.84367046  0.25444392  1
  O2-  O185  1  0.17088804  0.87530023  0.50165033  1
  O2-  O186  1  0.10147579  0.85537417  0.75839653  1
  O2-  O187  1  0.35440145  0.37925882  0.00761405  1
  O2-  O188  1  0.36638714  0.38267743  0.23673948  1
  O2-  O189  1  0.40054622  0.34875752  0.49110863  1
  O2-  O190  1  0.40099391  0.36946198  0.74658242  1
  O2-  O191  1  0.42295024  0.86467533  -0.02483040  1
  O2-  O192  1  0.36858275  0.84930826  0.24728788  1
  O2-  O193  1  0.36833710  0.86441930  0.50909765  1
  O2-  O194  1  0.38613031  0.87956449  0.75241390  1
  O2-  O195  1  0.64858812  0.37051791  -0.01014709  1
  O2-  O196  1  0.66246018  0.37161187  0.23910945  1
  O2-  O197  1  0.63637249  0.35142151  0.49166000  1
  O2-  O198  1  0.61204795  0.37248003  0.75108372  1
  O2-  O199  1  0.60076872  0.89649019  -0.01571886  1
  O2-  O200  1  0.59923281  0.86625825  0.23983295  1
  O2-  O201  1  0.56393023  0.88026935  0.49529694  1
  O2-  O202  1  0.56489927  0.89094509  0.77156234  1
  O2-  O203  1  0.86383442  0.36505905  0.00470115  1
  O2-  O204  1  0.93541856  0.37763541  0.24168023  1
  O2-  O205  1  0.88844574  0.35384654  0.50599344  1
  O2-  O206  1  0.87201165  0.39937022  0.75303107  1
  O2-  O207  1  0.88914345  0.85411456  0.00696923  1
  O2-  O208  1  0.83245405  0.90062933  0.26223950  1
  O2-  O209  1  0.83846314  0.87337361  0.49365753  1
  O2-  O210  1  0.89443328  0.87095056  0.74736549  1
  O2-  O211  1  0.00732522  0.14156956  0.10798263  1
  O2-  O212  1  -0.00863183  -0.13560290  0.15914185  1
  O2-  O213  1  0.00339780  -0.15383618  0.38110876  1
  O2-  O214  1  0.01970594  0.13901428  0.89268656  1
  O2-  O215  1  0.01126545  0.45548091  0.09855305  1
  O2-  O216  1  -0.03718408  0.62351464  0.16930840  1
  O2-  O217  1  -0.01632800  0.65028976  0.37633855  1
  O2-  O218  1  0.11251102  0.50273455  0.77187149  1
  O2-  O219  1  0.24161411  -0.15197954  -0.07701819  1
  O2-  O220  1  0.25099750  0.14238211  0.38153251  1
  O2-  O221  1  0.29529657  0.01288511  0.63612369  1
  O2-  O222  1  0.24423616  -0.15867750  0.65274747  1
  O2-  O223  1  0.23641801  0.63454510  -0.13232680  1
  O2-  O224  1  0.25806361  0.36067214  0.37010056  1
  O2-  O225  1  0.26317629  0.35181762  0.61969080  1
  O2-  O226  1  0.24683483  0.62402234  0.62966531  1
  O2-  O227  1  0.51306932  0.16140408  0.08591840  1
  O2-  O228  1  0.48984200  0.11554419  0.24747586  1
  O2-  O229  1  0.49800519  0.12376013  0.41442498  1
  O2-  O230  1  0.50433450  0.10318042  0.89572797  1
  O2-  O231  1  0.47494211  0.51330643  0.09785794  1
  O2-  O232  1  0.51039959  0.35472497  0.12344882  1
  O2-  O233  1  0.51421811  0.37216731  0.36033075  1
  O2-  O234  1  0.44909087  0.48881527  0.88881947  1
  O2-  O235  1  0.76049682  -0.14148547  -0.12742091  1
  O2-  O236  1  0.76366521  0.15175143  0.37644220  1
  O2-  O237  1  0.76721055  0.16743046  0.63626870  1
  O2-  O238  1  0.72570239  -0.13238527  0.64980405  1
  O2-  O239  1  0.75739024  0.66413258  -0.13650344  1
  O2-  O240  1  0.76199386  0.34118813  0.37197215  1
  O2-  O241  1  0.76214142  0.35537974  0.62129105  1
  O2-  O242  1  0.72256886  0.64059891  0.66303769  1
