# generated using pymatgen
data_Gd19Ta56(WO20)8
_symmetry_space_group_name_H-M   'P 1'
_cell_length_a   15.57557443
_cell_length_b   15.51665359
_cell_length_c   15.23310200
_cell_angle_alpha   89.90581486
_cell_angle_beta   90.21658404
_cell_angle_gamma   89.97917275
_symmetry_Int_Tables_number   1
_chemical_formula_structural   Gd19Ta56(WO20)8
_chemical_formula_sum   'Gd19 Ta56 W8 O160'
_cell_volume   3681.51664089
_cell_formula_units_Z   1
loop_
 _symmetry_equiv_pos_site_id
 _symmetry_equiv_pos_as_xyz
  1  'x, y, z'
loop_
 _atom_type_symbol
 _atom_type_oxidation_number
  Gd3+  3.0
  Ta5+  5.0
  W6+  6.0
  O2-  -2.0
loop_
 _atom_site_type_symbol
 _atom_site_label
 _atom_site_symmetry_multiplicity
 _atom_site_fract_x
 _atom_site_fract_y
 _atom_site_fract_z
 _atom_site_occupancy
  Gd3+  Gd0  1  0.00330740  0.25511289  0.01165559  1
  Gd3+  Gd1  1  0.17865755  0.75466477  0.72290649  1
  Gd3+  Gd2  1  0.75705311  0.25193086  0.75258367  1
  Gd3+  Gd3  1  0.76160201  0.25035959  0.49744326  1
  Gd3+  Gd4  1  0.50378097  0.76820062  -0.00833209  1
  Gd3+  Gd5  1  0.74651719  0.76384481  0.51578535  1
  Gd3+  Gd6  1  0.05056896  0.27707718  0.25708791  1
  Gd3+  Gd7  1  0.24822968  0.75176819  0.49036674  1
  Gd3+  Gd8  1  0.23896965  0.23752059  0.73963937  1
  Gd3+  Gd9  1  -0.01005815  0.76256401  0.22737090  1
  Gd3+  Gd10  1  0.47159273  0.25784334  0.76056746  1
  Gd3+  Gd11  1  0.49535754  0.24110929  0.49045914  1
  Gd3+  Gd12  1  0.23087197  0.22912316  0.50855078  1
  Gd3+  Gd13  1  0.51274728  0.73900585  0.51295823  1
  Gd3+  Gd14  1  0.25772533  0.24314663  -0.01927254  1
  Gd3+  Gd15  1  0.50421211  0.26035650  0.23477546  1
  Gd3+  Gd16  1  0.00171043  0.75321352  0.49975896  1
  Gd3+  Gd17  1  0.47646747  0.72821023  0.25120435  1
  Gd3+  Gd18  1  0.25470489  0.72244959  0.00709978  1
  Ta5+  Ta19  1  0.63266692  0.63006106  0.09306375  1
  Ta5+  Ta20  1  0.39682781  0.39903467  0.60843725  1
  Ta5+  Ta21  1  0.88978993  0.38453581  0.61726563  1
  Ta5+  Ta22  1  0.35867913  0.89629749  0.36659699  1
  Ta5+  Ta23  1  0.04346556  0.92508398  0.63993455  1
  Ta5+  Ta24  1  0.14324084  0.11287338  0.12121438  1
  Ta5+  Ta25  1  0.61556800  0.11622533  0.87045313  1
  Ta5+  Ta26  1  0.12875251  0.38874069  0.85934398  1
  Ta5+  Ta27  1  0.37188375  0.09695149  0.33433520  1
  Ta5+  Ta28  1  0.06551069  0.60606341  0.61887374  1
  Ta5+  Ta29  1  0.11159491  0.11174899  0.87009184  1
  Ta5+  Ta30  1  0.87924792  0.12653510  0.88036374  1
  Ta5+  Ta31  1  0.84030404  0.61219640  0.37839002  1
  Ta5+  Ta32  1  0.35099800  0.57392080  0.13763391  1
  Ta5+  Ta33  1  0.11212182  0.61540852  0.11985713  1
  Ta5+  Ta34  1  0.09722435  0.09921030  0.62679162  1
  Ta5+  Ta35  1  0.64413659  0.11942644  0.36641829  1
  Ta5+  Ta36  1  0.13020349  0.11080784  0.37286124  1
  Ta5+  Ta37  1  0.65493893  0.87878469  0.87672839  1
  Ta5+  Ta38  1  0.86810080  0.88894067  0.37381349  1
  Ta5+  Ta39  1  0.39112037  0.07474862  0.65343641  1
  Ta5+  Ta40  1  0.90268415  0.06763095  0.63838058  1
  Ta5+  Ta41  1  0.39450401  0.86667049  0.67683514  1
  Ta5+  Ta42  1  0.34803069  0.35210044  0.37143265  1
  Ta5+  Ta43  1  0.61730023  0.61827150  0.68300349  1
  Ta5+  Ta44  1  0.62753089  0.87232755  0.34593859  1
  Ta5+  Ta45  1  0.36700187  0.59677953  0.39170733  1
  Ta5+  Ta46  1  0.89896139  0.62833812  0.64529894  1
  Ta5+  Ta47  1  0.08162418  0.62515312  0.87180358  1
  Ta5+  Ta48  1  0.88664967  0.37934040  0.87888756  1
  Ta5+  Ta49  1  0.64594902  0.61792127  0.32041481  1
  Ta5+  Ta50  1  0.87146390  0.37419759  0.14696547  1
  Ta5+  Ta51  1  0.91346081  0.62679573  0.89961127  1
  Ta5+  Ta52  1  0.08974831  0.36740711  0.61712396  1
  Ta5+  Ta53  1  0.66454576  0.13573949  0.11308368  1
  Ta5+  Ta54  1  0.17852357  0.38800854  0.11460033  1
  Ta5+  Ta55  1  0.36733861  0.62971964  0.65140013  1
  Ta5+  Ta56  1  0.89631748  0.87267695  0.88458540  1
  Ta5+  Ta57  1  0.67347441  0.88315640  0.10200005  1
  Ta5+  Ta58  1  0.11328329  0.87288533  0.87925177  1
  Ta5+  Ta59  1  0.61026733  0.38264575  0.86791587  1
  Ta5+  Ta60  1  0.89640604  0.12288019  0.13969926  1
  Ta5+  Ta61  1  0.63742693  0.38114165  0.11486113  1
  Ta5+  Ta62  1  0.27258407  0.59437220  0.82460958  1
  Ta5+  Ta63  1  0.59545663  0.11410409  0.62912831  1
  Ta5+  Ta64  1  0.43435105  0.92050788  0.18795445  1
  Ta5+  Ta65  1  0.32627617  0.84980411  0.86193354  1
  Ta5+  Ta66  1  0.89171078  0.13177371  0.39527747  1
  Ta5+  Ta67  1  0.60161807  0.38465123  0.62212006  1
  Ta5+  Ta68  1  0.84098429  0.87902349  0.12060190  1
  Ta5+  Ta69  1  0.38528376  0.04928823  0.86556782  1
  Ta5+  Ta70  1  0.87821035  0.87688110  0.64054620  1
  Ta5+  Ta71  1  0.92769508  0.38239452  0.39790679  1
  Ta5+  Ta72  1  0.38687300  0.12470841  0.09839168  1
  Ta5+  Ta73  1  0.35867991  0.37466436  0.11598303  1
  Ta5+  Ta74  1  0.35893929  0.40340470  0.86221553  1
  W6+  W75  1  0.12782027  0.86476555  0.11675056  1
  W6+  W76  1  0.10645905  0.87673052  0.38195989  1
  W6+  W77  1  0.71448313  0.92882572  0.69490397  1
  W6+  W78  1  0.84707111  0.62459004  0.14507642  1
  W6+  W79  1  0.60680207  0.37937154  0.37309425  1
  W6+  W80  1  0.65243781  0.62970419  0.87808289  1
  W6+  W81  1  0.12491923  0.60979810  0.37388263  1
  W6+  W82  1  0.18533041  0.37755701  0.37666223  1
  O2-  O83  1  0.15874821  -0.00275274  0.12681366  1
  O2-  O84  1  0.07220819  0.00800554  0.36084485  1
  O2-  O85  1  0.15946935  -0.00145007  0.62919885  1
  O2-  O86  1  0.08319238  -0.00171364  0.89218607  1
  O2-  O87  1  0.10107127  0.49329974  0.11507978  1
  O2-  O88  1  0.19455064  0.51152334  0.38610130  1
  O2-  O89  1  0.09102519  0.48699489  0.63780883  1
  O2-  O90  1  0.08012897  0.49697119  0.85382336  1
  O2-  O91  1  0.43770647  0.00910111  0.10041293  1
  O2-  O92  1  0.40993755  0.00666688  0.41193553  1
  O2-  O93  1  0.35518893  -0.03122910  0.60270829  1
  O2-  O94  1  0.29786890  -0.02858279  0.89754664  1
  O2-  O95  1  0.43312762  0.48515016  0.12716376  1
  O2-  O96  1  0.37751188  0.47586406  0.39851666  1
  O2-  O97  1  0.35449019  0.50846694  0.61069138  1
  O2-  O98  1  0.24938739  0.46077615  0.83818108  1
  O2-  O99  1  0.66751523  0.01587061  0.10209671  1
  O2-  O100  1  0.63568125  -0.00125980  0.37671010  1
  O2-  O101  1  0.61875622  0.00046988  0.61672298  1
  O2-  O102  1  0.67565653  0.01146876  0.87249826  1
  O2-  O103  1  0.65218759  0.50037851  0.10023667  1
  O2-  O104  1  0.61134380  0.51709730  0.37132524  1
  O2-  O105  1  0.63014191  0.50426896  0.62932039  1
  O2-  O106  1  0.65244948  0.49159387  0.86933600  1
  O2-  O107  1  0.86447528  0.01068585  0.12816204  1
  O2-  O108  1  0.86807662  0.00584297  0.39443197  1
  O2-  O109  1  0.81068599  -0.00794505  0.61344498  1
  O2-  O110  1  0.88114858  0.00871004  0.88541460  1
  O2-  O111  1  0.88072767  0.49100667  0.14800360  1
  O2-  O112  1  0.88954509  0.50391275  0.38946753  1
  O2-  O113  1  0.86827797  0.50421596  0.61862248  1
  O2-  O114  1  0.88648995  0.49626349  0.89567606  1
  O2-  O115  1  0.12692865  0.26103770  0.09879665  1
  O2-  O116  1  0.13918808  0.24141646  0.38051253  1
  O2-  O117  1  0.13334902  0.23067019  0.62529339  1
  O2-  O118  1  0.15915757  0.24586923  0.86826599  1
  O2-  O119  1  0.07386404  0.73701561  0.10451316  1
  O2-  O120  1  0.12308416  0.74190454  0.41026599  1
  O2-  O121  1  0.13618615  0.71469027  0.58856531  1
  O2-  O122  1  0.10068363  0.75198756  0.87291226  1
  O2-  O123  1  0.40489895  0.25245587  0.09624339  1
  O2-  O124  1  0.38701731  0.21999675  0.37845313  1
  O2-  O125  1  0.31120190  0.16056386  0.61654613  1
  O2-  O126  1  0.34116759  0.27907606  0.86123014  1
  O2-  O127  1  0.47592116  0.81938959  0.13020628  1
  O2-  O128  1  0.39902058  0.80981279  0.44360457  1
  O2-  O129  1  0.32613417  0.76162454  0.64079966  1
  O2-  O130  1  0.28284917  0.72182608  0.85306723  1
  O2-  O131  1  0.59868881  0.24829766  0.12241142  1
  O2-  O132  1  0.57636949  0.23222769  0.36743552  1
  O2-  O133  1  0.55803351  0.25289463  0.63318810  1
  O2-  O134  1  0.58770543  0.24403187  0.84793262  1
  O2-  O135  1  0.65062324  0.75085859  0.09666929  1
  O2-  O136  1  0.60797221  0.74258351  0.31669895  1
  O2-  O137  1  0.64026718  0.70310892  0.59337440  1
  O2-  O138  1  0.62175617  0.75999385  0.89469443  1
  O2-  O139  1  0.94456483  0.26530372  0.14804106  1
  O2-  O140  1  0.92772593  0.25106845  0.40091503  1
  O2-  O141  1  0.80760722  0.28871792  0.62665693  1
  O2-  O142  1  0.83049066  0.25494165  0.87846470  1
  O2-  O143  1  0.85284967  0.75837178  0.14225451  1
  O2-  O144  1  0.97682354  0.82326624  0.36921961  1
  O2-  O145  1  0.85653636  0.74860588  0.63814136  1
  O2-  O146  1  0.91101786  0.75115529  0.88608124  1
  O2-  O147  1  0.16405821  0.12548627  -0.01429826  1
  O2-  O148  1  0.12105132  0.14306587  0.24189422  1
  O2-  O149  1  0.13721296  0.11525067  0.49937685  1
  O2-  O150  1  0.15977514  0.11302714  0.75618260  1
  O2-  O151  1  0.13931620  0.62084248  -0.00808810  1
  O2-  O152  1  0.08653087  0.63540703  0.24699097  1
  O2-  O153  1  0.05575173  0.60188519  0.48368551  1
  O2-  O154  1  0.07858080  0.64434152  0.74122333  1
  O2-  O155  1  0.35826817  0.12371490  -0.02882853  1
  O2-  O156  1  0.42757027  0.13495627  0.22668445  1
  O2-  O157  1  0.25553381  0.10322107  0.36408226  1
  O2-  O158  1  0.34844688  0.13051947  0.77724725  1
  O2-  O159  1  0.38365677  0.65553308  0.05307750  1
  O2-  O160  1  0.38302561  0.61042346  0.25498835  1
  O2-  O161  1  0.35187389  0.64169273  0.51216972  1
  O2-  O162  1  0.38585088  0.58873593  0.77003245  1
  O2-  O163  1  0.65660371  0.15015106  -0.01731201  1
  O2-  O164  1  0.62927628  0.12631794  0.24205450  1
  O2-  O165  1  0.63796995  0.14875845  0.50831761  1
  O2-  O166  1  0.66218760  0.13536899  0.73997502  1
  O2-  O167  1  0.56360220  0.62751598  -0.00639010  1
  O2-  O168  1  0.57464118  0.61796585  0.20872001  1
  O2-  O169  1  0.48816018  0.64240121  0.62757101  1
  O2-  O170  1  0.55231509  0.62458442  0.78559060  1
  O2-  O171  1  0.88789115  0.15447411  0.00586647  1
  O2-  O172  1  0.91531411  0.13015913  0.26445726  1
  O2-  O173  1  0.86470500  0.13662767  0.52399975  1
  O2-  O174  1  0.85921540  0.13601437  0.74963673  1
  O2-  O175  1  0.88559676  0.62833569  0.01971169  1
  O2-  O176  1  0.90238043  0.66144202  0.28653476  1
  O2-  O177  1  0.87405300  0.65973164  0.49127133  1
  O2-  O178  1  0.89934741  0.61949354  0.76471316  1
  O2-  O179  1  0.16988025  0.37867412  -0.02122970  1
  O2-  O180  1  0.16636800  0.36491787  0.23645840  1
  O2-  O181  1  0.17324835  0.36398837  0.52378062  1
  O2-  O182  1  0.15279642  0.36056755  0.73592845  1
  O2-  O183  1  0.17597920  0.85483089  -0.00775950  1
  O2-  O184  1  0.10518672  0.85143820  0.24553736  1
  O2-  O185  1  0.07155152  0.87923668  0.52501313  1
  O2-  O186  1  0.09731588  0.88154477  0.75029925  1
  O2-  O187  1  0.35443040  0.39612688  -0.01545785  1
  O2-  O188  1  0.37427922  0.34904673  0.24801333  1
  O2-  O189  1  0.35660110  0.32153500  0.51339946  1
  O2-  O190  1  0.34433504  0.34666929  0.71185471  1
  O2-  O191  1  0.36657811  0.81995270  -0.02489218  1
  O2-  O192  1  0.36138990  0.82559838  0.26043781  1
  O2-  O193  1  0.48762661  0.84109991  0.61257632  1
  O2-  O194  1  0.42019665  0.81174216  0.78913662  1
  O2-  O195  1  0.63498261  0.35575073  -0.01269935  1
  O2-  O196  1  0.58359560  0.38517271  0.22766509  1
  O2-  O197  1  0.65374382  0.34599848  0.51351421  1
  O2-  O198  1  0.65363048  0.36051746  0.74268361  1
  O2-  O199  1  0.59394650  0.89220726  -0.00800569  1
  O2-  O200  1  0.67147004  0.88322191  0.22587458  1
  O2-  O201  1  0.61226722  0.83274455  0.46525801  1
  O2-  O202  1  0.60671079  0.88467305  0.76637522  1
  O2-  O203  1  0.89081175  0.35539944  0.01587900  1
  O2-  O204  1  0.88812474  0.36357030  0.27604308  1
  O2-  O205  1  0.83712145  0.37442688  0.49114322  1
  O2-  O206  1  0.84640676  0.38180791  0.76034926  1
  O2-  O207  1  0.90041914  0.88079105  0.01188626  1
  O2-  O208  1  0.87878507  0.88676791  0.24871836  1
  O2-  O209  1  0.87340992  0.85208311  0.50183261  1
  O2-  O210  1  0.92236959  0.88314347  0.75910799  1
  O2-  O211  1  0.00022281  0.16279209  -0.12768266  1
  O2-  O212  1  0.01932119  0.11833689  0.09787827  1
  O2-  O213  1  0.00051460  0.03719976  0.55926835  1
  O2-  O214  1  0.00964519  0.04779163  0.71514169  1
  O2-  O215  1  0.00650912  0.34440533  -0.12023350  1
  O2-  O216  1  0.04138967  0.38893603  0.35838328  1
  O2-  O217  1  -0.00996917  0.38513378  0.52882622  1
  O2-  O218  1  -0.01475037  0.33173679  0.68033411  1
  O2-  O219  1  0.26907072  0.14421281  0.12512748  1
  O2-  O220  1  0.34501002  -0.01314751  0.25868787  1
  O2-  O221  1  0.24579578  -0.11320123  0.40661826  1
  O2-  O222  1  0.40889991  -0.02228532  0.75539704  1
  O2-  O223  1  0.27004131  0.47753436  0.12448299  1
  O2-  O224  1  0.23377724  0.64116985  0.13819578  1
  O2-  O225  1  0.26646934  0.66328221  0.36973781  1
  O2-  O226  1  0.24634310  0.61939237  0.69830977  1
  O2-  O227  1  0.50688882  0.06919584  -0.10454637  1
  O2-  O228  1  0.50633492  -0.10764326  0.30063234  1
  O2-  O229  1  0.47483116  0.10906842  0.56251590  1
  O2-  O230  1  0.49959980  0.11508219  0.72214631  1
  O2-  O231  1  0.48887976  0.39170213  -0.13778824  1
  O2-  O232  1  0.47988630  0.64788666  0.38960690  1
  O2-  O233  1  0.50120032  0.39300192  0.53303261  1
  O2-  O234  1  0.49419704  0.39809502  0.69318121  1
  O2-  O235  1  0.77677974  0.16915771  0.13882928  1
  O2-  O236  1  0.75329634  -0.15353312  0.37774899  1
  O2-  O237  1  0.76304703  0.15029302  0.37198501  1
  O2-  O238  1  0.77427081  -0.13927510  0.87295556  1
  O2-  O239  1  0.75211010  0.35197489  0.14429606  1
  O2-  O240  1  0.75401800  0.59152847  0.26691227  1
  O2-  O241  1  0.72234163  0.65387767  0.41944604  1
  O2-  O242  1  0.71337679  0.63536402  0.75281217  1
