# generated using pymatgen
data_Gd19Ta56(WO20)8
_symmetry_space_group_name_H-M   'P 1'
_cell_length_a   15.50739309
_cell_length_b   15.49055813
_cell_length_c   15.30939681
_cell_angle_alpha   89.94951301
_cell_angle_beta   90.06743937
_cell_angle_gamma   90.11015856
_symmetry_Int_Tables_number   1
_chemical_formula_structural   Gd19Ta56(WO20)8
_chemical_formula_sum   'Gd19 Ta56 W8 O160'
_cell_volume   3677.58458388
_cell_formula_units_Z   1
loop_
 _symmetry_equiv_pos_site_id
 _symmetry_equiv_pos_as_xyz
  1  'x, y, z'
loop_
 _atom_type_symbol
 _atom_type_oxidation_number
  Gd3+  3.0
  Ta5+  5.0
  W6+  6.0
  O2-  -2.0
loop_
 _atom_site_type_symbol
 _atom_site_label
 _atom_site_symmetry_multiplicity
 _atom_site_fract_x
 _atom_site_fract_y
 _atom_site_fract_z
 _atom_site_occupancy
  Gd3+  Gd0  1  0.20140071  0.74065346  0.73935002  1
  Gd3+  Gd1  1  0.55925398  0.24672123  0.51044445  1
  Gd3+  Gd2  1  0.00177629  0.75010770  0.00202764  1
  Gd3+  Gd3  1  0.28335100  0.76243694  0.26616712  1
  Gd3+  Gd4  1  0.23143808  0.25141010  0.73576481  1
  Gd3+  Gd5  1  0.75685061  0.71969677  0.01634868  1
  Gd3+  Gd6  1  0.21917658  0.24278420  0.48094263  1
  Gd3+  Gd7  1  0.75396357  0.24956258  0.00495076  1
  Gd3+  Gd8  1  0.49185595  0.75192913  0.74543444  1
  Gd3+  Gd9  1  -0.01501637  0.25426372  0.28968963  1
  Gd3+  Gd10  1  -0.03505313  0.75816433  0.71890291  1
  Gd3+  Gd11  1  0.50151501  0.25446644  0.73813453  1
  Gd3+  Gd12  1  0.51102727  0.24632301  0.01100670  1
  Gd3+  Gd13  1  0.24522659  0.25580917  0.00372340  1
  Gd3+  Gd14  1  0.74753440  0.25170715  0.25491890  1
  Gd3+  Gd15  1  0.50825593  0.75505394  0.50690280  1
  Gd3+  Gd16  1  0.50282817  0.73754092  -0.01859171  1
  Gd3+  Gd17  1  0.74735673  0.23603591  0.73986689  1
  Gd3+  Gd18  1  0.73638649  0.75224517  0.26877960  1
  Ta5+  Ta19  1  0.59242567  0.61886590  0.37236763  1
  Ta5+  Ta20  1  0.67171500  0.11711436  0.38989014  1
  Ta5+  Ta21  1  0.38538721  0.37840967  0.86557686  1
  Ta5+  Ta22  1  0.10378632  0.37418274  0.88005802  1
  Ta5+  Ta23  1  0.62923901  0.11797722  0.13354772  1
  Ta5+  Ta24  1  0.39245854  0.12072170  0.61453932  1
  Ta5+  Ta25  1  0.42209235  0.62222277  0.36722584  1
  Ta5+  Ta26  1  0.11317883  0.84707688  0.38224710  1
  Ta5+  Ta27  1  0.38537060  0.38306122  0.12193222  1
  Ta5+  Ta28  1  0.36179659  0.61941287  0.61481796  1
  Ta5+  Ta29  1  0.65218612  0.87542399  0.86602991  1
  Ta5+  Ta30  1  0.88209260  0.11958154  0.13085457  1
  Ta5+  Ta31  1  0.11795686  0.63820388  0.57997891  1
  Ta5+  Ta32  1  0.37907080  0.11318846  0.11122501  1
  Ta5+  Ta33  1  0.13888563  0.39571471  0.36400568  1
  Ta5+  Ta34  1  0.60077968  0.11239574  0.86929429  1
  Ta5+  Ta35  1  0.34898170  0.11914438  0.35670033  1
  Ta5+  Ta36  1  0.09770766  0.09555251  0.37685258  1
  Ta5+  Ta37  1  0.63832562  0.38904848  0.38131512  1
  Ta5+  Ta38  1  0.86369386  0.87839819  0.87961518  1
  Ta5+  Ta39  1  0.62349449  0.38494408  0.86533692  1
  Ta5+  Ta40  1  0.64952904  0.62430890  0.84807185  1
  Ta5+  Ta41  1  0.35668111  0.87802987  0.86555328  1
  Ta5+  Ta42  1  0.81915497  0.58780407  0.64872646  1
  Ta5+  Ta43  1  0.63331633  0.05845315  0.62393089  1
  Ta5+  Ta44  1  0.12075938  0.63746205  0.15347019  1
  Ta5+  Ta45  1  0.62059271  0.61674771  0.12500327  1
  Ta5+  Ta46  1  0.58730481  0.87626175  0.11912893  1
  Ta5+  Ta47  1  0.13283521  0.64628340  0.38788964  1
  Ta5+  Ta48  1  0.37521178  0.37504722  0.61132443  1
  Ta5+  Ta49  1  0.83773763  0.91544478  0.66158091  1
  Ta5+  Ta50  1  0.88003492  0.37739694  0.12536531  1
  Ta5+  Ta51  1  0.88238085  0.35784944  0.62607226  1
  Ta5+  Ta52  1  0.35073699  0.61681642  0.87572968  1
  Ta5+  Ta53  1  0.84404104  0.11920550  0.39338359  1
  Ta5+  Ta54  1  0.43828831  0.88729694  0.36479037  1
  Ta5+  Ta55  1  0.61424987  0.60325630  0.63098955  1
  Ta5+  Ta56  1  0.15023076  0.61035891  0.91055495  1
  Ta5+  Ta57  1  0.38901509  0.11794557  0.86649747  1
  Ta5+  Ta58  1  0.38881302  0.37403158  0.37083912  1
  Ta5+  Ta59  1  0.07880372  0.12454279  0.62372684  1
  Ta5+  Ta60  1  0.12080774  0.11688526  0.12673379  1
  Ta5+  Ta61  1  0.89044910  0.87490023  0.14875732  1
  Ta5+  Ta62  1  0.62925468  0.38426917  0.12689069  1
  Ta5+  Ta63  1  0.11569512  0.39250868  0.61733516  1
  Ta5+  Ta64  1  0.14424105  0.88615106  0.60242327  1
  Ta5+  Ta65  1  0.64337305  0.40745576  0.63183074  1
  Ta5+  Ta66  1  0.88481532  0.12091505  0.87875929  1
  Ta5+  Ta67  1  0.85506369  0.88115899  0.40893102  1
  Ta5+  Ta68  1  0.38829360  0.61136659  0.11935004  1
  Ta5+  Ta69  1  0.13577507  0.87168738  0.13076756  1
  Ta5+  Ta70  1  0.90574322  0.36457851  0.87076418  1
  Ta5+  Ta71  1  0.12120803  0.11768412  0.87172317  1
  Ta5+  Ta72  1  0.34782153  0.88388087  0.60540540  1
  Ta5+  Ta73  1  0.83675888  0.38601532  0.38797877  1
  Ta5+  Ta74  1  0.91161646  0.11973773  0.62850253  1
  W6+  W75  1  0.85290079  0.63188332  0.40749083  1
  W6+  W76  1  0.89636022  0.61708095  0.87790582  1
  W6+  W77  1  0.12941664  0.38464397  0.13248818  1
  W6+  W78  1  0.10774554  0.86649861  0.86570240  1
  W6+  W79  1  0.87863039  0.62232639  0.15265477  1
  W6+  W80  1  0.42205806  0.86942283  0.11746721  1
  W6+  W81  1  0.60303842  0.87881582  0.36951183  1
  W6+  W82  1  0.65301795  0.85740177  0.62595352  1
  O2-  O83  1  0.16130701  -0.00130291  0.13341775  1
  O2-  O84  1  0.09903978  -0.02282265  0.37194072  1
  O2-  O85  1  0.11263267  0.00308751  0.62382328  1
  O2-  O86  1  0.12348028  0.00119420  0.86334643  1
  O2-  O87  1  0.12993397  0.51947338  0.15222811  1
  O2-  O88  1  0.12871570  0.51641958  0.37726781  1
  O2-  O89  1  0.09538569  0.50945533  0.60704333  1
  O2-  O90  1  0.10432740  0.50161345  0.87622765  1
  O2-  O91  1  0.37790837  -0.00232640  0.10595771  1
  O2-  O92  1  0.41506580  0.01808887  0.36893393  1
  O2-  O93  1  0.37986017  0.00089792  0.63307361  1
  O2-  O94  1  0.34290773  0.00169967  0.86024854  1
  O2-  O95  1  0.33488625  0.49560577  0.12054060  1
  O2-  O96  1  0.39859974  0.49426573  0.37164466  1
  O2-  O97  1  0.37596928  0.49705751  0.62109244  1
  O2-  O98  1  0.37240853  0.50136733  0.84567415  1
  O2-  O99  1  0.62680950  -0.00066223  0.10651015  1
  O2-  O100  1  0.63587704  0.00416905  0.39164796  1
  O2-  O101  1  0.56350684  -0.03634783  0.61150584  1
  O2-  O102  1  0.63908693  -0.00235935  0.88553870  1
  O2-  O103  1  0.66431999  0.49905018  0.10253483  1
  O2-  O104  1  0.65146227  0.50756394  0.38489973  1
  O2-  O105  1  0.55419179  0.49113166  0.63654443  1
  O2-  O106  1  0.63963227  0.50610028  0.88216765  1
  O2-  O107  1  0.86090698  -0.00410472  0.13614069  1
  O2-  O108  1  0.83646494  -0.00393370  0.36894111  1
  O2-  O109  1  0.93013240  -0.00304825  0.64112042  1
  O2-  O110  1  0.87324382  0.00133689  0.90334020  1
  O2-  O111  1  0.91447299  0.49089274  0.13089325  1
  O2-  O112  1  0.86846008  0.50115512  0.39374592  1
  O2-  O113  1  0.87971155  0.48293540  0.64631900  1
  O2-  O114  1  0.89216972  0.48129187  0.87113986  1
  O2-  O115  1  0.16360027  0.23641223  0.12511278  1
  O2-  O116  1  0.10993882  0.26462185  0.38241158  1
  O2-  O117  1  0.14989676  0.25052624  0.61273209  1
  O2-  O118  1  0.16513381  0.25529237  0.87096643  1
  O2-  O119  1  0.18851698  0.75422220  0.12831238  1
  O2-  O120  1  0.20192264  0.76109303  0.40224373  1
  O2-  O121  1  0.16811325  0.75522552  0.58989634  1
  O2-  O122  1  0.10330230  0.72033197  0.87126935  1
  O2-  O123  1  0.37804727  0.25531110  0.09528657  1
  O2-  O124  1  0.38198318  0.23397228  0.37230502  1
  O2-  O125  1  0.42886089  0.25611996  0.60428041  1
  O2-  O126  1  0.41167491  0.24858723  0.87588257  1
  O2-  O127  1  0.40585035  0.73290312  0.10190638  1
  O2-  O128  1  0.41113789  0.75573497  0.36966859  1
  O2-  O129  1  0.38963294  0.75981800  0.61415448  1
  O2-  O130  1  0.39919305  0.73754541  0.87193010  1
  O2-  O131  1  0.60890759  0.25223024  0.12647126  1
  O2-  O132  1  0.65535167  0.24934167  0.38368189  1
  O2-  O133  1  0.61784064  0.27754633  0.64955439  1
  O2-  O134  1  0.61347622  0.24364003  0.84511727  1
  O2-  O135  1  0.63544387  0.74863095  0.12092401  1
  O2-  O136  1  0.60903328  0.74203915  0.35756343  1
  O2-  O137  1  0.58490794  0.73219445  0.63403640  1
  O2-  O138  1  0.60339457  0.74659407  0.85806040  1
  O2-  O139  1  0.92174450  0.25395749  0.13619775  1
  O2-  O140  1  0.85447034  0.25370184  0.37910263  1
  O2-  O141  1  0.84452072  0.23694014  0.62842960  1
  O2-  O142  1  0.83010407  0.24385069  0.87485002  1
  O2-  O143  1  0.82653423  0.76070230  0.14265838  1
  O2-  O144  1  0.80652919  0.76354849  0.40273883  1
  O2-  O145  1  0.83474684  0.79444044  0.65998558  1
  O2-  O146  1  0.91781093  0.75983506  0.87070162  1
  O2-  O147  1  0.15176109  0.12888120  -0.00390697  1
  O2-  O148  1  0.09638411  0.13157895  0.25038866  1
  O2-  O149  1  0.11895743  0.12834717  0.49841894  1
  O2-  O150  1  0.12500905  0.14413615  0.74669058  1
  O2-  O151  1  0.09599636  0.63441099  0.02098201  1
  O2-  O152  1  0.17788926  0.65419695  0.26614833  1
  O2-  O153  1  0.04679479  0.65374138  0.47929636  1
  O2-  O154  1  0.07829478  0.66131825  0.69596139  1
  O2-  O155  1  0.33388151  0.13121666  -0.01063258  1
  O2-  O156  1  0.33959179  0.12725328  0.22951418  1
  O2-  O157  1  0.33799186  0.12973257  0.50456224  1
  O2-  O158  1  0.34709627  0.15160724  0.73226647  1
  O2-  O159  1  0.42351979  0.60617060  -0.01772497  1
  O2-  O160  1  0.36835166  0.63264821  0.24396648  1
  O2-  O161  1  0.41285338  0.62926348  0.49995017  1
  O2-  O162  1  0.38183274  0.64237361  0.73833284  1
  O2-  O163  1  0.64053921  0.15005663  -0.00989885  1
  O2-  O164  1  0.64619764  0.12566441  0.25575381  1
  O2-  O165  1  0.66564262  0.13032495  0.52666807  1
  O2-  O166  1  0.65696562  0.10801270  0.73995476  1
  O2-  O167  1  0.62360548  0.64201315  -0.01184542  1
  O2-  O168  1  0.64125486  0.61898010  0.24786279  1
  O2-  O169  1  0.59629414  0.62247773  0.50717749  1
  O2-  O170  1  0.55840864  0.61456843  0.75824226  1
  O2-  O171  1  0.85730982  0.14012423  0.00392872  1
  O2-  O172  1  0.86740292  0.14337029  0.25360056  1
  O2-  O173  1  0.86763241  0.11119953  0.51202618  1
  O2-  O174  1  0.85330536  0.12090930  0.75798906  1
  O2-  O175  1  0.89123638  0.64978577  0.01346907  1
  O2-  O176  1  0.83219132  0.64049217  0.27838056  1
  O2-  O177  1  0.84805476  0.63727543  0.54378132  1
  O2-  O178  1  0.89358670  0.63056360  0.73805872  1
  O2-  O179  1  0.16891443  0.38009927  -0.00823512  1
  O2-  O180  1  0.07092069  0.37579284  0.26058971  1
  O2-  O181  1  0.15966289  0.38049692  0.49941281  1
  O2-  O182  1  0.16304058  0.38364808  0.73596893  1
  O2-  O183  1  0.10934990  0.86081549  0.00786473  1
  O2-  O184  1  0.16090070  0.85667073  0.25936018  1
  O2-  O185  1  0.07289038  0.86273282  0.50196369  1
  O2-  O186  1  0.09175678  0.84520671  0.71968305  1
  O2-  O187  1  0.35623301  0.37813646  -0.01392189  1
  O2-  O188  1  0.39977222  0.36495965  0.24234803  1
  O2-  O189  1  0.33960349  0.35720872  0.49183265  1
  O2-  O190  1  0.35458993  0.34632403  0.73885829  1
  O2-  O191  1  0.42173967  0.87245746  -0.03072944  1
  O2-  O192  1  0.38673802  0.87395790  0.25205084  1
  O2-  O193  1  0.41683847  0.88065391  0.49416049  1
  O2-  O194  1  0.40663119  0.87204850  0.75314476  1
  O2-  O195  1  0.63656828  0.34870509  -0.01275143  1
  O2-  O196  1  0.62950348  0.37896401  0.25041221  1
  O2-  O197  1  0.64198041  0.37268894  0.51174998  1
  O2-  O198  1  0.68440122  0.38846165  0.75627288  1
  O2-  O199  1  0.59798577  0.85932215  -0.01282921  1
  O2-  O200  1  0.63202181  0.87336903  0.23509106  1
  O2-  O201  1  0.62749014  0.84070815  0.49796046  1
  O2-  O202  1  0.59537881  0.87338614  0.75652258  1
  O2-  O203  1  0.85155106  0.36274195  -0.00112582  1
  O2-  O204  1  0.86730913  0.36526392  0.25767939  1
  O2-  O205  1  0.83109270  0.37065567  0.51553180  1
  O2-  O206  1  0.84870244  0.34924106  0.75143650  1
  O2-  O207  1  0.90020489  0.85913133  0.01485505  1
  O2-  O208  1  0.86847130  0.86119670  0.26954951  1
  O2-  O209  1  0.85190666  0.89968976  0.52681463  1
  O2-  O210  1  0.92345016  0.89443802  0.76947389  1
  O2-  O211  1  0.00342889  0.10026987  0.10263086  1
  O2-  O212  1  0.01299934  -0.12722613  0.15399349  1
  O2-  O213  1  -0.01867744  0.12794670  0.37865556  1
  O2-  O214  1  0.00147931  0.14952976  0.88526089  1
  O2-  O215  1  0.00820819  0.34283673  -0.04804359  1
  O2-  O216  1  0.00862230  0.68103982  0.16276044  1
  O2-  O217  1  0.00182936  0.34846211  0.60504466  1
  O2-  O218  1  0.00835159  0.35177338  0.79562324  1
  O2-  O219  1  0.24651756  -0.17041557  -0.13431702  1
  O2-  O220  1  0.22836289  0.11704865  0.37075598  1
  O2-  O221  1  0.25128521  -0.08979512  0.53118712  1
  O2-  O222  1  0.25212606  -0.12846296  0.68715176  1
  O2-  O223  1  0.25976186  0.61249247  -0.02953975  1
  O2-  O224  1  0.25548397  0.37203875  0.34362945  1
  O2-  O225  1  0.24360191  0.61024531  0.60405473  1
  O2-  O226  1  0.23479974  0.61663725  0.81215571  1
  O2-  O227  1  0.49185739  0.11029568  -0.05530692  1
  O2-  O228  1  0.49982235  0.12917881  0.12122298  1
  O2-  O229  1  0.51590468  0.12434258  0.60521218  1
  O2-  O230  1  0.49650455  0.11200163  0.78674279  1
  O2-  O231  1  0.50456793  0.39243568  0.09428128  1
  O2-  O232  1  0.50477936  0.58161914  0.13715591  1
  O2-  O233  1  0.50916594  0.35121109  0.40087804  1
  O2-  O234  1  0.50776101  0.38517076  0.81781380  1
  O2-  O235  1  0.75442250  -0.16442858  -0.06517324  1
  O2-  O236  1  0.75353255  0.15751994  0.12863409  1
  O2-  O237  1  0.73218116  -0.02109638  0.63522540  1
  O2-  O238  1  0.76439158  -0.09956975  0.79350219  1
  O2-  O239  1  0.76421531  0.65277493  -0.11766238  1
  O2-  O240  1  0.75431855  0.34174321  0.13164929  1
  O2-  O241  1  0.71302080  0.51773812  0.60331896  1
  O2-  O242  1  0.71388485  0.62755290  0.72112900  1
