# generated using pymatgen
data_Gd19Ta56(WO20)8
_symmetry_space_group_name_H-M   'P 1'
_cell_length_a   15.56152291
_cell_length_b   15.40455123
_cell_length_c   15.26535474
_cell_angle_alpha   89.90833227
_cell_angle_beta   90.12588064
_cell_angle_gamma   90.07418468
_symmetry_Int_Tables_number   1
_chemical_formula_structural   Gd19Ta56(WO20)8
_chemical_formula_sum   'Gd19 Ta56 W8 O160'
_cell_volume   3659.36796659
_cell_formula_units_Z   1
loop_
 _symmetry_equiv_pos_site_id
 _symmetry_equiv_pos_as_xyz
  1  'x, y, z'
loop_
 _atom_type_symbol
 _atom_type_oxidation_number
  Gd3+  3.0
  Ta5+  5.0
  W6+  6.0
  O2-  -2.0
loop_
 _atom_site_type_symbol
 _atom_site_label
 _atom_site_symmetry_multiplicity
 _atom_site_fract_x
 _atom_site_fract_y
 _atom_site_fract_z
 _atom_site_occupancy
  Gd3+  Gd0  1  0.76062690  0.73420731  0.26192394  1
  Gd3+  Gd1  1  0.01966017  0.24666383  0.48099748  1
  Gd3+  Gd2  1  0.00440431  0.78854760  0.23701127  1
  Gd3+  Gd3  1  0.74978285  0.75764326  0.72078667  1
  Gd3+  Gd4  1  0.77373092  0.25512906  0.71386925  1
  Gd3+  Gd5  1  0.49136048  0.24773998  0.75475751  1
  Gd3+  Gd6  1  -0.01809855  0.18758043  0.22919052  1
  Gd3+  Gd7  1  0.28787924  0.75905824  0.50426423  1
  Gd3+  Gd8  1  0.77248691  0.75136902  -0.01947086  1
  Gd3+  Gd9  1  0.03060682  0.75410680  0.48838142  1
  Gd3+  Gd10  1  0.00750060  0.24577926  0.72823652  1
  Gd3+  Gd11  1  -0.01497969  0.24824206  -0.01974817  1
  Gd3+  Gd12  1  0.74935405  0.24000119  0.25424267  1
  Gd3+  Gd13  1  0.44085302  0.74512997  0.77253722  1
  Gd3+  Gd14  1  0.46623484  0.76323654  0.00989104  1
  Gd3+  Gd15  1  0.00021317  0.74623787  -0.01805578  1
  Gd3+  Gd16  1  0.68494323  0.25593204  0.48069529  1
  Gd3+  Gd17  1  0.22842931  0.22439479  0.24575824  1
  Gd3+  Gd18  1  0.51198422  0.23158241  0.26791176  1
  Ta5+  Ta19  1  0.35867054  0.37509909  0.88748009  1
  Ta5+  Ta20  1  0.15294107  0.08034127  0.08609603  1
  Ta5+  Ta21  1  0.38451037  0.88959695  0.63475533  1
  Ta5+  Ta22  1  0.38257972  0.61016094  0.38452795  1
  Ta5+  Ta23  1  0.33809401  0.61671937  0.64099596  1
  Ta5+  Ta24  1  0.08722736  0.06967093  0.38732501  1
  Ta5+  Ta25  1  0.90286526  0.62871580  0.63499005  1
  Ta5+  Ta26  1  0.11983570  0.37914239  0.12045705  1
  Ta5+  Ta27  1  0.63305282  0.37170858  0.88643772  1
  Ta5+  Ta28  1  0.56161649  0.43223206  0.38989536  1
  Ta5+  Ta29  1  0.85531652  0.38833217  0.57790046  1
  Ta5+  Ta30  1  0.33115476  0.87868692  0.13419665  1
  Ta5+  Ta31  1  0.60546120  0.86493022  0.87083863  1
  Ta5+  Ta32  1  0.83366485  0.38756206  0.90112811  1
  Ta5+  Ta33  1  0.12985436  0.38254592  0.61121192  1
  Ta5+  Ta34  1  0.34786673  0.37236391  0.63743466  1
  Ta5+  Ta35  1  0.83869200  0.07889086  0.60190900  1
  Ta5+  Ta36  1  0.59462582  0.84861195  0.37378436  1
  Ta5+  Ta37  1  0.37891673  0.63097825  0.14435483  1
  Ta5+  Ta38  1  0.62080524  0.05649072  0.11333106  1
  Ta5+  Ta39  1  0.32945795  0.11672134  0.43154160  1
  Ta5+  Ta40  1  0.31882914  0.62239215  0.89882717  1
  Ta5+  Ta41  1  0.17026341  0.87243606  0.09280409  1
  Ta5+  Ta42  1  0.17779272  0.88791959  0.61093207  1
  Ta5+  Ta43  1  0.36215323  0.09398278  0.12362813  1
  Ta5+  Ta44  1  0.15799921  0.63150154  0.85665417  1
  Ta5+  Ta45  1  0.35333851  0.38143870  0.13082546  1
  Ta5+  Ta46  1  0.89601996  0.36809364  0.14877131  1
  Ta5+  Ta47  1  0.86720277  0.86232305  0.38347119  1
  Ta5+  Ta48  1  0.15085029  0.63579246  0.34436533  1
  Ta5+  Ta49  1  0.63834594  0.86375845  0.12594755  1
  Ta5+  Ta50  1  0.12417416  0.38440628  0.86401548  1
  Ta5+  Ta51  1  0.58363094  0.64004743  0.62862948  1
  Ta5+  Ta52  1  0.60865799  0.61876097  0.87511627  1
  Ta5+  Ta53  1  0.12105541  0.87703105  0.84345569  1
  Ta5+  Ta54  1  0.55502821  0.87560238  0.62264817  1
  Ta5+  Ta55  1  0.34294342  0.12933694  0.63127921  1
  Ta5+  Ta56  1  0.14414753  0.62654053  0.10314514  1
  Ta5+  Ta57  1  0.61400645  0.39250659  0.63559069  1
  Ta5+  Ta58  1  0.32300863  0.88649217  0.89024814  1
  Ta5+  Ta59  1  0.89330314  0.62276885  0.83843045  1
  Ta5+  Ta60  1  0.88772272  0.89218032  0.62312718  1
  Ta5+  Ta61  1  0.91250518  0.88728598  0.84125695  1
  Ta5+  Ta62  1  0.17480167  0.12626566  0.61528673  1
  Ta5+  Ta63  1  0.13643032  0.12594271  0.86107152  1
  Ta5+  Ta64  1  0.82943340  0.11602385  0.07790446  1
  Ta5+  Ta65  1  0.58105865  0.38054700  0.12239093  1
  Ta5+  Ta66  1  0.17070497  0.63048514  0.60674925  1
  Ta5+  Ta67  1  0.62559135  0.11202423  0.62576877  1
  Ta5+  Ta68  1  0.36251148  0.13207192  0.88768955  1
  Ta5+  Ta69  1  0.33825370  0.36463100  0.38705435  1
  Ta5+  Ta70  1  0.62358414  0.11316035  0.86979237  1
  Ta5+  Ta71  1  0.89960623  0.05605280  0.38777441  1
  Ta5+  Ta72  1  0.63603534  0.62266833  0.12113337  1
  Ta5+  Ta73  1  0.86415464  0.40418215  0.34919682  1
  Ta5+  Ta74  1  0.18781274  0.87985034  0.34212377  1
  W6+  W75  1  0.91563612  0.61622962  0.11814439  1
  W6+  W76  1  0.87449599  0.13903701  0.84178906  1
  W6+  W77  1  0.63758363  0.06569770  0.42503622  1
  W6+  W78  1  0.60694194  0.62930260  0.37816466  1
  W6+  W79  1  0.90790494  0.60889559  0.37591850  1
  W6+  W80  1  0.94442085  0.96467151  0.02537279  1
  W6+  W81  1  0.07132401  0.49688455  0.45135812  1
  W6+  W82  1  0.35930991  0.87877227  0.37097364  1
  O2-  O83  1  0.08481415  -0.02234139  0.06943452  1
  O2-  O84  1  0.18074530  0.00948916  0.33816313  1
  O2-  O85  1  0.14295310  0.00155585  0.62126517  1
  O2-  O86  1  0.13236945  0.00658963  0.85388437  1
  O2-  O87  1  0.13267767  0.49916127  0.12943887  1
  O2-  O88  1  0.16082769  0.51704012  0.34200573  1
  O2-  O89  1  0.13364639  0.50677336  0.59027108  1
  O2-  O90  1  0.12862691  0.50429667  0.86949715  1
  O2-  O91  1  0.39189152  -0.01171739  0.17452426  1
  O2-  O92  1  0.36907797  0.01939475  0.37346873  1
  O2-  O93  1  0.38221621  0.01270130  0.63944942  1
  O2-  O94  1  0.33744565  0.01032521  0.88931591  1
  O2-  O95  1  0.37748179  0.49742434  0.13431742  1
  O2-  O96  1  0.33675853  0.48584549  0.37618700  1
  O2-  O97  1  0.37012017  0.49174798  0.63360833  1
  O2-  O98  1  0.34544249  0.49494329  0.90252718  1
  O2-  O99  1  0.70582534  -0.04025741  0.15056132  1
  O2-  O100  1  0.61982015  -0.03376581  0.34528240  1
  O2-  O101  1  0.59139063  -0.00535524  0.62824328  1
  O2-  O102  1  0.63133106  -0.01663981  0.86374515  1
  O2-  O103  1  0.62493927  0.49761236  0.11803101  1
  O2-  O104  1  0.65556708  0.50127487  0.40426239  1
  O2-  O105  1  0.59112863  0.51032615  0.63597396  1
  O2-  O106  1  0.60434995  0.49632643  0.87666723  1
  O2-  O107  1  0.94401724  0.08751494  0.11235403  1
  O2-  O108  1  0.80744851  -0.02357463  0.39486581  1
  O2-  O109  1  0.93939596  0.00251789  0.63349565  1
  O2-  O110  1  0.90292330  0.00709630  0.85503221  1
  O2-  O111  1  0.93301795  0.48067800  0.13629113  1
  O2-  O112  1  0.81523408  0.51199790  0.37026881  1
  O2-  O113  1  0.87863526  0.50592221  0.60663940  1
  O2-  O114  1  0.87858984  0.49231523  0.86415598  1
  O2-  O115  1  0.01180227  0.30203333  0.11738633  1
  O2-  O116  1  0.06790071  0.19502325  0.35248211  1
  O2-  O117  1  0.09971356  0.25059509  0.61115706  1
  O2-  O118  1  0.07923690  0.25264749  0.86093216  1
  O2-  O119  1  0.13570719  0.75617690  0.07503356  1
  O2-  O120  1  0.11625748  0.77339063  0.35822174  1
  O2-  O121  1  0.14057960  0.76039147  0.59773937  1
  O2-  O122  1  0.11263710  0.74971016  0.87227832  1
  O2-  O123  1  0.46941873  0.33183158  0.15839447  1
  O2-  O124  1  0.29070330  0.23282445  0.38128549  1
  O2-  O125  1  0.40258102  0.25819360  0.63928256  1
  O2-  O126  1  0.41969006  0.25109754  0.88362009  1
  O2-  O127  1  0.37668308  0.76154337  0.13946261  1
  O2-  O128  1  0.34280301  0.72876808  0.37286337  1
  O2-  O129  1  0.35109417  0.75403866  0.64271080  1
  O2-  O130  1  0.35130114  0.75413103  0.90104427  1
  O2-  O131  1  0.64908870  0.28897470  0.15370759  1
  O2-  O132  1  0.63433129  0.19155298  0.34740062  1
  O2-  O133  1  0.63478335  0.25422569  0.64154070  1
  O2-  O134  1  0.62661525  0.24371106  0.87491897  1
  O2-  O135  1  0.71084194  0.73990718  0.11819316  1
  O2-  O136  1  0.67569742  0.74975498  0.38502683  1
  O2-  O137  1  0.62480802  0.76206658  0.63654779  1
  O2-  O138  1  0.54521466  0.73415519  0.88424857  1
  O2-  O139  1  0.85490564  0.23648479  0.14458120  1
  O2-  O140  1  0.77267279  0.32264069  0.38213956  1
  O2-  O141  1  0.80012100  0.26926060  0.56950799  1
  O2-  O142  1  0.89644852  0.29081549  0.84873067  1
  O2-  O143  1  0.93762290  0.75123738  0.11322767  1
  O2-  O144  1  0.93435561  0.75006657  0.36981269  1
  O2-  O145  1  0.87945272  0.75629294  0.64369613  1
  O2-  O146  1  0.89764179  0.74998142  0.83946614  1
  O2-  O147  1  0.09908978  0.14575861  -0.00612646  1
  O2-  O148  1  0.11514099  0.13431028  0.18839926  1
  O2-  O149  1  0.11398698  0.13173549  0.49503564  1
  O2-  O150  1  0.13217741  0.14457805  0.73734791  1
  O2-  O151  1  0.20744266  0.62173506  -0.01371586  1
  O2-  O152  1  0.10003081  0.66153406  0.22313215  1
  O2-  O153  1  0.18584926  0.65269366  0.47039489  1
  O2-  O154  1  0.16094823  0.63437293  0.73415965  1
  O2-  O155  1  0.41168770  0.11923579  0.01334749  1
  O2-  O156  1  0.38174133  0.17446624  0.21611010  1
  O2-  O157  1  0.40633715  0.15589631  0.51248934  1
  O2-  O158  1  0.37613237  0.13848638  0.76229498  1
  O2-  O159  1  0.39233347  0.63475073  0.01564871  1
  O2-  O160  1  0.42125482  0.61961650  0.25971264  1
  O2-  O161  1  0.36928095  0.62187553  0.50975305  1
  O2-  O162  1  0.34114814  0.62590515  0.77556142  1
  O2-  O163  1  0.61826606  0.10106092  -0.00126096  1
  O2-  O164  1  0.54543796  0.12205337  0.17844185  1
  O2-  O165  1  0.72699222  0.11165832  0.52400384  1
  O2-  O166  1  0.57651515  0.12159320  0.75085692  1
  O2-  O167  1  0.66469364  0.63497806  -0.00886951  1
  O2-  O168  1  0.65730501  0.62548284  0.24318983  1
  O2-  O169  1  0.57695380  0.64335361  0.50916761  1
  O2-  O170  1  0.63494300  0.64292685  0.75680684  1
  O2-  O171  1  0.84735259  0.17776544  -0.02550222  1
  O2-  O172  1  0.85603874  0.15024542  0.31746375  1
  O2-  O173  1  0.90090970  0.12765029  0.50018100  1
  O2-  O174  1  0.89421287  0.15561967  0.69315449  1
  O2-  O175  1  0.87749343  0.64308420  -0.03027105  1
  O2-  O176  1  0.87027826  0.63660907  0.24171597  1
  O2-  O177  1  0.92968401  0.64602893  0.51490219  1
  O2-  O178  1  0.81020167  0.62243194  0.74102092  1
  O2-  O179  1  0.08760357  0.36821710  -0.01441207  1
  O2-  O180  1  0.13432799  0.33067765  0.23128351  1
  O2-  O181  1  0.10530655  0.36610779  0.48755295  1
  O2-  O182  1  0.08150766  0.38086460  0.74221085  1
  O2-  O183  1  0.20677548  0.87849369  -0.04959783  1
  O2-  O184  1  0.12232975  0.87784192  0.21547187  1
  O2-  O185  1  0.18708203  0.88174844  0.47544372  1
  O2-  O186  1  0.18315640  0.86251535  0.73877286  1
  O2-  O187  1  0.38165055  0.35539316  0.01148107  1
  O2-  O188  1  0.31876154  0.34830469  0.25237597  1
  O2-  O189  1  0.32180614  0.36090425  0.50989830  1
  O2-  O190  1  0.39674720  0.37518632  0.76700580  1
  O2-  O191  1  0.37987411  0.88517509  0.00885897  1
  O2-  O192  1  0.28224716  0.86797351  0.25460555  1
  O2-  O193  1  0.37966889  0.87812200  0.50749966  1
  O2-  O194  1  0.36682622  0.87556227  0.77335048  1
  O2-  O195  1  0.56858225  0.36394247  0.00048517  1
  O2-  O196  1  0.57961314  0.38989556  0.27532457  1
  O2-  O197  1  0.58494593  0.36908651  0.50706735  1
  O2-  O198  1  0.57950279  0.37111753  0.75689557  1
  O2-  O199  1  0.62783357  0.83179355  0.00000472  1
  O2-  O200  1  0.62260324  0.81760658  0.23940198  1
  O2-  O201  1  0.57813461  0.86439781  0.49629542  1
  O2-  O202  1  0.71281284  0.80119093  0.85425092  1
  O2-  O203  1  0.88713266  0.35908691  0.01413572  1
  O2-  O204  1  0.94060869  0.33121872  0.26977398  1
  O2-  O205  1  0.91494633  0.36272935  0.46916147  1
  O2-  O206  1  0.90725028  0.34273624  0.67787571  1
  O2-  O207  1  0.87199737  0.85872666  -0.03438310  1
  O2-  O208  1  0.85741349  0.85271722  0.25936671  1
  O2-  O209  1  0.92069643  0.85639129  0.50506541  1
  O2-  O210  1  0.83000281  0.88559919  0.74343267  1
  O2-  O211  1  0.02047630  -0.11058895  -0.06699536  1
  O2-  O212  1  -0.00752388  0.05046335  0.29623681  1
  O2-  O213  1  0.00536618  0.00224115  0.44820819  1
  O2-  O214  1  0.01126229  -0.12529847  0.76667957  1
  O2-  O215  1  0.03326107  0.61530843  0.04584075  1
  O2-  O216  1  -0.02883313  0.48116541  0.35868978  1
  O2-  O217  1  0.03916452  0.62797328  0.40142446  1
  O2-  O218  1  -0.02688886  0.61079179  0.74152796  1
  O2-  O219  1  0.25582000  0.16190930  0.10455671  1
  O2-  O220  1  0.25180578  -0.00204263  0.09480243  1
  O2-  O221  1  0.26206522  0.07228481  0.52367201  1
  O2-  O222  1  0.24870908  0.16907503  0.90154198  1
  O2-  O223  1  0.23612099  0.35085738  0.09179643  1
  O2-  O224  1  0.26019737  0.62878216  0.15646699  1
  O2-  O225  1  0.23430800  0.36065945  0.67614187  1
  O2-  O226  1  0.24063047  0.34871569  0.87145610  1
  O2-  O227  1  0.55078866  -0.04972612  0.10379687  1
  O2-  O228  1  0.48274948  -0.16798643  0.34172499  1
  O2-  O229  1  0.57677271  0.14726036  0.51406665  1
  O2-  O230  1  0.55391262  -0.14054624  0.75708324  1
  O2-  O231  1  0.52412468  0.66178852  0.11467957  1
  O2-  O232  1  0.49332126  0.53361036  0.38791246  1
  O2-  O233  1  0.45528881  0.33389846  0.38096769  1
  O2-  O234  1  0.47197812  0.64014575  0.66842357  1
  O2-  O235  1  0.81647001  0.00675662  0.02836150  1
  O2-  O236  1  0.72642366  0.12297321  0.15245441  1
  O2-  O237  1  0.79078492  -0.03927750  0.58653089  1
  O2-  O238  1  0.74031610  0.10947984  0.68550661  1
  O2-  O239  1  0.72780427  0.39404332  -0.03155438  1
  O2-  O240  1  0.79810222  0.38886208  0.22390516  1
  O2-  O241  1  0.73280336  0.40915383  0.62249451  1
  O2-  O242  1  0.74263223  0.36762794  0.80959354  1
