# generated using pymatgen
data_Gd19Ta56(WO20)8
_symmetry_space_group_name_H-M   'P 1'
_cell_length_a   15.51854075
_cell_length_b   15.49809491
_cell_length_c   15.27263869
_cell_angle_alpha   90.06858626
_cell_angle_beta   89.83235453
_cell_angle_gamma   89.90740950
_symmetry_Int_Tables_number   1
_chemical_formula_structural   Gd19Ta56(WO20)8
_chemical_formula_sum   'Gd19 Ta56 W8 O160'
_cell_volume   3673.16582488
_cell_formula_units_Z   1
loop_
 _symmetry_equiv_pos_site_id
 _symmetry_equiv_pos_as_xyz
  1  'x, y, z'
loop_
 _atom_type_symbol
 _atom_type_oxidation_number
  Gd3+  3.0
  Ta5+  5.0
  W6+  6.0
  O2-  -2.0
loop_
 _atom_site_type_symbol
 _atom_site_label
 _atom_site_symmetry_multiplicity
 _atom_site_fract_x
 _atom_site_fract_y
 _atom_site_fract_z
 _atom_site_occupancy
  Gd3+  Gd0  1  0.01792064  0.25432407  0.24279480  1
  Gd3+  Gd1  1  0.50245047  0.76641974  0.24330797  1
  Gd3+  Gd2  1  0.26765827  0.74657669  0.00034560  1
  Gd3+  Gd3  1  0.01388685  0.24728389  0.78629474  1
  Gd3+  Gd4  1  0.49189759  0.26876462  0.52557011  1
  Gd3+  Gd5  1  0.73442394  0.75372626  -0.00259460  1
  Gd3+  Gd6  1  -0.02968063  0.74271319  0.74654987  1
  Gd3+  Gd7  1  -0.01849172  0.24435211  0.51188564  1
  Gd3+  Gd8  1  0.75725066  0.25032609  0.24428775  1
  Gd3+  Gd9  1  0.27128058  0.72975820  0.73473451  1
  Gd3+  Gd10  1  0.29402321  0.25142704  0.71434837  1
  Gd3+  Gd11  1  0.49554168  0.74569538  0.00139625  1
  Gd3+  Gd12  1  0.50851740  0.25999084  -0.05975243  1
  Gd3+  Gd13  1  0.71761492  0.77034319  0.73521865  1
  Gd3+  Gd14  1  -0.00785105  0.75028978  0.25479101  1
  Gd3+  Gd15  1  0.00643354  0.75455430  0.00071678  1
  Gd3+  Gd16  1  0.25446009  0.24645594  0.01542627  1
  Gd3+  Gd17  1  0.72965326  0.25514239  0.51393510  1
  Gd3+  Gd18  1  -0.00221052  0.74434313  0.51404659  1
  Ta5+  Ta19  1  0.36307667  0.88161457  0.37323066  1
  Ta5+  Ta20  1  0.86038469  0.38187642  0.38868139  1
  Ta5+  Ta21  1  0.65562450  0.90409189  0.12648122  1
  Ta5+  Ta22  1  0.38109270  0.61586228  0.13212375  1
  Ta5+  Ta23  1  0.61980814  0.63375615  0.36670687  1
  Ta5+  Ta24  1  0.12347178  0.38080811  0.63660046  1
  Ta5+  Ta25  1  0.88316237  0.37451279  0.12296697  1
  Ta5+  Ta26  1  0.35278383  0.41761747  0.61772165  1
  Ta5+  Ta27  1  0.62960962  0.45524372  0.61622696  1
  Ta5+  Ta28  1  0.86149370  0.13546474  0.66868916  1
  Ta5+  Ta29  1  0.85574224  0.61970294  0.38123893  1
  Ta5+  Ta30  1  0.10113243  0.61170969  0.87644778  1
  Ta5+  Ta31  1  0.13996358  0.12081634  0.63501883  1
  Ta5+  Ta32  1  0.41238482  0.91061450  0.86130503  1
  Ta5+  Ta33  1  0.62440613  0.12835913  0.36271143  1
  Ta5+  Ta34  1  0.82440553  0.61335596  0.63162674  1
  Ta5+  Ta35  1  0.11545094  0.60848313  0.63964727  1
  Ta5+  Ta36  1  0.17042402  0.37511401  0.87700989  1
  Ta5+  Ta37  1  0.88729825  0.60851665  0.87936717  1
  Ta5+  Ta38  1  0.34939451  0.13382597  0.86887458  1
  Ta5+  Ta39  1  0.33825393  0.38214467  0.87089473  1
  Ta5+  Ta40  1  0.43471965  0.62133022  0.61766291  1
  Ta5+  Ta41  1  0.59427799  0.59030727  0.86121734  1
  Ta5+  Ta42  1  0.39224250  0.13242338  0.12641879  1
  Ta5+  Ta43  1  0.61937269  0.38901348  0.36926374  1
  Ta5+  Ta44  1  0.38534600  0.36988480  0.12895251  1
  Ta5+  Ta45  1  0.39177263  0.60058440  0.86503799  1
  Ta5+  Ta46  1  0.12911147  0.61885215  0.38458952  1
  Ta5+  Ta47  1  0.11463351  0.87375642  0.64101870  1
  Ta5+  Ta48  1  0.13693033  0.62108207  0.12831497  1
  Ta5+  Ta49  1  0.60004630  0.64815882  0.61844977  1
  Ta5+  Ta50  1  0.85580344  0.88463182  0.13114441  1
  Ta5+  Ta51  1  0.11409117  0.37167221  0.39094508  1
  Ta5+  Ta52  1  0.88458825  0.10600221  0.13091857  1
  Ta5+  Ta53  1  0.40668367  0.85703525  0.61957026  1
  Ta5+  Ta54  1  0.37795675  0.13051644  0.38220491  1
  Ta5+  Ta55  1  0.61869390  0.91556211  0.86704773  1
  Ta5+  Ta56  1  0.11185396  0.88077007  0.86862602  1
  Ta5+  Ta57  1  0.62377732  0.08542200  0.61174319  1
  Ta5+  Ta58  1  0.18190431  0.11966750  0.87076030  1
  Ta5+  Ta59  1  0.62620411  0.37163620  0.10362417  1
  Ta5+  Ta60  1  0.86485489  0.89299587  0.62682901  1
  Ta5+  Ta61  1  0.13933931  0.11841406  0.38801443  1
  Ta5+  Ta62  1  0.67684311  0.37001026  0.84621705  1
  Ta5+  Ta63  1  0.62425363  0.14302933  0.10003683  1
  Ta5+  Ta64  1  0.89950194  0.88861719  0.87819209  1
  Ta5+  Ta65  1  0.86681174  0.37515039  0.66648967  1
  Ta5+  Ta66  1  0.67848934  0.14244630  0.84538527  1
  Ta5+  Ta67  1  0.61708629  0.89677983  0.36914032  1
  Ta5+  Ta68  1  0.13989657  0.87205889  0.13193799  1
  Ta5+  Ta69  1  0.84110107  0.36514652  0.87531227  1
  Ta5+  Ta70  1  0.36742983  0.63090166  0.38143458  1
  Ta5+  Ta71  1  0.85835351  0.62242322  0.12768848  1
  Ta5+  Ta72  1  0.38508658  0.07603432  0.62449525  1
  Ta5+  Ta73  1  0.35405349  0.38185275  0.38157265  1
  Ta5+  Ta74  1  0.13088803  0.11937132  0.12632233  1
  W6+  W75  1  0.13951303  0.38254166  0.13291741  1
  W6+  W76  1  0.60863440  0.62047513  0.11555435  1
  W6+  W77  1  0.83870391  0.13132605  0.87904174  1
  W6+  W78  1  0.11448879  0.87089859  0.38884802  1
  W6+  W79  1  0.84420089  0.11815791  0.39525437  1
  W6+  W80  1  0.86376903  0.88095813  0.38805406  1
  W6+  W81  1  0.38134892  0.89047532  0.11799894  1
  W6+  W82  1  0.56887883  0.89657407  0.61656497  1
  O2-  O83  1  0.13604815  -0.00844687  0.11971443  1
  O2-  O84  1  0.12739890  0.00271136  0.40619139  1
  O2-  O85  1  0.13149092  -0.00689905  0.63064151  1
  O2-  O86  1  0.15990190  -0.01075183  0.87802364  1
  O2-  O87  1  0.09925579  0.51157412  0.11107180  1
  O2-  O88  1  0.12098047  0.49634586  0.39447501  1
  O2-  O89  1  0.07362932  0.49632042  0.63283306  1
  O2-  O90  1  0.13267810  0.49878357  0.89306587  1
  O2-  O91  1  0.35280167  0.02145578  0.11072510  1
  O2-  O92  1  0.37732405  0.00666444  0.39198651  1
  O2-  O93  1  0.33959418  -0.03318895  0.64116338  1
  O2-  O94  1  0.34033564  0.00466664  0.88104575  1
  O2-  O95  1  0.38001040  0.49359942  0.12135937  1
  O2-  O96  1  0.34311864  0.50447963  0.37905720  1
  O2-  O97  1  0.33243492  0.53352488  0.59561953  1
  O2-  O98  1  0.32183897  0.50720887  0.90010963  1
  O2-  O99  1  0.61011595  0.02241017  0.10838893  1
  O2-  O100  1  0.57557977  0.01702159  0.34961023  1
  O2-  O101  1  0.68480297  -0.01752844  0.59999363  1
  O2-  O102  1  0.67272106  0.02260817  0.88849842  1
  O2-  O103  1  0.64312272  0.48841967  0.10668856  1
  O2-  O104  1  0.58913881  0.50705691  0.36451962  1
  O2-  O105  1  0.70808830  0.55247107  0.63231444  1
  O2-  O106  1  0.67518349  0.49760788  0.86583078  1
  O2-  O107  1  0.92718855  -0.01205229  0.12035029  1
  O2-  O108  1  0.89607690  0.00484562  0.39623173  1
  O2-  O109  1  0.86101849  0.01059485  0.64349645  1
  O2-  O110  1  0.84941996  -0.00585055  0.86638871  1
  O2-  O111  1  0.88406750  0.50381472  0.11870680  1
  O2-  O112  1  0.89297362  0.50291885  0.38310022  1
  O2-  O113  1  0.86346444  0.49718900  0.65129053  1
  O2-  O114  1  0.86383934  0.49350888  0.87874834  1
  O2-  O115  1  0.15226421  0.24256325  0.14215521  1
  O2-  O116  1  0.08961819  0.23659797  0.38062231  1
  O2-  O117  1  0.11973082  0.24818965  0.65242853  1
  O2-  O118  1  0.14521115  0.24671567  0.86966439  1
  O2-  O119  1  0.08507267  0.74285044  0.12924386  1
  O2-  O120  1  0.07653352  0.73611842  0.37962666  1
  O2-  O121  1  0.08583794  0.73598593  0.65485598  1
  O2-  O122  1  0.08686158  0.74688932  0.86462869  1
  O2-  O123  1  0.33712742  0.24959930  0.14025208  1
  O2-  O124  1  0.40754159  0.25756797  0.39658158  1
  O2-  O125  1  0.40644843  0.29244233  0.63548623  1
  O2-  O126  1  0.39145033  0.26241192  0.84316207  1
  O2-  O127  1  0.40420085  0.74917620  0.12782003  1
  O2-  O128  1  0.40075969  0.75495556  0.36165663  1
  O2-  O129  1  0.37356890  0.73562886  0.62039601  1
  O2-  O130  1  0.30192129  0.69704473  0.86904468  1
  O2-  O131  1  0.68924931  0.25756740  0.10924772  1
  O2-  O132  1  0.61692343  0.25714616  0.39433880  1
  O2-  O133  1  0.61251107  0.21353153  0.59316090  1
  O2-  O134  1  0.61526782  0.25651878  0.83161487  1
  O2-  O135  1  0.58947087  0.76385656  0.11257359  1
  O2-  O136  1  0.60566940  0.76395089  0.35808904  1
  O2-  O137  1  0.62083538  0.76839170  0.61865140  1
  O2-  O138  1  0.69538093  0.80735440  0.86992670  1
  O2-  O139  1  0.87549082  0.24475284  0.15171494  1
  O2-  O140  1  0.81952213  0.25127988  0.38493018  1
  O2-  O141  1  0.92441316  0.25237605  0.65551428  1
  O2-  O142  1  0.89544560  0.25291440  0.87818894  1
  O2-  O143  1  0.90918256  0.74480761  0.11551921  1
  O2-  O144  1  0.90231710  0.73708937  0.39316560  1
  O2-  O145  1  0.88835863  0.72893999  0.62296872  1
  O2-  O146  1  0.90526337  0.75330576  0.88357559  1
  O2-  O147  1  0.15726085  0.12668676  0.00414469  1
  O2-  O148  1  0.12726416  0.11676918  0.26258050  1
  O2-  O149  1  0.09140763  0.13851236  0.51635650  1
  O2-  O150  1  0.11674335  0.11683769  0.75746923  1
  O2-  O151  1  0.15206669  0.65041668  -0.00437992  1
  O2-  O152  1  0.11029729  0.62372769  0.25488439  1
  O2-  O153  1  0.10272861  0.63271637  0.51197989  1
  O2-  O154  1  0.16599862  0.61964605  0.76225001  1
  O2-  O155  1  0.38844559  0.15964173  -0.00634493  1
  O2-  O156  1  0.39220700  0.13110230  0.26018148  1
  O2-  O157  1  0.41547316  0.13472778  0.51335588  1
  O2-  O158  1  0.38695292  0.12492326  0.73747617  1
  O2-  O159  1  0.38945697  0.63400325  0.00334602  1
  O2-  O160  1  0.39947318  0.61949689  0.25832412  1
  O2-  O161  1  0.43132719  0.62399679  0.48355134  1
  O2-  O162  1  0.38542910  0.61371325  0.74036527  1
  O2-  O163  1  0.61693077  0.15961834  -0.02621853  1
  O2-  O164  1  0.64630168  0.14920008  0.23840812  1
  O2-  O165  1  0.67374250  0.11109147  0.47864111  1
  O2-  O166  1  0.63197516  0.10209456  0.73302209  1
  O2-  O167  1  0.63244164  0.64442522  -0.02829357  1
  O2-  O168  1  0.57350427  0.63476369  0.24835074  1
  O2-  O169  1  0.61461566  0.63405531  0.48923565  1
  O2-  O170  1  0.62784549  0.64512756  0.75549933  1
  O2-  O171  1  0.83436226  0.11697957  0.02233799  1
  O2-  O172  1  0.83549599  0.11243335  0.24667263  1
  O2-  O173  1  0.84833087  0.15898697  0.53429693  1
  O2-  O174  1  0.93698757  0.12069587  0.76712256  1
  O2-  O175  1  0.83163204  0.63786052  -0.00749027  1
  O2-  O176  1  0.89820890  0.63181954  0.25031639  1
  O2-  O177  1  0.83255596  0.61538176  0.50492382  1
  O2-  O178  1  0.82566795  0.64524002  0.76924378  1
  O2-  O179  1  0.16676856  0.36281780  0.00384248  1
  O2-  O180  1  0.10817632  0.36916637  0.26652439  1
  O2-  O181  1  0.07881282  0.35544456  0.51432747  1
  O2-  O182  1  0.11748955  0.38245595  0.76003486  1
  O2-  O183  1  0.14953593  0.84211443  -0.00244219  1
  O2-  O184  1  0.09035702  0.86760179  0.24605706  1
  O2-  O185  1  0.13201051  0.83780930  0.52385219  1
  O2-  O186  1  0.17792274  0.85229965  0.75376487  1
  O2-  O187  1  0.37697858  0.35073006  -0.00120483  1
  O2-  O188  1  0.38003769  0.37341753  0.26137254  1
  O2-  O189  1  0.40994438  0.39475691  0.49684896  1
  O2-  O190  1  0.34062912  0.40956625  0.74262297  1
  O2-  O191  1  0.36757631  0.85384858  -0.02515968  1
  O2-  O192  1  0.41017932  0.88995970  0.25582073  1
  O2-  O193  1  0.38935504  0.86680107  0.49915971  1
  O2-  O194  1  0.37827266  0.84550502  0.76078331  1
  O2-  O195  1  0.61723150  0.35861864  -0.02512849  1
  O2-  O196  1  0.64069234  0.36319212  0.24631128  1
  O2-  O197  1  0.59635853  0.38685127  0.50952200  1
  O2-  O198  1  0.62798439  0.39857659  0.71969360  1
  O2-  O199  1  0.65404295  0.88854927  0.00363941  1
  O2-  O200  1  0.59374688  0.88639703  0.23683818  1
  O2-  O201  1  0.56550122  0.89582615  0.47769731  1
  O2-  O202  1  0.63028291  0.88930931  0.74607236  1
  O2-  O203  1  0.84052374  0.36388437  0.00948772  1
  O2-  O204  1  0.84556490  0.37925793  0.25246054  1
  O2-  O205  1  0.86585190  0.35369213  0.52379748  1
  O2-  O206  1  0.93786838  0.37820702  0.77046254  1
  O2-  O207  1  0.84914685  0.86411165  -0.00095878  1
  O2-  O208  1  0.89394225  0.86083214  0.24766055  1
  O2-  O209  1  0.82260067  0.86385218  0.51906727  1
  O2-  O210  1  0.84683412  0.85069178  0.75048495  1
  O2-  O211  1  0.00482151  -0.10234665  -0.05028557  1
  O2-  O212  1  0.00586517  0.13965736  0.13278349  1
  O2-  O213  1  -0.01302934  -0.12775339  0.61686083  1
  O2-  O214  1  0.00821420  -0.11290289  0.78916059  1
  O2-  O215  1  -0.00609767  0.61371297  -0.04100578  1
  O2-  O216  1  0.00121407  0.35569268  0.12885520  1
  O2-  O217  1  -0.02043509  0.34797249  0.37704910  1
  O2-  O218  1  -0.00570191  0.60650908  0.79751079  1
  O2-  O219  1  0.25254788  -0.16197609  0.14210770  1
  O2-  O220  1  0.24895928  -0.13330236  0.36272512  1
  O2-  O221  1  0.25724227  0.14636611  0.40203786  1
  O2-  O222  1  0.26260107  0.13214644  0.61718432  1
  O2-  O223  1  0.25690695  0.64200425  0.13642559  1
  O2-  O224  1  0.24624148  0.65255265  0.38914710  1
  O2-  O225  1  0.23708099  0.34947871  0.39972209  1
  O2-  O226  1  0.24368573  0.35571014  0.59956505  1
  O2-  O227  1  0.51884353  -0.14563498  -0.08462024  1
  O2-  O228  1  0.50951574  0.17456803  0.11825452  1
  O2-  O229  1  0.51047418  0.03605949  0.61906128  1
  O2-  O230  1  0.50859919  -0.02189866  0.82485295  1
  O2-  O231  1  0.49478343  0.68069330  -0.12968056  1
  O2-  O232  1  0.50702245  0.35289379  0.11914085  1
  O2-  O233  1  0.52583935  0.52264207  0.61973997  1
  O2-  O234  1  0.49669675  0.51796380  0.85460080  1
  O2-  O235  1  0.76361811  -0.03068035  0.14525541  1
  O2-  O236  1  0.74860805  -0.18699561  0.13671702  1
  O2-  O237  1  0.73333660  -0.09245637  0.36903754  1
  O2-  O238  1  0.77657231  0.16734614  0.75311897  1
  O2-  O239  1  0.74469539  0.63397214  0.14620548  1
  O2-  O240  1  0.73932015  0.62308630  0.34513627  1
  O2-  O241  1  0.73557295  0.40053199  0.40507567  1
  O2-  O242  1  0.77825944  0.34902018  0.75360479  1
