# generated using pymatgen
data_Gd19Ta56(WO20)8
_symmetry_space_group_name_H-M   'P 1'
_cell_length_a   15.46515732
_cell_length_b   15.47052678
_cell_length_c   15.20431216
_cell_angle_alpha   90.15646666
_cell_angle_beta   90.27018752
_cell_angle_gamma   90.12499810
_symmetry_Int_Tables_number   1
_chemical_formula_structural   Gd19Ta56(WO20)8
_chemical_formula_sum   'Gd19 Ta56 W8 O160'
_cell_volume   3637.63171578
_cell_formula_units_Z   1
loop_
 _symmetry_equiv_pos_site_id
 _symmetry_equiv_pos_as_xyz
  1  'x, y, z'
loop_
 _atom_type_symbol
 _atom_type_oxidation_number
  Gd3+  3.0
  Ta5+  5.0
  W6+  6.0
  O2-  -2.0
loop_
 _atom_site_type_symbol
 _atom_site_label
 _atom_site_symmetry_multiplicity
 _atom_site_fract_x
 _atom_site_fract_y
 _atom_site_fract_z
 _atom_site_occupancy
  Gd3+  Gd0  1  0.24715246  0.74741231  0.25987148  1
  Gd3+  Gd1  1  0.24780446  0.76261209  0.50722184  1
  Gd3+  Gd2  1  -0.00294242  0.74877031  0.74071869  1
  Gd3+  Gd3  1  0.73703952  0.24244776  0.23529722  1
  Gd3+  Gd4  1  0.26730782  0.25360608  0.23537173  1
  Gd3+  Gd5  1  0.52536039  0.74567902  0.01279859  1
  Gd3+  Gd6  1  0.75772263  0.73671257  0.01023814  1
  Gd3+  Gd7  1  -0.01887572  0.25793802  0.50182836  1
  Gd3+  Gd8  1  0.52146876  0.74382576  0.26729957  1
  Gd3+  Gd9  1  0.51564808  0.25482726  -0.04952715  1
  Gd3+  Gd10  1  0.26365284  0.25987117  0.51648731  1
  Gd3+  Gd11  1  0.49759372  0.75591876  0.50295152  1
  Gd3+  Gd12  1  0.24970724  0.27061986  -0.01219345  1
  Gd3+  Gd13  1  0.02462273  0.24308058  0.24578737  1
  Gd3+  Gd14  1  0.72745134  0.25537081  0.51479717  1
  Gd3+  Gd15  1  0.75617661  0.77842865  0.24626977  1
  Gd3+  Gd16  1  0.74137736  0.27105746  0.75757165  1
  Gd3+  Gd17  1  0.73768897  0.74654854  0.49344122  1
  Gd3+  Gd18  1  0.22861026  0.74797913  0.76537978  1
  Ta5+  Ta19  1  0.41420290  0.13628435  0.11851984  1
  Ta5+  Ta20  1  0.37849708  0.89404329  0.64153901  1
  Ta5+  Ta21  1  0.57511000  0.36102046  0.12930628  1
  Ta5+  Ta22  1  0.63687323  0.60209489  0.14028312  1
  Ta5+  Ta23  1  0.38720948  0.88464370  0.10098619  1
  Ta5+  Ta24  1  0.11707724  0.61746441  0.88085133  1
  Ta5+  Ta25  1  0.13829487  0.88139503  0.37248874  1
  Ta5+  Ta26  1  0.64691296  0.87948547  0.87759685  1
  Ta5+  Ta27  1  0.18150721  0.87648297  0.10006553  1
  Ta5+  Ta28  1  0.36652098  0.60324695  0.62119732  1
  Ta5+  Ta29  1  0.12960980  0.12958843  0.85391545  1
  Ta5+  Ta30  1  0.87925117  0.61948359  0.87493148  1
  Ta5+  Ta31  1  0.11963046  0.12169171  0.38456487  1
  Ta5+  Ta32  1  0.58010012  0.14496214  0.12582975  1
  Ta5+  Ta33  1  0.10664749  0.88656526  0.86507466  1
  Ta5+  Ta34  1  0.38512354  0.61366353  0.11175425  1
  Ta5+  Ta35  1  0.14886619  0.62388796  0.12471957  1
  Ta5+  Ta36  1  0.42103519  0.13711698  0.62318520  1
  Ta5+  Ta37  1  0.06980553  0.63419712  0.36637841  1
  Ta5+  Ta38  1  0.58406223  0.92803943  0.39311710  1
  Ta5+  Ta39  1  0.85340980  0.38938465  0.62324635  1
  Ta5+  Ta40  1  0.10289474  0.37699169  0.62366277  1
  Ta5+  Ta41  1  0.41273311  0.58955602  0.38880186  1
  Ta5+  Ta42  1  0.11475699  0.61661402  0.60749766  1
  Ta5+  Ta43  1  0.85606823  0.12614396  0.87430234  1
  Ta5+  Ta44  1  0.60657812  0.61714189  0.62641178  1
  Ta5+  Ta45  1  0.40795534  0.35175070  0.37225563  1
  Ta5+  Ta46  1  0.63024051  0.60606119  0.87591393  1
  Ta5+  Ta47  1  0.57534265  0.33990434  0.37625381  1
  Ta5+  Ta48  1  0.42060293  0.16031873  0.37351855  1
  Ta5+  Ta49  1  0.62540298  0.89984935  0.13794097  1
  Ta5+  Ta50  1  0.59031017  0.37132714  0.63048137  1
  Ta5+  Ta51  1  0.10981338  0.11886247  0.60503176  1
  Ta5+  Ta52  1  0.41995177  0.35881380  0.62801984  1
  Ta5+  Ta53  1  0.35061017  0.88349438  0.88919825  1
  Ta5+  Ta54  1  0.85384427  0.88150353  0.63508878  1
  Ta5+  Ta55  1  0.36387890  0.12475630  0.86260498  1
  Ta5+  Ta56  1  0.89459208  0.10904232  0.37650567  1
  Ta5+  Ta57  1  0.58832576  0.13401981  0.64127160  1
  Ta5+  Ta58  1  0.90405266  0.13298669  0.06916827  1
  Ta5+  Ta59  1  0.63794819  0.40782256  0.88341911  1
  Ta5+  Ta60  1  0.87715523  0.87706710  0.87434369  1
  Ta5+  Ta61  1  0.86411095  0.63126009  0.62987303  1
  Ta5+  Ta62  1  0.13973513  0.38492900  0.11820904  1
  Ta5+  Ta63  1  0.67372959  0.12934596  0.89178140  1
  Ta5+  Ta64  1  0.90607453  0.37204963  0.87374287  1
  Ta5+  Ta65  1  0.07456330  0.37019990  0.86750963  1
  Ta5+  Ta66  1  0.11213962  0.39530128  0.37877285  1
  Ta5+  Ta67  1  0.89770505  0.38796669  0.36361812  1
  Ta5+  Ta68  1  0.40405750  0.36709400  0.11555818  1
  Ta5+  Ta69  1  0.61830589  0.58670663  0.38966890  1
  Ta5+  Ta70  1  0.37491350  0.62324101  0.86845954  1
  Ta5+  Ta71  1  0.87324618  0.12330829  0.62928568  1
  Ta5+  Ta72  1  0.61481791  0.88635510  0.63880480  1
  Ta5+  Ta73  1  0.88566635  0.61746268  0.13012652  1
  Ta5+  Ta74  1  0.89097519  0.36934730  0.12076583  1
  W6+  W75  1  0.36869025  0.37488145  0.84874641  1
  W6+  W76  1  0.07973747  0.87350915  0.58815448  1
  W6+  W77  1  0.88556068  0.88648891  0.12643443  1
  W6+  W78  1  0.90745628  0.63776633  0.37727178  1
  W6+  W79  1  0.15184747  0.12098458  0.11635485  1
  W6+  W80  1  0.37576103  0.93295557  0.40471965  1
  W6+  W81  1  0.90882419  0.85849424  0.38620959  1
  W6+  W82  1  0.58696732  0.15736628  0.38218620  1
  O2-  O83  1  0.16350237  -0.00917647  0.13032469  1
  O2-  O84  1  0.14809245  0.00404019  0.36471025  1
  O2-  O85  1  0.07998046  0.00495713  0.60824989  1
  O2-  O86  1  0.08903876  0.00739204  0.85819159  1
  O2-  O87  1  0.11602271  0.50366009  0.13798636  1
  O2-  O88  1  0.11653167  0.51564141  0.35588177  1
  O2-  O89  1  0.08555685  0.49848525  0.62755250  1
  O2-  O90  1  0.08773315  0.50206774  0.86326152  1
  O2-  O91  1  0.40204514  0.00416192  0.11122533  1
  O2-  O92  1  0.35701339  0.04710592  0.36194688  1
  O2-  O93  1  0.37928061  0.01038035  0.61583865  1
  O2-  O94  1  0.33527654  0.00700467  0.89286119  1
  O2-  O95  1  0.41506196  0.49545265  0.12544900  1
  O2-  O96  1  0.36637690  0.48157828  0.37377035  1
  O2-  O97  1  0.38972243  0.48857892  0.62499206  1
  O2-  O98  1  0.37577314  0.50906455  0.83660012  1
  O2-  O99  1  0.60105013  0.01509717  0.13675761  1
  O2-  O100  1  0.63873743  0.02737974  0.36270094  1
  O2-  O101  1  0.58710388  0.00341613  0.63624345  1
  O2-  O102  1  0.66600690  -0.00073556  0.88965986  1
  O2-  O103  1  0.60828875  0.48758854  0.14446680  1
  O2-  O104  1  0.62820433  0.46791684  0.38140963  1
  O2-  O105  1  0.58307749  0.49915057  0.62689474  1
  O2-  O106  1  0.55874587  0.50692424  0.86026065  1
  O2-  O107  1  0.88411823  0.02256832  0.10608887  1
  O2-  O108  1  0.89095359  -0.00722672  0.39737236  1
  O2-  O109  1  0.87970359  0.00249677  0.60867954  1
  O2-  O110  1  0.87584452  -0.00308657  0.88048041  1
  O2-  O111  1  0.89897083  0.49221885  0.12453914  1
  O2-  O112  1  0.88140072  0.50523662  0.37274260  1
  O2-  O113  1  0.87490253  0.50622920  0.60621106  1
  O2-  O114  1  0.90189595  0.50221745  0.88726968  1
  O2-  O115  1  0.16015757  0.25439379  0.11551196  1
  O2-  O116  1  0.10332443  0.25601662  0.39110868  1
  O2-  O117  1  0.12181517  0.25356652  0.58650210  1
  O2-  O118  1  0.08008009  0.23862186  0.85871522  1
  O2-  O119  1  0.18454574  0.74910254  0.11186518  1
  O2-  O120  1  0.13865922  0.74027889  0.38974613  1
  O2-  O121  1  0.11856668  0.74285017  0.59302642  1
  O2-  O122  1  0.09720959  0.74841316  0.86650829  1
  O2-  O123  1  0.34284237  0.24350314  0.10309822  1
  O2-  O124  1  0.31285094  0.25017834  0.37712615  1
  O2-  O125  1  0.35822442  0.24622870  0.64337312  1
  O2-  O126  1  0.31760959  0.24199013  0.85336176  1
  O2-  O127  1  0.38676515  0.74208751  0.09288618  1
  O2-  O128  1  0.37313104  0.68449968  0.31561488  1
  O2-  O129  1  0.28283232  0.81412555  0.64950880  1
  O2-  O130  1  0.34022444  0.75559577  0.87265239  1
  O2-  O131  1  0.64614971  0.25588511  0.10144516  1
  O2-  O132  1  0.69156870  0.26466002  0.37409783  1
  O2-  O133  1  0.64092095  0.25132155  0.64667870  1
  O2-  O134  1  0.66187210  0.26725347  0.89349362  1
  O2-  O135  1  0.65110969  0.74754956  0.12622673  1
  O2-  O136  1  0.61019134  0.72393508  0.40099989  1
  O2-  O137  1  0.62774095  0.75081272  0.60195118  1
  O2-  O138  1  0.63152062  0.75106796  0.90497253  1
  O2-  O139  1  0.85841285  0.23609964  0.13280038  1
  O2-  O140  1  0.92079739  0.25078617  0.36177462  1
  O2-  O141  1  0.83323299  0.24887001  0.63273038  1
  O2-  O142  1  0.86774027  0.25041390  0.85116598  1
  O2-  O143  1  0.84802389  0.74596899  0.13432669  1
  O2-  O144  1  0.82518274  0.75136490  0.37041096  1
  O2-  O145  1  0.84142540  0.75197830  0.66358444  1
  O2-  O146  1  0.91566330  0.74888203  0.86309884  1
  O2-  O147  1  0.17479386  0.13464308  -0.02650742  1
  O2-  O148  1  0.15739809  0.15243289  0.26138637  1
  O2-  O149  1  0.19161516  0.12637218  0.49944449  1
  O2-  O150  1  0.15188810  0.12873588  0.72451556  1
  O2-  O151  1  0.10216665  0.62607633  0.00624451  1
  O2-  O152  1  0.11255641  0.65579345  0.23970124  1
  O2-  O153  1  0.06539109  0.61067637  0.49172356  1
  O2-  O154  1  0.11341404  0.64169315  0.73921291  1
  O2-  O155  1  0.41192506  0.14743005  -0.02096883  1
  O2-  O156  1  0.39652977  0.15890846  0.24165184  1
  O2-  O157  1  0.39490929  0.15965429  0.50097266  1
  O2-  O158  1  0.41927997  0.11527078  0.75575840  1
  O2-  O159  1  0.49325960  0.65704413  -0.11227034  1
  O2-  O160  1  0.27219251  0.60941898  0.16436805  1
  O2-  O161  1  0.36860028  0.65914620  0.49958046  1
  O2-  O162  1  0.34764790  0.65232928  0.73515756  1
  O2-  O163  1  0.59417219  0.13336133  -0.01009681  1
  O2-  O164  1  0.60959818  0.15939205  0.24576400  1
  O2-  O165  1  0.61830111  0.14448942  0.51840435  1
  O2-  O166  1  0.63927045  0.13471426  0.77124189  1
  O2-  O167  1  0.62544768  0.62110442  0.00779633  1
  O2-  O168  1  0.66312771  0.63147608  0.26532091  1
  O2-  O169  1  0.67581743  0.60738947  0.51495014  1
  O2-  O170  1  0.63880084  0.63002031  0.74743532  1
  O2-  O171  1  0.95813597  0.13518454  -0.04242193  1
  O2-  O172  1  0.81067237  0.12806499  0.29320457  1
  O2-  O173  1  0.85196936  0.15094640  0.49566064  1
  O2-  O174  1  0.83044847  0.11411401  0.74480520  1
  O2-  O175  1  0.89762988  0.64189980  0.00287175  1
  O2-  O176  1  0.93624422  0.62944895  0.24039180  1
  O2-  O177  1  0.86215087  0.65636160  0.50947908  1
  O2-  O178  1  0.91895166  0.61629963  0.75042701  1
  O2-  O179  1  0.12096838  0.37288700  -0.01082870  1
  O2-  O180  1  0.16058682  0.36081612  0.25785517  1
  O2-  O181  1  0.17165647  0.38745805  0.49792384  1
  O2-  O182  1  0.12761425  0.36353242  0.74134828  1
  O2-  O183  1  0.11182964  0.87691807  -0.00566357  1
  O2-  O184  1  0.13605524  0.85460840  0.24827410  1
  O2-  O185  1  0.03141716  0.87678509  0.44387165  1
  O2-  O186  1  0.09939054  0.85770270  0.73438212  1
  O2-  O187  1  0.38988525  0.34878289  -0.02086313  1
  O2-  O188  1  0.38490678  0.35284103  0.24178592  1
  O2-  O189  1  0.38538347  0.35312133  0.50199372  1
  O2-  O190  1  0.44886216  0.35304377  0.75134958  1
  O2-  O191  1  0.44435097  0.86859353  -0.02594607  1
  O2-  O192  1  0.29724339  0.86705094  0.18403401  1
  O2-  O193  1  0.37286127  0.84585080  0.51195730  1
  O2-  O194  1  0.39255588  0.89201408  0.76921457  1
  O2-  O195  1  0.58101919  0.38375178  -0.00538772  1
  O2-  O196  1  0.60445620  0.34436965  0.25002876  1
  O2-  O197  1  0.59636731  0.34634304  0.50575355  1
  O2-  O198  1  0.63864650  0.37910993  0.75982158  1
  O2-  O199  1  0.61964120  0.87568412  0.01057176  1
  O2-  O200  1  0.62269457  0.86449385  0.27256865  1
  O2-  O201  1  0.63781691  0.88240082  0.49876185  1
  O2-  O202  1  0.59298727  0.87125603  0.76584441  1
  O2-  O203  1  0.86940608  0.36029073  0.00025105  1
  O2-  O204  1  0.83600664  0.36566303  0.24692129  1
  O2-  O205  1  0.85126251  0.35146721  0.48420919  1
  O2-  O206  1  0.85156849  0.38758037  0.74961349  1
  O2-  O207  1  0.84773172  0.85404272  -0.00471864  1
  O2-  O208  1  0.87807790  0.86965554  0.25979144  1
  O2-  O209  1  0.85312326  0.84679756  0.51577931  1
  O2-  O210  1  0.91964700  0.88138341  0.74617302  1
  O2-  O211  1  0.01301634  0.15099157  0.12627039  1
  O2-  O212  1  0.00618397  0.11002043  0.31479547  1
  O2-  O213  1  0.02912115  0.11961074  0.47803164  1
  O2-  O214  1  -0.01030125  0.15894740  0.64010106  1
  O2-  O215  1  0.00992178  0.34576401  0.12667064  1
  O2-  O216  1  0.00339202  0.38639657  0.29344452  1
  O2-  O217  1  0.00821956  0.39550683  0.45270406  1
  O2-  O218  1  -0.01872157  0.35240992  0.62314394  1
  O2-  O219  1  0.28347233  -0.11848454  0.01805477  1
  O2-  O220  1  0.26776476  -0.15066003  0.36841054  1
  O2-  O221  1  0.18395855  -0.11004116  0.50220538  1
  O2-  O222  1  0.22740572  -0.12278366  0.84717475  1
  O2-  O223  1  0.35736627  0.60042331  -0.00676028  1
  O2-  O224  1  0.26127558  0.39190453  0.10286951  1
  O2-  O225  1  0.23996853  0.61007420  0.59809897  1
  O2-  O226  1  0.23616895  0.62324176  0.87002682  1
  O2-  O227  1  0.50257097  -0.15106082  0.14920281  1
  O2-  O228  1  0.47787091  -0.16206374  0.37219918  1
  O2-  O229  1  0.49313384  -0.02257260  0.45668759  1
  O2-  O230  1  0.49199529  -0.15274710  0.62383905  1
  O2-  O231  1  0.51126118  0.64638577  0.13929105  1
  O2-  O232  1  0.51136706  0.59228979  0.31028414  1
  O2-  O233  1  0.51483162  0.59475591  0.47232725  1
  O2-  O234  1  0.48623138  0.65402800  0.63017623  1
  O2-  O235  1  0.78499227  0.13655188  -0.01870474  1
  O2-  O236  1  0.74608130  -0.10291891  0.14807119  1
  O2-  O237  1  0.73654612  -0.10067330  0.65822497  1
  O2-  O238  1  0.75945276  -0.14966594  0.84152804  1
  O2-  O239  1  0.71226947  0.50283712  -0.09893782  1
  O2-  O240  1  0.76057464  0.60169733  0.11793470  1
  O2-  O241  1  0.73178020  0.38699715  0.60947179  1
  O2-  O242  1  0.76183855  0.65207007  0.88119386  1
