# generated using pymatgen
data_Gd19Ta56(WO20)8
_symmetry_space_group_name_H-M   'P 1'
_cell_length_a   15.55422352
_cell_length_b   15.45985085
_cell_length_c   15.33918179
_cell_angle_alpha   89.88202697
_cell_angle_beta   90.01914305
_cell_angle_gamma   89.95763629
_symmetry_Int_Tables_number   1
_chemical_formula_structural   Gd19Ta56(WO20)8
_chemical_formula_sum   'Gd19 Ta56 W8 O160'
_cell_volume   3688.54228089
_cell_formula_units_Z   1
loop_
 _symmetry_equiv_pos_site_id
 _symmetry_equiv_pos_as_xyz
  1  'x, y, z'
loop_
 _atom_type_symbol
 _atom_type_oxidation_number
  Gd3+  3.0
  Ta5+  5.0
  W6+  6.0
  O2-  -2.0
loop_
 _atom_site_type_symbol
 _atom_site_label
 _atom_site_symmetry_multiplicity
 _atom_site_fract_x
 _atom_site_fract_y
 _atom_site_fract_z
 _atom_site_occupancy
  Gd3+  Gd0  1  0.73797945  0.26506814  0.49631737  1
  Gd3+  Gd1  1  0.73337181  0.74319527  0.77084666  1
  Gd3+  Gd2  1  0.26473086  0.23441592  0.25758080  1
  Gd3+  Gd3  1  0.74483572  0.73042958  0.50782486  1
  Gd3+  Gd4  1  0.75495064  0.25510109  0.00573982  1
  Gd3+  Gd5  1  -0.02229586  0.23394999  0.00684058  1
  Gd3+  Gd6  1  0.51486798  0.21958829  -0.01354218  1
  Gd3+  Gd7  1  0.01474356  0.74523810  0.27783020  1
  Gd3+  Gd8  1  0.27730373  0.25081937  -0.01775002  1
  Gd3+  Gd9  1  0.50153931  0.25151793  0.73641415  1
  Gd3+  Gd10  1  0.01832795  0.76684645  0.75149475  1
  Gd3+  Gd11  1  0.00325960  0.78276269  0.01489411  1
  Gd3+  Gd12  1  0.47077832  0.75373868  -0.01230023  1
  Gd3+  Gd13  1  -0.00130185  0.24151675  0.77546360  1
  Gd3+  Gd14  1  0.24616543  0.74506641  0.02423494  1
  Gd3+  Gd15  1  0.00043993  0.26152634  0.50901064  1
  Gd3+  Gd16  1  0.72720011  0.76579440  0.24218711  1
  Gd3+  Gd17  1  -0.00569747  0.22299872  0.24544423  1
  Gd3+  Gd18  1  0.75594816  0.25304259  0.25174550  1
  Ta5+  Ta19  1  0.58850136  0.87933116  0.86578353  1
  Ta5+  Ta20  1  0.87221539  0.40552214  0.38584202  1
  Ta5+  Ta21  1  0.62277678  0.07366857  0.36725852  1
  Ta5+  Ta22  1  0.10942832  0.37483718  0.12713372  1
  Ta5+  Ta23  1  0.93005539  0.02770001  0.09385528  1
  Ta5+  Ta24  1  0.87922401  0.63488898  0.13689783  1
  Ta5+  Ta25  1  0.08809742  0.62803459  0.88502622  1
  Ta5+  Ta26  1  0.61154503  0.87681429  0.62960844  1
  Ta5+  Ta27  1  0.91700288  0.63805130  0.88446506  1
  Ta5+  Ta28  1  0.87418226  0.61880106  0.64484927  1
  Ta5+  Ta29  1  0.16731412  0.87320769  0.87366019  1
  Ta5+  Ta30  1  0.36646433  0.12539108  0.61180222  1
  Ta5+  Ta31  1  0.11799206  0.62901510  0.62533403  1
  Ta5+  Ta32  1  0.37380899  0.61826446  0.13598610  1
  Ta5+  Ta33  1  0.41417982  0.07704083  0.37647713  1
  Ta5+  Ta34  1  0.37657502  0.87659129  0.13748888  1
  Ta5+  Ta35  1  0.84260443  0.41115795  0.87660890  1
  Ta5+  Ta36  1  0.87758132  0.87400740  0.40020020  1
  Ta5+  Ta37  1  0.60563199  0.39069837  0.12824874  1
  Ta5+  Ta38  1  0.59617711  0.65153480  0.36991091  1
  Ta5+  Ta39  1  0.61951845  0.40405201  0.36466944  1
  Ta5+  Ta40  1  0.38332265  0.87542536  0.62538323  1
  Ta5+  Ta41  1  0.38338268  0.10991735  0.86002842  1
  Ta5+  Ta42  1  0.62532308  0.12388841  0.60498524  1
  Ta5+  Ta43  1  0.12520262  0.88252838  0.39658929  1
  Ta5+  Ta44  1  0.13325027  0.88431176  0.14311550  1
  Ta5+  Ta45  1  0.87514675  0.60277006  0.39063796  1
  Ta5+  Ta46  1  0.64638502  0.11968488  0.85222178  1
  Ta5+  Ta47  1  0.90322794  0.38860236  0.13369897  1
  Ta5+  Ta48  1  0.86659449  0.87620591  0.63053041  1
  Ta5+  Ta49  1  0.37945448  0.38402390  0.37784281  1
  Ta5+  Ta50  1  0.14121658  0.38371751  0.88516515  1
  Ta5+  Ta51  1  0.58345408  0.86446147  0.38016310  1
  Ta5+  Ta52  1  0.16584854  0.07358711  0.88509827  1
  Ta5+  Ta53  1  0.57587497  0.62043739  0.86363669  1
  Ta5+  Ta54  1  0.86200430  0.07910708  0.87475465  1
  Ta5+  Ta55  1  0.58784488  0.63314393  0.62873118  1
  Ta5+  Ta56  1  0.12923212  0.12777326  0.64061197  1
  Ta5+  Ta57  1  0.13375322  0.37914066  0.63655749  1
  Ta5+  Ta58  1  0.36726140  0.38692169  0.62352805  1
  Ta5+  Ta59  1  0.11832094  0.11194318  0.11700081  1
  Ta5+  Ta60  1  0.41307381  0.86604731  0.38016055  1
  Ta5+  Ta61  1  0.39915600  0.37645673  0.12881053  1
  Ta5+  Ta62  1  0.85335024  0.88589468  0.88354204  1
  Ta5+  Ta63  1  0.11970078  0.87990332  0.62149167  1
  Ta5+  Ta64  1  0.62284486  0.38881403  0.61668750  1
  Ta5+  Ta65  1  0.12445978  0.62151879  0.14092192  1
  Ta5+  Ta66  1  0.59249208  0.87775226  0.12258757  1
  Ta5+  Ta67  1  0.14642979  0.37542703  0.37567564  1
  Ta5+  Ta68  1  0.17449872  0.62761395  0.38241339  1
  Ta5+  Ta69  1  0.33615184  0.88161951  0.86953384  1
  Ta5+  Ta70  1  0.86618287  0.37685186  0.64574664  1
  Ta5+  Ta71  1  0.33501519  0.63291714  0.86319132  1
  Ta5+  Ta72  1  0.64490167  0.38624321  0.86480890  1
  Ta5+  Ta73  1  0.86216768  0.12002856  0.63870194  1
  Ta5+  Ta74  1  0.88914963  0.12594819  0.39656530  1
  W6+  W75  1  0.39199122  0.38782572  0.87069933  1
  W6+  W76  1  0.86290207  0.87782625  0.14207740  1
  W6+  W77  1  0.33945522  0.64145068  0.61472776  1
  W6+  W78  1  0.10064059  0.13100256  0.38095655  1
  W6+  W79  1  0.33657848  0.63315625  0.36948374  1
  W6+  W80  1  0.64159133  0.12226706  0.12951576  1
  W6+  W81  1  0.38554573  0.11692953  0.12854231  1
  W6+  W82  1  0.62972755  0.63666382  0.10914244  1
  O2-  O83  1  0.17180718  0.00213295  0.13368261  1
  O2-  O84  1  0.13218138  -0.00042661  0.38920148  1
  O2-  O85  1  0.11980437  0.00839146  0.63505273  1
  O2-  O86  1  0.09062956  -0.01884384  0.87551643  1
  O2-  O87  1  0.12210000  0.49665211  0.13199287  1
  O2-  O88  1  0.15897788  0.49346836  0.37232361  1
  O2-  O89  1  0.12929745  0.49833949  0.63462586  1
  O2-  O90  1  0.11446236  0.49902851  0.89844998  1
  O2-  O91  1  0.40579254  -0.01144296  0.10451564  1
  O2-  O92  1  0.34445653  -0.02165120  0.38840841  1
  O2-  O93  1  0.35868919  0.00050803  0.60717372  1
  O2-  O94  1  0.40637411  -0.00478958  0.88065632  1
  O2-  O95  1  0.35659544  0.49078414  0.12471969  1
  O2-  O96  1  0.34920560  0.49435296  0.36977488  1
  O2-  O97  1  0.35168276  0.50385724  0.62067714  1
  O2-  O98  1  0.36704345  0.51796090  0.87011640  1
  O2-  O99  1  0.62418222  -0.00934644  0.12514300  1
  O2-  O100  1  0.67613673  -0.03582545  0.37442729  1
  O2-  O101  1  0.61923184  0.00025203  0.61380538  1
  O2-  O102  1  0.59615407  0.01125161  0.86145704  1
  O2-  O103  1  0.63743079  0.50017918  0.09837046  1
  O2-  O104  1  0.60387639  0.52549519  0.36918627  1
  O2-  O105  1  0.59695523  0.50840552  0.62276436  1
  O2-  O106  1  0.57778197  0.49154400  0.87186530  1
  O2-  O107  1  1.00932702  -0.08089779  0.10383746  1
  O2-  O108  1  0.88186710  -0.00278955  0.39856850  1
  O2-  O109  1  0.84251715  0.00106876  0.62704179  1
  O2-  O110  1  0.93320511  -0.02097795  0.86003150  1
  O2-  O111  1  0.88430021  0.50807307  0.12670608  1
  O2-  O112  1  0.79109220  0.49770832  0.38032330  1
  O2-  O113  1  0.88287371  0.49397882  0.66815048  1
  O2-  O114  1  0.91287393  0.50834822  0.88925041  1
  O2-  O115  1  0.08386245  0.24147290  0.11560366  1
  O2-  O116  1  0.06492606  0.27466107  0.36944462  1
  O2-  O117  1  0.08018544  0.25499884  0.64443775  1
  O2-  O118  1  0.06374336  0.28753444  0.90184053  1
  O2-  O119  1  0.09961337  0.75348959  0.14762559  1
  O2-  O120  1  0.14347753  0.75194194  0.37472687  1
  O2-  O121  1  0.10188546  0.75437130  0.61724884  1
  O2-  O122  1  0.08752409  0.76474651  0.88281250  1
  O2-  O123  1  0.33154730  0.25403941  0.12564997  1
  O2-  O124  1  0.26115147  0.32433668  0.39115614  1
  O2-  O125  1  0.40057154  0.24659043  0.62486910  1
  O2-  O126  1  0.41967107  0.24568477  0.86306324  1
  O2-  O127  1  0.40448256  0.74652025  0.13030687  1
  O2-  O128  1  0.35707255  0.76319167  0.36696599  1
  O2-  O129  1  0.31894914  0.77495814  0.61483871  1
  O2-  O130  1  0.38014457  0.75621965  0.86541232  1
  O2-  O131  1  0.67262893  0.26803181  0.13000713  1
  O2-  O132  1  0.67973208  0.28725736  0.36953667  1
  O2-  O133  1  0.60160517  0.25843817  0.59400556  1
  O2-  O134  1  0.59657971  0.24117384  0.86078157  1
  O2-  O135  1  0.65876428  0.77222876  0.10761691  1
  O2-  O136  1  0.67549679  0.75964028  0.38003093  1
  O2-  O137  1  0.66044550  0.74829766  0.63886164  1
  O2-  O138  1  0.56683520  0.75337013  0.85080860  1
  O2-  O139  1  0.87425137  0.26160417  0.12075808  1
  O2-  O140  1  0.86966318  0.26451387  0.41548838  1
  O2-  O141  1  0.90572666  0.25247004  0.64239041  1
  O2-  O142  1  0.90392116  0.20127100  0.88591264  1
  O2-  O143  1  0.92970572  0.75161711  0.15051721  1
  O2-  O144  1  0.86289203  0.73063985  0.40260493  1
  O2-  O145  1  0.85077034  0.74740319  0.62924233  1
  O2-  O146  1  0.91120633  0.76820291  0.86325641  1
  O2-  O147  1  0.18561536  0.13063390  0.00092323  1
  O2-  O148  1  0.14515290  0.14916022  0.24034435  1
  O2-  O149  1  0.09325651  0.14537608  0.52297775  1
  O2-  O150  1  0.11143643  0.13470186  0.77111760  1
  O2-  O151  1  0.09356420  0.64489644  0.02008408  1
  O2-  O152  1  0.10040290  0.62387560  0.26585620  1
  O2-  O153  1  0.15479841  0.62235299  0.50513837  1
  O2-  O154  1  0.10723899  0.63841919  0.75697246  1
  O2-  O155  1  0.38659631  0.14158211  -0.01158182  1
  O2-  O156  1  0.36209602  0.12237303  0.27345142  1
  O2-  O157  1  0.38023200  0.13193327  0.48408966  1
  O2-  O158  1  0.41436597  0.11668251  0.73436962  1
  O2-  O159  1  0.36967313  0.64444680  0.00151920  1
  O2-  O160  1  0.40294525  0.61327872  0.25164283  1
  O2-  O161  1  0.36521596  0.63253737  0.49455532  1
  O2-  O162  1  0.31359568  0.63917186  0.74270581  1
  O2-  O163  1  0.65469045  0.14224405  -0.01821889  1
  O2-  O164  1  0.67256710  0.12367590  0.26722317  1
  O2-  O165  1  0.65962457  0.12678302  0.47557616  1
  O2-  O166  1  0.60274312  0.13623772  0.73020680  1
  O2-  O167  1  0.57579702  0.63976566  -0.01434913  1
  O2-  O168  1  0.61739912  0.65999553  0.24888754  1
  O2-  O169  1  0.60848015  0.65090469  0.50375390  1
  O2-  O170  1  0.64020029  0.62607384  0.75233910  1
  O2-  O171  1  0.86323785  0.09296133  0.00195378  1
  O2-  O172  1  0.86642420  0.15930028  0.27922202  1
  O2-  O173  1  0.91421626  0.13010349  0.52698429  1
  O2-  O174  1  0.92238659  0.11046916  0.74689064  1
  O2-  O175  1  0.90377241  0.65515852  0.01197002  1
  O2-  O176  1  0.90507379  0.62604099  0.26626182  1
  O2-  O177  1  0.84139709  0.60443316  0.52031190  1
  O2-  O178  1  0.84120378  0.63677787  0.76736062  1
  O2-  O179  1  0.17254009  0.35947329  0.01703367  1
  O2-  O180  1  0.16936453  0.35218706  0.24159179  1
  O2-  O181  1  0.11536739  0.36460464  0.50764738  1
  O2-  O182  1  0.10270324  0.37241689  0.76089278  1
  O2-  O183  1  0.14490072  0.85680530  0.01188437  1
  O2-  O184  1  0.09695267  0.87853000  0.26346812  1
  O2-  O185  1  0.17755780  0.87712927  0.51229106  1
  O2-  O186  1  0.14432551  0.86290349  0.74486288  1
  O2-  O187  1  0.36146401  0.36785282  0.00427911  1
  O2-  O188  1  0.36529448  0.34637095  0.25487759  1
  O2-  O189  1  0.39589848  0.36896971  0.50300410  1
  O2-  O190  1  0.42486135  0.38063630  0.73346330  1
  O2-  O191  1  0.35216793  0.85044540  0.00307539  1
  O2-  O192  1  0.41652687  0.88806207  0.25146463  1
  O2-  O193  1  0.42792216  0.87039222  0.50727862  1
  O2-  O194  1  0.34232354  0.89371966  0.74732512  1
  O2-  O195  1  0.64625678  0.35921022  -0.01015593  1
  O2-  O196  1  0.66209084  0.39382090  0.24489309  1
  O2-  O197  1  0.65431260  0.39654432  0.48995983  1
  O2-  O198  1  0.60754103  0.36514060  0.74363613  1
  O2-  O199  1  0.57572699  0.87445249  -0.01033881  1
  O2-  O200  1  0.59884458  0.85722120  0.25067953  1
  O2-  O201  1  0.61228716  0.85346657  0.50834571  1
  O2-  O202  1  0.65518721  0.87583211  0.75441104  1
  O2-  O203  1  0.84626361  0.37483735  -0.00162333  1
  O2-  O204  1  0.85001198  0.37204326  0.25916184  1
  O2-  O205  1  0.87730260  0.38823764  0.52067748  1
  O2-  O206  1  0.90316207  0.35978209  0.77773029  1
  O2-  O207  1  0.87077583  0.85818786  0.00306676  1
  O2-  O208  1  0.84409439  0.86125836  0.28340985  1
  O2-  O209  1  0.81018324  0.86628614  0.51011322  1
  O2-  O210  1  0.83067823  0.86843614  0.75082219  1
  O2-  O211  1  0.02979405  0.09557285  0.02097841  1
  O2-  O212  1  0.00312300  0.08597406  0.17974085  1
  O2-  O213  1  -0.00142470  -0.14510834  0.40772520  1
  O2-  O214  1  -0.01233630  -0.11839793  0.65057436  1
  O2-  O215  1  0.00224040  0.38020451  0.05011665  1
  O2-  O216  1  0.00447508  0.36948348  0.20957727  1
  O2-  O217  1  -0.04477398  0.49336756  0.38558837  1
  O2-  O218  1  -0.00739976  0.62698995  0.62842145  1
  O2-  O219  1  0.24765050  -0.01903070  -0.09289580  1
  O2-  O220  1  0.25260705  -0.15714987  0.15295698  1
  O2-  O221  1  0.24821004  0.14811203  0.63183951  1
  O2-  O222  1  0.26703561  0.15079505  0.84680603  1
  O2-  O223  1  0.22340351  0.64910600  -0.09245214  1
  O2-  O224  1  0.24736382  0.63976481  0.13523618  1
  O2-  O225  1  0.25065346  0.34845748  0.64055965  1
  O2-  O226  1  0.25350325  0.34744329  0.85970284  1
  O2-  O227  1  0.51287843  0.15947800  0.11959023  1
  O2-  O228  1  0.51899475  0.14715078  0.36216219  1
  O2-  O229  1  0.51450866  -0.01225605  0.38291798  1
  O2-  O230  1  0.49762201  -0.14780938  0.66759171  1
  O2-  O231  1  0.50501554  0.33463416  0.06786299  1
  O2-  O232  1  0.50331269  0.42084495  0.19332514  1
  O2-  O233  1  0.50493837  0.36949808  0.36843475  1
  O2-  O234  1  0.47594025  0.65560065  0.64290650  1
  O2-  O235  1  0.77426041  -0.01534110  -0.10172037  1
  O2-  O236  1  0.82763925  0.01158281  0.15484736  1
  O2-  O237  1  0.74869892  0.16286344  0.62164445  1
  O2-  O238  1  0.76010370  0.12501794  0.80996205  1
  O2-  O239  1  0.74026461  0.46903275  -0.15629265  1
  O2-  O240  1  0.76124944  0.64381701  0.15466893  1
  O2-  O241  1  0.74658603  0.35807779  0.63795262  1
  O2-  O242  1  0.75350240  0.30993614  0.86661460  1
