# generated using pymatgen
data_Gd19Ta56(WO20)8
_symmetry_space_group_name_H-M   'P 1'
_cell_length_a   15.44829165
_cell_length_b   15.45815817
_cell_length_c   15.23469428
_cell_angle_alpha   90.22713349
_cell_angle_beta   89.94237051
_cell_angle_gamma   89.93801251
_symmetry_Int_Tables_number   1
_chemical_formula_structural   Gd19Ta56(WO20)8
_chemical_formula_sum   'Gd19 Ta56 W8 O160'
_cell_volume   3638.04496070
_cell_formula_units_Z   1
loop_
 _symmetry_equiv_pos_site_id
 _symmetry_equiv_pos_as_xyz
  1  'x, y, z'
loop_
 _atom_type_symbol
 _atom_type_oxidation_number
  Gd3+  3.0
  Ta5+  5.0
  W6+  6.0
  O2-  -2.0
loop_
 _atom_site_type_symbol
 _atom_site_label
 _atom_site_symmetry_multiplicity
 _atom_site_fract_x
 _atom_site_fract_y
 _atom_site_fract_z
 _atom_site_occupancy
  Gd3+  Gd0  1  0.75096339  0.24846183  0.72431105  1
  Gd3+  Gd1  1  -0.00661685  0.74835989  0.26129679  1
  Gd3+  Gd2  1  -0.01469025  0.76519904  0.50039626  1
  Gd3+  Gd3  1  0.26860983  0.74962987  0.00213652  1
  Gd3+  Gd4  1  0.22973670  0.23910356  -0.03782411  1
  Gd3+  Gd5  1  0.47918067  0.74890859  0.21984754  1
  Gd3+  Gd6  1  0.48799322  0.25539645  0.25000624  1
  Gd3+  Gd7  1  0.75413647  0.24927582  0.49674632  1
  Gd3+  Gd8  1  0.52949290  0.24702697  -0.00538838  1
  Gd3+  Gd9  1  0.23627492  0.74149654  0.25326912  1
  Gd3+  Gd10  1  0.50823330  0.25238372  0.49866261  1
  Gd3+  Gd11  1  0.51431698  0.75068483  -0.00975455  1
  Gd3+  Gd12  1  0.75776086  0.75071141  -0.00773061  1
  Gd3+  Gd13  1  0.26673772  0.72915366  0.51529619  1
  Gd3+  Gd14  1  0.01006636  0.74260252  0.74473649  1
  Gd3+  Gd15  1  -0.02304204  0.26263292  0.01557152  1
  Gd3+  Gd16  1  0.74158043  0.74292524  0.74712094  1
  Gd3+  Gd17  1  0.01122030  0.75132776  -0.00108202  1
  Gd3+  Gd18  1  0.24061981  0.24332285  0.54314329  1
  Ta5+  Ta19  1  0.38828489  0.61744312  0.87367833  1
  Ta5+  Ta20  1  0.60668317  0.10870390  0.62995552  1
  Ta5+  Ta21  1  0.15158041  0.35226705  0.13073550  1
  Ta5+  Ta22  1  0.64492384  0.59157866  0.12421662  1
  Ta5+  Ta23  1  0.82449632  0.38723642  0.11719291  1
  Ta5+  Ta24  1  0.34862084  0.90426135  0.13380298  1
  Ta5+  Ta25  1  0.91415561  0.57896177  0.62857252  1
  Ta5+  Ta26  1  0.65312852  0.38019531  0.12341130  1
  Ta5+  Ta27  1  0.11191840  0.91042467  0.62527952  1
  Ta5+  Ta28  1  0.88530880  0.92709054  0.62742828  1
  Ta5+  Ta29  1  0.06823960  0.13014005  0.62926497  1
  Ta5+  Ta30  1  0.86908611  0.61981957  0.39251892  1
  Ta5+  Ta31  1  0.40076480  0.10796315  0.62568076  1
  Ta5+  Ta32  1  0.09139270  0.12585707  0.86790891  1
  Ta5+  Ta33  1  0.66519525  0.13660841  0.12829259  1
  Ta5+  Ta34  1  0.87991976  0.88541372  0.87933116  1
  Ta5+  Ta35  1  0.12481545  0.89227453  0.37623278  1
  Ta5+  Ta36  1  0.36047899  0.37258709  0.37873826  1
  Ta5+  Ta37  1  0.37483039  0.37120182  0.86951313  1
  Ta5+  Ta38  1  0.10674658  0.36812673  0.85975100  1
  Ta5+  Ta39  1  0.13387842  0.88314377  0.87828336  1
  Ta5+  Ta40  1  0.07175633  0.36501870  0.62660687  1
  Ta5+  Ta41  1  0.87218687  0.61011780  0.13318649  1
  Ta5+  Ta42  1  0.33106826  0.15252519  0.12152313  1
  Ta5+  Ta43  1  0.88126364  0.12533214  0.36063925  1
  Ta5+  Ta44  1  0.12592952  0.13413397  0.37583572  1
  Ta5+  Ta45  1  0.63328895  0.60379609  0.86875284  1
  Ta5+  Ta46  1  0.13564241  0.61594476  0.87903746  1
  Ta5+  Ta47  1  0.13922356  0.89897255  0.12919631  1
  Ta5+  Ta48  1  0.64971757  0.92575613  0.13423747  1
  Ta5+  Ta49  1  0.58429226  0.86352695  0.61153116  1
  Ta5+  Ta50  1  0.41632639  0.62046394  0.62037548  1
  Ta5+  Ta51  1  0.62354298  0.10690711  0.37281781  1
  Ta5+  Ta52  1  0.39928966  0.37813333  0.63610704  1
  Ta5+  Ta53  1  0.36588002  0.87378733  0.36976628  1
  Ta5+  Ta54  1  0.38763228  0.88583389  0.87469365  1
  Ta5+  Ta55  1  0.90372334  0.37345777  0.61908737  1
  Ta5+  Ta56  1  0.89871996  0.12825470  0.62013924  1
  Ta5+  Ta57  1  0.62986406  0.62925471  0.37605517  1
  Ta5+  Ta58  1  0.14159472  0.60240260  0.12818705  1
  Ta5+  Ta59  1  0.32227733  0.33992902  0.12374151  1
  Ta5+  Ta60  1  0.60556877  0.39118112  0.62963201  1
  Ta5+  Ta61  1  0.37352829  0.11866026  0.37686126  1
  Ta5+  Ta62  1  0.58450251  0.63651313  0.61854526  1
  Ta5+  Ta63  1  0.68224923  0.13052685  0.87649628  1
  Ta5+  Ta64  1  0.12133599  0.60774315  0.38953715  1
  Ta5+  Ta65  1  0.67771059  0.36655199  0.87420280  1
  Ta5+  Ta66  1  0.83510787  0.13357164  0.11355908  1
  Ta5+  Ta67  1  0.35265049  0.58565406  0.12600127  1
  Ta5+  Ta68  1  0.10461500  0.57350780  0.64236197  1
  Ta5+  Ta69  1  0.63416986  0.89230854  0.86667063  1
  Ta5+  Ta70  1  0.61433390  0.38642101  0.37688506  1
  Ta5+  Ta71  1  0.85484653  0.13346420  0.87355738  1
  Ta5+  Ta72  1  0.88103496  0.61421555  0.86516898  1
  Ta5+  Ta73  1  0.15078974  0.14959744  0.12897030  1
  Ta5+  Ta74  1  0.84889023  0.36998039  0.86957668  1
  W6+  W75  1  0.86456101  0.37067980  0.36555109  1
  W6+  W76  1  0.84063609  0.88018171  0.36637038  1
  W6+  W77  1  0.15388951  0.35840614  0.38163952  1
  W6+  W78  1  0.85897496  0.94056505  0.14795713  1
  W6+  W79  1  0.60720744  0.85859503  0.35783217  1
  W6+  W80  1  0.37891525  0.13452652  0.85794787  1
  W6+  W81  1  0.42030684  0.85563332  0.62175652  1
  W6+  W82  1  0.37592265  0.61387889  0.36158898  1
  O2-  O83  1  0.13698018  0.01834285  0.12605520  1
  O2-  O84  1  0.15556477  0.01234218  0.37134931  1
  O2-  O85  1  0.15314357  0.02238665  0.63279203  1
  O2-  O86  1  0.12347689  0.00391585  0.88694893  1
  O2-  O87  1  0.13194201  0.48297788  0.12392219  1
  O2-  O88  1  0.13125707  0.49236236  0.37964511  1
  O2-  O89  1  0.15905002  0.46775165  0.65199613  1
  O2-  O90  1  0.12418184  0.49623535  0.87159133  1
  O2-  O91  1  0.34352020  0.02334028  0.12698804  1
  O2-  O92  1  0.35289416  -0.00338871  0.37752261  1
  O2-  O93  1  0.40129348  -0.01049303  0.61357632  1
  O2-  O94  1  0.38350635  0.00418381  0.88521708  1
  O2-  O95  1  0.35081552  0.46695408  0.11733012  1
  O2-  O96  1  0.33594497  0.48772603  0.36754240  1
  O2-  O97  1  0.37980225  0.49882985  0.62772156  1
  O2-  O98  1  0.39470831  0.49331271  0.88598722  1
  O2-  O99  1  0.58597656  0.02889571  0.13390542  1
  O2-  O100  1  0.63388205  -0.01005496  0.36852879  1
  O2-  O101  1  0.61617258  -0.01125865  0.61772068  1
  O2-  O102  1  0.63093744  0.01250607  0.88060842  1
  O2-  O103  1  0.57811490  0.49001731  0.10866897  1
  O2-  O104  1  0.61453303  0.50755928  0.39315029  1
  O2-  O105  1  0.61404191  0.51110247  0.62096278  1
  O2-  O106  1  0.62601881  0.48472259  0.87048429  1
  O2-  O107  1  0.92910213  0.02942167  0.11243746  1
  O2-  O108  1  0.83758645  0.01309252  0.36876045  1
  O2-  O109  1  0.81253577  0.02164731  0.62098149  1
  O2-  O110  1  0.88985414  0.00508773  0.87195491  1
  O2-  O111  1  0.91024421  0.49826905  0.12033894  1
  O2-  O112  1  0.86454640  0.50218626  0.39069196  1
  O2-  O113  1  0.83674930  0.48734897  0.63199629  1
  O2-  O114  1  0.89126299  0.49555104  0.85952395  1
  O2-  O115  1  0.06890163  0.25268317  0.13449112  1
  O2-  O116  1  0.20713846  0.22966072  0.39804432  1
  O2-  O117  1  0.10858491  0.24379686  0.64874514  1
  O2-  O118  1  0.13920689  0.24309495  0.84065239  1
  O2-  O119  1  0.14246342  0.75018731  0.12804170  1
  O2-  O120  1  0.09285039  0.76305994  0.38464089  1
  O2-  O121  1  0.19665020  0.83554238  0.58769002  1
  O2-  O122  1  0.14173547  0.75138581  0.90832922  1
  O2-  O123  1  0.42833608  0.25230501  0.11326231  1
  O2-  O124  1  0.40756515  0.24423900  0.39313607  1
  O2-  O125  1  0.39637503  0.24806303  0.61066594  1
  O2-  O126  1  0.43961736  0.26457462  0.87242746  1
  O2-  O127  1  0.34069147  0.75172384  0.14331938  1
  O2-  O128  1  0.37132116  0.74917371  0.32989125  1
  O2-  O129  1  0.36023600  0.73304927  0.63031136  1
  O2-  O130  1  0.38233815  0.74925841  0.90252799  1
  O2-  O131  1  0.60763596  0.25457602  0.14057617  1
  O2-  O132  1  0.60446004  0.25055925  0.37946143  1
  O2-  O133  1  0.62948506  0.24581668  0.61636306  1
  O2-  O134  1  0.63294978  0.24701551  0.85472883  1
  O2-  O135  1  0.56348540  0.68704874  0.11406085  1
  O2-  O136  1  0.56288033  0.72802232  0.33868502  1
  O2-  O137  1  0.64888695  0.75362148  0.62402197  1
  O2-  O138  1  0.65444198  0.75414179  0.88142388  1
  O2-  O139  1  0.84804090  0.25962694  0.10878057  1
  O2-  O140  1  0.82103274  0.23744996  0.36566742  1
  O2-  O141  1  0.84930090  0.24837594  0.61408187  1
  O2-  O142  1  0.89953939  0.25458774  0.87799156  1
  O2-  O143  1  0.96279691  0.69363370  0.12566209  1
  O2-  O144  1  0.89994149  0.75464858  0.37878970  1
  O2-  O145  1  1.01778700  0.67461133  0.61013899  1
  O2-  O146  1  0.85028222  0.75204954  0.86379692  1
  O2-  O147  1  0.09689566  0.15453745  -0.00359619  1
  O2-  O148  1  0.15532489  0.14864271  0.25324260  1
  O2-  O149  1  0.11234421  0.13740239  0.50528839  1
  O2-  O150  1  0.04571947  0.10867656  0.75582705  1
  O2-  O151  1  0.08989168  0.61909153  0.00734405  1
  O2-  O152  1  0.09899517  0.63353079  0.25597979  1
  O2-  O153  1  0.14959489  0.61647072  0.52452460  1
  O2-  O154  1  0.13720702  0.64716440  0.74934171  1
  O2-  O155  1  0.34827218  0.15208822  -0.00824820  1
  O2-  O156  1  0.35245369  0.14861452  0.25796321  1
  O2-  O157  1  0.33209814  0.12717838  0.50469867  1
  O2-  O158  1  0.33455303  0.12442182  0.72819076  1
  O2-  O159  1  0.40618368  0.63055248  0.02072815  1
  O2-  O160  1  0.42551060  0.60758608  0.22618841  1
  O2-  O161  1  0.37824674  0.62887018  0.49846431  1
  O2-  O162  1  0.40607209  0.62215377  0.75482529  1
  O2-  O163  1  0.64438916  0.15153617  0.00025660  1
  O2-  O164  1  0.67110347  0.13090034  0.26183885  1
  O2-  O165  1  0.67139151  0.12414937  0.49112210  1
  O2-  O166  1  0.67684285  0.11740160  0.73759335  1
  O2-  O167  1  0.66522683  0.62393014  -0.00805712  1
  O2-  O168  1  0.64541251  0.59963582  0.24783752  1
  O2-  O169  1  0.58389729  0.64517806  0.49284961  1
  O2-  O170  1  0.62132839  0.64158233  0.74664868  1
  O2-  O171  1  0.89164659  0.13920547  -0.00280067  1
  O2-  O172  1  0.86281286  0.12935381  0.23613972  1
  O2-  O173  1  0.87948202  0.13493056  0.49181673  1
  O2-  O174  1  0.86600895  0.13943586  0.74437699  1
  O2-  O175  1  0.87012466  0.63375803  -0.00945194  1
  O2-  O176  1  0.88054762  0.62697197  0.25996752  1
  O2-  O177  1  0.87432651  0.64237583  0.52443931  1
  O2-  O178  1  0.87492909  0.66144079  0.72402505  1
  O2-  O179  1  0.10881373  0.34714545  -0.01092920  1
  O2-  O180  1  0.16671005  0.35510306  0.25139090  1
  O2-  O181  1  0.13338537  0.34703595  0.51353991  1
  O2-  O182  1  0.04391860  0.37128385  0.75567101  1
  O2-  O183  1  0.08573082  0.87921921  0.01220326  1
  O2-  O184  1  0.08346390  0.87869814  0.25420549  1
  O2-  O185  1  0.06867726  0.90324226  0.48795641  1
  O2-  O186  1  0.12604322  0.87392744  0.75094794  1
  O2-  O187  1  0.32593022  0.35232644  -0.01464794  1
  O2-  O188  1  0.36155710  0.33905974  0.25328197  1
  O2-  O189  1  0.32970944  0.36141618  0.50633497  1
  O2-  O190  1  0.33648121  0.36539805  0.74943540  1
  O2-  O191  1  0.41167266  0.86789585  0.02975978  1
  O2-  O192  1  0.41407341  0.88920752  0.24500873  1
  O2-  O193  1  0.39138938  0.84213505  0.48378885  1
  O2-  O194  1  0.40276277  0.86948040  0.75844294  1
  O2-  O195  1  0.63876407  0.35122262  -0.00212501  1
  O2-  O196  1  0.63997182  0.38258342  0.25636068  1
  O2-  O197  1  0.66244788  0.36960676  0.50145901  1
  O2-  O198  1  0.67623550  0.37833302  0.73441045  1
  O2-  O199  1  0.64004328  0.85669269  0.02942862  1
  O2-  O200  1  0.58289506  0.85923040  0.21208617  1
  O2-  O201  1  0.58047984  0.85728093  0.49196248  1
  O2-  O202  1  0.63983971  0.87241290  0.74613296  1
  O2-  O203  1  0.87951198  0.38123028  -0.00327936  1
  O2-  O204  1  0.83914568  0.38366879  0.23939844  1
  O2-  O205  1  0.86544039  0.35604600  0.49711617  1
  O2-  O206  1  0.86045483  0.35321141  0.74038664  1
  O2-  O207  1  0.88796879  0.84740339  0.00337038  1
  O2-  O208  1  0.90522633  0.86635514  0.24542590  1
  O2-  O209  1  0.86924465  0.86995241  0.51903414  1
  O2-  O210  1  0.85384539  0.87185664  0.73854311  1
  O2-  O211  1  0.00225047  -0.15261102  -0.13975461  1
  O2-  O212  1  0.00461497  0.13015074  0.35623531  1
  O2-  O213  1  -0.01891519  0.01143348  0.61723065  1
  O2-  O214  1  -0.00105687  -0.15356440  0.63702048  1
  O2-  O215  1  0.00320567  0.65810722  -0.13105140  1
  O2-  O216  1  0.00002460  0.62508665  0.41048742  1
  O2-  O217  1  0.00237089  0.48788129  0.57604014  1
  O2-  O218  1  0.00261366  0.55817164  0.72172452  1
  O2-  O219  1  0.24425713  -0.11514818  0.05727788  1
  O2-  O220  1  0.24312372  -0.11137073  0.21794953  1
  O2-  O221  1  0.24057792  -0.14873427  0.39445498  1
  O2-  O222  1  0.25762791  -0.12747446  0.88420266  1
  O2-  O223  1  0.24438307  0.61367971  0.05229216  1
  O2-  O224  1  0.25047080  0.60137262  0.20732531  1
  O2-  O225  1  0.23851168  0.65702248  0.38108509  1
  O2-  O226  1  0.25968548  0.62335467  0.88109133  1
  O2-  O227  1  0.51533413  -0.13198267  -0.10297281  1
  O2-  O228  1  0.49929458  0.10865750  0.35350334  1
  O2-  O229  1  0.50810940  0.11657796  0.54011282  1
  O2-  O230  1  0.50673548  0.12008560  0.70266969  1
  O2-  O231  1  0.51491588  0.63687448  -0.10527550  1
  O2-  O232  1  0.49084786  0.38273817  0.36618828  1
  O2-  O233  1  0.50012922  0.38739518  0.54866403  1
  O2-  O234  1  0.50460300  0.37506831  0.70804082  1
  O2-  O235  1  0.74861925  0.02459150  0.09171564  1
  O2-  O236  1  0.74714493  -0.09695943  0.20704213  1
  O2-  O237  1  0.73134641  -0.17152492  0.38425902  1
  O2-  O238  1  0.75493940  -0.11177026  0.90117832  1
  O2-  O239  1  0.74023958  0.48987085  0.10849254  1
  O2-  O240  1  0.75979742  0.66638828  0.12332108  1
  O2-  O241  1  0.74677221  0.64746311  0.39737617  1
  O2-  O242  1  0.75816704  0.61446700  0.83856169  1
