# generated using pymatgen
data_Gd19Ta56(WO20)8
_symmetry_space_group_name_H-M   'P 1'
_cell_length_a   15.48528417
_cell_length_b   15.40906965
_cell_length_c   15.28338719
_cell_angle_alpha   89.92241437
_cell_angle_beta   89.81066070
_cell_angle_gamma   90.08779510
_symmetry_Int_Tables_number   1
_chemical_formula_structural   Gd19Ta56(WO20)8
_chemical_formula_sum   'Gd19 Ta56 W8 O160'
_cell_volume   3646.79987176
_cell_formula_units_Z   1
loop_
 _symmetry_equiv_pos_site_id
 _symmetry_equiv_pos_as_xyz
  1  'x, y, z'
loop_
 _atom_type_symbol
 _atom_type_oxidation_number
  Gd3+  3.0
  Ta5+  5.0
  W6+  6.0
  O2-  -2.0
loop_
 _atom_site_type_symbol
 _atom_site_label
 _atom_site_symmetry_multiplicity
 _atom_site_fract_x
 _atom_site_fract_y
 _atom_site_fract_z
 _atom_site_occupancy
  Gd3+  Gd0  1  0.23688480  0.28160193  0.03297856  1
  Gd3+  Gd1  1  0.24199117  0.74196050  0.00261784  1
  Gd3+  Gd2  1  -0.03298940  0.75463359  0.27365017  1
  Gd3+  Gd3  1  0.50390172  0.26947604  0.00218061  1
  Gd3+  Gd4  1  0.76553190  0.76569927  0.48308002  1
  Gd3+  Gd5  1  -0.02312800  0.76056380  0.01412034  1
  Gd3+  Gd6  1  0.51598893  0.26640653  0.26208417  1
  Gd3+  Gd7  1  -0.00388046  0.73543180  0.51812036  1
  Gd3+  Gd8  1  0.50911604  0.25477827  0.51121943  1
  Gd3+  Gd9  1  0.69331244  0.75676113  0.26508163  1
  Gd3+  Gd10  1  0.74907976  0.25579169  -0.05286661  1
  Gd3+  Gd11  1  0.52780528  0.73112072  0.48764633  1
  Gd3+  Gd12  1  0.74266981  0.75834926  0.01240691  1
  Gd3+  Gd13  1  0.24367882  0.25402309  0.76621316  1
  Gd3+  Gd14  1  0.50857340  0.76418722  0.01034399  1
  Gd3+  Gd15  1  -0.00416393  0.22369503  0.48550077  1
  Gd3+  Gd16  1  0.23498551  0.72470398  0.51805737  1
  Gd3+  Gd17  1  0.23989214  0.74422034  0.75893300  1
  Gd3+  Gd18  1  -0.01710790  0.22660164  0.74116223  1
  Ta5+  Ta19  1  0.38786385  0.60884302  0.62191186  1
  Ta5+  Ta20  1  0.88357094  0.94425363  0.60363288  1
  Ta5+  Ta21  1  0.40260278  0.91148621  0.87536345  1
  Ta5+  Ta22  1  0.84657238  0.60320406  0.62330210  1
  Ta5+  Ta23  1  0.39060321  0.87308015  0.40731957  1
  Ta5+  Ta24  1  0.83082451  0.14219488  0.61689411  1
  Ta5+  Ta25  1  0.65581076  0.35873000  0.63007079  1
  Ta5+  Ta26  1  0.37921083  0.39100521  0.13528578  1
  Ta5+  Ta27  1  0.12242599  0.88384448  0.87715453  1
  Ta5+  Ta28  1  0.11299971  0.59894053  0.87949149  1
  Ta5+  Ta29  1  0.90550088  0.61853397  0.85673255  1
  Ta5+  Ta30  1  0.38469826  0.61051392  0.87535438  1
  Ta5+  Ta31  1  0.85510073  0.95488577  0.36084082  1
  Ta5+  Ta32  1  0.37940289  0.12938748  0.12225660  1
  Ta5+  Ta33  1  0.35964238  0.11611302  0.61618348  1
  Ta5+  Ta34  1  0.87594452  0.89831318  0.12478281  1
  Ta5+  Ta35  1  0.37202000  0.88587488  0.14971052  1
  Ta5+  Ta36  1  0.13750819  0.11797545  0.13781557  1
  Ta5+  Ta37  1  0.65204135  0.14683701  0.12621550  1
  Ta5+  Ta38  1  0.68988862  0.35586799  0.37805548  1
  Ta5+  Ta39  1  0.61594574  0.61579086  0.12653381  1
  Ta5+  Ta40  1  0.85006562  0.58668083  0.38066229  1
  Ta5+  Ta41  1  0.10122382  0.87171171  0.64838935  1
  Ta5+  Ta42  1  0.38295751  0.57900895  0.12197087  1
  Ta5+  Ta43  1  0.62277123  0.90175858  0.13336977  1
  Ta5+  Ta44  1  0.61414784  0.92811413  0.87489821  1
  Ta5+  Ta45  1  0.59649723  0.13634345  0.86782575  1
  Ta5+  Ta46  1  0.15394429  0.10944962  0.59175726  1
  Ta5+  Ta47  1  0.15748706  0.10857124  0.36594154  1
  Ta5+  Ta48  1  0.07842576  0.36067976  0.14995425  1
  Ta5+  Ta49  1  0.83278902  0.36547338  0.12163558  1
  Ta5+  Ta50  1  0.86248000  0.61469178  0.12587241  1
  Ta5+  Ta51  1  0.35582914  0.37905478  0.38370354  1
  Ta5+  Ta52  1  0.08311481  0.35070655  0.89415453  1
  Ta5+  Ta53  1  0.81672546  0.14150952  0.12470028  1
  Ta5+  Ta54  1  0.14010561  0.36076412  0.38173545  1
  Ta5+  Ta55  1  0.91415242  0.87375679  0.82147819  1
  Ta5+  Ta56  1  0.37408406  0.37903895  0.86682350  1
  Ta5+  Ta57  1  0.63493907  0.59941001  0.61211980  1
  Ta5+  Ta58  1  0.65590596  0.96425245  0.63488338  1
  Ta5+  Ta59  1  0.63987805  0.55192163  0.36291257  1
  Ta5+  Ta60  1  0.66779676  0.37099475  0.13007454  1
  Ta5+  Ta61  1  0.65387387  0.13843990  0.38092963  1
  Ta5+  Ta62  1  0.64523067  0.92400543  0.39017969  1
  Ta5+  Ta63  1  0.42684506  0.12375794  0.85782340  1
  Ta5+  Ta64  1  0.89058949  0.38989089  0.62207234  1
  Ta5+  Ta65  1  0.91562161  0.37258882  0.87843530  1
  Ta5+  Ta66  1  0.61500425  0.39687697  0.87324673  1
  Ta5+  Ta67  1  0.63010415  0.63166759  0.86202024  1
  Ta5+  Ta68  1  0.82005390  0.15237319  0.36802842  1
  Ta5+  Ta69  1  0.12750807  0.61224221  0.37903274  1
  Ta5+  Ta70  1  0.33067621  0.36800532  0.59280700  1
  Ta5+  Ta71  1  0.85830522  0.36921926  0.36997052  1
  Ta5+  Ta72  1  0.10925450  0.60377504  0.12268325  1
  Ta5+  Ta73  1  0.10370168  0.12960951  0.90390113  1
  Ta5+  Ta74  1  0.66205110  0.13782647  0.63327306  1
  W6+  W75  1  0.37711436  0.63059283  0.35966320  1
  W6+  W76  1  0.37722226  0.86442448  0.62308472  1
  W6+  W77  1  0.11851023  0.86199992  0.38136157  1
  W6+  W78  1  0.08145877  0.60397531  0.65969432  1
  W6+  W79  1  0.09524922  0.35972311  0.62930478  1
  W6+  W80  1  0.86945376  0.10904183  0.87100976  1
  W6+  W81  1  0.40178603  0.12205204  0.37598647  1
  W6+  W82  1  0.13289621  0.86759126  0.12816806  1
  O2-  O83  1  0.15605385  0.00094349  0.13764361  1
  O2-  O84  1  0.16074044  -0.01191020  0.37262438  1
  O2-  O85  1  0.12988027  -0.00535496  0.62800141  1
  O2-  O86  1  0.12128041  0.00689311  0.89428705  1
  O2-  O87  1  0.10595666  0.47971249  0.13246453  1
  O2-  O88  1  0.13908317  0.49256230  0.38664392  1
  O2-  O89  1  0.11133171  0.48274384  0.64713049  1
  O2-  O90  1  0.09976423  0.47852894  0.88602863  1
  O2-  O91  1  0.35826024  0.00311953  0.12386281  1
  O2-  O92  1  0.39021443  -0.00897949  0.39552973  1
  O2-  O93  1  0.36390098  -0.00266149  0.61983453  1
  O2-  O94  1  0.34444964  0.01876008  0.88477646  1
  O2-  O95  1  0.46208561  0.47926925  0.10439374  1
  O2-  O96  1  0.35715192  0.49830428  0.37353774  1
  O2-  O97  1  0.34408028  0.49523909  0.61360489  1
  O2-  O98  1  0.33182653  0.50124935  0.88718917  1
  O2-  O99  1  0.62273840  0.02109837  0.11230257  1
  O2-  O100  1  0.57873881  0.02512560  0.38512092  1
  O2-  O101  1  0.56156781  0.03565003  0.63353454  1
  O2-  O102  1  0.66871656  0.03047322  0.90749660  1
  O2-  O103  1  0.64045691  0.49804489  0.12688778  1
  O2-  O104  1  0.58004899  0.44819337  0.36039427  1
  O2-  O105  1  0.61533083  0.47819148  0.60985846  1
  O2-  O106  1  0.66190283  0.51669207  0.89140832  1
  O2-  O107  1  0.85538376  0.01682358  0.12510515  1
  O2-  O108  1  0.92133459  0.05324208  0.35592212  1
  O2-  O109  1  0.94066380  0.04820623  0.61017377  1
  O2-  O110  1  0.86617171  -0.02703829  0.86784819  1
  O2-  O111  1  0.84414880  0.49628596  0.11082837  1
  O2-  O112  1  0.92069988  0.48952590  0.36884042  1
  O2-  O113  1  0.92993337  0.51138121  0.62673364  1
  O2-  O114  1  0.89382328  0.50118868  0.88751555  1
  O2-  O115  1  0.15224034  0.25711429  0.15535516  1
  O2-  O116  1  0.12304313  0.23545940  0.39162164  1
  O2-  O117  1  0.08448000  0.21334126  0.61595316  1
  O2-  O118  1  0.17560097  0.23931871  0.90612644  1
  O2-  O119  1  0.10905079  0.73298495  0.09151007  1
  O2-  O120  1  0.06584096  0.72961329  0.38529090  1
  O2-  O121  1  0.11064747  0.74429136  0.66833053  1
  O2-  O122  1  0.14099231  0.74803237  0.87873633  1
  O2-  O123  1  0.37596067  0.26070666  0.12650798  1
  O2-  O124  1  0.41453336  0.26000570  0.37943257  1
  O2-  O125  1  0.37985724  0.25527715  0.61182159  1
  O2-  O126  1  0.38095728  0.24577443  0.86764934  1
  O2-  O127  1  0.27098135  0.81925471  0.13047498  1
  O2-  O128  1  0.43318395  0.75510990  0.37258360  1
  O2-  O129  1  0.32644115  0.72408234  0.63771024  1
  O2-  O130  1  0.31966530  0.71390775  0.87586808  1
  O2-  O131  1  0.57701935  0.26396659  0.12641198  1
  O2-  O132  1  0.59473780  0.25623387  0.38439634  1
  O2-  O133  1  0.58331977  0.25728964  0.64093096  1
  O2-  O134  1  0.57901930  0.26616550  0.86757823  1
  O2-  O135  1  0.61702503  0.76254322  0.12941120  1
  O2-  O136  1  0.61640962  0.79515019  0.39475674  1
  O2-  O137  1  0.65968997  0.71787057  0.57133069  1
  O2-  O138  1  0.70127968  0.72881827  0.87320421  1
  O2-  O139  1  0.74549380  0.25721524  0.10581954  1
  O2-  O140  1  0.90904620  0.25820177  0.37036933  1
  O2-  O141  1  0.90584606  0.25501164  0.61579858  1
  O2-  O142  1  0.88643832  0.24675812  0.86173501  1
  O2-  O143  1  0.89034204  0.75224502  0.14206739  1
  O2-  O144  1  0.89526437  0.70840793  0.40782125  1
  O2-  O145  1  0.86230497  0.72330669  0.59102066  1
  O2-  O146  1  0.89393175  0.75514362  0.85439159  1
  O2-  O147  1  0.07396074  0.13829146  0.03379411  1
  O2-  O148  1  0.09641057  0.12130256  0.25705912  1
  O2-  O149  1  0.08786618  0.10308328  0.48204265  1
  O2-  O150  1  0.08573519  0.13674951  0.78358569  1
  O2-  O151  1  0.16948426  0.60389399  -0.00032281  1
  O2-  O152  1  0.11594903  0.62130069  0.24720052  1
  O2-  O153  1  0.23892964  0.65965095  0.38429190  1
  O2-  O154  1  0.18098913  0.60878791  0.77370503  1
  O2-  O155  1  0.42994439  0.13552234  0.00644560  1
  O2-  O156  1  0.43180977  0.13465744  0.23416249  1
  O2-  O157  1  0.43187160  0.12960246  0.51278553  1
  O2-  O158  1  0.41444086  0.12654617  0.73393753  1
  O2-  O159  1  0.35919465  0.63421794  0.01234014  1
  O2-  O160  1  0.35328488  0.63462211  0.22377275  1
  O2-  O161  1  0.37673231  0.64345232  0.49982861  1
  O2-  O162  1  0.38880508  0.60852740  0.75191583  1
  O2-  O163  1  0.62565363  0.17174009  -0.00408872  1
  O2-  O164  1  0.62966188  0.15015617  0.25197343  1
  O2-  O165  1  0.63691157  0.15162785  0.50682441  1
  O2-  O166  1  0.65358692  0.14274267  0.75993279  1
  O2-  O167  1  0.62951844  0.64813079  0.00376823  1
  O2-  O168  1  0.60281945  0.62175456  0.26096487  1
  O2-  O169  1  0.59907208  0.59268110  0.47121888  1
  O2-  O170  1  0.63242650  0.61956980  0.73917143  1
  O2-  O171  1  0.83615211  0.14518851  -0.00634808  1
  O2-  O172  1  0.83859460  0.16518935  0.24245343  1
  O2-  O173  1  0.85427516  0.14896587  0.49219595  1
  O2-  O174  1  0.86183641  0.12721991  0.74105843  1
  O2-  O175  1  0.85028746  0.65233274  -0.00294746  1
  O2-  O176  1  0.87579276  0.62042509  0.25382163  1
  O2-  O177  1  0.80997951  0.57793319  0.50476611  1
  O2-  O178  1  0.83642628  0.61514848  0.75259238  1
  O2-  O179  1  0.09281683  0.34294576  0.02113278  1
  O2-  O180  1  0.07218842  0.36733055  0.27879298  1
  O2-  O181  1  0.07296522  0.35783745  0.49204572  1
  O2-  O182  1  0.10963846  0.32383752  0.76635555  1
  O2-  O183  1  0.17844976  0.87458822  -0.01247682  1
  O2-  O184  1  0.08622354  0.83855843  0.25154747  1
  O2-  O185  1  0.13127884  0.83469539  0.52628847  1
  O2-  O186  1  0.18168315  0.88040513  0.76062204  1
  O2-  O187  1  0.36062984  0.36270412  -0.00012107  1
  O2-  O188  1  0.41300732  0.37988748  0.25657596  1
  O2-  O189  1  0.42580969  0.38012361  0.49998465  1
  O2-  O190  1  0.34425290  0.37187484  0.74599853  1
  O2-  O191  1  0.37722710  0.85304256  -0.01470170  1
  O2-  O192  1  0.37875105  0.87809283  0.26816237  1
  O2-  O193  1  0.30430448  0.85010664  0.49234373  1
  O2-  O194  1  0.36292850  0.86270149  0.77123638  1
  O2-  O195  1  0.64370930  0.35903945  -0.00462254  1
  O2-  O196  1  0.65797698  0.34395314  0.25207583  1
  O2-  O197  1  0.66680348  0.35114222  0.50378071  1
  O2-  O198  1  0.63994003  0.39071513  0.75668228  1
  O2-  O199  1  0.63288059  0.87005062  -0.00580874  1
  O2-  O200  1  0.61680845  0.90095433  0.25739182  1
  O2-  O201  1  0.66855005  0.91394591  0.51638085  1
  O2-  O202  1  0.65077725  0.91566688  0.75751528  1
  O2-  O203  1  0.85474159  0.35306340  -0.00809891  1
  O2-  O204  1  0.85948007  0.36382163  0.24052735  1
  O2-  O205  1  0.87638653  0.38023988  0.49942440  1
  O2-  O206  1  0.92862805  0.37716001  0.74826949  1
  O2-  O207  1  0.85232964  0.85492626  0.00846370  1
  O2-  O208  1  0.89701017  0.88887586  0.25926587  1
  O2-  O209  1  0.85449453  0.90875797  0.48601592  1
  O2-  O210  1  0.85090698  0.88541547  0.71000099  1
  O2-  O211  1  0.00682709  -0.13169939  -0.08089887  1
  O2-  O212  1  -0.00297693  -0.11038293  0.10423645  1
  O2-  O213  1  -0.01425932  -0.13178603  0.59314055  1
  O2-  O214  1  0.02205591  -0.11097728  0.75883112  1
  O2-  O215  1  0.00864185  0.63988877  -0.06062967  1
  O2-  O216  1  -0.01092408  0.60815698  0.11262615  1
  O2-  O217  1  0.11099683  0.63026664  0.51453119  1
  O2-  O218  1  0.01169397  0.60913841  0.78456218  1
  O2-  O219  1  0.25601751  0.14307394  0.08781236  1
  O2-  O220  1  0.27024565  0.13479049  0.33731777  1
  O2-  O221  1  0.25533401  0.11652724  0.52246017  1
  O2-  O222  1  0.24543899  0.13601737  0.68309814  1
  O2-  O223  1  0.29557176  0.48394559  0.13034244  1
  O2-  O224  1  0.25015237  0.35057094  0.32093729  1
  O2-  O225  1  0.26498760  0.36903337  0.48135170  1
  O2-  O226  1  0.22415327  0.32319026  0.63786029  1
  O2-  O227  1  0.50463957  0.00221272  -0.12600787  1
  O2-  O228  1  0.49361142  -0.12667574  0.11484514  1
  O2-  O229  1  0.46691669  -0.13694456  0.50947030  1
  O2-  O230  1  0.51364997  -0.16006354  0.87783384  1
  O2-  O231  1  0.49135908  0.41512937  -0.11463270  1
  O2-  O232  1  0.49468290  0.64719979  0.11192763  1
  O2-  O233  1  0.50683212  0.62736521  0.61616981  1
  O2-  O234  1  0.50511769  0.64581563  0.89020609  1
  O2-  O235  1  0.74571250  -0.13279072  0.14545542  1
  O2-  O236  1  0.75938696  -0.14285872  0.35568415  1
  O2-  O237  1  0.74579272  0.02563585  0.38412329  1
  O2-  O238  1  0.76956311  0.02013298  0.60533588  1
  O2-  O239  1  0.73960568  0.65393260  0.14395308  1
  O2-  O240  1  0.73464587  0.65633250  0.36804773  1
  O2-  O241  1  0.74953387  0.48476521  0.35719614  1
  O2-  O242  1  0.77449444  0.37422229  0.65334097  1
