# generated using pymatgen
data_Gd19Ta56(WO20)8
_symmetry_space_group_name_H-M   'P 1'
_cell_length_a   15.50118545
_cell_length_b   15.36754321
_cell_length_c   15.31147371
_cell_angle_alpha   90.06560518
_cell_angle_beta   90.10546960
_cell_angle_gamma   90.20590953
_symmetry_Int_Tables_number   1
_chemical_formula_structural   Gd19Ta56(WO20)8
_chemical_formula_sum   'Gd19 Ta56 W8 O160'
_cell_volume   3647.39265826
_cell_formula_units_Z   1
loop_
 _symmetry_equiv_pos_site_id
 _symmetry_equiv_pos_as_xyz
  1  'x, y, z'
loop_
 _atom_type_symbol
 _atom_type_oxidation_number
  Gd3+  3.0
  Ta5+  5.0
  W6+  6.0
  O2-  -2.0
loop_
 _atom_site_type_symbol
 _atom_site_label
 _atom_site_symmetry_multiplicity
 _atom_site_fract_x
 _atom_site_fract_y
 _atom_site_fract_z
 _atom_site_occupancy
  Gd3+  Gd0  1  0.23916971  0.73750872  0.27876246  1
  Gd3+  Gd1  1  0.74103623  0.74741111  -0.01257987  1
  Gd3+  Gd2  1  -0.00266626  0.74397932  0.25423034  1
  Gd3+  Gd3  1  0.50727358  0.29031203  -0.00474568  1
  Gd3+  Gd4  1  0.47904289  0.76089369  0.24106000  1
  Gd3+  Gd5  1  0.72690990  0.76702072  0.50885841  1
  Gd3+  Gd6  1  0.77041341  0.25198811  0.27612777  1
  Gd3+  Gd7  1  0.03402126  0.25120740  0.24936741  1
  Gd3+  Gd8  1  0.24054802  0.77483182  0.71426007  1
  Gd3+  Gd9  1  0.74390056  0.25214490  -0.00032880  1
  Gd3+  Gd10  1  0.74033466  0.22683543  0.74962518  1
  Gd3+  Gd11  1  -0.02806024  0.24152343  0.74976468  1
  Gd3+  Gd12  1  0.49893519  0.74701499  0.74679370  1
  Gd3+  Gd13  1  0.24426282  0.25596222  0.50200016  1
  Gd3+  Gd14  1  0.48076328  0.73853522  -0.00288828  1
  Gd3+  Gd15  1  -0.01090675  0.73999082  -0.00850553  1
  Gd3+  Gd16  1  -0.00732656  0.72149770  0.75370642  1
  Gd3+  Gd17  1  0.01442544  0.27908308  -0.00032654  1
  Gd3+  Gd18  1  0.26194488  0.24738335  0.23710762  1
  Ta5+  Ta19  1  0.84121891  0.57146522  0.87490689  1
  Ta5+  Ta20  1  0.61034268  0.11946632  0.62279966  1
  Ta5+  Ta21  1  0.13400037  0.87585902  0.10699907  1
  Ta5+  Ta22  1  0.62067390  0.62915185  0.13632879  1
  Ta5+  Ta23  1  0.37780853  0.37227623  0.63280656  1
  Ta5+  Ta24  1  0.86047468  0.11639173  0.90091578  1
  Ta5+  Ta25  1  0.86122690  0.62243598  0.13325197  1
  Ta5+  Ta26  1  0.89466953  0.87029537  0.62825755  1
  Ta5+  Ta27  1  0.89388836  0.38130006  0.14773055  1
  Ta5+  Ta28  1  0.41212159  0.36817203  0.38742761  1
  Ta5+  Ta29  1  0.37461051  0.12809220  0.62974295  1
  Ta5+  Ta30  1  0.86972282  0.38533300  0.88833485  1
  Ta5+  Ta31  1  0.12835816  0.60904252  0.63009238  1
  Ta5+  Ta32  1  0.61564616  0.61449583  0.87334126  1
  Ta5+  Ta33  1  0.62266412  0.88595355  0.87127672  1
  Ta5+  Ta34  1  0.62586571  0.12858581  0.13739151  1
  Ta5+  Ta35  1  0.61191454  0.36776833  0.39109643  1
  Ta5+  Ta36  1  0.81615623  0.62751575  0.64426242  1
  Ta5+  Ta37  1  0.15074586  0.12464626  0.85494022  1
  Ta5+  Ta38  1  0.63040190  0.12188220  0.38453496  1
  Ta5+  Ta39  1  0.85751944  0.86901892  0.13744566  1
  Ta5+  Ta40  1  0.34802444  0.37485692  0.87661135  1
  Ta5+  Ta41  1  0.11429977  0.87649140  0.37976642  1
  Ta5+  Ta42  1  0.11767228  0.39019371  0.38735833  1
  Ta5+  Ta43  1  0.33969828  0.87544089  0.11197291  1
  Ta5+  Ta44  1  0.09822551  0.11991994  0.61011316  1
  Ta5+  Ta45  1  0.63204938  0.61909088  0.37875867  1
  Ta5+  Ta46  1  0.65946250  0.39220953  0.87161680  1
  Ta5+  Ta47  1  0.36341846  0.61999097  0.86051800  1
  Ta5+  Ta48  1  0.13200147  0.87636825  0.88153926  1
  Ta5+  Ta49  1  0.14952754  0.61738224  0.89263429  1
  Ta5+  Ta50  1  0.90188558  0.06550130  0.54976239  1
  Ta5+  Ta51  1  0.58387418  0.88584271  0.62109021  1
  Ta5+  Ta52  1  0.14295215  0.62886185  0.10708124  1
  Ta5+  Ta53  1  0.06399973  0.87589304  0.62475795  1
  Ta5+  Ta54  1  0.60943648  0.88609890  0.37475969  1
  Ta5+  Ta55  1  0.10490124  0.11380481  0.08614076  1
  Ta5+  Ta56  1  0.59452426  0.13044262  0.87883408  1
  Ta5+  Ta57  1  0.86652237  0.39414167  0.62707888  1
  Ta5+  Ta58  1  0.89629819  0.11164580  0.14137049  1
  Ta5+  Ta59  1  0.37415437  0.89131008  0.87146174  1
  Ta5+  Ta60  1  0.86344523  0.88614535  0.87014756  1
  Ta5+  Ta61  1  0.38645066  0.11712627  0.11828356  1
  Ta5+  Ta62  1  0.11668374  0.11559114  0.39708741  1
  Ta5+  Ta63  1  0.41285988  0.88921900  0.61902262  1
  Ta5+  Ta64  1  0.87150015  0.63158678  0.39384395  1
  Ta5+  Ta65  1  0.15166161  0.40696811  0.12214971  1
  Ta5+  Ta66  1  0.37588993  0.62408269  0.61233589  1
  Ta5+  Ta67  1  0.36561018  0.88573210  0.37934445  1
  Ta5+  Ta68  1  0.91299268  0.38317686  0.39152677  1
  Ta5+  Ta69  1  0.64821674  0.62464554  0.63393740  1
  Ta5+  Ta70  1  0.09285382  0.38074908  0.60776480  1
  Ta5+  Ta71  1  0.39415962  0.41780927  0.13153691  1
  Ta5+  Ta72  1  0.10963265  0.61561737  0.37974408  1
  Ta5+  Ta73  1  0.61753549  0.37889620  0.62475224  1
  Ta5+  Ta74  1  0.38679950  0.12775712  0.37518876  1
  W6+  W75  1  0.89888701  0.10679094  0.37746032  1
  W6+  W76  1  0.42763413  0.13853118  0.87562854  1
  W6+  W77  1  0.64544875  0.37950578  0.14271692  1
  W6+  W78  1  0.14205297  0.36644330  0.86058150  1
  W6+  W79  1  0.37415344  0.61632510  0.37130018  1
  W6+  W80  1  0.89969660  0.88982794  0.39550113  1
  W6+  W81  1  0.61079264  0.88786157  0.12233879  1
  W6+  W82  1  0.31703742  0.61156659  0.10892263  1
  O2-  O83  1  0.13599344  0.00037093  0.12665225  1
  O2-  O84  1  0.14116502  -0.00105183  0.38072520  1
  O2-  O85  1  0.10032975  -0.00318057  0.62289898  1
  O2-  O86  1  0.13704356  0.00331258  0.86342412  1
  O2-  O87  1  0.09729785  0.51296595  0.13067228  1
  O2-  O88  1  0.16169103  0.50285833  0.36004596  1
  O2-  O89  1  0.15361182  0.48703201  0.64064336  1
  O2-  O90  1  0.16742667  0.50064720  0.87530391  1
  O2-  O91  1  0.33839017  0.00543662  0.10345800  1
  O2-  O92  1  0.34718595  0.01208301  0.37277543  1
  O2-  O93  1  0.35811876  0.00791855  0.61518922  1
  O2-  O94  1  0.39191043  0.00680634  0.88763346  1
  O2-  O95  1  0.42966178  0.53109552  0.14265808  1
  O2-  O96  1  0.38232380  0.48056363  0.36681373  1
  O2-  O97  1  0.37156834  0.49352217  0.61859085  1
  O2-  O98  1  0.35996387  0.49632033  0.86741781  1
  O2-  O99  1  0.66230072  0.01790248  0.11792700  1
  O2-  O100  1  0.65806448  0.00121518  0.35925386  1
  O2-  O101  1  0.63102111  0.00101167  0.64514319  1
  O2-  O102  1  0.59795846  0.00451761  0.89088985  1
  O2-  O103  1  0.62212762  0.51106231  0.14136008  1
  O2-  O104  1  0.61824650  0.49692342  0.37551049  1
  O2-  O105  1  0.60991550  0.49879396  0.62961108  1
  O2-  O106  1  0.58668047  0.49491545  0.87219774  1
  O2-  O107  1  0.89248435  -0.01343141  0.11986186  1
  O2-  O108  1  0.96513247  -0.00743638  0.34450272  1
  O2-  O109  1  0.84491848  -0.00645797  0.62813410  1
  O2-  O110  1  0.90103532  0.00023825  0.91086088  1
  O2-  O111  1  0.88095129  0.50279231  0.12431433  1
  O2-  O112  1  0.89721893  0.50841454  0.39336920  1
  O2-  O113  1  0.80019171  0.49427127  0.64151579  1
  O2-  O114  1  0.93132819  0.49404218  0.91672976  1
  O2-  O115  1  0.12363058  0.23104084  0.12545700  1
  O2-  O116  1  0.12388825  0.25952107  0.39385084  1
  O2-  O117  1  0.10798904  0.25337980  0.58517661  1
  O2-  O118  1  0.07715359  0.22851651  0.86957764  1
  O2-  O119  1  0.09498140  0.75127900  0.10857292  1
  O2-  O120  1  0.11954800  0.74153239  0.38255599  1
  O2-  O121  1  0.10881307  0.74522362  0.63866092  1
  O2-  O122  1  0.10387915  0.74732256  0.88450405  1
  O2-  O123  1  0.30692211  0.20655374  0.10787924  1
  O2-  O124  1  0.33465896  0.25363616  0.37083218  1
  O2-  O125  1  0.31956509  0.24730722  0.62947971  1
  O2-  O126  1  0.43100907  0.28229730  0.86754850  1
  O2-  O127  1  0.37454260  0.74639879  0.11838645  1
  O2-  O128  1  0.37730062  0.75735146  0.35195306  1
  O2-  O129  1  0.37506676  0.75753443  0.64220222  1
  O2-  O130  1  0.40282012  0.75483011  0.86368767  1
  O2-  O131  1  0.69764455  0.24445628  0.13806345  1
  O2-  O132  1  0.67027739  0.24381951  0.39470673  1
  O2-  O133  1  0.65302356  0.24084364  0.63125835  1
  O2-  O134  1  0.63186341  0.26569972  0.86611615  1
  O2-  O135  1  0.56590903  0.75192281  0.12027122  1
  O2-  O136  1  0.63153326  0.75886442  0.38942483  1
  O2-  O137  1  0.62220629  0.75605017  0.62603463  1
  O2-  O138  1  0.58606945  0.74979691  0.87658813  1
  O2-  O139  1  0.90166289  0.24627771  0.15997089  1
  O2-  O140  1  0.91194986  0.25548382  0.35328813  1
  O2-  O141  1  0.84432823  0.27617772  0.65828786  1
  O2-  O142  1  0.89878703  0.24965249  0.90274135  1
  O2-  O143  1  0.91652935  0.74735302  0.12602153  1
  O2-  O144  1  0.92804495  0.74394437  0.38760291  1
  O2-  O145  1  0.86950058  0.74818278  0.66421296  1
  O2-  O146  1  0.91923076  0.77270387  0.86759896  1
  O2-  O147  1  0.17337558  0.12524412  -0.01595879  1
  O2-  O148  1  0.15729078  0.14697713  0.28275271  1
  O2-  O149  1  0.18310563  0.11821503  0.50696875  1
  O2-  O150  1  0.14312495  0.13666412  0.72608228  1
  O2-  O151  1  0.06513182  0.61202665  -0.00977858  1
  O2-  O152  1  0.11999822  0.64400030  0.24333657  1
  O2-  O153  1  0.09723582  0.60583843  0.51072327  1
  O2-  O154  1  0.09540910  0.61652024  0.75937699  1
  O2-  O155  1  0.43782591  0.15566208  0.01164666  1
  O2-  O156  1  0.36457256  0.13570708  0.24923666  1
  O2-  O157  1  0.35711834  0.14609950  0.49434575  1
  O2-  O158  1  0.39123223  0.13062920  0.74756437  1
  O2-  O159  1  0.39134118  0.62418449  -0.01762455  1
  O2-  O160  1  0.31514802  0.62082305  0.24549381  1
  O2-  O161  1  0.42159294  0.63366883  0.50310275  1
  O2-  O162  1  0.41365530  0.62047832  0.74104205  1
  O2-  O163  1  0.61342651  0.16836562  0.01217205  1
  O2-  O164  1  0.65686672  0.14301443  0.25967762  1
  O2-  O165  1  0.65171661  0.10635924  0.50518091  1
  O2-  O166  1  0.61312259  0.13079814  0.75509360  1
  O2-  O167  1  0.61859648  0.63583691  0.00623463  1
  O2-  O168  1  0.58075920  0.64455745  0.25936330  1
  O2-  O169  1  0.64268331  0.62699424  0.50319978  1
  O2-  O170  1  0.59443518  0.62958154  0.75056937  1
  O2-  O171  1  0.82893849  0.13555093  0.03421197  1
  O2-  O172  1  0.83238560  0.11074623  0.24578039  1
  O2-  O173  1  0.84609586  0.15949657  0.49875650  1
  O2-  O174  1  0.86470486  0.14005249  0.77936957  1
  O2-  O175  1  0.85415703  0.63919963  -0.00013813  1
  O2-  O176  1  0.89236056  0.63038453  0.25448675  1
  O2-  O177  1  0.83591074  0.64149399  0.51565509  1
  O2-  O178  1  0.88335076  0.60915824  0.76568722  1
  O2-  O179  1  0.14064988  0.36383560  0.00670133  1
  O2-  O180  1  0.16151901  0.35888201  0.24263246  1
  O2-  O181  1  0.17774793  0.39003065  0.50418534  1
  O2-  O182  1  0.09320274  0.34529441  0.72694511  1
  O2-  O183  1  0.06057379  0.88026679  -0.00772939  1
  O2-  O184  1  0.08828634  0.86360386  0.25154120  1
  O2-  O185  1  0.06989208  0.86892383  0.49429480  1
  O2-  O186  1  0.09046546  0.86331653  0.76186321  1
  O2-  O187  1  0.37771360  0.37441029  0.00763490  1
  O2-  O188  1  0.36147037  0.36197081  0.23769360  1
  O2-  O189  1  0.35590598  0.35405902  0.50581131  1
  O2-  O190  1  0.33138022  0.37080861  0.74814251  1
  O2-  O191  1  0.40606921  0.86806133  0.00074785  1
  O2-  O192  1  0.39333541  0.88549611  0.22799910  1
  O2-  O193  1  0.36895376  0.87009426  0.49867162  1
  O2-  O194  1  0.40328865  0.88866276  0.74979412  1
  O2-  O195  1  0.63945731  0.36982354  0.00141733  1
  O2-  O196  1  0.66923892  0.36580375  0.27744162  1
  O2-  O197  1  0.66570552  0.37269872  0.51107072  1
  O2-  O198  1  0.67773080  0.37533822  0.73874034  1
  O2-  O199  1  0.64284253  0.86012274  -0.00389447  1
  O2-  O200  1  0.58934318  0.86274366  0.25190282  1
  O2-  O201  1  0.63710479  0.88793998  0.50188884  1
  O2-  O202  1  0.58475290  0.87572665  0.75299220  1
  O2-  O203  1  0.85727061  0.35452773  0.02783426  1
  O2-  O204  1  0.84810609  0.38561395  0.26570804  1
  O2-  O205  1  0.85461082  0.37200947  0.50302371  1
  O2-  O206  1  0.89660905  0.38238796  0.76693876  1
  O2-  O207  1  0.85695694  0.84454874  0.00488893  1
  O2-  O208  1  0.89251564  0.85495504  0.25551031  1
  O2-  O209  1  0.85110626  0.84087173  0.51018845  1
  O2-  O210  1  0.90272077  0.90143689  0.75739674  1
  O2-  O211  1  -0.00280185  0.13110928  0.02445288  1
  O2-  O212  1  0.01158795  0.11225808  0.18865539  1
  O2-  O213  1  0.01702444  0.10799387  0.47757332  1
  O2-  O214  1  -0.02085980  0.13495654  0.64117407  1
  O2-  O215  1  0.01646534  0.36540150  0.13081137  1
  O2-  O216  1  0.01494191  0.39253120  0.30969394  1
  O2-  O217  1  0.02038697  0.38592172  0.47053382  1
  O2-  O218  1  -0.01826386  0.43438546  0.62255022  1
  O2-  O219  1  0.22447554  -0.12531652  0.02063022  1
  O2-  O220  1  0.23597570  -0.15530604  0.17855758  1
  O2-  O221  1  0.24056395  -0.13768027  0.36786130  1
  O2-  O222  1  0.25250716  -0.14304309  0.84481928  1
  O2-  O223  1  0.22027653  0.65305269  0.00556606  1
  O2-  O224  1  0.26580075  0.45886062  0.11590773  1
  O2-  O225  1  0.24974140  0.64152449  0.63397938  1
  O2-  O226  1  0.25273851  0.66789152  0.82318305  1
  O2-  O227  1  0.50796048  0.12080938  0.16237409  1
  O2-  O228  1  0.50827721  0.12350500  0.37989238  1
  O2-  O229  1  0.49178522  -0.09511261  0.38571299  1
  O2-  O230  1  0.49415042  0.14242360  0.60006183  1
  O2-  O231  1  0.50461228  0.35668854  0.12654614  1
  O2-  O232  1  0.51140192  0.31367277  0.32992084  1
  O2-  O233  1  0.50837516  0.39402502  0.46564701  1
  O2-  O234  1  0.49720227  0.34894825  0.64546435  1
  O2-  O235  1  0.73654631  0.13429946  -0.10882673  1
  O2-  O236  1  0.74185097  -0.15050220  0.14372496  1
  O2-  O237  1  0.84444812  -0.00017250  0.44841409  1
  O2-  O238  1  0.74587624  -0.15826968  0.85708777  1
  O2-  O239  1  0.76225910  0.46940719  -0.09122542  1
  O2-  O240  1  0.74048229  0.66189069  0.13879813  1
  O2-  O241  1  0.75102644  0.62990369  0.35587751  1
  O2-  O242  1  0.73742678  0.65320333  0.87187770  1
