# generated using pymatgen
data_Gd19Ta56(WO20)8
_symmetry_space_group_name_H-M   'P 1'
_cell_length_a   15.51822256
_cell_length_b   15.48760485
_cell_length_c   15.23760109
_cell_angle_alpha   90.08073952
_cell_angle_beta   90.23891936
_cell_angle_gamma   89.98949610
_symmetry_Int_Tables_number   1
_chemical_formula_structural   Gd19Ta56(WO20)8
_chemical_formula_sum   'Gd19 Ta56 W8 O160'
_cell_volume   3662.17102134
_cell_formula_units_Z   1
loop_
 _symmetry_equiv_pos_site_id
 _symmetry_equiv_pos_as_xyz
  1  'x, y, z'
loop_
 _atom_type_symbol
 _atom_type_oxidation_number
  Gd3+  3.0
  Ta5+  5.0
  W6+  6.0
  O2-  -2.0
loop_
 _atom_site_type_symbol
 _atom_site_label
 _atom_site_symmetry_multiplicity
 _atom_site_fract_x
 _atom_site_fract_y
 _atom_site_fract_z
 _atom_site_occupancy
  Gd3+  Gd0  1  0.49069043  0.24596628  0.26825833  1
  Gd3+  Gd1  1  -0.01745355  0.24619564  0.24086829  1
  Gd3+  Gd2  1  0.74658202  0.74305433  -0.00823876  1
  Gd3+  Gd3  1  0.26589393  0.75300382  0.24794800  1
  Gd3+  Gd4  1  0.74744182  0.75410694  0.74791663  1
  Gd3+  Gd5  1  0.75019219  0.74620035  0.25132568  1
  Gd3+  Gd6  1  0.75219469  0.75024678  0.50023061  1
  Gd3+  Gd7  1  0.26771149  0.24857582  0.50880766  1
  Gd3+  Gd8  1  0.77940923  0.23937721  0.78137498  1
  Gd3+  Gd9  1  0.23694214  0.75546964  0.48585526  1
  Gd3+  Gd10  1  0.00174181  0.75389062  0.00774744  1
  Gd3+  Gd11  1  0.71945582  0.25662255  0.21817723  1
  Gd3+  Gd12  1  0.23784371  0.26109112  -0.01978674  1
  Gd3+  Gd13  1  0.25023448  0.75362969  0.75258551  1
  Gd3+  Gd14  1  -0.02092380  0.24802220  0.51451856  1
  Gd3+  Gd15  1  0.52074530  0.23536272  0.52834823  1
  Gd3+  Gd16  1  0.24528135  0.24088109  0.24185861  1
  Gd3+  Gd17  1  0.50187526  0.75454653  0.23972075  1
  Gd3+  Gd18  1  0.50070402  0.75462690  -0.01386086  1
  Ta5+  Ta19  1  0.08139577  0.87039558  0.34936696  1
  Ta5+  Ta20  1  0.63207899  0.89741563  0.11690368  1
  Ta5+  Ta21  1  0.40104702  0.12358075  0.12209356  1
  Ta5+  Ta22  1  0.40527453  0.36564881  0.87206439  1
  Ta5+  Ta23  1  0.64567131  0.12428124  0.37776145  1
  Ta5+  Ta24  1  0.38131630  0.13241090  0.87759989  1
  Ta5+  Ta25  1  0.38044835  0.88704315  0.85741427  1
  Ta5+  Ta26  1  0.87667949  0.87678287  0.14160263  1
  Ta5+  Ta27  1  0.09489324  0.13377376  0.86208165  1
  Ta5+  Ta28  1  0.62530908  0.89247041  0.86636132  1
  Ta5+  Ta29  1  0.83297172  0.37511068  0.62841513  1
  Ta5+  Ta30  1  0.13824644  0.10925626  0.37554967  1
  Ta5+  Ta31  1  0.60181969  0.88060642  0.61955907  1
  Ta5+  Ta32  1  0.11174978  0.87459095  0.61636896  1
  Ta5+  Ta33  1  0.08481366  0.37161183  0.86007684  1
  Ta5+  Ta34  1  0.37064813  0.87928568  0.10784116  1
  Ta5+  Ta35  1  0.13548950  0.88113540  0.11835041  1
  Ta5+  Ta36  1  0.85967539  0.37756281  0.37506711  1
  Ta5+  Ta37  1  0.06437269  0.61993425  0.85497139  1
  Ta5+  Ta38  1  0.62489971  0.89182829  0.37332455  1
  Ta5+  Ta39  1  0.84146630  0.11831641  0.62352251  1
  Ta5+  Ta40  1  0.62635984  0.61395886  0.62175186  1
  Ta5+  Ta41  1  0.88633010  0.61726815  0.64596218  1
  Ta5+  Ta42  1  0.87428244  0.87960730  0.87714030  1
  Ta5+  Ta43  1  0.12540553  0.62037564  0.35815113  1
  Ta5+  Ta44  1  0.89139590  0.61465978  0.86802772  1
  Ta5+  Ta45  1  0.88071276  0.88120466  0.62203844  1
  Ta5+  Ta46  1  0.61699652  0.38224228  0.38902998  1
  Ta5+  Ta47  1  0.37519195  0.10631764  0.62648917  1
  Ta5+  Ta48  1  0.38754103  0.62129559  0.62950531  1
  Ta5+  Ta49  1  0.66430145  0.36765941  0.63789120  1
  Ta5+  Ta50  1  0.63571214  0.58027751  0.12695476  1
  Ta5+  Ta51  1  0.42531999  0.86752098  0.64788547  1
  Ta5+  Ta52  1  0.40953994  0.87353777  0.44084749  1
  Ta5+  Ta53  1  0.10268099  0.38186092  0.11705735  1
  Ta5+  Ta54  1  0.61358312  0.61450353  0.86745643  1
  Ta5+  Ta55  1  0.11930829  0.62418024  0.61739667  1
  Ta5+  Ta56  1  0.40250455  0.37523414  0.12262597  1
  Ta5+  Ta57  1  0.56895692  0.12652966  0.11931128  1
  Ta5+  Ta58  1  0.86301378  0.12184102  0.10271096  1
  Ta5+  Ta59  1  0.13756301  0.62308782  0.11176286  1
  Ta5+  Ta60  1  0.91787562  0.37164004  0.86657319  1
  Ta5+  Ta61  1  0.13714156  0.37736824  0.61503161  1
  Ta5+  Ta62  1  0.87434097  0.61797809  0.13071914  1
  Ta5+  Ta63  1  0.84774912  0.11142859  0.36816241  1
  Ta5+  Ta64  1  0.35154511  0.38866533  0.37289334  1
  Ta5+  Ta65  1  0.92778596  0.11915902  0.86427006  1
  Ta5+  Ta66  1  0.88786725  0.62179827  0.38518706  1
  Ta5+  Ta67  1  0.86073695  0.37254545  0.10367037  1
  Ta5+  Ta68  1  0.12634661  0.11693623  0.61483554  1
  Ta5+  Ta69  1  0.35262359  0.10263327  0.37384593  1
  Ta5+  Ta70  1  0.13798214  0.37685052  0.37492238  1
  Ta5+  Ta71  1  0.10798647  0.12595926  0.11426146  1
  Ta5+  Ta72  1  0.37940311  0.61304473  0.86285450  1
  Ta5+  Ta73  1  0.62266396  0.13491748  0.88477413  1
  Ta5+  Ta74  1  0.67198685  0.11575581  0.63206605  1
  W6+  W75  1  0.39885883  0.37099095  0.61865465  1
  W6+  W76  1  0.62404196  0.62155377  0.37597259  1
  W6+  W77  1  0.38826958  0.61006463  0.11706645  1
  W6+  W78  1  0.89280340  0.88109993  0.37101932  1
  W6+  W79  1  0.56805068  0.39638144  0.12893485  1
  W6+  W80  1  0.65515506  0.37218652  0.89689253  1
  W6+  W81  1  0.10108524  0.88507034  0.86792538  1
  W6+  W82  1  0.38175746  0.63606430  0.38210632  1
  O2-  O83  1  0.12670855  0.00705052  0.12680528  1
  O2-  O84  1  0.11376300  -0.00970491  0.36732152  1
  O2-  O85  1  0.09850329  -0.00345431  0.61797622  1
  O2-  O86  1  0.11582831  0.01548746  0.86199572  1
  O2-  O87  1  0.14154077  0.49549027  0.12128147  1
  O2-  O88  1  0.11705168  0.49875932  0.37188738  1
  O2-  O89  1  0.13753211  0.50230687  0.61376083  1
  O2-  O90  1  0.08708561  0.49848210  0.85707358  1
  O2-  O91  1  0.38166435  -0.00052642  0.11413245  1
  O2-  O92  1  0.36967295  -0.02237722  0.39026623  1
  O2-  O93  1  0.41651519  -0.00566093  0.62172874  1
  O2-  O94  1  0.36616775  0.01072449  0.88163041  1
  O2-  O95  1  0.34815116  0.48136975  0.12805417  1
  O2-  O96  1  0.37231835  0.50244166  0.38458825  1
  O2-  O97  1  0.39357103  0.50342626  0.62133042  1
  O2-  O98  1  0.37365211  0.48830726  0.87396126  1
  O2-  O99  1  0.57493222  -0.00086089  0.14722518  1
  O2-  O100  1  0.58816417  0.00766562  0.36926828  1
  O2-  O101  1  0.62165054  0.00011532  0.63136221  1
  O2-  O102  1  0.63227285  0.01325478  0.85771635  1
  O2-  O103  1  0.51851028  0.54546267  0.12145882  1
  O2-  O104  1  0.57715671  0.49177654  0.37744036  1
  O2-  O105  1  0.63780589  0.49527038  0.64135236  1
  O2-  O106  1  0.63252985  0.49904447  0.86362681  1
  O2-  O107  1  0.87775800  0.00016688  0.13139368  1
  O2-  O108  1  0.92122702  0.01800102  0.36371898  1
  O2-  O109  1  0.89414518  -0.00025425  0.61674311  1
  O2-  O110  1  0.92265659  -0.01235094  0.86780644  1
  O2-  O111  1  0.87488227  0.49618563  0.12472072  1
  O2-  O112  1  0.90249772  0.49020730  0.37169132  1
  O2-  O113  1  0.87262668  0.49847751  0.62987599  1
  O2-  O114  1  0.88538372  0.49598442  0.86765137  1
  O2-  O115  1  0.14750017  0.25519252  0.12711883  1
  O2-  O116  1  0.15369148  0.24547209  0.38095667  1
  O2-  O117  1  0.13451805  0.24438367  0.58566359  1
  O2-  O118  1  0.14439506  0.25585596  0.86111752  1
  O2-  O119  1  0.10679309  0.75357986  0.11740899  1
  O2-  O120  1  0.14496905  0.75853647  0.35991579  1
  O2-  O121  1  0.17286623  0.74657867  0.61915354  1
  O2-  O122  1  0.07368412  0.75068707  0.87416948  1
  O2-  O123  1  0.36946199  0.25058184  0.15872851  1
  O2-  O124  1  0.34299220  0.23787664  0.36349151  1
  O2-  O125  1  0.38500885  0.23453571  0.60673423  1
  O2-  O126  1  0.33220936  0.25348703  0.86583381  1
  O2-  O127  1  0.41596860  0.75007771  0.10536670  1
  O2-  O128  1  0.34674749  0.78062193  0.38469319  1
  O2-  O129  1  0.38362110  0.74912352  0.66507149  1
  O2-  O130  1  0.36350696  0.75075211  0.85865991  1
  O2-  O131  1  0.58900077  0.25542797  0.12500368  1
  O2-  O132  1  0.57261009  0.24651664  0.39242684  1
  O2-  O133  1  0.63255812  0.24357666  0.62814664  1
  O2-  O134  1  0.69119860  0.23972989  0.90378296  1
  O2-  O135  1  0.58352679  0.77930692  0.11008197  1
  O2-  O136  1  0.66965697  0.75553164  0.37427699  1
  O2-  O137  1  0.65612779  0.74961626  0.61536983  1
  O2-  O138  1  0.63134164  0.75087457  0.88917728  1
  O2-  O139  1  0.81690347  0.24673180  0.10387178  1
  O2-  O140  1  0.93176351  0.26622013  0.37602413  1
  O2-  O141  1  0.84871410  0.24675566  0.62534538  1
  O2-  O142  1  0.90216429  0.24383674  0.87515196  1
  O2-  O143  1  0.90510211  0.74744506  0.14330429  1
  O2-  O144  1  0.84976520  0.74293786  0.37445416  1
  O2-  O145  1  0.84275873  0.74315624  0.63085987  1
  O2-  O146  1  0.84475483  0.74325323  0.87402351  1
  O2-  O147  1  0.13554693  0.14373241  -0.00674698  1
  O2-  O148  1  0.08740209  0.14281114  0.25782010  1
  O2-  O149  1  0.07062586  0.12436155  0.48953235  1
  O2-  O150  1  0.08692211  0.14277451  0.72572511  1
  O2-  O151  1  0.08251265  0.62255349  -0.00409383  1
  O2-  O152  1  0.24718594  0.63250068  0.34020178  1
  O2-  O153  1  0.14806745  0.63402054  0.49181337  1
  O2-  O154  1  0.14287703  0.63822372  0.74266764  1
  O2-  O155  1  0.35212280  0.15100632  0.00303447  1
  O2-  O156  1  0.41862555  0.11074719  0.26579568  1
  O2-  O157  1  0.41146735  0.12383956  0.48796369  1
  O2-  O158  1  0.38513483  0.12398274  0.74658584  1
  O2-  O159  1  0.41229855  0.62839472  -0.01742986  1
  O2-  O160  1  0.39196217  0.65870424  0.24623172  1
  O2-  O161  1  0.33649706  0.64563298  0.51995967  1
  O2-  O162  1  0.32269211  0.61586455  0.74211496  1
  O2-  O163  1  0.62035023  0.11044158  0.00657268  1
  O2-  O164  1  0.61516897  0.14616410  0.25159447  1
  O2-  O165  1  0.63613692  0.12792609  0.50240942  1
  O2-  O166  1  0.66642948  0.14175452  0.75984589  1
  O2-  O167  1  0.62998979  0.62549785  0.00138114  1
  O2-  O168  1  0.61893723  0.64939006  0.23207904  1
  O2-  O169  1  0.67098529  0.61459871  0.50570592  1
  O2-  O170  1  0.64654392  0.64210853  0.74709414  1
  O2-  O171  1  0.86954230  0.11188490  -0.01733440  1
  O2-  O172  1  0.86314469  0.15058944  0.24417526  1
  O2-  O173  1  0.86951433  0.14257250  0.48981468  1
  O2-  O174  1  0.88127597  0.12100605  0.74664275  1
  O2-  O175  1  0.88465107  0.63731985  0.00223260  1
  O2-  O176  1  0.84678924  0.61876052  0.26125642  1
  O2-  O177  1  0.85455516  0.62281885  0.50575888  1
  O2-  O178  1  0.97260231  0.63192554  0.76277216  1
  O2-  O179  1  0.11605662  0.36714456  -0.00683905  1
  O2-  O180  1  0.08007619  0.36000346  0.25918809  1
  O2-  O181  1  0.07461611  0.36894544  0.49306725  1
  O2-  O182  1  0.08635123  0.36360121  0.72333000  1
  O2-  O183  1  0.07641309  0.88269932  0.00539608  1
  O2-  O184  1  0.17070291  0.87150523  0.24222094  1
  O2-  O185  1  0.15915353  0.87605771  0.50211251  1
  O2-  O186  1  0.14900735  0.86627827  0.73620533  1
  O2-  O187  1  0.36462583  0.34815702  0.00283819  1
  O2-  O188  1  0.41681517  0.37439429  0.26382024  1
  O2-  O189  1  0.41415248  0.34860433  0.47649134  1
  O2-  O190  1  0.40636848  0.36190366  0.75143827  1
  O2-  O191  1  0.41073728  0.87016615  -0.01354633  1
  O2-  O192  1  0.37707531  0.85353880  0.23021857  1
  O2-  O193  1  0.33460361  0.86214565  0.53959829  1
  O2-  O194  1  0.32772386  0.88912095  0.74275895  1
  O2-  O195  1  0.63416205  0.40159973  0.01615591  1
  O2-  O196  1  0.60763667  0.34874383  0.26405938  1
  O2-  O197  1  0.60581775  0.36661127  0.51324339  1
  O2-  O198  1  0.67945702  0.35138674  0.76425666  1
  O2-  O199  1  0.59981631  0.89540348  -0.00669753  1
  O2-  O200  1  0.64439151  0.86541110  0.24779567  1
  O2-  O201  1  0.65740246  0.88003927  0.49346169  1
  O2-  O202  1  0.64158026  0.86207431  0.74096559  1
  O2-  O203  1  0.85900811  0.37513204  -0.01605604  1
  O2-  O204  1  0.84667703  0.34942407  0.24601116  1
  O2-  O205  1  0.87529297  0.36191930  0.50034086  1
  O2-  O206  1  0.87518572  0.36224200  0.74729663  1
  O2-  O207  1  0.89199665  0.86036994  0.00626817  1
  O2-  O208  1  0.81894178  0.87589531  0.25344980  1
  O2-  O209  1  0.83609889  0.87246755  0.50580072  1
  O2-  O210  1  0.84708562  0.87286364  0.74574470  1
  O2-  O211  1  -0.01407701  0.15410531  0.11296551  1
  O2-  O212  1  -0.00779543  -0.12818897  0.26377570  1
  O2-  O213  1  0.00494619  -0.15413182  0.44004375  1
  O2-  O214  1  -0.00309804  -0.16295741  0.62350864  1
  O2-  O215  1  -0.01879159  0.34212811  0.11974287  1
  O2-  O216  1  0.09699569  0.62275248  0.23308353  1
  O2-  O217  1  0.00383264  0.64563446  0.38665913  1
  O2-  O218  1  0.00308298  0.64153776  0.60162366  1
  O2-  O219  1  0.25165640  -0.13847735  0.08355041  1
  O2-  O220  1  0.24579186  0.10145851  0.29573079  1
  O2-  O221  1  0.24116331  0.11038040  0.45585151  1
  O2-  O222  1  0.24866865  0.10753417  0.62668810  1
  O2-  O223  1  0.25324080  0.65583140  0.12797606  1
  O2-  O224  1  0.24408948  0.37847451  0.29395677  1
  O2-  O225  1  0.24276016  0.38313773  0.45503374  1
  O2-  O226  1  0.25428676  0.35753994  0.62930125  1
  O2-  O227  1  0.50289895  0.15644169  -0.12279527  1
  O2-  O228  1  0.50906966  -0.14864995  0.36155128  1
  O2-  O229  1  0.49795762  -0.15295578  0.53641536  1
  O2-  O230  1  0.50017516  -0.12343190  0.84228534  1
  O2-  O231  1  0.51966948  0.35085003  -0.10795621  1
  O2-  O232  1  0.50533220  0.67800991  0.37857243  1
  O2-  O233  1  0.50838607  0.63817620  0.61185663  1
  O2-  O234  1  0.49534080  0.62620843  0.82507441  1
  O2-  O235  1  0.75292207  -0.15123167  0.09891901  1
  O2-  O236  1  0.74683729  0.04316924  0.36716389  1
  O2-  O237  1  0.74453331  0.20837903  0.35978742  1
  O2-  O238  1  0.74861737  -0.12159723  0.89830391  1
  O2-  O239  1  0.74959417  0.65854077  0.11952656  1
  O2-  O240  1  0.68607544  0.48207832  0.16734858  1
  O2-  O241  1  0.73939418  0.39382044  0.38545418  1
  O2-  O242  1  0.81546224  0.61997811  0.75061012  1
