# generated using pymatgen
data_Gd19Ta56(WO20)8
_symmetry_space_group_name_H-M   'P 1'
_cell_length_a   15.54196141
_cell_length_b   15.45905157
_cell_length_c   15.38148005
_cell_angle_alpha   90.14480081
_cell_angle_beta   89.85456962
_cell_angle_gamma   89.46989922
_symmetry_Int_Tables_number   1
_chemical_formula_structural   Gd19Ta56(WO20)8
_chemical_formula_sum   'Gd19 Ta56 W8 O160'
_cell_volume   3695.43356447
_cell_formula_units_Z   1
loop_
 _symmetry_equiv_pos_site_id
 _symmetry_equiv_pos_as_xyz
  1  'x, y, z'
loop_
 _atom_type_symbol
 _atom_type_oxidation_number
  Gd3+  3.0
  Ta5+  5.0
  W6+  6.0
  O2-  -2.0
loop_
 _atom_site_type_symbol
 _atom_site_label
 _atom_site_symmetry_multiplicity
 _atom_site_fract_x
 _atom_site_fract_y
 _atom_site_fract_z
 _atom_site_occupancy
  Gd3+  Gd0  1  0.50151750  0.22953270  0.24474800  1
  Gd3+  Gd1  1  0.73683557  0.76279489  0.00245046  1
  Gd3+  Gd2  1  0.47350341  0.72654221  0.50123567  1
  Gd3+  Gd3  1  0.00970972  0.78990404  0.76650289  1
  Gd3+  Gd4  1  -0.00245460  0.27198475  0.23981038  1
  Gd3+  Gd5  1  0.00339555  0.25893981  0.48192756  1
  Gd3+  Gd6  1  0.51480343  0.24568709  -0.00631398  1
  Gd3+  Gd7  1  0.76057584  0.75698632  0.75611715  1
  Gd3+  Gd8  1  -0.04889357  0.76122830  0.21692009  1
  Gd3+  Gd9  1  0.24716289  0.24046809  0.75299512  1
  Gd3+  Gd10  1  0.47939262  0.23712321  0.51025022  1
  Gd3+  Gd11  1  0.20397350  0.74751668  0.50070337  1
  Gd3+  Gd12  1  0.51023264  0.74599789  0.24171912  1
  Gd3+  Gd13  1  0.50258546  0.73804161  0.74369539  1
  Gd3+  Gd14  1  0.27670159  0.74399749  0.28461544  1
  Gd3+  Gd15  1  0.78252500  0.25918435  0.54611556  1
  Gd3+  Gd16  1  0.26724864  0.72674441  0.73271761  1
  Gd3+  Gd17  1  0.24583440  0.23891511  0.50416404  1
  Gd3+  Gd18  1  0.22073369  0.24331098  0.00580081  1
  Ta5+  Ta19  1  0.36701275  0.87496153  0.63135177  1
  Ta5+  Ta20  1  0.87843257  0.63544438  0.37702622  1
  Ta5+  Ta21  1  0.59732228  0.38227103  0.63217196  1
  Ta5+  Ta22  1  0.12351856  0.12616545  0.35920422  1
  Ta5+  Ta23  1  0.38573795  0.61100294  0.13971280  1
  Ta5+  Ta24  1  0.36527876  0.10868191  0.36752478  1
  Ta5+  Ta25  1  0.81336111  0.62658263  0.13346482  1
  Ta5+  Ta26  1  0.59694701  0.89104198  0.12628758  1
  Ta5+  Ta27  1  0.07866613  0.12917065  0.10926125  1
  Ta5+  Ta28  1  0.12773781  0.39144247  0.11878007  1
  Ta5+  Ta29  1  0.62550945  0.12847861  0.63736656  1
  Ta5+  Ta30  1  0.60753542  0.88369236  0.87577680  1
  Ta5+  Ta31  1  0.05639257  0.94565831  0.96782816  1
  Ta5+  Ta32  1  0.12778311  0.59086368  0.65697655  1
  Ta5+  Ta33  1  0.40852787  0.54684997  0.63874127  1
  Ta5+  Ta34  1  0.37557924  0.11320972  0.64089374  1
  Ta5+  Ta35  1  0.39356386  0.61463508  0.89225306  1
  Ta5+  Ta36  1  0.37320649  0.36404255  0.11754286  1
  Ta5+  Ta37  1  0.38269374  0.38091108  0.63659084  1
  Ta5+  Ta38  1  0.63577694  0.37136324  0.13559807  1
  Ta5+  Ta39  1  0.91078350  0.13062044  0.10818218  1
  Ta5+  Ta40  1  0.87910977  0.12529603  0.36603830  1
  Ta5+  Ta41  1  0.93327548  0.63711010  0.61350064  1
  Ta5+  Ta42  1  0.86731216  0.90695031  0.89828326  1
  Ta5+  Ta43  1  0.33580048  0.37589663  0.88264726  1
  Ta5+  Ta44  1  0.36523803  0.86416272  0.88677619  1
  Ta5+  Ta45  1  0.11285972  0.63056357  0.86206128  1
  Ta5+  Ta46  1  0.88318465  0.62333754  0.89343867  1
  Ta5+  Ta47  1  0.62179218  0.87658949  0.38448403  1
  Ta5+  Ta48  1  0.63735222  0.35816514  0.87472161  1
  Ta5+  Ta49  1  0.64842780  0.62316116  0.62024675  1
  Ta5+  Ta50  1  0.64269213  0.09744254  0.12650084  1
  Ta5+  Ta51  1  0.07455131  0.14688912  0.86558024  1
  Ta5+  Ta52  1  0.11403364  0.87987874  0.34425464  1
  Ta5+  Ta53  1  0.36004185  0.11243712  0.89982241  1
  Ta5+  Ta54  1  0.61510327  0.88067469  0.62476304  1
  Ta5+  Ta55  1  0.93652314  0.11593048  0.62246612  1
  Ta5+  Ta56  1  0.64821470  0.12162126  0.38422474  1
  Ta5+  Ta57  1  0.64109779  0.61054729  0.87638435  1
  Ta5+  Ta58  1  0.05998498  0.95048715  0.56782958  1
  Ta5+  Ta59  1  0.15075538  0.38406800  0.36905078  1
  Ta5+  Ta60  1  0.85913888  0.89595977  0.63071649  1
  Ta5+  Ta61  1  0.12041652  0.60699449  0.34417404  1
  Ta5+  Ta62  1  0.36270057  0.36832851  0.37056954  1
  Ta5+  Ta63  1  0.40080588  0.92355121  0.38732890  1
  Ta5+  Ta64  1  0.34115572  0.57237015  0.39898742  1
  Ta5+  Ta65  1  0.10594990  0.12454262  0.62930348  1
  Ta5+  Ta66  1  0.64007226  0.61882571  0.38161156  1
  Ta5+  Ta67  1  0.10176897  0.36917661  0.63022697  1
  Ta5+  Ta68  1  0.90907034  0.12748992  0.86474938  1
  Ta5+  Ta69  1  0.14601455  0.63809456  0.10534093  1
  Ta5+  Ta70  1  0.86252034  0.38749915  0.36818418  1
  Ta5+  Ta71  1  0.16420802  0.39406004  0.87076067  1
  Ta5+  Ta72  1  0.85152238  0.87785722  0.38318159  1
  Ta5+  Ta73  1  0.81966145  0.91017696  0.12869607  1
  Ta5+  Ta74  1  0.64595343  0.62169932  0.13211175  1
  W6+  W75  1  0.35582538  0.87309135  0.13658225  1
  W6+  W76  1  0.70484587  0.11743628  0.87845137  1
  W6+  W77  1  0.11220340  0.87339436  0.13129982  1
  W6+  W78  1  0.87037651  0.38457537  0.11341288  1
  W6+  W79  1  0.93801165  0.38013722  0.63052112  1
  W6+  W80  1  0.94540598  0.37424345  0.88192931  1
  W6+  W81  1  0.36522865  0.10674652  0.11066468  1
  W6+  W82  1  0.61991586  0.36700875  0.39084107  1
  O2-  O83  1  0.09664038  0.00369211  0.08348785  1
  O2-  O84  1  0.11571013  0.00187409  0.36505857  1
  O2-  O85  1  0.16284024  0.01086766  0.58410116  1
  O2-  O86  1  0.10114373  0.02497569  0.88559042  1
  O2-  O87  1  0.12997433  0.51766439  0.10722585  1
  O2-  O88  1  0.09246848  0.49609117  0.38888591  1
  O2-  O89  1  0.12316871  0.48893414  0.59377321  1
  O2-  O90  1  0.10926475  0.51044245  0.87837414  1
  O2-  O91  1  0.31467597  -0.01098427  0.13563001  1
  O2-  O92  1  0.47095295  0.02318568  0.39132142  1
  O2-  O93  1  0.34465386  -0.00494838  0.62534347  1
  O2-  O94  1  0.36598248  -0.01568629  0.88295008  1
  O2-  O95  1  0.37410163  0.49089972  0.13277641  1
  O2-  O96  1  0.42485197  0.47773629  0.38860089  1
  O2-  O97  1  0.30404055  0.48681018  0.62598152  1
  O2-  O98  1  0.35361203  0.50281459  0.87802452  1
  O2-  O99  1  0.55265125  0.01309554  0.12212627  1
  O2-  O100  1  0.64967134  -0.00164498  0.40082796  1
  O2-  O101  1  0.63446512  -0.00092518  0.62117837  1
  O2-  O102  1  0.63545683  -0.00335984  0.86185692  1
  O2-  O103  1  0.63453212  0.49154061  0.13780254  1
  O2-  O104  1  0.64034123  0.50160728  0.38040631  1
  O2-  O105  1  0.64059236  0.50207597  0.62529507  1
  O2-  O106  1  0.63782832  0.49052153  0.87692601  1
  O2-  O107  1  0.88655455  0.00596000  0.13581157  1
  O2-  O108  1  0.86454282  0.00166414  0.37387134  1
  O2-  O109  1  0.84482980  0.01124889  0.61972341  1
  O2-  O110  1  0.82023382  0.01873872  0.87251124  1
  O2-  O111  1  0.83270448  0.51012320  0.13086952  1
  O2-  O112  1  0.86920633  0.51351209  0.38233935  1
  O2-  O113  1  0.92119867  0.52181962  0.63034650  1
  O2-  O114  1  0.91112976  0.51013227  0.88220634  1
  O2-  O115  1  0.10190126  0.26313195  0.12718856  1
  O2-  O116  1  0.08978523  0.26013239  0.35750510  1
  O2-  O117  1  0.16003049  0.25032082  0.62925993  1
  O2-  O118  1  0.15551261  0.26080810  0.86857038  1
  O2-  O119  1  0.07726682  0.73468530  0.14307592  1
  O2-  O120  1  0.13967868  0.74659145  0.36011753  1
  O2-  O121  1  0.22011201  0.65644267  0.61033889  1
  O2-  O122  1  -0.01204857  0.89936017  0.85612377  1
  O2-  O123  1  0.42325780  0.24186760  0.11558687  1
  O2-  O124  1  0.41159711  0.23590949  0.37422859  1
  O2-  O125  1  0.36012432  0.24092383  0.63121111  1
  O2-  O126  1  0.34012656  0.24138167  0.89575730  1
  O2-  O127  1  0.34973018  0.73504248  0.15867042  1
  O2-  O128  1  0.34308920  0.71488183  0.41805345  1
  O2-  O129  1  0.40363860  0.74505114  0.63287952  1
  O2-  O130  1  0.34436756  0.72823621  0.86291884  1
  O2-  O131  1  0.60056881  0.22205542  0.12158585  1
  O2-  O132  1  0.58246826  0.22886446  0.40202798  1
  O2-  O133  1  0.58201000  0.24770549  0.62979754  1
  O2-  O134  1  0.62802373  0.23376536  0.88844833  1
  O2-  O135  1  0.64229587  0.76652716  0.13212247  1
  O2-  O136  1  0.56935374  0.74966165  0.38135684  1
  O2-  O137  1  0.58574517  0.74133796  0.61897381  1
  O2-  O138  1  0.65734312  0.75729508  0.87856887  1
  O2-  O139  1  0.90431522  0.25459600  0.12347836  1
  O2-  O140  1  0.90908419  0.25999862  0.36451290  1
  O2-  O141  1  0.91486648  0.24441634  0.61992852  1
  O2-  O142  1  0.97326317  0.24115048  0.87714555  1
  O2-  O143  1  0.84356022  0.77420062  0.11427007  1
  O2-  O144  1  0.91103480  0.77022495  0.36373980  1
  O2-  O145  1  0.89534150  0.72867070  0.69101991  1
  O2-  O146  1  0.84241825  0.77738448  0.88897896  1
  O2-  O147  1  0.10260742  0.16249605  -0.01025466  1
  O2-  O148  1  0.10134654  0.12533035  0.23803540  1
  O2-  O149  1  0.11463692  0.15572745  0.49039765  1
  O2-  O150  1  0.13478550  0.14178801  0.75224144  1
  O2-  O151  1  0.15224877  0.65390188  -0.02144033  1
  O2-  O152  1  0.18134270  0.62712438  0.23617954  1
  O2-  O153  1  0.21682392  0.61180683  0.42822221  1
  O2-  O154  1  0.14243964  0.74974455  0.80760693  1
  O2-  O155  1  0.45080640  0.11527756  -0.01721360  1
  O2-  O156  1  0.39855116  0.11595951  0.24813009  1
  O2-  O157  1  0.36617905  0.13110766  0.50493927  1
  O2-  O158  1  0.34760781  0.12168409  0.76423224  1
  O2-  O159  1  0.37674732  0.62602939  0.01211558  1
  O2-  O160  1  0.36558625  0.60923894  0.28041826  1
  O2-  O161  1  0.39922820  0.59082616  0.51686555  1
  O2-  O162  1  0.40222320  0.61434129  0.74834071  1
  O2-  O163  1  0.68378062  0.10188686  0.01535616  1
  O2-  O164  1  0.61424032  0.11755559  0.26341875  1
  O2-  O165  1  0.68258252  0.14410326  0.52369392  1
  O2-  O166  1  0.68618255  0.13413354  0.73776474  1
  O2-  O167  1  0.65211215  0.62763662  -0.00128659  1
  O2-  O168  1  0.61818614  0.64008218  0.26155279  1
  O2-  O169  1  0.59360484  0.62760356  0.50179794  1
  O2-  O170  1  0.61876831  0.63870773  0.74541001  1
  O2-  O171  1  0.88075918  0.12907694  -0.00860037  1
  O2-  O172  1  0.91753889  0.13353668  0.25024040  1
  O2-  O173  1  0.87926000  0.15282202  0.49325416  1
  O2-  O174  1  0.89707901  0.12530713  0.74215382  1
  O2-  O175  1  0.84182253  0.64113403  0.00547190  1
  O2-  O176  1  0.85011159  0.65431262  0.25340937  1
  O2-  O177  1  0.89258012  0.65809138  0.50066055  1
  O2-  O178  1  0.76709470  0.62536008  0.83771041  1
  O2-  O179  1  0.13383370  0.37419208  -0.00528889  1
  O2-  O180  1  0.11839350  0.39243373  0.24879561  1
  O2-  O181  1  0.13487018  0.34952798  0.49620135  1
  O2-  O182  1  0.15478772  0.38420182  0.74135357  1
  O2-  O183  1  0.13322206  0.85760999  -0.00560306  1
  O2-  O184  1  0.20171420  0.87059907  0.25716509  1
  O2-  O185  1  0.10243083  0.86404148  0.47756521  1
  O2-  O186  1  -0.01268944  0.86707992  0.63766445  1
  O2-  O187  1  0.41133304  0.36578744  -0.00236783  1
  O2-  O188  1  0.39239941  0.35214845  0.24920199  1
  O2-  O189  1  0.34852580  0.34634249  0.49991594  1
  O2-  O190  1  0.35517291  0.35577522  0.75704785  1
  O2-  O191  1  0.34468175  0.84816415  0.00252290  1
  O2-  O192  1  0.39513622  0.85058168  0.28629740  1
  O2-  O193  1  0.40218764  0.86939947  0.49940999  1
  O2-  O194  1  0.33989306  0.85880916  0.75623343  1
  O2-  O195  1  0.61199848  0.36320740  0.00859613  1
  O2-  O196  1  0.58554364  0.35103066  0.25146857  1
  O2-  O197  1  0.66951034  0.35524766  0.52939950  1
  O2-  O198  1  0.63480892  0.36010892  0.75046692  1
  O2-  O199  1  0.60701664  0.88055607  0.00099264  1
  O2-  O200  1  0.58873543  0.88237016  0.26498669  1
  O2-  O201  1  0.57845227  0.86777236  0.50247020  1
  O2-  O202  1  0.63210821  0.84805871  0.75032718  1
  O2-  O203  1  0.93682816  0.38396691  0.00487900  1
  O2-  O204  1  0.90917293  0.39113605  0.25266894  1
  O2-  O205  1  0.87948187  0.36575152  0.49463524  1
  O2-  O206  1  0.96261558  0.37956831  0.76245184  1
  O2-  O207  1  0.78093441  0.90112495  0.00219584  1
  O2-  O208  1  0.83779065  0.87551880  0.24897397  1
  O2-  O209  1  0.87211440  0.86870530  0.50533006  1
  O2-  O210  1  0.84589487  0.88183217  0.75848441  1
  O2-  O211  1  -0.06132726  -0.08831814  0.00593892  1
  O2-  O212  1  0.02973991  -0.12229833  0.25748666  1
  O2-  O213  1  -0.01446261  0.02418823  0.51271210  1
  O2-  O214  1  0.02507150  0.02702634  0.67519250  1
  O2-  O215  1  -0.00566242  0.68119658  -0.11275129  1
  O2-  O216  1  0.00196418  0.63649218  0.33453347  1
  O2-  O217  1  0.05065357  0.65909576  0.57440896  1
  O2-  O218  1  0.03496638  0.62646219  0.73593848  1
  O2-  O219  1  0.28156768  0.10773205  -0.00544607  1
  O2-  O220  1  0.24519234  0.14317752  0.36755245  1
  O2-  O221  1  0.30262450  -0.01095235  0.38609006  1
  O2-  O222  1  0.25440487  -0.17007725  0.61014121  1
  O2-  O223  1  0.25164195  0.36030722  0.12483672  1
  O2-  O224  1  0.25125548  0.30757614  0.36446192  1
  O2-  O225  1  0.26583586  0.46664175  0.36931904  1
  O2-  O226  1  0.19854426  0.59725716  0.76587406  1
  O2-  O227  1  0.48860754  -0.15866581  -0.13784557  1
  O2-  O228  1  0.48580140  -0.16012088  0.12878701  1
  O2-  O229  1  0.49771161  0.10595380  0.63598646  1
  O2-  O230  1  0.49367893  -0.11484639  0.66335385  1
  O2-  O231  1  0.51478561  0.63807617  -0.11881948  1
  O2-  O232  1  0.50410782  0.63319789  0.13964678  1
  O2-  O233  1  0.49447166  0.37356061  0.55739027  1
  O2-  O234  1  0.48730702  0.46032736  0.69051446  1
  O2-  O235  1  0.70746509  -0.03322740  0.15276132  1
  O2-  O236  1  0.75877026  0.15612574  0.35553818  1
  O2-  O237  1  0.73527533  -0.16168224  0.39220723  1
  O2-  O238  1  0.74147033  -0.15485664  0.62160390  1
  O2-  O239  1  0.74848367  0.34264570  0.15189978  1
  O2-  O240  1  0.75025652  0.35917698  0.35824009  1
  O2-  O241  1  0.75267974  0.65410185  0.39797036  1
  O2-  O242  1  0.76259650  0.64878227  0.62911325  1
