# generated using pymatgen
data_Gd19Ta56(WO20)8
_symmetry_space_group_name_H-M   'P 1'
_cell_length_a   15.53831780
_cell_length_b   15.48130758
_cell_length_c   15.23916985
_cell_angle_alpha   89.87142251
_cell_angle_beta   89.83992940
_cell_angle_gamma   89.97516639
_symmetry_Int_Tables_number   1
_chemical_formula_structural   Gd19Ta56(WO20)8
_chemical_formula_sum   'Gd19 Ta56 W8 O160'
_cell_volume   3665.81142311
_cell_formula_units_Z   1
loop_
 _symmetry_equiv_pos_site_id
 _symmetry_equiv_pos_as_xyz
  1  'x, y, z'
loop_
 _atom_type_symbol
 _atom_type_oxidation_number
  Gd3+  3.0
  Ta5+  5.0
  W6+  6.0
  O2-  -2.0
loop_
 _atom_site_type_symbol
 _atom_site_label
 _atom_site_symmetry_multiplicity
 _atom_site_fract_x
 _atom_site_fract_y
 _atom_site_fract_z
 _atom_site_occupancy
  Gd3+  Gd0  1  0.22552002  0.72431704  0.22441728  1
  Gd3+  Gd1  1  0.75326385  0.28570507  0.75501041  1
  Gd3+  Gd2  1  0.48355346  0.22344141  0.49072342  1
  Gd3+  Gd3  1  0.25011167  0.23880401  0.25494808  1
  Gd3+  Gd4  1  0.52401912  0.73906379  -0.02036504  1
  Gd3+  Gd5  1  0.02055783  0.29645080  0.75041212  1
  Gd3+  Gd6  1  0.02968111  0.26235665  0.46883535  1
  Gd3+  Gd7  1  0.75131598  0.25275241  0.23894086  1
  Gd3+  Gd8  1  0.24922296  0.22945976  0.48234122  1
  Gd3+  Gd9  1  0.71228026  0.23885183  0.49598750  1
  Gd3+  Gd10  1  0.26382595  0.73552387  0.75676930  1
  Gd3+  Gd11  1  0.26042913  0.74983076  -0.01696762  1
  Gd3+  Gd12  1  0.74759855  0.75874737  0.76598727  1
  Gd3+  Gd13  1  0.00545196  0.75231758  0.01667965  1
  Gd3+  Gd14  1  0.50007578  0.74490239  0.48139759  1
  Gd3+  Gd15  1  0.02746213  0.32165383  -0.02222565  1
  Gd3+  Gd16  1  0.02065750  0.74125310  0.75952657  1
  Gd3+  Gd17  1  0.00516399  0.25960074  0.21886163  1
  Gd3+  Gd18  1  -0.00496582  0.72508087  0.51083281  1
  Ta5+  Ta19  1  0.87052296  0.59020380  0.65639813  1
  Ta5+  Ta20  1  0.39334174  0.60164954  0.86974384  1
  Ta5+  Ta21  1  0.86685139  0.38005842  0.36777055  1
  Ta5+  Ta22  1  0.36332739  0.13460191  0.86639328  1
  Ta5+  Ta23  1  0.58175197  0.36352845  0.13402093  1
  Ta5+  Ta24  1  0.38630296  0.60920365  0.12758888  1
  Ta5+  Ta25  1  0.64746375  0.86746140  0.37230587  1
  Ta5+  Ta26  1  0.88311278  0.13088105  0.87688696  1
  Ta5+  Ta27  1  0.36399601  0.87581550  0.12423773  1
  Ta5+  Ta28  1  0.87481490  0.62191912  0.15112430  1
  Ta5+  Ta29  1  0.87244043  0.86562150  0.14256972  1
  Ta5+  Ta30  1  0.35372385  0.62020103  0.37427905  1
  Ta5+  Ta31  1  0.14677388  0.90531975  0.87263390  1
  Ta5+  Ta32  1  0.34560825  0.10704105  0.62283097  1
  Ta5+  Ta33  1  0.88360163  0.88356732  0.39390073  1
  Ta5+  Ta34  1  0.38268915  0.12292287  0.11563959  1
  Ta5+  Ta35  1  0.59611770  0.39957548  0.63866737  1
  Ta5+  Ta36  1  0.09837340  0.13589319  0.63466898  1
  Ta5+  Ta37  1  0.83610147  0.39121113  0.57165608  1
  Ta5+  Ta38  1  0.12613917  0.87992086  0.11978917  1
  Ta5+  Ta39  1  0.19468408  0.15968591  0.86670058  1
  Ta5+  Ta40  1  0.64040644  0.60343934  0.87818789  1
  Ta5+  Ta41  1  0.35577471  0.85971181  0.61960895  1
  Ta5+  Ta42  1  0.61858142  0.87454866  0.62856025  1
  Ta5+  Ta43  1  0.86369133  0.14655111  0.62410152  1
  Ta5+  Ta44  1  0.39729514  0.88397599  0.86876515  1
  Ta5+  Ta45  1  0.12007415  0.60375486  0.37404795  1
  Ta5+  Ta46  1  0.59468645  0.37748233  0.33422047  1
  Ta5+  Ta47  1  0.15167329  0.85777523  0.37630987  1
  Ta5+  Ta48  1  0.63259411  0.08024842  0.63771882  1
  Ta5+  Ta49  1  0.88082345  0.09976340  0.10100699  1
  Ta5+  Ta50  1  0.58871720  0.36140860  0.88569243  1
  Ta5+  Ta51  1  0.34311557  0.36736706  0.11176581  1
  Ta5+  Ta52  1  0.62073521  0.11264303  0.13494988  1
  Ta5+  Ta53  1  0.12090740  0.89706075  0.62571265  1
  Ta5+  Ta54  1  0.11659191  0.10179895  0.36168022  1
  Ta5+  Ta55  1  0.33045671  0.59356464  0.61751217  1
  Ta5+  Ta56  1  0.17266050  0.38217385  0.61472099  1
  Ta5+  Ta57  1  0.38743587  0.35027409  0.87589825  1
  Ta5+  Ta58  1  0.17642370  0.37857824  0.10484978  1
  Ta5+  Ta59  1  0.22046995  0.34075958  0.85570497  1
  Ta5+  Ta60  1  0.60568427  0.86430089  0.14247170  1
  Ta5+  Ta61  1  0.11802253  0.40731786  0.35621635  1
  Ta5+  Ta62  1  0.60084310  0.63488368  0.63649180  1
  Ta5+  Ta63  1  0.88014615  0.63617258  0.89260385  1
  Ta5+  Ta64  1  0.37205024  0.09337675  0.35978453  1
  Ta5+  Ta65  1  0.61274071  0.60697220  0.13857416  1
  Ta5+  Ta66  1  0.37426592  0.38105745  0.36989794  1
  Ta5+  Ta67  1  0.64547640  0.88477142  0.88844710  1
  Ta5+  Ta68  1  0.33994138  0.36818085  0.62896524  1
  Ta5+  Ta69  1  0.11333162  0.57716421  0.62814252  1
  Ta5+  Ta70  1  0.83150895  0.91296735  0.63428133  1
  Ta5+  Ta71  1  0.85183954  0.46286737  0.85322978  1
  Ta5+  Ta72  1  0.88281143  0.43116916  0.10916947  1
  Ta5+  Ta73  1  0.14579998  0.58342570  0.87703152  1
  Ta5+  Ta74  1  0.12732508  0.12826927  0.09583146  1
  W6+  W75  1  0.32054905  0.84874985  0.37690839  1
  W6+  W76  1  0.88468784  0.12163957  0.40675445  1
  W6+  W77  1  0.64465398  0.61731073  0.37924702  1
  W6+  W78  1  0.07788326  0.60433688  0.12024958  1
  W6+  W79  1  0.62591094  0.10641265  0.36791822  1
  W6+  W80  1  0.84972378  0.62839063  0.40372674  1
  W6+  W81  1  0.89945544  0.89178033  0.88360502  1
  W6+  W82  1  0.61721962  0.13311636  0.88490227  1
  O2-  O83  1  0.12785622  0.00071977  0.11792689  1
  O2-  O84  1  0.11625639  -0.01639631  0.35681260  1
  O2-  O85  1  0.07824871  0.01191848  0.62260387  1
  O2-  O86  1  0.16694871  0.02018719  0.87763244  1
  O2-  O87  1  0.15483964  0.49787372  0.10602867  1
  O2-  O88  1  0.04090872  0.50534837  0.36279319  1
  O2-  O89  1  0.22651473  0.50732239  0.59912498  1
  O2-  O90  1  0.16020333  0.46907829  0.85942468  1
  O2-  O91  1  0.36599203  -0.00566211  0.11275777  1
  O2-  O92  1  0.37130955  -0.02258431  0.36472657  1
  O2-  O93  1  0.33741840  -0.01481495  0.60875143  1
  O2-  O94  1  0.38867533  0.00134596  0.88528798  1
  O2-  O95  1  0.35656501  0.49670851  0.10561261  1
  O2-  O96  1  0.39645850  0.50222816  0.37143918  1
  O2-  O97  1  0.38965654  0.48612742  0.61915297  1
  O2-  O98  1  0.39571166  0.48321886  0.88107971  1
  O2-  O99  1  0.62085791  -0.01358008  0.13552941  1
  O2-  O100  1  0.59312026  -0.02889162  0.35565789  1
  O2-  O101  1  0.55046216  -0.02133156  0.62990257  1
  O2-  O102  1  0.63301732  0.00152585  0.89216962  1
  O2-  O103  1  0.60061453  0.48725901  0.11888937  1
  O2-  O104  1  0.62245493  0.48021742  0.38445142  1
  O2-  O105  1  0.56323550  0.51682695  0.64365804  1
  O2-  O106  1  0.61496403  0.48165888  0.87607218  1
  O2-  O107  1  0.83930424  -0.00697589  0.13719533  1
  O2-  O108  1  0.93156145  -0.00700780  0.41179809  1
  O2-  O109  1  0.87634700  0.02683667  0.65323009  1
  O2-  O110  1  0.93184979  0.02360649  0.86688960  1
  O2-  O111  1  0.96868108  0.51644333  0.13410237  1
  O2-  O112  1  0.84659283  0.49495694  0.38604178  1
  O2-  O113  1  0.90558126  0.48584150  0.59661139  1
  O2-  O114  1  0.95448282  0.54344140  0.85393663  1
  O2-  O115  1  0.10326141  0.25848400  0.09767170  1
  O2-  O116  1  0.15382675  0.26742405  0.37206738  1
  O2-  O117  1  0.09354525  0.26497056  0.60798351  1
  O2-  O118  1  0.10856256  0.26133685  0.86649724  1
  O2-  O119  1  0.24416459  0.87185474  0.07199083  1
  O2-  O120  1  0.09775977  0.74369645  0.39629587  1
  O2-  O121  1  0.03984339  0.80614625  0.62553458  1
  O2-  O122  1  0.14604798  0.74990255  0.85636777  1
  O2-  O123  1  0.35994575  0.24298237  0.14541848  1
  O2-  O124  1  0.35021102  0.24529535  0.36992968  1
  O2-  O125  1  0.37583272  0.24342581  0.60126500  1
  O2-  O126  1  0.42831148  0.23490400  0.84178228  1
  O2-  O127  1  0.32887960  0.72424996  0.11307097  1
  O2-  O128  1  0.41576025  0.72297628  0.35993572  1
  O2-  O129  1  0.36219558  0.73422525  0.63989055  1
  O2-  O130  1  0.36919870  0.73914106  0.86647494  1
  O2-  O131  1  0.61491721  0.24390705  0.15957938  1
  O2-  O132  1  0.63810663  0.25951419  0.36688069  1
  O2-  O133  1  0.72431264  0.17510189  0.64266413  1
  O2-  O134  1  0.66210794  0.25740160  0.87043066  1
  O2-  O135  1  0.58920178  0.73492308  0.11809873  1
  O2-  O136  1  0.59932919  0.75329504  0.36901937  1
  O2-  O137  1  0.56184884  0.76042917  0.64205996  1
  O2-  O138  1  0.64756049  0.73538584  0.88186167  1
  O2-  O139  1  0.94016399  0.32016344  0.09790365  1
  O2-  O140  1  0.82606796  0.25018096  0.37168417  1
  O2-  O141  1  0.85628517  0.27994057  0.63123705  1
  O2-  O142  1  0.95511157  0.22329256  0.89724904  1
  O2-  O143  1  0.84250486  0.74727815  0.14289693  1
  O2-  O144  1  0.90171870  0.76068092  0.40741721  1
  O2-  O145  1  0.99511795  0.63918836  0.64189801  1
  O2-  O146  1  0.94172385  0.75536750  0.88540879  1
  O2-  O147  1  0.19680596  0.14282463  -0.00117458  1
  O2-  O148  1  0.12989557  0.14476840  0.23372037  1
  O2-  O149  1  0.11290085  0.13211167  0.48700027  1
  O2-  O150  1  0.14537775  0.14184194  0.74626090  1
  O2-  O151  1  0.14176786  0.73762772  0.09574679  1
  O2-  O152  1  0.11319012  0.63130365  0.25214574  1
  O2-  O153  1  0.09268950  0.60506862  0.50500513  1
  O2-  O154  1  0.10776014  0.61361079  0.75942103  1
  O2-  O155  1  0.38209085  0.14146565  -0.00443224  1
  O2-  O156  1  0.33332241  0.11095170  0.23982018  1
  O2-  O157  1  0.37367787  0.11836797  0.49185303  1
  O2-  O158  1  0.37956318  0.10698771  0.73806753  1
  O2-  O159  1  0.41989522  0.63128331  0.00252705  1
  O2-  O160  1  0.32779378  0.61451278  0.24506314  1
  O2-  O161  1  0.37974312  0.62560484  0.50519512  1
  O2-  O162  1  0.34167951  0.60326314  0.75047211  1
  O2-  O163  1  0.64874261  0.13269176  0.02013463  1
  O2-  O164  1  0.69271613  0.11577556  0.23922018  1
  O2-  O165  1  0.59704861  0.12568322  0.52252928  1
  O2-  O166  1  0.59455909  0.11678743  0.74528313  1
  O2-  O167  1  0.62065323  0.61695600  0.00400414  1
  O2-  O168  1  0.67171527  0.61362751  0.24224572  1
  O2-  O169  1  0.60902594  0.63979370  0.51371760  1
  O2-  O170  1  0.66631670  0.63244500  0.74612146  1
  O2-  O171  1  0.82695633  0.12667075  -0.00879876  1
  O2-  O172  1  0.87286402  0.17866635  0.19470740  1
  O2-  O173  1  0.79699948  0.11833424  0.51164239  1
  O2-  O174  1  0.82978844  0.15967562  0.76833207  1
  O2-  O175  1  0.89735939  0.64325246  0.01664950  1
  O2-  O176  1  0.88536807  0.62584042  0.26995638  1
  O2-  O177  1  0.83927891  0.64625893  0.55108731  1
  O2-  O178  1  0.87360727  0.67850463  0.75673228  1
  O2-  O179  1  0.17827370  0.35844044  -0.02030383  1
  O2-  O180  1  0.13111073  0.36080471  0.23418431  1
  O2-  O181  1  0.12555869  0.38590852  0.48412449  1
  O2-  O182  1  0.16177058  0.34971587  0.73638349  1
  O2-  O183  1  0.09395834  0.87577157  -0.01661544  1
  O2-  O184  1  0.13157326  0.84837055  0.24218616  1
  O2-  O185  1  0.14435833  0.88383840  0.50562999  1
  O2-  O186  1  0.08649811  0.89105763  0.76408135  1
  O2-  O187  1  0.39021429  0.34261761  0.00042836  1
  O2-  O188  1  0.32229447  0.37631400  0.25633118  1
  O2-  O189  1  0.31836022  0.37217684  0.48179384  1
  O2-  O190  1  0.33547653  0.36379733  0.75238776  1
  O2-  O191  1  0.39737489  0.83821761  0.00176387  1
  O2-  O192  1  0.31564631  0.84521363  0.23483764  1
  O2-  O193  1  0.39879761  0.84898608  0.50512851  1
  O2-  O194  1  0.39503239  0.87398485  0.74375245  1
  O2-  O195  1  0.57819066  0.34879012  0.01060142  1
  O2-  O196  1  0.67412083  0.37998784  0.23592420  1
  O2-  O197  1  0.58703124  0.30653221  0.55570727  1
  O2-  O198  1  0.58410865  0.35293754  0.75040993  1
  O2-  O199  1  0.62624526  0.85847741  0.01504995  1
  O2-  O200  1  0.67487303  0.84999299  0.24364744  1
  O2-  O201  1  0.60761629  0.85921525  0.50143209  1
  O2-  O202  1  0.64138797  0.87150366  0.75806964  1
  O2-  O203  1  0.87553363  0.43355580  -0.01979680  1
  O2-  O204  1  0.85680690  0.37810710  0.23837238  1
  O2-  O205  1  0.76237560  0.37487836  0.47018008  1
  O2-  O206  1  0.88272388  0.35578219  0.79727603  1
  O2-  O207  1  0.90962578  0.87011506  0.02210821  1
  O2-  O208  1  0.88753849  0.87924564  0.27016743  1
  O2-  O209  1  0.89220981  0.87443220  0.53747780  1
  O2-  O210  1  0.87912829  0.86369766  0.73641218  1
  O2-  O211  1  -0.00096475  0.11527532  0.08517075  1
  O2-  O212  1  0.00351407  0.15993535  0.34460653  1
  O2-  O213  1  -0.05126843  0.15563906  0.53120483  1
  O2-  O214  1  -0.01562995  0.16359346  0.69327616  1
  O2-  O215  1  0.07977071  0.61384403  -0.02428333  1
  O2-  O216  1  -0.00812504  0.34613881  0.33845254  1
  O2-  O217  1  -0.07671381  0.35634878  0.48691566  1
  O2-  O218  1  0.07029157  0.46618273  0.64959565  1
  O2-  O219  1  0.26530560  -0.13230411  -0.12353624  1
  O2-  O220  1  0.24077488  0.11709553  0.37812197  1
  O2-  O221  1  0.22875999  0.13742923  0.60364271  1
  O2-  O222  1  0.23121578  -0.14509722  0.66607320  1
  O2-  O223  1  0.26179387  0.61395052  -0.08713285  1
  O2-  O224  1  0.20202333  0.49592578  0.35458958  1
  O2-  O225  1  0.23914431  0.65051691  0.39711297  1
  O2-  O226  1  0.21437943  0.65933531  0.63590893  1
  O2-  O227  1  0.48510279  -0.13410520  0.16433236  1
  O2-  O228  1  0.49898048  0.11458721  0.14588463  1
  O2-  O229  1  0.48734389  0.13552149  0.36005877  1
  O2-  O230  1  0.51692843  -0.14458509  0.88071407  1
  O2-  O231  1  0.49422132  0.60795960  0.18165992  1
  O2-  O232  1  0.50713025  0.38441261  0.24481990  1
  O2-  O233  1  0.48774069  0.34676266  0.40837169  1
  O2-  O234  1  0.51255494  0.62751943  0.85284642  1
  O2-  O235  1  0.76648111  -0.13951897  -0.11660795  1
  O2-  O236  1  0.76146215  -0.10831998  0.40850008  1
  O2-  O237  1  0.73955881  -0.17956602  0.62790032  1
  O2-  O238  1  0.71464183  -0.01808335  0.62693616  1
  O2-  O239  1  0.76699014  0.57703135  -0.10458660  1
  O2-  O240  1  0.79654281  0.52674707  0.12584307  1
  O2-  O241  1  0.72275992  0.38728803  0.64337347  1
  O2-  O242  1  0.81225470  0.51309196  0.73770311  1
