# generated using pymatgen
data_Gd19Ta56(WO20)8
_symmetry_space_group_name_H-M   'P 1'
_cell_length_a   15.67467364
_cell_length_b   15.43737620
_cell_length_c   15.18538173
_cell_angle_alpha   89.93914605
_cell_angle_beta   89.52227153
_cell_angle_gamma   89.89591177
_symmetry_Int_Tables_number   1
_chemical_formula_structural   Gd19Ta56(WO20)8
_chemical_formula_sum   'Gd19 Ta56 W8 O160'
_cell_volume   3674.35960071
_cell_formula_units_Z   1
loop_
 _symmetry_equiv_pos_site_id
 _symmetry_equiv_pos_as_xyz
  1  'x, y, z'
loop_
 _atom_type_symbol
 _atom_type_oxidation_number
  Gd3+  3.0
  Ta5+  5.0
  W6+  6.0
  O2-  -2.0
loop_
 _atom_site_type_symbol
 _atom_site_label
 _atom_site_symmetry_multiplicity
 _atom_site_fract_x
 _atom_site_fract_y
 _atom_site_fract_z
 _atom_site_occupancy
  Gd3+  Gd0  1  0.73888230  0.72929614  -0.01892834  1
  Gd3+  Gd1  1  0.74162764  0.26096511  -0.00968521  1
  Gd3+  Gd2  1  0.74693117  0.25297556  0.73354923  1
  Gd3+  Gd3  1  0.50102223  0.24186505  0.23329588  1
  Gd3+  Gd4  1  -0.02256191  0.23203432  0.49884482  1
  Gd3+  Gd5  1  0.40217141  0.23832300  0.01661195  1
  Gd3+  Gd6  1  0.71669503  0.73315495  0.69107257  1
  Gd3+  Gd7  1  0.24819598  0.26786412  0.50124995  1
  Gd3+  Gd8  1  0.76086055  0.76421973  0.25446204  1
  Gd3+  Gd9  1  0.03013793  0.24217569  0.26720429  1
  Gd3+  Gd10  1  0.01723649  0.72997633  0.01178542  1
  Gd3+  Gd11  1  0.26435044  0.25184038  0.24934856  1
  Gd3+  Gd12  1  0.00650767  0.76642168  0.24879167  1
  Gd3+  Gd13  1  0.73936844  0.21743825  0.25226582  1
  Gd3+  Gd14  1  0.49285141  0.75112024  0.00197225  1
  Gd3+  Gd15  1  0.28401311  0.76880788  0.26199798  1
  Gd3+  Gd16  1  -0.00337877  0.75714685  0.48963712  1
  Gd3+  Gd17  1  0.24449314  0.24506503  0.75372291  1
  Gd3+  Gd18  1  0.52401291  0.77483839  0.25867311  1
  Ta5+  Ta19  1  0.87483669  0.08825815  0.36881567  1
  Ta5+  Ta20  1  0.60463463  0.62054469  0.85003661  1
  Ta5+  Ta21  1  0.86553709  0.88778200  0.38580330  1
  Ta5+  Ta22  1  0.87989099  0.62007313  0.37501441  1
  Ta5+  Ta23  1  0.37404182  0.11455778  0.39206736  1
  Ta5+  Ta24  1  0.87899044  0.10355083  0.63068704  1
  Ta5+  Ta25  1  0.88134432  0.12955390  0.87955165  1
  Ta5+  Ta26  1  0.61109444  0.11831901  0.86038914  1
  Ta5+  Ta27  1  0.10114562  0.12914868  0.10805350  1
  Ta5+  Ta28  1  0.87660329  0.37604276  0.61441224  1
  Ta5+  Ta29  1  0.86620683  0.88114317  0.88998364  1
  Ta5+  Ta30  1  0.14201807  0.62197360  0.86487530  1
  Ta5+  Ta31  1  0.90083366  0.62358343  0.62809637  1
  Ta5+  Ta32  1  0.37450780  0.62651916  0.41212132  1
  Ta5+  Ta33  1  0.39871573  0.38761711  0.86484142  1
  Ta5+  Ta34  1  0.87127137  0.37371017  0.13837305  1
  Ta5+  Ta35  1  0.36143763  0.88701573  0.88502721  1
  Ta5+  Ta36  1  0.06610389  0.62351954  0.63514842  1
  Ta5+  Ta37  1  0.37757422  0.11895128  0.60063175  1
  Ta5+  Ta38  1  0.59416047  0.37381839  0.84719832  1
  Ta5+  Ta39  1  0.10472814  0.37265987  0.87982462  1
  Ta5+  Ta40  1  0.40873800  0.11588284  0.83551578  1
  Ta5+  Ta41  1  0.36043890  0.05111442  0.15369232  1
  Ta5+  Ta42  1  0.85279443  0.60990888  0.13067980  1
  Ta5+  Ta43  1  0.11453047  0.12200467  0.88394971  1
  Ta5+  Ta44  1  0.63103079  0.87202410  0.84801040  1
  Ta5+  Ta45  1  0.09223537  0.39213061  0.11642614  1
  Ta5+  Ta46  1  0.57840844  0.12211362  0.07245600  1
  Ta5+  Ta47  1  0.19251236  0.89966753  0.10802725  1
  Ta5+  Ta48  1  0.65551600  0.59502742  0.34713584  1
  Ta5+  Ta49  1  0.60316703  0.10963627  0.65227575  1
  Ta5+  Ta50  1  0.89675214  0.11999049  0.12001827  1
  Ta5+  Ta51  1  0.63919660  0.61599195  0.12641770  1
  Ta5+  Ta52  1  0.90437648  0.87395678  0.64054724  1
  Ta5+  Ta53  1  0.12316594  0.39294397  0.37283735  1
  Ta5+  Ta54  1  0.38975395  0.39052388  0.37483300  1
  Ta5+  Ta55  1  0.41115203  0.63832398  0.63899983  1
  Ta5+  Ta56  1  0.88334734  0.37107962  0.35817098  1
  Ta5+  Ta57  1  0.56634916  0.86631230  0.60729658  1
  Ta5+  Ta58  1  0.12442751  0.87304670  0.87476708  1
  Ta5+  Ta59  1  0.38152861  0.63193090  0.87823476  1
  Ta5+  Ta60  1  0.56753779  0.62034181  0.58715278  1
  Ta5+  Ta61  1  0.85668646  0.87928992  0.11026690  1
  Ta5+  Ta62  1  0.69901516  0.91399706  0.40114839  1
  Ta5+  Ta63  1  0.59785425  0.37333398  0.10116512  1
  Ta5+  Ta64  1  0.14844542  0.62398678  0.38635571  1
  Ta5+  Ta65  1  0.59577930  0.37132965  0.61698231  1
  Ta5+  Ta66  1  0.64248862  0.88765246  0.09501895  1
  Ta5+  Ta67  1  0.88325812  0.63083733  0.82672679  1
  Ta5+  Ta68  1  0.07128198  0.88476888  0.62814197  1
  Ta5+  Ta69  1  0.13275538  0.88483243  0.37209317  1
  Ta5+  Ta70  1  0.37496088  0.86753927  0.43165170  1
  Ta5+  Ta71  1  0.11599010  0.11148126  0.62798966  1
  Ta5+  Ta72  1  0.40413235  0.87052521  0.63597437  1
  Ta5+  Ta73  1  0.17364108  0.61906113  0.12589700  1
  Ta5+  Ta74  1  0.57690410  0.11495357  0.42459794  1
  W6+  W75  1  0.36468126  0.38930057  0.63023200  1
  W6+  W76  1  0.34005367  0.41207464  0.12660453  1
  W6+  W77  1  0.85719867  0.38953636  0.87316387  1
  W6+  W78  1  0.40188087  0.90479095  0.09721872  1
  W6+  W79  1  0.11024394  0.37703473  0.62667862  1
  W6+  W80  1  0.13372711  0.12393179  0.36798270  1
  W6+  W81  1  0.63599794  0.35005649  0.37080157  1
  W6+  W82  1  0.37992800  0.61636353  0.13933595  1
  O2-  O83  1  0.13600141  0.00521018  0.11608574  1
  O2-  O84  1  0.10928612  -0.00663544  0.33667819  1
  O2-  O85  1  0.14490986  -0.00388186  0.61983768  1
  O2-  O86  1  0.10782596  -0.00357239  0.90183630  1
  O2-  O87  1  0.10511793  0.51173858  0.14300641  1
  O2-  O88  1  0.09866277  0.51533744  0.35822122  1
  O2-  O89  1  0.07853291  0.50448884  0.63091264  1
  O2-  O90  1  0.11172334  0.50407337  0.87477748  1
  O2-  O91  1  0.47544398  0.10349865  0.14617692  1
  O2-  O92  1  0.38686854  -0.00644724  0.41067599  1
  O2-  O93  1  0.38585905  -0.00135725  0.60920584  1
  O2-  O94  1  0.35323134  0.01837151  0.87962061  1
  O2-  O95  1  0.43298195  0.49853317  0.15245310  1
  O2-  O96  1  0.42085859  0.50642115  0.38494226  1
  O2-  O97  1  0.37579759  0.52244197  0.64064599  1
  O2-  O98  1  0.40065930  0.50665529  0.86558554  1
  O2-  O99  1  0.62418887  0.00292596  0.06606577  1
  O2-  O100  1  0.61070486  0.01506096  0.36963812  1
  O2-  O101  1  0.56777683  -0.00820701  0.64269646  1
  O2-  O102  1  0.60105267  -0.01033591  0.86308012  1
  O2-  O103  1  0.61614773  0.49548594  0.12086721  1
  O2-  O104  1  0.66506158  0.47801298  0.34206092  1
  O2-  O105  1  0.58337863  0.49560032  0.60660835  1
  O2-  O106  1  0.60130078  0.50032236  0.86296184  1
  O2-  O107  1  0.87062466  0.00119317  0.10772117  1
  O2-  O108  1  0.94148143  -0.00804309  0.35114919  1
  O2-  O109  1  0.84882289  -0.01293773  0.64202481  1
  O2-  O110  1  0.87887152  0.00656427  0.89507820  1
  O2-  O111  1  0.84594106  0.49110063  0.16293374  1
  O2-  O112  1  0.88338189  0.49552072  0.36288977  1
  O2-  O113  1  0.88747926  0.49532091  0.61442962  1
  O2-  O114  1  0.88808485  0.52285008  0.87422569  1
  O2-  O115  1  0.07500293  0.25697665  0.11798432  1
  O2-  O116  1  0.16531703  0.26400206  0.37227939  1
  O2-  O117  1  0.16023152  0.23687198  0.62816008  1
  O2-  O118  1  0.14915976  0.24971924  0.87715725  1
  O2-  O119  1  0.07133984  0.69779588  0.14283838  1
  O2-  O120  1  0.09312056  0.75070095  0.36920215  1
  O2-  O121  1  0.07004972  0.76111815  0.62746045  1
  O2-  O122  1  0.08898229  0.74495568  0.88022508  1
  O2-  O123  1  0.37972104  0.28302747  0.15780155  1
  O2-  O124  1  0.34701282  0.24917719  0.37612870  1
  O2-  O125  1  0.33918866  0.24875744  0.61878466  1
  O2-  O126  1  0.34881697  0.21621185  0.87337191  1
  O2-  O127  1  0.45942066  0.72273547  0.14031367  1
  O2-  O128  1  0.33671202  0.74399953  0.43518513  1
  O2-  O129  1  0.36250278  0.75571094  0.62839342  1
  O2-  O130  1  0.37567030  0.76077657  0.90248451  1
  O2-  O131  1  0.54111421  0.25391177  0.07864266  1
  O2-  O132  1  0.64223525  0.20605353  0.37062702  1
  O2-  O133  1  0.61832248  0.23846946  0.65263547  1
  O2-  O134  1  0.64189428  0.24873263  0.84908371  1
  O2-  O135  1  0.65198673  0.74946002  0.12942422  1
  O2-  O136  1  0.64776720  0.82459515  0.32443051  1
  O2-  O137  1  0.61044631  0.74161728  0.58460604  1
  O2-  O138  1  0.67535792  0.73286187  0.84554249  1
  O2-  O139  1  0.85276449  0.24175054  0.14054757  1
  O2-  O140  1  0.90321952  0.22571008  0.35994384  1
  O2-  O141  1  0.88135855  0.24108074  0.61665142  1
  O2-  O142  1  0.82490010  0.25042149  0.86952432  1
  O2-  O143  1  0.83844924  0.74585087  0.11620930  1
  O2-  O144  1  0.90111998  0.75679346  0.37053136  1
  O2-  O145  1  0.86602903  0.75253008  0.64132897  1
  O2-  O146  1  0.86686825  0.73825193  0.89974414  1
  O2-  O147  1  0.16377889  0.13669631  -0.00060319  1
  O2-  O148  1  0.15824381  0.15245649  0.22241415  1
  O2-  O149  1  0.09110764  0.13387215  0.50459633  1
  O2-  O150  1  0.15685433  0.11661687  0.76468564  1
  O2-  O151  1  0.14108087  0.63371756  0.00343072  1
  O2-  O152  1  0.18427732  0.64580913  0.26456746  1
  O2-  O153  1  0.09311119  0.63812730  0.50284924  1
  O2-  O154  1  0.13898213  0.63616510  0.74360969  1
  O2-  O155  1  0.32455614  0.11961415  0.06410306  1
  O2-  O156  1  0.33049075  0.10838711  0.27018287  1
  O2-  O157  1  0.29607159  0.12273019  0.49992411  1
  O2-  O158  1  0.34329039  0.12156658  0.72736497  1
  O2-  O159  1  0.41351562  0.62335503  -0.00051293  1
  O2-  O160  1  0.37380158  0.65071297  0.28689508  1
  O2-  O161  1  0.45382551  0.63889773  0.50919134  1
  O2-  O162  1  0.42968109  0.65583009  0.76645872  1
  O2-  O163  1  0.66420798  0.13656194  -0.02505230  1
  O2-  O164  1  0.64182066  0.15071299  0.17312060  1
  O2-  O165  1  0.64139897  0.10963496  0.53176849  1
  O2-  O166  1  0.68166552  0.10408065  0.75341406  1
  O2-  O167  1  0.60279953  0.64676959  -0.01206705  1
  O2-  O168  1  0.57744902  0.63111360  0.25272837  1
  O2-  O169  1  0.60348608  0.61298304  0.45390071  1
  O2-  O170  1  0.60841391  0.63132497  0.72287814  1
  O2-  O171  1  0.84055823  0.14645772  0.00146192  1
  O2-  O172  1  0.83305844  0.10519596  0.24380284  1
  O2-  O173  1  0.89543034  0.10754808  0.49926900  1
  O2-  O174  1  0.84960040  0.12816125  0.75778425  1
  O2-  O175  1  0.93418275  0.61232485  0.04276950  1
  O2-  O176  1  0.90937823  0.64521251  0.24322444  1
  O2-  O177  1  0.89430534  0.63298622  0.49864070  1
  O2-  O178  1  0.97559441  0.64344522  0.74706464  1
  O2-  O179  1  0.14658023  0.38441309  0.00518875  1
  O2-  O180  1  0.13548077  0.36138002  0.23995364  1
  O2-  O181  1  0.15248043  0.39137688  0.49269382  1
  O2-  O182  1  0.14003562  0.36679584  0.76010303  1
  O2-  O183  1  0.12244865  0.84814818  0.01798107  1
  O2-  O184  1  0.15275469  0.84778218  0.22385259  1
  O2-  O185  1  0.08873633  0.88208182  0.49040958  1
  O2-  O186  1  0.08911683  0.88578118  0.75979547  1
  O2-  O187  1  0.34646134  0.37357047  -0.01731505  1
  O2-  O188  1  0.31780185  0.39877231  0.27519961  1
  O2-  O189  1  0.33905304  0.38561765  0.48859926  1
  O2-  O190  1  0.32662907  0.36576617  0.76771947  1
  O2-  O191  1  0.45610179  0.89605733  -0.03441908  1
  O2-  O192  1  0.40923142  0.83984304  0.31191577  1
  O2-  O193  1  0.46858605  0.85580596  0.51250927  1
  O2-  O194  1  0.40157843  0.88396384  0.76864343  1
  O2-  O195  1  0.63993600  0.37136179  -0.01924086  1
  O2-  O196  1  0.62062152  0.33210799  0.22241466  1
  O2-  O197  1  0.64993547  0.35515864  0.50941353  1
  O2-  O198  1  0.66139019  0.37965812  0.73500165  1
  O2-  O199  1  0.61853266  0.83405755  -0.02230473  1
  O2-  O200  1  0.53715992  0.88431945  0.15691536  1
  O2-  O201  1  0.64439605  0.89160086  0.50605814  1
  O2-  O202  1  0.61080454  0.84165172  0.72869552  1
  O2-  O203  1  0.82949891  0.37402598  0.01834556  1
  O2-  O204  1  0.79917959  0.35324167  0.26467981  1
  O2-  O205  1  0.86135848  0.35714459  0.48257212  1
  O2-  O206  1  0.84610733  0.36787117  0.73638611  1
  O2-  O207  1  0.93590665  0.86058228  0.00479671  1
  O2-  O208  1  0.89130647  0.86226669  0.23590588  1
  O2-  O209  1  0.88671192  0.87461221  0.50855499  1
  O2-  O210  1  0.91210223  0.86676724  0.77885500  1
  O2-  O211  1  -0.00325370  0.11018138  0.03661242  1
  O2-  O212  1  -0.00509823  0.11853636  0.19789172  1
  O2-  O213  1  -0.00022691  0.11616737  0.66006851  1
  O2-  O214  1  -0.00188409  0.15089510  0.86532692  1
  O2-  O215  1  -0.02115857  0.40048124  0.07881953  1
  O2-  O216  1  -0.04277509  0.36402927  0.23869891  1
  O2-  O217  1  0.00966207  0.34902401  0.39612383  1
  O2-  O218  1  -0.00860588  0.35597927  0.88549024  1
  O2-  O219  1  0.28454250  -0.09711020  0.02057127  1
  O2-  O220  1  0.29623771  -0.06363248  0.18932651  1
  O2-  O221  1  0.25153839  -0.12126283  0.38036686  1
  O2-  O222  1  0.23989204  -0.13394583  0.85506489  1
  O2-  O223  1  0.26738073  0.70789305  0.12648439  1
  O2-  O224  1  0.26986806  0.53611358  0.11833341  1
  O2-  O225  1  0.25627961  0.58549928  0.42706310  1
  O2-  O226  1  0.26124670  0.62440047  0.86989523  1
  O2-  O227  1  0.49788916  0.12728964  -0.05954289  1
  O2-  O228  1  0.48641704  0.13619507  0.33324083  1
  O2-  O229  1  0.46341119  0.13792549  0.49864826  1
  O2-  O230  1  0.51585574  0.12714431  0.76588412  1
  O2-  O231  1  0.49318298  0.32165421  -0.08440836  1
  O2-  O232  1  0.49657407  0.33680391  0.35148163  1
  O2-  O233  1  0.48420440  0.34509921  0.58966196  1
  O2-  O234  1  0.49858966  0.38521284  0.76905277  1
  O2-  O235  1  0.77253618  -0.12592768  0.01125133  1
  O2-  O236  1  0.73810556  -0.10577137  0.17413625  1
  O2-  O237  1  0.78276209  0.01167003  0.39701624  1
  O2-  O238  1  0.75187587  -0.11426800  0.84352719  1
  O2-  O239  1  0.74957394  0.60282909  0.05536808  1
  O2-  O240  1  0.73267987  0.61984458  0.21791299  1
  O2-  O241  1  0.75981421  0.65880860  0.37796503  1
  O2-  O242  1  0.80173863  0.61914863  0.73628797  1
