# generated using pymatgen
data_Gd19Ta56(WO20)8
_symmetry_space_group_name_H-M   'P 1'
_cell_length_a   15.57680229
_cell_length_b   15.46956000
_cell_length_c   15.24169509
_cell_angle_alpha   90.22243789
_cell_angle_beta   90.58891069
_cell_angle_gamma   89.50279459
_symmetry_Int_Tables_number   1
_chemical_formula_structural   Gd19Ta56(WO20)8
_chemical_formula_sum   'Gd19 Ta56 W8 O160'
_cell_volume   3672.37582139
_cell_formula_units_Z   1
loop_
 _symmetry_equiv_pos_site_id
 _symmetry_equiv_pos_as_xyz
  1  'x, y, z'
loop_
 _atom_type_symbol
 _atom_type_oxidation_number
  Gd3+  3.0
  Ta5+  5.0
  W6+  6.0
  O2-  -2.0
loop_
 _atom_site_type_symbol
 _atom_site_label
 _atom_site_symmetry_multiplicity
 _atom_site_fract_x
 _atom_site_fract_y
 _atom_site_fract_z
 _atom_site_occupancy
  Gd3+  Gd0  1  0.28332871  0.75612879  0.26603079  1
  Gd3+  Gd1  1  0.52387069  0.75958269  0.48548854  1
  Gd3+  Gd2  1  0.75266006  0.25893737  -0.00600533  1
  Gd3+  Gd3  1  -0.00106379  0.73593488  0.00695569  1
  Gd3+  Gd4  1  0.23636330  0.24717245  0.72886989  1
  Gd3+  Gd5  1  0.24030995  0.24571141  -0.00305679  1
  Gd3+  Gd6  1  0.28900518  0.75171896  0.51785493  1
  Gd3+  Gd7  1  0.73236031  0.76119087  0.73181048  1
  Gd3+  Gd8  1  0.01676140  0.74145021  0.50197938  1
  Gd3+  Gd9  1  0.49525779  0.24626473  -0.00874329  1
  Gd3+  Gd10  1  0.80518260  0.24137910  0.49995307  1
  Gd3+  Gd11  1  0.74092115  0.76962010  -0.00879489  1
  Gd3+  Gd12  1  0.47309727  0.25231205  0.74371436  1
  Gd3+  Gd13  1  0.25728135  0.74942525  0.74595247  1
  Gd3+  Gd14  1  0.23334255  0.25283450  0.28270010  1
  Gd3+  Gd15  1  0.71856089  0.76990105  0.24632290  1
  Gd3+  Gd16  1  -0.03016567  0.26123393  0.76434699  1
  Gd3+  Gd17  1  0.50494463  0.75567880  0.03313789  1
  Gd3+  Gd18  1  0.00153748  0.75235037  0.25393617  1
  Ta5+  Ta19  1  0.42057583  0.62520807  0.64637507  1
  Ta5+  Ta20  1  0.38439471  0.89235873  0.38848172  1
  Ta5+  Ta21  1  0.39885327  0.61042406  0.13655557  1
  Ta5+  Ta22  1  0.65218096  0.60209615  0.12701805  1
  Ta5+  Ta23  1  0.60459904  0.38817397  0.86813886  1
  Ta5+  Ta24  1  0.11993830  0.11897081  0.12963850  1
  Ta5+  Ta25  1  0.08499451  0.12544357  0.37586255  1
  Ta5+  Ta26  1  0.87622824  0.88738630  0.12883086  1
  Ta5+  Ta27  1  0.14570474  0.61343422  0.35634922  1
  Ta5+  Ta28  1  0.07875595  0.37656408  0.37371128  1
  Ta5+  Ta29  1  0.64997595  0.62567683  0.39371305  1
  Ta5+  Ta30  1  0.85203592  0.39240861  0.87196848  1
  Ta5+  Ta31  1  0.35909151  0.12134919  0.87145540  1
  Ta5+  Ta32  1  0.62726106  0.14266769  0.13648783  1
  Ta5+  Ta33  1  0.63171749  0.90991276  0.38679713  1
  Ta5+  Ta34  1  0.89021460  0.87430245  0.62424256  1
  Ta5+  Ta35  1  0.87948606  0.39713723  0.61584380  1
  Ta5+  Ta36  1  0.87835110  0.13663526  0.12746009  1
  Ta5+  Ta37  1  0.12292649  0.37477979  0.12859683  1
  Ta5+  Ta38  1  0.87392025  0.87586582  0.37994707  1
  Ta5+  Ta39  1  0.59202931  0.89686668  0.63904092  1
  Ta5+  Ta40  1  0.55490434  0.38831914  0.61155051  1
  Ta5+  Ta41  1  0.11000169  0.12374589  0.87143513  1
  Ta5+  Ta42  1  0.86771252  0.63057619  0.85386554  1
  Ta5+  Ta43  1  0.35209771  0.88464718  0.88568863  1
  Ta5+  Ta44  1  0.60274185  0.63388949  0.87065838  1
  Ta5+  Ta45  1  0.82138867  0.63211142  0.59078948  1
  Ta5+  Ta46  1  0.13286692  0.88507701  0.38005992  1
  Ta5+  Ta47  1  0.09894575  0.11985679  0.61398755  1
  Ta5+  Ta48  1  0.11212258  0.88619080  0.63298899  1
  Ta5+  Ta49  1  0.61544444  0.90530941  0.12660771  1
  Ta5+  Ta50  1  0.39015626  0.12084722  0.39436571  1
  Ta5+  Ta51  1  0.93220360  0.11938260  0.61780862  1
  Ta5+  Ta52  1  0.38475229  0.11744160  0.14026700  1
  Ta5+  Ta53  1  0.10303627  0.36743481  0.61715528  1
  Ta5+  Ta54  1  0.35242846  0.38435405  0.87938364  1
  Ta5+  Ta55  1  0.91247562  0.37604443  0.36435181  1
  Ta5+  Ta56  1  0.15749223  0.60211704  0.61985513  1
  Ta5+  Ta57  1  0.36559238  0.36479102  0.14922890  1
  Ta5+  Ta58  1  0.10221774  0.37692049  0.87719628  1
  Ta5+  Ta59  1  0.62381371  0.13202721  0.85345168  1
  Ta5+  Ta60  1  0.12785197  0.87191672  0.12628558  1
  Ta5+  Ta61  1  0.60347809  0.36713137  0.13995706  1
  Ta5+  Ta62  1  0.42197017  0.88593464  0.65792020  1
  Ta5+  Ta63  1  0.11674287  0.61963177  0.87117217  1
  Ta5+  Ta64  1  0.91871281  0.12117253  0.36644828  1
  Ta5+  Ta65  1  0.12054823  0.87987086  0.88121973  1
  Ta5+  Ta66  1  0.65677087  0.38046461  0.38593536  1
  Ta5+  Ta67  1  0.85720768  0.61067247  0.13048649  1
  Ta5+  Ta68  1  0.37262746  0.88805413  0.13217998  1
  Ta5+  Ta69  1  0.88854966  0.38997174  0.12144414  1
  Ta5+  Ta70  1  0.63672291  0.13987072  0.64798727  1
  Ta5+  Ta71  1  0.40006515  0.61669726  0.38678180  1
  Ta5+  Ta72  1  0.38639115  0.38841293  0.61899720  1
  Ta5+  Ta73  1  0.36426369  0.62691199  0.89306956  1
  Ta5+  Ta74  1  0.58802017  0.62308055  0.64117713  1
  W6+  W75  1  0.61439221  0.89464150  0.86024560  1
  W6+  W76  1  0.86189366  0.88773738  0.87124292  1
  W6+  W77  1  0.64984238  0.15621509  0.39433383  1
  W6+  W78  1  0.87511545  0.11662148  0.87751026  1
  W6+  W79  1  0.37915936  0.12961456  0.60589849  1
  W6+  W80  1  0.12420687  0.60883126  0.13672549  1
  W6+  W81  1  0.38472695  0.36722818  0.39902100  1
  W6+  W82  1  0.88048751  0.60371314  0.39045811  1
  O2-  O83  1  0.12912338  -0.00343098  0.13251878  1
  O2-  O84  1  0.09317809  -0.00521642  0.35350084  1
  O2-  O85  1  0.14574414  0.00074407  0.64133113  1
  O2-  O86  1  0.10097049  0.00132969  0.86148633  1
  O2-  O87  1  0.17227465  0.48263559  0.13332729  1
  O2-  O88  1  0.14084340  0.49493659  0.36822355  1
  O2-  O89  1  0.16092095  0.48338623  0.63459035  1
  O2-  O90  1  0.12402199  0.49515378  0.85269023  1
  O2-  O91  1  0.33263108  0.00950545  0.11781260  1
  O2-  O92  1  0.33966988  0.00584113  0.40676573  1
  O2-  O93  1  0.40105311  -0.00185215  0.62653234  1
  O2-  O94  1  0.39048343  0.00488096  0.88299206  1
  O2-  O95  1  0.38957914  0.49020785  0.13623363  1
  O2-  O96  1  0.38599866  0.50159370  0.40320626  1
  O2-  O97  1  0.38414097  0.51019404  0.61318299  1
  O2-  O98  1  0.37684510  0.50050669  0.90512282  1
  O2-  O99  1  0.65561031  0.02556713  0.11396007  1
  O2-  O100  1  0.63545967  0.02575133  0.40230338  1
  O2-  O101  1  0.60778599  0.02380036  0.62591729  1
  O2-  O102  1  0.59204059  0.02437181  0.88875783  1
  O2-  O103  1  0.59915238  0.48739426  0.12733535  1
  O2-  O104  1  0.67144127  0.50476286  0.38000032  1
  O2-  O105  1  0.60164629  0.49887597  0.63034140  1
  O2-  O106  1  0.59656311  0.50817071  0.89075695  1
  O2-  O107  1  0.87328452  0.00582415  0.12604870  1
  O2-  O108  1  0.90412150  -0.01101245  0.35575591  1
  O2-  O109  1  0.91177904  -0.00775326  0.62492526  1
  O2-  O110  1  0.91953370  -0.00681038  0.89491901  1
  O2-  O111  1  0.92860573  0.51011826  0.10783747  1
  O2-  O112  1  0.94931604  0.49491148  0.37743674  1
  O2-  O113  1  0.82041922  0.50629355  0.60608530  1
  O2-  O114  1  0.82807374  0.51581219  0.86346530  1
  O2-  O115  1  0.16586546  0.24756955  0.12681402  1
  O2-  O116  1  0.11345321  0.25200012  0.38179541  1
  O2-  O117  1  0.14299326  0.24996024  0.60505834  1
  O2-  O118  1  0.07006002  0.24539061  0.88734855  1
  O2-  O119  1  0.09736785  0.74433293  0.12334072  1
  O2-  O120  1  0.10483513  0.74671725  0.37863125  1
  O2-  O121  1  0.27217665  0.63142110  0.62165032  1
  O2-  O122  1  0.10832254  0.75072890  0.88642885  1
  O2-  O123  1  0.33820025  0.23325559  0.15698288  1
  O2-  O124  1  0.34376469  0.23403799  0.38328995  1
  O2-  O125  1  0.34049975  0.26440669  0.62162347  1
  O2-  O126  1  0.39337638  0.25440794  0.87566463  1
  O2-  O127  1  0.39608830  0.76030368  0.14708870  1
  O2-  O128  1  0.39728282  0.75996193  0.37087708  1
  O2-  O129  1  0.37590052  0.75768518  0.65484919  1
  O2-  O130  1  0.34651784  0.75815394  0.87613119  1
  O2-  O131  1  0.67973860  0.26165202  0.12769256  1
  O2-  O132  1  0.71710656  0.27061319  0.37892665  1
  O2-  O133  1  0.58304348  0.25608796  0.64106740  1
  O2-  O134  1  0.57095304  0.25745316  0.85981158  1
  O2-  O135  1  0.60284936  0.77859569  0.14753513  1
  O2-  O136  1  0.63443099  0.75697420  0.37598185  1
  O2-  O137  1  0.59968352  0.76025119  0.63961046  1
  O2-  O138  1  0.63685202  0.75645265  0.86252936  1
  O2-  O139  1  0.85710506  0.26193158  0.11023080  1
  O2-  O140  1  0.90221139  0.24928976  0.37869824  1
  O2-  O141  1  0.90718348  0.25810255  0.61800901  1
  O2-  O142  1  0.86301166  0.26255419  0.88146197  1
  O2-  O143  1  0.92269235  0.71932891  0.13282291  1
  O2-  O144  1  0.91810217  0.74740675  0.37987466  1
  O2-  O145  1  0.81302473  0.76258421  0.59930907  1
  O2-  O146  1  0.81590734  0.74695628  0.86005516  1
  O2-  O147  1  0.14453463  0.12445121  0.00414107  1
  O2-  O148  1  0.14907474  0.13164827  0.25271561  1
  O2-  O149  1  0.12183600  0.10780713  0.49299002  1
  O2-  O150  1  0.11691627  0.15140258  0.74611396  1
  O2-  O151  1  0.09429471  0.61260169  -0.00524254  1
  O2-  O152  1  0.05289667  0.61684200  0.26569510  1
  O2-  O153  1  0.11510916  0.62414495  0.50109088  1
  O2-  O154  1  0.12383567  0.64299671  0.73311586  1
  O2-  O155  1  0.36515953  0.14839753  0.00552176  1
  O2-  O156  1  0.40506602  0.10384899  0.26326344  1
  O2-  O157  1  0.45923719  0.12865869  0.49106744  1
  O2-  O158  1  0.34732820  0.14090853  0.74442491  1
  O2-  O159  1  0.34720348  0.63827161  0.02662554  1
  O2-  O160  1  0.37445847  0.62860576  0.25859375  1
  O2-  O161  1  0.41164374  0.66008286  0.51074137  1
  O2-  O162  1  0.38997467  0.61994122  0.77047510  1
  O2-  O163  1  0.63023971  0.16924062  -0.01022078  1
  O2-  O164  1  0.63075907  0.14629914  0.25524202  1
  O2-  O165  1  0.68596277  0.16032144  0.53414025  1
  O2-  O166  1  0.54463361  0.12666669  0.75154911  1
  O2-  O167  1  0.64000847  0.65069109  0.00403255  1
  O2-  O168  1  0.65773570  0.62996971  0.25047560  1
  O2-  O169  1  0.60653508  0.63513514  0.51158624  1
  O2-  O170  1  0.65332802  0.62281955  0.75889626  1
  O2-  O171  1  0.81943077  0.12935095  0.01288363  1
  O2-  O172  1  0.85409767  0.13640531  0.24666298  1
  O2-  O173  1  0.89081204  0.11740578  0.49240555  1
  O2-  O174  1  0.91710140  0.12984903  0.74807581  1
  O2-  O175  1  0.86776772  0.64581842  -0.01403575  1
  O2-  O176  1  0.85530494  0.61038368  0.25259995  1
  O2-  O177  1  0.92438039  0.63084322  0.52553047  1
  O2-  O178  1  0.84132247  0.63962599  0.72405298  1
  O2-  O179  1  0.14054707  0.36548933  -0.00229819  1
  O2-  O180  1  0.12915825  0.35615463  0.25264459  1
  O2-  O181  1  0.07730192  0.38702615  0.49751806  1
  O2-  O182  1  0.10126134  0.34155518  0.75021168  1
  O2-  O183  1  0.07972569  0.87293922  0.00422331  1
  O2-  O184  1  0.15313140  0.85032612  0.25370454  1
  O2-  O185  1  0.17535050  0.76728300  0.60986899  1
  O2-  O186  1  0.14771222  0.85673082  0.75709521  1
  O2-  O187  1  0.34962260  0.34992252  0.01560508  1
  O2-  O188  1  0.32362669  0.37363129  0.26506513  1
  O2-  O189  1  0.45810507  0.35655035  0.51629603  1
  O2-  O190  1  0.36540182  0.38574353  0.75237175  1
  O2-  O191  1  0.40275509  0.86753061  0.00574793  1
  O2-  O192  1  0.35421256  0.89253898  0.26022496  1
  O2-  O193  1  0.40364406  0.85485013  0.51566205  1
  O2-  O194  1  0.32845703  0.88422838  0.76055004  1
  O2-  O195  1  0.60513075  0.35492816  0.00002652  1
  O2-  O196  1  0.60955085  0.36680967  0.26337816  1
  O2-  O197  1  0.62040156  0.37070387  0.49949414  1
  O2-  O198  1  0.55647678  0.38749520  0.75214578  1
  O2-  O199  1  0.59434505  0.87009377  0.00509559  1
  O2-  O200  1  0.64751471  0.90293579  0.25874862  1
  O2-  O201  1  0.60818916  0.87962373  0.51172519  1
  O2-  O202  1  0.67341340  0.89566835  0.73662588  1
  O2-  O203  1  0.82965798  0.39269659  0.00588989  1
  O2-  O204  1  0.86214196  0.38931521  0.24076072  1
  O2-  O205  1  0.87052410  0.37731391  0.49102304  1
  O2-  O206  1  0.86392391  0.37735248  0.74632491  1
  O2-  O207  1  0.88721602  0.84241068  0.01098138  1
  O2-  O208  1  0.85334940  0.84231189  0.25006131  1
  O2-  O209  1  0.91938918  0.86802495  0.49612159  1
  O2-  O210  1  0.84877525  0.86621778  0.74064831  1
  O2-  O211  1  0.00032766  0.14022417  0.12339163  1
  O2-  O212  1  -0.00258972  -0.12201987  0.16363272  1
  O2-  O213  1  0.09979079  -0.11728638  0.50291070  1
  O2-  O214  1  0.00193345  -0.18830914  0.64151596  1
  O2-  O215  1  -0.02092081  0.39868307  -0.11268743  1
  O2-  O216  1  0.00331043  0.35170880  0.11409537  1
  O2-  O217  1  -0.00758071  0.43084400  0.64349441  1
  O2-  O218  1  -0.01351469  0.62564942  0.84829518  1
  O2-  O219  1  0.23689019  -0.10097998  -0.08005033  1
  O2-  O220  1  0.24920535  -0.14662349  0.11076479  1
  O2-  O221  1  0.25549982  -0.15266803  0.40293901  1
  O2-  O222  1  0.23591785  0.15999845  0.86857936  1
  O2-  O223  1  0.24053449  0.62746665  -0.13254084  1
  O2-  O224  1  0.20703644  0.63622758  0.24566894  1
  O2-  O225  1  0.26513319  0.65143630  0.40353226  1
  O2-  O226  1  0.23395887  0.33627476  0.86119664  1
  O2-  O227  1  0.50527767  0.14551386  0.11382390  1
  O2-  O228  1  0.49465793  -0.07540303  0.14785500  1
  O2-  O229  1  0.50475929  -0.09837055  0.37038163  1
  O2-  O230  1  0.51004224  -0.11420335  0.75156543  1
  O2-  O231  1  0.48755328  0.32891295  0.12779673  1
  O2-  O232  1  0.51592446  0.62855937  0.11920838  1
  O2-  O233  1  0.52029288  0.62267925  0.36804398  1
  O2-  O234  1  0.48730577  0.65845176  0.91895878  1
  O2-  O235  1  0.73945524  -0.10361694  -0.08373844  1
  O2-  O236  1  0.74769994  -0.13232916  0.11590925  1
  O2-  O237  1  0.75600693  -0.12083282  0.40199586  1
  O2-  O238  1  0.70708686  0.14444486  0.75748633  1
  O2-  O239  1  0.75254979  0.69231410  0.12338727  1
  O2-  O240  1  0.75421743  0.53245305  0.10964237  1
  O2-  O241  1  0.76815135  0.64082732  0.45783188  1
  O2-  O242  1  0.72423850  0.36710244  0.86364506  1
