# generated using pymatgen
data_Gd19Ta56(WO20)8
_symmetry_space_group_name_H-M   'P 1'
_cell_length_a   15.58188432
_cell_length_b   15.56660685
_cell_length_c   15.28295221
_cell_angle_alpha   90.00073147
_cell_angle_beta   90.05062286
_cell_angle_gamma   89.96381241
_symmetry_Int_Tables_number   1
_chemical_formula_structural   Gd19Ta56(WO20)8
_chemical_formula_sum   'Gd19 Ta56 W8 O160'
_cell_volume   3706.98588089
_cell_formula_units_Z   1
loop_
 _symmetry_equiv_pos_site_id
 _symmetry_equiv_pos_as_xyz
  1  'x, y, z'
loop_
 _atom_type_symbol
 _atom_type_oxidation_number
  Gd3+  3.0
  Ta5+  5.0
  W6+  6.0
  O2-  -2.0
loop_
 _atom_site_type_symbol
 _atom_site_label
 _atom_site_symmetry_multiplicity
 _atom_site_fract_x
 _atom_site_fract_y
 _atom_site_fract_z
 _atom_site_occupancy
  Gd3+  Gd0  1  0.50676566  0.25764202  0.77173615  1
  Gd3+  Gd1  1  0.00130044  0.74758336  0.46027482  1
  Gd3+  Gd2  1  -0.03536571  0.22773704  0.51906980  1
  Gd3+  Gd3  1  0.22684993  0.24443982  0.73530947  1
  Gd3+  Gd4  1  -0.00861322  0.26425839  0.02555203  1
  Gd3+  Gd5  1  0.25278095  0.26108545  0.26029573  1
  Gd3+  Gd6  1  0.23414907  0.25802989  0.49572637  1
  Gd3+  Gd7  1  0.49469230  0.25527699  0.02738797  1
  Gd3+  Gd8  1  0.75362787  0.73680974  0.75833280  1
  Gd3+  Gd9  1  -0.01912253  0.75714868  0.01556303  1
  Gd3+  Gd10  1  0.80136555  0.75652314  0.23245929  1
  Gd3+  Gd11  1  0.23256503  0.75891547  0.00865880  1
  Gd3+  Gd12  1  0.49557725  0.75053405  0.49535499  1
  Gd3+  Gd13  1  0.24649353  0.75348740  0.50174941  1
  Gd3+  Gd14  1  -0.00030414  0.24606225  0.78311064  1
  Gd3+  Gd15  1  0.73800010  0.25031594  0.24843858  1
  Gd3+  Gd16  1  0.25225633  0.75871381  0.75274039  1
  Gd3+  Gd17  1  0.51023725  0.74100677  0.23875668  1
  Gd3+  Gd18  1  0.74515946  0.25503573  0.51102437  1
  Ta5+  Ta19  1  0.63863394  0.87421069  0.37599601  1
  Ta5+  Ta20  1  0.39387482  0.88082341  0.63439103  1
  Ta5+  Ta21  1  0.87482990  0.86828249  0.62524148  1
  Ta5+  Ta22  1  0.37051134  0.12694868  0.88679801  1
  Ta5+  Ta23  1  0.35880544  0.38102310  0.89909210  1
  Ta5+  Ta24  1  0.10952364  0.89056258  0.12613583  1
  Ta5+  Ta25  1  0.10548619  0.87390912  0.62441078  1
  Ta5+  Ta26  1  0.89951867  0.37515952  0.33592111  1
  Ta5+  Ta27  1  0.61260626  0.12342425  0.63406799  1
  Ta5+  Ta28  1  0.60608285  0.63067157  0.88775382  1
  Ta5+  Ta29  1  0.64931590  0.62098432  0.38863088  1
  Ta5+  Ta30  1  0.16957311  0.12400939  0.13140405  1
  Ta5+  Ta31  1  0.36383693  0.62595407  0.89817173  1
  Ta5+  Ta32  1  0.88871991  0.62250664  0.62257774  1
  Ta5+  Ta33  1  0.13503234  0.61098751  0.87108061  1
  Ta5+  Ta34  1  0.37913046  0.38211224  0.62964462  1
  Ta5+  Ta35  1  0.33813897  0.12690365  0.13113993  1
  Ta5+  Ta36  1  0.12650286  0.62225230  0.13021012  1
  Ta5+  Ta37  1  0.62284767  0.87570352  0.63345864  1
  Ta5+  Ta38  1  0.29842221  0.62484180  0.15395723  1
  Ta5+  Ta39  1  0.64948632  0.12920372  0.88236233  1
  Ta5+  Ta40  1  0.15506037  0.88078751  0.35492350  1
  Ta5+  Ta41  1  0.11760597  0.61900607  0.62351229  1
  Ta5+  Ta42  1  0.89688247  0.61128263  0.87695376  1
  Ta5+  Ta43  1  0.82108663  0.38858918  0.09673476  1
  Ta5+  Ta44  1  0.13237764  0.11359545  0.88484478  1
  Ta5+  Ta45  1  0.91210205  0.12626408  0.31795279  1
  Ta5+  Ta46  1  0.36384052  0.88392791  0.37258043  1
  Ta5+  Ta47  1  0.64586515  0.38469630  0.89001464  1
  Ta5+  Ta48  1  0.12893853  0.11160362  0.61459913  1
  Ta5+  Ta49  1  0.14866927  0.61807903  0.36157324  1
  Ta5+  Ta50  1  0.81804957  0.14126753  0.08518500  1
  Ta5+  Ta51  1  0.32216911  0.38757848  0.11321519  1
  Ta5+  Ta52  1  0.39042902  0.12846010  0.37561795  1
  Ta5+  Ta53  1  0.61892124  0.62198585  0.63745363  1
  Ta5+  Ta54  1  0.33526101  0.87788422  0.15612668  1
  Ta5+  Ta55  1  0.85672205  0.11521370  0.88444199  1
  Ta5+  Ta56  1  0.61954331  0.38146683  0.63220532  1
  Ta5+  Ta57  1  0.61980385  0.88281092  0.88299989  1
  Ta5+  Ta58  1  0.38091552  0.62095676  0.63653582  1
  Ta5+  Ta59  1  0.37667951  0.12318921  0.62821692  1
  Ta5+  Ta60  1  0.15406033  0.38228860  0.12390500  1
  Ta5+  Ta61  1  0.62562596  0.11684989  0.11744560  1
  Ta5+  Ta62  1  0.39193667  0.37823149  0.37486779  1
  Ta5+  Ta63  1  0.91960260  0.38099216  0.63885863  1
  Ta5+  Ta64  1  0.92700002  0.59416925  0.14010761  1
  Ta5+  Ta65  1  0.64086100  0.61893152  0.13403743  1
  Ta5+  Ta66  1  0.86704601  0.90829233  0.11917482  1
  Ta5+  Ta67  1  0.08790221  0.37423885  0.62185631  1
  Ta5+  Ta68  1  0.62978281  0.11971992  0.37876652  1
  Ta5+  Ta69  1  0.65668905  0.37894549  0.11047995  1
  Ta5+  Ta70  1  0.36061379  0.62050919  0.37038960  1
  Ta5+  Ta71  1  0.37549962  0.88064243  0.89781533  1
  Ta5+  Ta72  1  0.85381669  0.60768352  0.37971484  1
  Ta5+  Ta73  1  0.09739390  0.38019657  0.36687935  1
  Ta5+  Ta74  1  0.85526546  0.38024998  0.87713901  1
  W6+  W75  1  0.14788616  0.37102408  0.89819946  1
  W6+  W76  1  0.14159359  0.88817440  0.87450670  1
  W6+  W77  1  0.86871686  0.11559756  0.66045892  1
  W6+  W78  1  0.63622666  0.38138604  0.37108570  1
  W6+  W79  1  0.88804373  0.88503669  0.36814738  1
  W6+  W80  1  0.62573708  0.87072944  0.12563747  1
  W6+  W81  1  0.85683238  0.86601628  0.88232637  1
  W6+  W82  1  0.11017288  0.12163188  0.35662923  1
  O2-  O83  1  0.12623945  0.00631220  0.15040049  1
  O2-  O84  1  0.10579036  -0.01329063  0.36597839  1
  O2-  O85  1  0.08983949  -0.00338747  0.61575535  1
  O2-  O86  1  0.07956494  0.00940669  0.87690612  1
  O2-  O87  1  0.12364311  0.50068676  0.13340442  1
  O2-  O88  1  0.11628442  0.50249145  0.38310504  1
  O2-  O89  1  0.10817352  0.50009260  0.62617367  1
  O2-  O90  1  0.17586136  0.49987771  0.87044046  1
  O2-  O91  1  0.33643554  -0.00057214  0.14791249  1
  O2-  O92  1  0.38078779  0.00680338  0.37135838  1
  O2-  O93  1  0.39877127  0.00431168  0.63625110  1
  O2-  O94  1  0.36993840  0.00453444  0.88513345  1
  O2-  O95  1  0.33458522  0.50508323  0.14060931  1
  O2-  O96  1  0.39292838  0.50277763  0.37548620  1
  O2-  O97  1  0.34978987  0.50158246  0.63367222  1
  O2-  O98  1  0.36890104  0.49991713  0.88349555  1
  O2-  O99  1  0.60309117  0.00082804  0.12048706  1
  O2-  O100  1  0.64059460  -0.00331232  0.38283271  1
  O2-  O101  1  0.61219493  -0.00044387  0.63001004  1
  O2-  O102  1  0.63683252  0.00633108  0.87916371  1
  O2-  O103  1  0.67194084  0.50496137  0.11338881  1
  O2-  O104  1  0.60714144  0.51220168  0.38390777  1
  O2-  O105  1  0.65164017  0.50224957  0.63147543  1
  O2-  O106  1  0.63210128  0.50667297  0.88975897  1
  O2-  O107  1  0.85236984  0.02093990  0.09217772  1
  O2-  O108  1  0.86881395  0.01955364  0.34727133  1
  O2-  O109  1  0.85505041  -0.01559799  0.62707521  1
  O2-  O110  1  0.84271611  -0.00142447  0.89246276  1
  O2-  O111  1  0.84958773  0.50727790  0.11099768  1
  O2-  O112  1  0.85789295  0.47836763  0.38579310  1
  O2-  O113  1  0.88065895  0.50188349  0.61940666  1
  O2-  O114  1  0.83587585  0.50891577  0.88423524  1
  O2-  O115  1  0.13744369  0.24898786  0.13450584  1
  O2-  O116  1  0.14844174  0.25743572  0.36904144  1
  O2-  O117  1  0.11909422  0.24155544  0.60830595  1
  O2-  O118  1  0.08778196  0.23612039  0.90784153  1
  O2-  O119  1  0.10447552  0.75548435  0.09796914  1
  O2-  O120  1  0.15278336  0.74962289  0.38017133  1
  O2-  O121  1  0.16240530  0.75054593  0.62343724  1
  O2-  O122  1  0.16546220  0.74165146  0.87236960  1
  O2-  O123  1  0.33783623  0.25705490  0.11865675  1
  O2-  O124  1  0.33827156  0.25223800  0.38437106  1
  O2-  O125  1  0.33025906  0.26386477  0.62685464  1
  O2-  O126  1  0.41852930  0.25636891  0.89405891  1
  O2-  O127  1  0.29506964  0.75584408  0.15335985  1
  O2-  O128  1  0.37062768  0.75140541  0.39326319  1
  O2-  O129  1  0.35084789  0.75006457  0.61986954  1
  O2-  O130  1  0.34681454  0.75503038  0.89093081  1
  O2-  O131  1  0.63865152  0.24649699  0.10965622  1
  O2-  O132  1  0.66972114  0.24360473  0.37940285  1
  O2-  O133  1  0.64963720  0.25683186  0.64276214  1
  O2-  O134  1  0.60878780  0.25566018  0.88252497  1
  O2-  O135  1  0.67148655  0.74039245  0.15460556  1
  O2-  O136  1  0.58642355  0.73780602  0.37389284  1
  O2-  O137  1  0.65564174  0.74250930  0.63899569  1
  O2-  O138  1  0.64503847  0.74916078  0.86821027  1
  O2-  O139  1  0.84777840  0.26147387  0.08520587  1
  O2-  O140  1  0.85734557  0.24370531  0.35188962  1
  O2-  O141  1  0.91265390  0.24946804  0.66793044  1
  O2-  O142  1  0.88726317  0.25635707  0.88289844  1
  O2-  O143  1  0.91278318  0.71915731  0.14091895  1
  O2-  O144  1  0.89079720  0.73482947  0.36201452  1
  O2-  O145  1  0.83359374  0.73679274  0.61540941  1
  O2-  O146  1  0.84815356  0.72426183  0.88363224  1
  O2-  O147  1  0.16177362  0.11248542  0.00576699  1
  O2-  O148  1  0.20828543  0.12211891  0.25899516  1
  O2-  O149  1  0.16488985  0.12291491  0.49357222  1
  O2-  O150  1  0.11367866  0.14339395  0.75021279  1
  O2-  O151  1  0.12979776  0.62255331  -0.00505538  1
  O2-  O152  1  0.08927549  0.64014531  0.25649648  1
  O2-  O153  1  0.10211921  0.64112709  0.49630074  1
  O2-  O154  1  0.16732301  0.62912211  0.74042982  1
  O2-  O155  1  0.38642828  0.13028475  0.01002926  1
  O2-  O156  1  0.38293433  0.14722802  0.25340555  1
  O2-  O157  1  0.35683138  0.13429151  0.50342454  1
  O2-  O158  1  0.39333952  0.15271424  0.75637177  1
  O2-  O159  1  0.32862268  0.63261805  0.01647848  1
  O2-  O160  1  0.40189050  0.64648678  0.25310876  1
  O2-  O161  1  0.40883168  0.62897840  0.50842193  1
  O2-  O162  1  0.34897176  0.63827423  0.75832266  1
  O2-  O163  1  0.57851056  0.13114553  -0.00673433  1
  O2-  O164  1  0.63856099  0.12772538  0.25162494  1
  O2-  O165  1  0.64896831  0.13238327  0.51079314  1
  O2-  O166  1  0.58850356  0.13179207  0.76384312  1
  O2-  O167  1  0.61161977  0.64164983  0.01101459  1
  O2-  O168  1  0.58933600  0.61615986  0.24880527  1
  O2-  O169  1  0.59618313  0.63949372  0.51181245  1
  O2-  O170  1  0.65463630  0.62131767  0.76181525  1
  O2-  O171  1  0.92144059  0.13377510  -0.00588696  1
  O2-  O172  1  0.83070637  0.14213057  0.21268616  1
  O2-  O173  1  0.84210422  0.15472350  0.53372285  1
  O2-  O174  1  0.93385588  0.11271442  0.78847722  1
  O2-  O175  1  0.93061445  0.61710545  0.00071822  1
  O2-  O176  1  0.90792138  0.59092720  0.26481715  1
  O2-  O177  1  0.91830765  0.62603582  0.49011293  1
  O2-  O178  1  0.85451910  0.62460505  0.74737496  1
  O2-  O179  1  0.08645590  0.37504282  0.01511590  1
  O2-  O180  1  0.16564819  0.38096163  0.25804462  1
  O2-  O181  1  0.13760214  0.37163617  0.49517939  1
  O2-  O182  1  0.11032781  0.34419267  0.75035624  1
  O2-  O183  1  0.16556024  0.89092134  0.01208537  1
  O2-  O184  1  0.10045214  0.85219891  0.24677496  1
  O2-  O185  1  0.10216073  0.85518215  0.49616355  1
  O2-  O186  1  0.16573498  0.88062084  0.73274476  1
  O2-  O187  1  0.41379992  0.37850271  0.01310624  1
  O2-  O188  1  0.35540173  0.37050129  0.25455536  1
  O2-  O189  1  0.34895166  0.37635930  0.49954129  1
  O2-  O190  1  0.40312456  0.36855853  0.75453121  1
  O2-  O191  1  0.35460324  0.86988550  0.02555438  1
  O2-  O192  1  0.41517238  0.85603166  0.25576280  1
  O2-  O193  1  0.41410058  0.87663426  0.50229023  1
  O2-  O194  1  0.36521411  0.86885704  0.75956534  1
  O2-  O195  1  0.58079709  0.37329826  -0.00008556  1
  O2-  O196  1  0.64104497  0.37095864  0.23386013  1
  O2-  O197  1  0.65333567  0.37339490  0.51208816  1
  O2-  O198  1  0.59169746  0.38117624  0.76138652  1
  O2-  O199  1  0.66444537  0.86970274  -0.00674827  1
  O2-  O200  1  0.58863804  0.86810907  0.26374448  1
  O2-  O201  1  0.60949717  0.85673333  0.50039088  1
  O2-  O202  1  0.65476486  0.87456579  0.75652530  1
  O2-  O203  1  0.91201215  0.38648907  -0.00955948  1
  O2-  O204  1  0.83488391  0.36648715  0.22782845  1
  O2-  O205  1  0.86096117  0.34189150  0.53366629  1
  O2-  O206  1  0.92502319  0.39292185  0.77545127  1
  O2-  O207  1  0.85595532  0.83819541  0.01758665  1
  O2-  O208  1  0.90297251  0.87498529  0.23281147  1
  O2-  O209  1  0.90544766  0.85511943  0.50223798  1
  O2-  O210  1  0.83821360  0.85449177  0.74593740  1
  O2-  O211  1  -0.00550885  -0.10553970  0.08499182  1
  O2-  O212  1  0.01104454  0.12762160  0.25054094  1
  O2-  O213  1  -0.01139583  0.12996691  0.41993017  1
  O2-  O214  1  -0.00570137  -0.15831098  0.65683132  1
  O2-  O215  1  0.01315091  0.60180822  -0.15847698  1
  O2-  O216  1  -0.00037415  0.41346116  0.28210579  1
  O2-  O217  1  -0.00915870  0.32735349  0.41421759  1
  O2-  O218  1  0.00254155  0.65402360  0.64925959  1
  O2-  O219  1  0.25252402  0.15169835  -0.14418432  1
  O2-  O220  1  0.26325970  -0.11257412  0.28023325  1
  O2-  O221  1  0.25646783  -0.11306833  0.44210222  1
  O2-  O222  1  0.25192612  0.11158278  0.65042919  1
  O2-  O223  1  0.25745232  0.37978494  -0.00685396  1
  O2-  O224  1  0.25471077  0.60763462  0.28698752  1
  O2-  O225  1  0.25632628  0.61901556  0.44511644  1
  O2-  O226  1  0.26048740  0.33957861  0.83436580  1
  O2-  O227  1  0.50006698  -0.12701225  -0.11037989  1
  O2-  O228  1  0.50965257  0.14051179  0.39099564  1
  O2-  O229  1  0.49693904  0.16516941  0.61528267  1
  O2-  O230  1  0.50734998  -0.17355901  0.64391819  1
  O2-  O231  1  0.48873019  0.63727233  -0.12600095  1
  O2-  O232  1  0.50271988  0.34696820  0.38189115  1
  O2-  O233  1  0.49957394  0.37897307  0.60501580  1
  O2-  O234  1  0.50090784  0.61895999  0.66490375  1
  O2-  O235  1  0.74832440  0.14231431  -0.02585968  1
  O2-  O236  1  0.75550775  -0.11579892  0.16382401  1
  O2-  O237  1  0.74946602  -0.16031969  0.35722174  1
  O2-  O238  1  0.75363269  0.14493988  0.81187891  1
  O2-  O239  1  0.74219196  0.37680219  -0.01660439  1
  O2-  O240  1  0.74788493  0.64053100  0.30648575  1
  O2-  O241  1  0.75053837  0.60822854  0.46141372  1
  O2-  O242  1  0.74751854  0.35987569  0.81905729  1
