# generated using pymatgen
data_Gd19Ta56(WO20)8
_symmetry_space_group_name_H-M   'P 1'
_cell_length_a   15.49758744
_cell_length_b   15.51750525
_cell_length_c   15.26350024
_cell_angle_alpha   90.01036462
_cell_angle_beta   89.96504473
_cell_angle_gamma   90.14369812
_symmetry_Int_Tables_number   1
_chemical_formula_structural   Gd19Ta56(WO20)8
_chemical_formula_sum   'Gd19 Ta56 W8 O160'
_cell_volume   3670.61369534
_cell_formula_units_Z   1
loop_
 _symmetry_equiv_pos_site_id
 _symmetry_equiv_pos_as_xyz
  1  'x, y, z'
loop_
 _atom_type_symbol
 _atom_type_oxidation_number
  Gd3+  3.0
  Ta5+  5.0
  W6+  6.0
  O2-  -2.0
loop_
 _atom_site_type_symbol
 _atom_site_label
 _atom_site_symmetry_multiplicity
 _atom_site_fract_x
 _atom_site_fract_y
 _atom_site_fract_z
 _atom_site_occupancy
  Gd3+  Gd0  1  0.50991582  0.74335053  0.00122325  1
  Gd3+  Gd1  1  0.75682464  0.24543678  0.75652233  1
  Gd3+  Gd2  1  -0.00242196  0.24598563  0.24610501  1
  Gd3+  Gd3  1  -0.00912079  0.77415865  0.50255648  1
  Gd3+  Gd4  1  0.74802785  0.77192186  0.76741494  1
  Gd3+  Gd5  1  0.47753218  0.24160845  0.47962364  1
  Gd3+  Gd6  1  0.49024359  0.25330631  0.24935544  1
  Gd3+  Gd7  1  -0.00547381  0.75124317  0.74360053  1
  Gd3+  Gd8  1  0.24050629  0.73230758  0.51409306  1
  Gd3+  Gd9  1  0.01529116  0.25195491  -0.01738168  1
  Gd3+  Gd10  1  0.00972436  0.74470482  -0.02157077  1
  Gd3+  Gd11  1  0.73999983  0.24173923  0.50513855  1
  Gd3+  Gd12  1  0.49563739  0.73091335  0.27955951  1
  Gd3+  Gd13  1  0.03735325  0.26342206  0.47544160  1
  Gd3+  Gd14  1  0.76108801  0.74055635  0.00729987  1
  Gd3+  Gd15  1  0.24026324  0.25041423  0.27046183  1
  Gd3+  Gd16  1  0.49695837  0.75024777  0.71661646  1
  Gd3+  Gd17  1  -0.00459622  0.76739753  0.23997899  1
  Gd3+  Gd18  1  0.25544217  0.24906816  0.52956413  1
  Ta5+  Ta19  1  0.38580507  0.61363710  0.87372150  1
  Ta5+  Ta20  1  0.62740502  0.11421891  0.38047239  1
  Ta5+  Ta21  1  0.12050570  0.11676273  0.12208224  1
  Ta5+  Ta22  1  0.90041501  0.62368606  0.37420822  1
  Ta5+  Ta23  1  0.11773677  0.10382488  0.37286301  1
  Ta5+  Ta24  1  0.82486379  0.86479141  0.35976264  1
  Ta5+  Ta25  1  0.32369486  0.59334114  0.37226328  1
  Ta5+  Ta26  1  0.13115271  0.88049994  0.84279356  1
  Ta5+  Ta27  1  0.88393676  0.12590724  0.11051398  1
  Ta5+  Ta28  1  0.09420039  0.38213009  0.66668253  1
  Ta5+  Ta29  1  0.13547394  0.12952144  0.85959011  1
  Ta5+  Ta30  1  0.38453725  0.36094513  0.89297299  1
  Ta5+  Ta31  1  0.86113276  0.38222689  0.37075987  1
  Ta5+  Ta32  1  0.87829285  0.61479399  0.12277460  1
  Ta5+  Ta33  1  0.84233913  0.88103769  0.61396264  1
  Ta5+  Ta34  1  0.16265798  0.44572063  0.37767244  1
  Ta5+  Ta35  1  0.13032424  0.62471045  0.12174921  1
  Ta5+  Ta36  1  0.13246777  0.88933976  0.10188367  1
  Ta5+  Ta37  1  0.38219085  0.10985051  0.88843531  1
  Ta5+  Ta38  1  0.15308141  0.37845392  0.13054028  1
  Ta5+  Ta39  1  0.85392745  0.62970822  0.61880246  1
  Ta5+  Ta40  1  0.15552151  0.86493935  0.36444907  1
  Ta5+  Ta41  1  0.32254129  0.37633827  0.12255678  1
  Ta5+  Ta42  1  0.35877237  0.12392284  0.12474454  1
  Ta5+  Ta43  1  0.84918911  0.88183171  0.13828442  1
  Ta5+  Ta44  1  0.62441583  0.88279376  0.88532644  1
  Ta5+  Ta45  1  0.36689186  0.61799625  0.12805664  1
  Ta5+  Ta46  1  0.37435346  0.39797922  0.38214476  1
  Ta5+  Ta47  1  0.62786854  0.36836240  0.89519675  1
  Ta5+  Ta48  1  0.39816902  0.11282707  0.65401654  1
  Ta5+  Ta49  1  0.67006008  0.87545403  0.61856376  1
  Ta5+  Ta50  1  0.62435253  0.12395931  0.89098031  1
  Ta5+  Ta51  1  0.88323444  0.38187698  0.62477381  1
  Ta5+  Ta52  1  0.37127058  0.89342274  0.12793217  1
  Ta5+  Ta53  1  0.34881863  0.60854923  0.62807127  1
  Ta5+  Ta54  1  0.62190817  0.61873282  0.12894986  1
  Ta5+  Ta55  1  0.62381989  0.38428596  0.38949633  1
  Ta5+  Ta56  1  0.31709852  0.87781421  0.64315296  1
  Ta5+  Ta57  1  0.85718790  0.61217139  0.85945872  1
  Ta5+  Ta58  1  0.63753934  0.88346087  0.13556668  1
  Ta5+  Ta59  1  0.60668268  0.11302936  0.64326329  1
  Ta5+  Ta60  1  0.91532271  0.37996496  0.84770484  1
  Ta5+  Ta61  1  0.68708294  0.61985945  0.64147826  1
  Ta5+  Ta62  1  0.65956077  0.63033365  0.39064757  1
  Ta5+  Ta63  1  0.14035754  0.88185062  0.62519432  1
  Ta5+  Ta64  1  0.60899409  0.38518468  0.64741439  1
  Ta5+  Ta65  1  0.89481808  0.12062850  0.63174438  1
  Ta5+  Ta66  1  0.40401985  0.37308779  0.65144114  1
  Ta5+  Ta67  1  0.09944770  0.61193292  0.61732560  1
  Ta5+  Ta68  1  0.61749993  0.37501615  0.12999886  1
  Ta5+  Ta69  1  0.86742883  0.10952214  0.37508844  1
  Ta5+  Ta70  1  0.36850889  0.09952301  0.37449975  1
  Ta5+  Ta71  1  0.63658780  0.61019830  0.86959262  1
  Ta5+  Ta72  1  0.88004463  0.88792190  0.88123015  1
  Ta5+  Ta73  1  0.07267484  0.62312084  0.36682782  1
  Ta5+  Ta74  1  0.90206753  0.38252509  0.11308291  1
  W6+  W75  1  0.14592995  0.61961267  0.86196657  1
  W6+  W76  1  0.16840083  0.38105794  0.89160306  1
  W6+  W77  1  0.65771899  0.86437911  0.36470763  1
  W6+  W78  1  0.32195389  0.85182991  0.37270161  1
  W6+  W79  1  0.92863295  0.12062175  0.84830852  1
  W6+  W80  1  0.62934646  0.13478900  0.12969379  1
  W6+  W81  1  0.38440317  0.86002547  0.87031042  1
  W6+  W82  1  0.10668908  0.12700562  0.63830279  1
  O2-  O83  1  0.07757563  -0.00509362  0.10023231  1
  O2-  O84  1  0.14006129  -0.01555404  0.38367042  1
  O2-  O85  1  0.12851819  -0.00188195  0.61137841  1
  O2-  O86  1  0.12894533  0.00193352  0.86172694  1
  O2-  O87  1  0.15092700  0.50847744  0.12540858  1
  O2-  O88  1  0.05618775  0.49497310  0.40087495  1
  O2-  O89  1  0.11207170  0.48578377  0.60461973  1
  O2-  O90  1  0.18264576  0.51076763  0.90322445  1
  O2-  O91  1  0.41658092  0.00472445  0.12231544  1
  O2-  O92  1  0.36001154  -0.01598862  0.37006430  1
  O2-  O93  1  0.34303389  0.00682281  0.63302988  1
  O2-  O94  1  0.36621885  -0.00874461  0.88440987  1
  O2-  O95  1  0.35887728  0.50071107  0.11934192  1
  O2-  O96  1  0.42282795  0.51141486  0.37139054  1
  O2-  O97  1  0.35434388  0.47958291  0.62109828  1
  O2-  O98  1  0.39638773  0.49758133  0.88925757  1
  O2-  O99  1  0.62973039  -0.00018351  0.14614831  1
  O2-  O100  1  0.64784290  0.00063102  0.35564665  1
  O2-  O101  1  0.65415601  0.00256390  0.64259977  1
  O2-  O102  1  0.63225818  0.00145422  0.86775643  1
  O2-  O103  1  0.59310202  0.49947702  0.13042559  1
  O2-  O104  1  0.62970453  0.50614799  0.37808561  1
  O2-  O105  1  0.66118531  0.49491559  0.64949945  1
  O2-  O106  1  0.63629025  0.48827698  0.86273633  1
  O2-  O107  1  0.86443719  0.00173157  0.11897018  1
  O2-  O108  1  0.84182218  -0.00560886  0.36703803  1
  O2-  O109  1  0.87628430  0.00180023  0.60884431  1
  O2-  O110  1  0.87633259  0.00379064  0.88431073  1
  O2-  O111  1  0.85961709  0.49580764  0.09467326  1
  O2-  O112  1  0.87566653  0.49850444  0.39381333  1
  O2-  O113  1  0.86748592  0.50181722  0.61591391  1
  O2-  O114  1  0.91042645  0.50525057  0.87249314  1
  O2-  O115  1  0.12718002  0.24591667  0.15445379  1
  O2-  O116  1  0.10980631  0.23406138  0.34224936  1
  O2-  O117  1  0.13687700  0.27300989  0.62425523  1
  O2-  O118  1  0.11183083  0.25360827  0.86782376  1
  O2-  O119  1  0.06301160  0.78450297  0.10785883  1
  O2-  O120  1  0.07257297  0.76229166  0.37075155  1
  O2-  O121  1  0.08919370  0.74861818  0.62562134  1
  O2-  O122  1  0.10784704  0.74862163  0.85001717  1
  O2-  O123  1  0.36095237  0.25189867  0.13596438  1
  O2-  O124  1  0.36854386  0.25468123  0.36032668  1
  O2-  O125  1  0.36056329  0.24067690  0.63688236  1
  O2-  O126  1  0.37574851  0.24262100  0.90057184  1
  O2-  O127  1  0.48819500  0.67040490  0.13697720  1
  O2-  O128  1  0.29007729  0.71575299  0.37568467  1
  O2-  O129  1  0.34430495  0.74068278  0.63620074  1
  O2-  O130  1  0.44935572  0.73039280  0.86090829  1
  O2-  O131  1  0.56543771  0.26396638  0.11452358  1
  O2-  O132  1  0.61231234  0.25241585  0.41232162  1
  O2-  O133  1  0.66162850  0.24048541  0.63198019  1
  O2-  O134  1  0.66702223  0.24779057  0.89117159  1
  O2-  O135  1  0.63469966  0.74718752  0.09500723  1
  O2-  O136  1  0.59926147  0.73633566  0.38984731  1
  O2-  O137  1  0.66293009  0.74688318  0.63921397  1
  O2-  O138  1  0.64472689  0.74529138  0.89491694  1
  O2-  O139  1  0.90219713  0.25385789  0.11780762  1
  O2-  O140  1  0.92327291  0.26882749  0.37859932  1
  O2-  O141  1  0.84930717  0.25261402  0.63612838  1
  O2-  O142  1  0.92577456  0.25703214  0.84387532  1
  O2-  O143  1  0.86640650  0.74929364  0.13835932  1
  O2-  O144  1  0.87121562  0.74880835  0.34336117  1
  O2-  O145  1  0.89475746  0.76029096  0.62670282  1
  O2-  O146  1  0.86756006  0.74587543  0.85763903  1
  O2-  O147  1  0.12348113  0.13720468  -0.00248174  1
  O2-  O148  1  0.08188016  0.10086139  0.24518093  1
  O2-  O149  1  0.14756787  0.14949688  0.49221748  1
  O2-  O150  1  0.18506577  0.13418255  0.75025093  1
  O2-  O151  1  0.13112842  0.65935840  0.00049646  1
  O2-  O152  1  0.10216034  0.65921902  0.24060248  1
  O2-  O153  1  0.11715578  0.64547543  0.49029508  1
  O2-  O154  1  0.08661806  0.61656308  0.74245174  1
  O2-  O155  1  0.32977983  0.11619309  0.00397774  1
  O2-  O156  1  0.40235665  0.12846693  0.24890841  1
  O2-  O157  1  0.35054784  0.13693022  0.49688117  1
  O2-  O158  1  0.35466815  0.13234887  0.76980733  1
  O2-  O159  1  0.38249259  0.64373506  0.00241827  1
  O2-  O160  1  0.38089128  0.62818854  0.25954481  1
  O2-  O161  1  0.35268453  0.61923430  0.49746758  1
  O2-  O162  1  0.39646211  0.61265188  0.74432066  1
  O2-  O163  1  0.67013099  0.11278986  0.00192398  1
  O2-  O164  1  0.59771913  0.15840463  0.26095117  1
  O2-  O165  1  0.64867193  0.11692944  0.50960069  1
  O2-  O166  1  0.65109912  0.13957358  0.76381313  1
  O2-  O167  1  0.58352839  0.61369104  -0.01031917  1
  O2-  O168  1  0.61958937  0.63750168  0.25310439  1
  O2-  O169  1  0.67621897  0.62399888  0.51134134  1
  O2-  O170  1  0.58637601  0.63757732  0.75580327  1
  O2-  O171  1  0.91935701  0.13239831  -0.00718679  1
  O2-  O172  1  0.89236330  0.13695455  0.24782774  1
  O2-  O173  1  0.84651197  0.13667162  0.50235197  1
  O2-  O174  1  0.83257902  0.12117002  0.74280479  1
  O2-  O175  1  0.89233772  0.65163884  -0.01159559  1
  O2-  O176  1  0.88206090  0.60317133  0.24446759  1
  O2-  O177  1  0.88542183  0.65440566  0.49779930  1
  O2-  O178  1  0.90525192  0.62824875  0.74168048  1
  O2-  O179  1  0.11770833  0.35458830  0.01096827  1
  O2-  O180  1  0.15723711  0.38964345  0.26851475  1
  O2-  O181  1  0.16486196  0.35115544  0.45967064  1
  O2-  O182  1  0.17122009  0.39699946  0.75677702  1
  O2-  O183  1  0.14762896  0.86879022  -0.02038271  1
  O2-  O184  1  0.12724595  0.86673845  0.23931372  1
  O2-  O185  1  0.13394214  0.84579125  0.49732189  1
  O2-  O186  1  0.06323101  0.88294634  0.73250329  1
  O2-  O187  1  0.30964356  0.37984382  -0.00974386  1
  O2-  O188  1  0.34008819  0.38478268  0.26064126  1
  O2-  O189  1  0.36770739  0.34880940  0.50524813  1
  O2-  O190  1  0.36035013  0.36282740  0.76875843  1
  O2-  O191  1  0.39283051  0.83766447  0.02214051  1
  O2-  O192  1  0.38619156  0.83126206  0.23243463  1
  O2-  O193  1  0.31518227  0.86395483  0.51773724  1
  O2-  O194  1  0.40947780  0.86693713  0.73419528  1
  O2-  O195  1  0.67026855  0.38427114  0.01097400  1
  O2-  O196  1  0.61323388  0.36371252  0.25417398  1
  O2-  O197  1  0.64445718  0.38288723  0.51651696  1
  O2-  O198  1  0.64671136  0.34988020  0.76254349  1
  O2-  O199  1  0.57980295  0.88157128  0.00755912  1
  O2-  O200  1  0.57958692  0.84108737  0.23761424  1
  O2-  O201  1  0.66360331  0.87361254  0.49989994  1
  O2-  O202  1  0.61155083  0.85443103  0.75841009  1
  O2-  O203  1  0.91647337  0.36714840  -0.02003128  1
  O2-  O204  1  0.87826818  0.37953405  0.24629035  1
  O2-  O205  1  0.83636283  0.36143748  0.50726975  1
  O2-  O206  1  0.82788839  0.38170021  0.75268790  1
  O2-  O207  1  0.89282484  0.85095219  0.00827907  1
  O2-  O208  1  0.91222138  0.88771497  0.24975814  1
  O2-  O209  1  0.85340142  0.85642312  0.48171650  1
  O2-  O210  1  0.86159016  0.87684223  0.74957017  1
  O2-  O211  1  0.00307277  -0.13282095  -0.11825139  1
  O2-  O212  1  -0.00692663  0.10914904  0.39739663  1
  O2-  O213  1  -0.00339690  0.16612078  0.57239080  1
  O2-  O214  1  -0.00860390  0.10750023  0.72115995  1
  O2-  O215  1  0.00176184  0.61927911  0.11178273  1
  O2-  O216  1  0.01591873  0.38622282  0.14984744  1
  O2-  O217  1  -0.00688779  0.36436832  0.57027784  1
  O2-  O218  1  -0.01370663  0.39161187  0.73167640  1
  O2-  O219  1  0.25297332  -0.08716219  0.12448489  1
  O2-  O220  1  0.24167531  0.11487507  0.15829274  1
  O2-  O221  1  0.24598928  0.12460828  0.34458108  1
  O2-  O222  1  0.22360479  -0.13473064  0.73669207  1
  O2-  O223  1  0.25462776  0.66478870  0.13505900  1
  O2-  O224  1  0.20684167  0.56620530  0.33088265  1
  O2-  O225  1  0.27996234  0.47227074  0.42967680  1
  O2-  O226  1  0.22727890  0.61462915  0.62692130  1
  O2-  O227  1  0.50440155  0.12466885  -0.09621279  1
  O2-  O228  1  0.49646178  0.11579730  0.39482017  1
  O2-  O229  1  0.50018734  0.14102720  0.57779367  1
  O2-  O230  1  0.50268555  0.07651547  0.71526700  1
  O2-  O231  1  0.50912902  0.36065311  -0.09320154  1
  O2-  O232  1  0.49703407  0.36246797  0.37610416  1
  O2-  O233  1  0.50899565  0.32100626  0.59609137  1
  O2-  O234  1  0.50455595  0.43156115  0.70235081  1
  O2-  O235  1  0.74295487  -0.12325449  0.06533492  1
  O2-  O236  1  0.74993345  -0.12832704  0.22786241  1
  O2-  O237  1  0.75048092  0.15858078  0.36666241  1
  O2-  O238  1  0.74931117  -0.12981974  0.88855021  1
  O2-  O239  1  0.74908698  0.60898441  -0.06795918  1
  O2-  O240  1  0.74330539  0.62168998  0.11237089  1
  O2-  O241  1  0.74318160  0.35693941  0.36424655  1
  O2-  O242  1  0.74450772  0.62224809  0.77604765  1
