# generated using pymatgen
data_Gd19Ta56(WO20)8
_symmetry_space_group_name_H-M   'P 1'
_cell_length_a   15.57108097
_cell_length_b   15.54286417
_cell_length_c   15.33581887
_cell_angle_alpha   89.89981087
_cell_angle_beta   90.07875564
_cell_angle_gamma   90.07506389
_symmetry_Int_Tables_number   1
_chemical_formula_structural   Gd19Ta56(WO20)8
_chemical_formula_sum   'Gd19 Ta56 W8 O160'
_cell_volume   3711.55020640
_cell_formula_units_Z   1
loop_
 _symmetry_equiv_pos_site_id
 _symmetry_equiv_pos_as_xyz
  1  'x, y, z'
loop_
 _atom_type_symbol
 _atom_type_oxidation_number
  Gd3+  3.0
  Ta5+  5.0
  W6+  6.0
  O2-  -2.0
loop_
 _atom_site_type_symbol
 _atom_site_label
 _atom_site_symmetry_multiplicity
 _atom_site_fract_x
 _atom_site_fract_y
 _atom_site_fract_z
 _atom_site_occupancy
  Gd3+  Gd0  1  0.72280424  0.24818589  0.49067312  1
  Gd3+  Gd1  1  0.74986408  0.75844538  0.26792406  1
  Gd3+  Gd2  1  0.74794088  0.72271347  0.01368687  1
  Gd3+  Gd3  1  0.50274001  0.75617458  0.25714119  1
  Gd3+  Gd4  1  0.27399544  0.25261177  0.24955551  1
  Gd3+  Gd5  1  -0.01366734  0.73318278  0.02302327  1
  Gd3+  Gd6  1  0.01908164  0.76006057  0.74400258  1
  Gd3+  Gd7  1  0.23750291  0.24546753  -0.00712408  1
  Gd3+  Gd8  1  0.24917527  0.25210512  0.73519136  1
  Gd3+  Gd9  1  0.19811370  0.74892233  -0.02680317  1
  Gd3+  Gd10  1  0.00108793  0.75966510  0.48397673  1
  Gd3+  Gd11  1  0.49239602  0.74527112  0.50018815  1
  Gd3+  Gd12  1  0.76638459  0.72277608  0.77299967  1
  Gd3+  Gd13  1  0.47433139  0.26188047  0.52572760  1
  Gd3+  Gd14  1  0.76648170  0.25596260  0.00536481  1
  Gd3+  Gd15  1  0.76345972  0.25305857  0.74610931  1
  Gd3+  Gd16  1  -0.00100122  0.27003574  0.02409896  1
  Gd3+  Gd17  1  0.27070894  0.75567112  0.74935571  1
  Gd3+  Gd18  1  0.50773664  0.77985858  0.03329289  1
  Ta5+  Ta19  1  0.11765885  0.38495269  0.85188218  1
  Ta5+  Ta20  1  0.61889298  0.12237098  0.87774516  1
  Ta5+  Ta21  1  0.91412809  0.37113453  0.19602113  1
  Ta5+  Ta22  1  0.65628348  0.62416414  0.59439329  1
  Ta5+  Ta23  1  0.84661556  0.87516738  0.12940234  1
  Ta5+  Ta24  1  0.38246813  0.37712202  0.11323962  1
  Ta5+  Ta25  1  0.84634909  0.61515912  0.39291039  1
  Ta5+  Ta26  1  0.36368674  0.88833052  0.37344865  1
  Ta5+  Ta27  1  0.63281153  0.87579313  0.86997309  1
  Ta5+  Ta28  1  0.90260655  0.42504253  0.86890425  1
  Ta5+  Ta29  1  0.61989556  0.12208090  0.12661402  1
  Ta5+  Ta30  1  0.40539652  0.38213864  0.36662070  1
  Ta5+  Ta31  1  0.67708953  0.88292214  0.12784942  1
  Ta5+  Ta32  1  0.13937184  0.88384118  0.60155039  1
  Ta5+  Ta33  1  0.34303024  0.88079860  0.15576978  1
  Ta5+  Ta34  1  0.89424465  0.11163242  0.85207580  1
  Ta5+  Ta35  1  0.12729473  0.12332150  0.12940009  1
  Ta5+  Ta36  1  0.38507712  0.11764866  0.11782462  1
  Ta5+  Ta37  1  0.60411334  0.36340646  0.12264317  1
  Ta5+  Ta38  1  0.61682085  0.61934421  0.86722128  1
  Ta5+  Ta39  1  0.14031283  0.61743407  0.39526541  1
  Ta5+  Ta40  1  0.61530469  0.88861845  0.38160364  1
  Ta5+  Ta41  1  0.13004518  0.12166677  0.59717048  1
  Ta5+  Ta42  1  0.88628314  0.37555574  0.43879201  1
  Ta5+  Ta43  1  0.57315571  0.36584172  0.36819136  1
  Ta5+  Ta44  1  0.88971911  0.11344882  0.62511546  1
  Ta5+  Ta45  1  0.32823474  0.62464524  0.57851385  1
  Ta5+  Ta46  1  0.38922523  0.87699244  0.89248787  1
  Ta5+  Ta47  1  0.89318931  0.60929227  0.89078894  1
  Ta5+  Ta48  1  0.86078014  0.88837882  0.38112335  1
  Ta5+  Ta49  1  0.61239704  0.11849381  0.63381567  1
  Ta5+  Ta50  1  0.38544267  0.62749273  0.89458342  1
  Ta5+  Ta51  1  0.09454960  0.12956732  0.84671504  1
  Ta5+  Ta52  1  0.15036504  0.37403142  0.36438514  1
  Ta5+  Ta53  1  0.85942234  0.87653387  0.62454892  1
  Ta5+  Ta54  1  0.89567387  0.62060114  0.63184970  1
  Ta5+  Ta55  1  0.37928497  0.11980561  0.62794087  1
  Ta5+  Ta56  1  0.57678396  0.13321429  0.37343504  1
  Ta5+  Ta57  1  0.61770569  0.38086666  0.63140517  1
  Ta5+  Ta58  1  0.11174339  0.87542505  0.12648966  1
  Ta5+  Ta59  1  0.87974305  0.87139077  0.88846965  1
  Ta5+  Ta60  1  0.38059411  0.12308683  0.87661932  1
  Ta5+  Ta61  1  0.86700657  0.60742510  0.15558964  1
  Ta5+  Ta62  1  0.11972143  0.61332121  0.61037649  1
  Ta5+  Ta63  1  0.37519467  0.38194301  0.88108186  1
  Ta5+  Ta64  1  0.05158134  0.57122063  0.85871115  1
  Ta5+  Ta65  1  0.14270259  0.11775826  0.34912478  1
  Ta5+  Ta66  1  0.61747761  0.37369927  0.87624283  1
  Ta5+  Ta67  1  0.88496428  0.11658349  0.14451485  1
  Ta5+  Ta68  1  0.15869723  0.87184125  0.35662200  1
  Ta5+  Ta69  1  0.36737167  0.62445955  0.12819122  1
  Ta5+  Ta70  1  0.62548212  0.60820131  0.38572563  1
  Ta5+  Ta71  1  0.40969461  0.13131960  0.37061201  1
  Ta5+  Ta72  1  0.65194698  0.87657535  0.62079402  1
  Ta5+  Ta73  1  0.16193602  0.62688731  0.16364635  1
  Ta5+  Ta74  1  0.62115295  0.61060108  0.13424321  1
  W6+  W75  1  0.85117414  0.13496157  0.37569727  1
  W6+  W76  1  0.08846661  0.89132259  0.86053208  1
  W6+  W77  1  0.38885773  0.87052429  0.62565951  1
  W6+  W78  1  0.15478583  0.39039834  0.11884958  1
  W6+  W79  1  0.91062978  0.37035416  0.63750942  1
  W6+  W80  1  0.36460720  0.39230833  0.62674022  1
  W6+  W81  1  0.35272554  0.62381005  0.34515945  1
  W6+  W82  1  0.12105573  0.36431296  0.59501813  1
  O2-  O83  1  0.11438741  -0.00259979  0.12519303  1
  O2-  O84  1  0.13276463  -0.00833577  0.34581555  1
  O2-  O85  1  0.16862016  0.00442142  0.60073832  1
  O2-  O86  1  0.12534744  0.02166114  0.88068168  1
  O2-  O87  1  0.12925631  0.52407300  0.11732947  1
  O2-  O88  1  0.12600445  0.49492648  0.38289748  1
  O2-  O89  1  0.11577993  0.49605416  0.60708653  1
  O2-  O90  1  0.16949864  0.48981608  0.87154345  1
  O2-  O91  1  0.33810051  0.00511807  0.13451312  1
  O2-  O92  1  0.37724014  0.00878065  0.36851388  1
  O2-  O93  1  0.37571233  0.00245878  0.63334096  1
  O2-  O94  1  0.39134312  -0.00115178  0.88175283  1
  O2-  O95  1  0.37626790  0.50110078  0.11383153  1
  O2-  O96  1  0.36388215  0.49389736  0.34865535  1
  O2-  O97  1  0.37379401  0.52846225  0.62580441  1
  O2-  O98  1  0.38315788  0.50562353  0.90358387  1
  O2-  O99  1  0.66806547  0.01261282  0.12745304  1
  O2-  O100  1  0.59019261  0.00422395  0.37769833  1
  O2-  O101  1  0.61228461  -0.00184035  0.63591268  1
  O2-  O102  1  0.61119969  -0.00161980  0.87769974  1
  O2-  O103  1  0.60796957  0.48634433  0.12353514  1
  O2-  O104  1  0.60999741  0.48951645  0.37725357  1
  O2-  O105  1  0.63612651  0.50100380  0.62027579  1
  O2-  O106  1  0.61701129  0.49790113  0.87184058  1
  O2-  O107  1  0.88721805  -0.00090239  0.13828618  1
  O2-  O108  1  0.87882057  0.00388237  0.37416192  1
  O2-  O109  1  0.90840518  -0.01364741  0.64013941  1
  O2-  O110  1  0.88075026  0.00141245  0.89512574  1
  O2-  O111  1  0.87141251  0.47625973  0.15775511  1
  O2-  O112  1  0.85031568  0.49070669  0.41118830  1
  O2-  O113  1  0.91530667  0.50552325  0.63865607  1
  O2-  O114  1  0.81118660  0.50269448  0.87250506  1
  O2-  O115  1  0.16793487  0.25043200  0.13101789  1
  O2-  O116  1  0.14282376  0.24639237  0.33600616  1
  O2-  O117  1  0.17196731  0.23593069  0.60674063  1
  O2-  O118  1  0.15755661  0.24477879  0.86068137  1
  O2-  O119  1  0.10467700  0.72835603  0.11632509  1
  O2-  O120  1  0.13297380  0.74952724  0.39245399  1
  O2-  O121  1  0.09543323  0.75288742  0.60664990  1
  O2-  O122  1  0.15543440  0.77737605  0.82952193  1
  O2-  O123  1  0.34737274  0.24164419  0.10632596  1
  O2-  O124  1  0.36605160  0.25369902  0.37769168  1
  O2-  O125  1  0.35776757  0.25145043  0.62767874  1
  O2-  O126  1  0.34716974  0.25215358  0.87994749  1
  O2-  O127  1  0.38933258  0.76085937  0.14427277  1
  O2-  O128  1  0.39723876  0.76064857  0.35727471  1
  O2-  O129  1  0.38801706  0.72730971  0.61813869  1
  O2-  O130  1  0.33433932  0.75416542  0.90986234  1
  O2-  O131  1  0.66487882  0.24516995  0.12023421  1
  O2-  O132  1  0.63211173  0.24929057  0.37271258  1
  O2-  O133  1  0.66305800  0.24975721  0.63218289  1
  O2-  O134  1  0.64932428  0.25196549  0.87069987  1
  O2-  O135  1  0.64488907  0.74558973  0.13147797  1
  O2-  O136  1  0.59608548  0.74710852  0.38354790  1
  O2-  O137  1  0.61393681  0.74142596  0.60479783  1
  O2-  O138  1  0.66454508  0.74086927  0.88184158  1
  O2-  O139  1  0.86823956  0.27420582  0.13419454  1
  O2-  O140  1  0.83214905  0.27112707  0.39512185  1
  O2-  O141  1  0.87975849  0.23516809  0.64843860  1
  O2-  O142  1  0.81139154  0.19985773  0.87407029  1
  O2-  O143  1  0.84562100  0.73858308  0.14576864  1
  O2-  O144  1  0.85904198  0.74524180  0.38277173  1
  O2-  O145  1  0.92314394  0.75865325  0.62209427  1
  O2-  O146  1  0.85553092  0.74110886  0.90271320  1
  O2-  O147  1  0.13107899  0.14298691  0.00380324  1
  O2-  O148  1  0.20360098  0.11562582  0.23103774  1
  O2-  O149  1  0.14113265  0.12294640  0.47157024  1
  O2-  O150  1  0.15297735  0.12983349  0.73369388  1
  O2-  O151  1  0.08893487  0.65458884  -0.05466809  1
  O2-  O152  1  0.10507091  0.62819001  0.27323271  1
  O2-  O153  1  0.06019898  0.62400025  0.49303737  1
  O2-  O154  1  0.07374031  0.61850171  0.73242266  1
  O2-  O155  1  0.32753321  0.12165294  -0.00935136  1
  O2-  O156  1  0.39186788  0.14283935  0.23777175  1
  O2-  O157  1  0.39985996  0.13040204  0.50454243  1
  O2-  O158  1  0.33998225  0.12801859  0.76003674  1
  O2-  O159  1  0.43184877  0.65195508  0.01977039  1
  O2-  O160  1  0.43279139  0.62614485  0.23456992  1
  O2-  O161  1  0.39269544  0.63431969  0.47377286  1
  O2-  O162  1  0.34294627  0.63566267  0.78336029  1
  O2-  O163  1  0.66360368  0.13459573  -0.00743812  1
  O2-  O164  1  0.58944076  0.13208687  0.24247541  1
  O2-  O165  1  0.60077007  0.13942788  0.50926695  1
  O2-  O166  1  0.65688996  0.12835679  0.75786779  1
  O2-  O167  1  0.62675307  0.62806148  0.00122577  1
  O2-  O168  1  0.59640809  0.62865335  0.25729308  1
  O2-  O169  1  0.56512905  0.61470476  0.50103738  1
  O2-  O170  1  0.64642583  0.63186605  0.74579742  1
  O2-  O171  1  0.84744736  0.13844064  0.03018242  1
  O2-  O172  1  0.82011142  0.14014161  0.24248098  1
  O2-  O173  1  0.82625546  0.12319283  0.52207784  1
  O2-  O174  1  0.82866509  0.10381370  0.73826756  1
  O2-  O175  1  0.88000653  0.62037290  0.02849275  1
  O2-  O176  1  0.90418763  0.60977881  0.27924017  1
  O2-  O177  1  0.89933657  0.63651821  0.50574429  1
  O2-  O178  1  0.89656907  0.65195861  0.75998066  1
  O2-  O179  1  0.11034283  0.35423585  -0.01767609  1
  O2-  O180  1  0.20220011  0.38712021  0.24908103  1
  O2-  O181  1  0.18275917  0.35341539  0.47897247  1
  O2-  O182  1  0.14822095  0.35883218  0.73228749  1
  O2-  O183  1  0.08600299  0.85152959  0.00042317  1
  O2-  O184  1  0.09352275  0.85177911  0.24576728  1
  O2-  O185  1  0.08959212  0.88313323  0.48551729  1
  O2-  O186  1  0.07877058  0.89490318  0.70849191  1
  O2-  O187  1  0.31670318  0.37476735  -0.00626928  1
  O2-  O188  1  0.39073180  0.35420599  0.23378560  1
  O2-  O189  1  0.40262062  0.38376934  0.49568488  1
  O2-  O190  1  0.33366288  0.38479711  0.76722432  1
  O2-  O191  1  0.39715658  0.87851707  0.02455293  1
  O2-  O192  1  0.42941061  0.89100412  0.24917010  1
  O2-  O193  1  0.41517523  0.87240106  0.48774135  1
  O2-  O194  1  0.37315750  0.85839235  0.76896556  1
  O2-  O195  1  0.66314927  0.37041511  -0.00690484  1
  O2-  O196  1  0.58156317  0.35599856  0.24145815  1
  O2-  O197  1  0.60469624  0.35394639  0.50591709  1
  O2-  O198  1  0.66362097  0.37353281  0.75474045  1
  O2-  O199  1  0.63539113  0.86074710  0.00234887  1
  O2-  O200  1  0.63203047  0.86467885  0.25385285  1
  O2-  O201  1  0.59329352  0.87249224  0.50937876  1
  O2-  O202  1  0.61335060  0.86393790  0.74567079  1
  O2-  O203  1  0.88612285  0.34428235  -0.03591500  1
  O2-  O204  1  0.93811119  0.37308846  0.31538337  1
  O2-  O205  1  0.80468427  0.36506338  0.53673480  1
  O2-  O206  1  0.85784899  0.36283019  0.76782113  1
  O2-  O207  1  0.90505090  0.86186892  0.01164832  1
  O2-  O208  1  0.86364011  0.86267785  0.25896211  1
  O2-  O209  1  0.90212399  0.87062232  0.50281399  1
  O2-  O210  1  0.89484512  0.85114474  0.75873841  1
  O2-  O211  1  -0.01125859  0.17180826  -0.08451165  1
  O2-  O212  1  0.00487475  0.15552282  0.13105090  1
  O2-  O213  1  0.01020736  0.12230626  0.59758197  1
  O2-  O214  1  -0.00829201  0.10570540  0.77198038  1
  O2-  O215  1  -0.02565012  0.50751467  -0.05356996  1
  O2-  O216  1  0.02065540  0.36337148  0.14372500  1
  O2-  O217  1  -0.01833159  0.36926156  0.51284721  1
  O2-  O218  1  0.01695612  0.44108107  0.80313697  1
  O2-  O219  1  0.23295004  -0.15134374  0.09788367  1
  O2-  O220  1  0.26624916  -0.12792660  0.27234553  1
  O2-  O221  1  0.25506462  -0.11847726  0.43611226  1
  O2-  O222  1  0.24892261  -0.15794398  0.62645480  1
  O2-  O223  1  0.25615510  0.64833943  0.06398862  1
  O2-  O224  1  0.27206457  0.62850772  0.22526729  1
  O2-  O225  1  0.22075331  0.61661279  0.50394169  1
  O2-  O226  1  0.22925173  0.64768956  0.66079761  1
  O2-  O227  1  0.50629710  -0.16357293  -0.10660242  1
  O2-  O228  1  0.50176374  0.11255666  0.08138546  1
  O2-  O229  1  0.49941171  0.15403735  0.66111325  1
  O2-  O230  1  0.49969956  0.14893272  0.88009225  1
  O2-  O231  1  0.50079469  0.64936954  -0.14038628  1
  O2-  O232  1  0.49581823  0.33895185  0.07083476  1
  O2-  O233  1  0.50422637  0.36093409  0.65496688  1
  O2-  O234  1  0.49651261  0.36197042  0.87716726  1
  O2-  O235  1  0.75495913  -0.11862455  -0.13910310  1
  O2-  O236  1  0.73887047  -0.12902720  0.38993112  1
  O2-  O237  1  0.75481058  -0.06879796  0.57314999  1
  O2-  O238  1  0.75546225  -0.18563643  0.66895953  1
  O2-  O239  1  0.74466657  0.60287474  0.14161112  1
  O2-  O240  1  0.73940205  0.62585010  0.32623917  1
  O2-  O241  1  0.72220006  0.61850830  0.48368876  1
  O2-  O242  1  0.77334394  0.63813093  0.64110460  1
