# generated using pymatgen
data_Gd19Ta56(WO20)8
_symmetry_space_group_name_H-M   'P 1'
_cell_length_a   15.59157400
_cell_length_b   15.53520397
_cell_length_c   15.26376700
_cell_angle_alpha   90.03172564
_cell_angle_beta   89.97621697
_cell_angle_gamma   89.99748340
_symmetry_Int_Tables_number   1
_chemical_formula_structural   Gd19Ta56(WO20)8
_chemical_formula_sum   'Gd19 Ta56 W8 O160'
_cell_volume   3697.16253419
_cell_formula_units_Z   1
loop_
 _symmetry_equiv_pos_site_id
 _symmetry_equiv_pos_as_xyz
  1  'x, y, z'
loop_
 _atom_type_symbol
 _atom_type_oxidation_number
  Gd3+  3.0
  Ta5+  5.0
  W6+  6.0
  O2-  -2.0
loop_
 _atom_site_type_symbol
 _atom_site_label
 _atom_site_symmetry_multiplicity
 _atom_site_fract_x
 _atom_site_fract_y
 _atom_site_fract_z
 _atom_site_occupancy
  Gd3+  Gd0  1  0.26895953  0.75712545  0.73559488  1
  Gd3+  Gd1  1  0.01602033  0.25390831  -0.00558668  1
  Gd3+  Gd2  1  0.27130745  0.75705883  0.49715395  1
  Gd3+  Gd3  1  0.25640841  0.75201020  -0.00281022  1
  Gd3+  Gd4  1  0.75076176  0.24430517  0.02687864  1
  Gd3+  Gd5  1  0.49911397  0.74840276  0.02293030  1
  Gd3+  Gd6  1  0.73826071  0.75979615  0.76473173  1
  Gd3+  Gd7  1  0.48001027  0.74640803  0.28118788  1
  Gd3+  Gd8  1  0.75069593  0.23588753  0.75468781  1
  Gd3+  Gd9  1  0.75642491  0.75379481  0.00824836  1
  Gd3+  Gd10  1  0.75060744  0.74407508  0.50377077  1
  Gd3+  Gd11  1  -0.02185436  0.75403291  0.22248870  1
  Gd3+  Gd12  1  0.25015177  0.24957351  0.20237096  1
  Gd3+  Gd13  1  0.49456643  0.26050182  0.75929690  1
  Gd3+  Gd14  1  0.23835166  0.25442633  0.49859388  1
  Gd3+  Gd15  1  0.00992490  0.75562546  0.49667256  1
  Gd3+  Gd16  1  0.49933856  0.26107545  0.51320691  1
  Gd3+  Gd17  1  0.74079674  0.25316902  0.50767227  1
  Gd3+  Gd18  1  0.23202266  0.25288500  0.75480205  1
  Ta5+  Ta19  1  0.88275045  0.87531659  0.64007529  1
  Ta5+  Ta20  1  0.35042860  0.89848611  0.37672655  1
  Ta5+  Ta21  1  0.42518043  0.88029798  0.61803352  1
  Ta5+  Ta22  1  0.11970380  0.37822955  0.62434065  1
  Ta5+  Ta23  1  0.42640895  0.13608976  0.11037184  1
  Ta5+  Ta24  1  0.37539930  0.14098032  0.36300627  1
  Ta5+  Ta25  1  0.63410944  0.61409730  0.62200877  1
  Ta5+  Ta26  1  0.60692349  0.06219906  0.61879412  1
  Ta5+  Ta27  1  0.36574995  0.11677307  0.87402248  1
  Ta5+  Ta28  1  0.14462129  0.88299977  0.36847117  1
  Ta5+  Ta29  1  0.92344003  0.37612764  0.13788521  1
  Ta5+  Ta30  1  0.10726708  0.37842381  0.37259889  1
  Ta5+  Ta31  1  0.89974957  0.87683840  0.88706875  1
  Ta5+  Ta32  1  0.87080757  0.13129145  0.37355337  1
  Ta5+  Ta33  1  0.86762385  0.37835300  0.37482102  1
  Ta5+  Ta34  1  0.13888779  0.62206843  0.36850716  1
  Ta5+  Ta35  1  0.63373110  0.38447474  0.87211860  1
  Ta5+  Ta36  1  0.13047348  0.87422595  0.12711081  1
  Ta5+  Ta37  1  0.13486241  0.62036179  0.86625449  1
  Ta5+  Ta38  1  0.60820360  0.62078727  0.87602316  1
  Ta5+  Ta39  1  0.34266902  0.60901715  0.37090152  1
  Ta5+  Ta40  1  0.13397928  0.37878342  0.88170042  1
  Ta5+  Ta41  1  0.58698506  0.36211810  0.11969377  1
  Ta5+  Ta42  1  0.11148910  0.11651582  0.62011432  1
  Ta5+  Ta43  1  0.63287218  0.88848928  0.13055605  1
  Ta5+  Ta44  1  0.58917400  0.86342552  0.62700478  1
  Ta5+  Ta45  1  0.66754307  0.62548103  0.33261060  1
  Ta5+  Ta46  1  0.62342407  0.11934192  0.86865824  1
  Ta5+  Ta47  1  0.12594628  0.87028574  0.86655753  1
  Ta5+  Ta48  1  0.57149269  0.88131923  0.87347755  1
  Ta5+  Ta49  1  0.35714828  0.37401435  0.88382845  1
  Ta5+  Ta50  1  0.09277795  0.38643679  0.13268401  1
  Ta5+  Ta51  1  0.62985619  0.87431323  0.37268252  1
  Ta5+  Ta52  1  0.87954990  0.12026417  0.62131871  1
  Ta5+  Ta53  1  0.39585560  0.61669195  0.60962187  1
  Ta5+  Ta54  1  0.62189769  0.38167550  0.36618404  1
  Ta5+  Ta55  1  0.37934445  0.36698804  0.36194010  1
  Ta5+  Ta56  1  0.37477159  0.61853015  0.86623287  1
  Ta5+  Ta57  1  0.37564959  0.88953617  0.13464883  1
  Ta5+  Ta58  1  0.83554276  0.89359093  0.13444642  1
  Ta5+  Ta59  1  0.86507448  0.37516071  0.88053917  1
  Ta5+  Ta60  1  0.12225552  0.11594999  0.87134138  1
  Ta5+  Ta61  1  0.92674521  0.12520012  0.13532155  1
  Ta5+  Ta62  1  0.41880495  0.36828664  0.11014641  1
  Ta5+  Ta63  1  0.40360992  0.87315169  0.86763905  1
  Ta5+  Ta64  1  0.12461202  0.88502307  0.61544386  1
  Ta5+  Ta65  1  0.89441735  0.62333996  0.88961341  1
  Ta5+  Ta66  1  0.61367135  0.12438047  0.37531945  1
  Ta5+  Ta67  1  0.11069694  0.12592999  0.36962669  1
  Ta5+  Ta68  1  0.87318638  0.88170544  0.37608735  1
  Ta5+  Ta69  1  0.62911108  0.60758099  0.12275096  1
  Ta5+  Ta70  1  0.38045785  0.11715175  0.62220638  1
  Ta5+  Ta71  1  0.89339950  0.62470613  0.64197497  1
  Ta5+  Ta72  1  0.62288940  0.40030912  0.62603344  1
  Ta5+  Ta73  1  0.12150221  0.62244346  0.61603082  1
  Ta5+  Ta74  1  0.84137397  0.60766114  0.13420629  1
  W6+  W75  1  0.87336206  0.12466269  0.88398805  1
  W6+  W76  1  0.58798064  0.13515498  0.12172924  1
  W6+  W77  1  0.89912633  0.62189429  0.37785137  1
  W6+  W78  1  0.37245878  0.61346421  0.13071546  1
  W6+  W79  1  0.13285419  0.62881749  0.12921402  1
  W6+  W80  1  0.09200617  0.11959604  0.12634904  1
  W6+  W81  1  0.88162325  0.37432739  0.63262654  1
  W6+  W82  1  0.37420022  0.38467285  0.62359293  1
  O2-  O83  1  0.08659157  -0.01833217  0.12599160  1
  O2-  O84  1  0.10897177  0.00077169  0.35851675  1
  O2-  O85  1  0.15727394  0.00050712  0.62428025  1
  O2-  O86  1  0.11396084  -0.01012023  0.86055000  1
  O2-  O87  1  0.11913198  0.50321329  0.14516484  1
  O2-  O88  1  0.10552174  0.50277099  0.36504157  1
  O2-  O89  1  0.11651445  0.50114382  0.62563509  1
  O2-  O90  1  0.15203446  0.50179690  0.85852198  1
  O2-  O91  1  0.39523108  0.00569723  0.11884963  1
  O2-  O92  1  0.35927642  0.01934177  0.37412404  1
  O2-  O93  1  0.36272746  -0.00006309  0.61850194  1
  O2-  O94  1  0.37813183  -0.00889132  0.86833643  1
  O2-  O95  1  0.39468776  0.48739050  0.11493648  1
  O2-  O96  1  0.35035131  0.48439758  0.37560477  1
  O2-  O97  1  0.33489592  0.51641473  0.60545016  1
  O2-  O98  1  0.34270185  0.50428819  0.88064508  1
  O2-  O99  1  0.58784472  -0.00305281  0.12714952  1
  O2-  O100  1  0.62239160  -0.00478224  0.37543142  1
  O2-  O101  1  0.68407098  -0.03061060  0.62209024  1
  O2-  O102  1  0.58505791  0.00392632  0.87173777  1
  O2-  O103  1  0.61161377  0.49014319  0.12099905  1
  O2-  O104  1  0.64376547  0.50871800  0.35886741  1
  O2-  O105  1  0.69091164  0.50512754  0.64140866  1
  O2-  O106  1  0.65354893  0.51124584  0.89034996  1
  O2-  O107  1  0.88579791  0.00125822  0.11658000  1
  O2-  O108  1  0.87701846  -0.00062375  0.39175911  1
  O2-  O109  1  0.87083829  -0.00604571  0.62103252  1
  O2-  O110  1  0.91062677  -0.00676861  0.88681362  1
  O2-  O111  1  0.86954813  0.49418765  0.11935188  1
  O2-  O112  1  0.85277218  0.49611939  0.37755033  1
  O2-  O113  1  0.90555974  0.50958555  0.63156259  1
  O2-  O114  1  0.87486942  0.50499802  0.89180619  1
  O2-  O115  1  0.12689441  0.25825810  0.11113203  1
  O2-  O116  1  0.13274284  0.25150076  0.39138622  1
  O2-  O117  1  0.14618042  0.23458602  0.61966289  1
  O2-  O118  1  0.13513394  0.24804505  0.88744852  1
  O2-  O119  1  0.07453426  0.76389108  0.10714295  1
  O2-  O120  1  0.13903834  0.75538969  0.40062147  1
  O2-  O121  1  0.15415955  0.75437901  0.59528891  1
  O2-  O122  1  0.16735792  0.74727525  0.86502352  1
  O2-  O123  1  0.36505576  0.24695757  0.10141849  1
  O2-  O124  1  0.30423688  0.25217901  0.35165243  1
  O2-  O125  1  0.41302585  0.25283401  0.63473978  1
  O2-  O126  1  0.33882234  0.24872245  0.87056219  1
  O2-  O127  1  0.41734559  0.76034719  0.14675781  1
  O2-  O128  1  0.35113219  0.74822099  0.36929806  1
  O2-  O129  1  0.36391158  0.74389827  0.60973622  1
  O2-  O130  1  0.33392904  0.74768954  0.86652929  1
  O2-  O131  1  0.64919458  0.25543249  0.12981672  1
  O2-  O132  1  0.63840336  0.25251485  0.39121066  1
  O2-  O133  1  0.65701764  0.28151896  0.63932384  1
  O2-  O134  1  0.62279324  0.25197191  0.84255573  1
  O2-  O135  1  0.63237584  0.75281849  0.10905488  1
  O2-  O136  1  0.61213441  0.73483821  0.37056980  1
  O2-  O137  1  0.65661748  0.73986204  0.62525280  1
  O2-  O138  1  0.66206063  0.73492789  0.89736219  1
  O2-  O139  1  0.94294783  0.24960923  0.14691157  1
  O2-  O140  1  0.82755093  0.24732866  0.37497738  1
  O2-  O141  1  0.83530519  0.24225090  0.62924884  1
  O2-  O142  1  0.81982119  0.25176484  0.88874846  1
  O2-  O143  1  0.84027136  0.76035907  0.14102772  1
  O2-  O144  1  0.93721943  0.76378053  0.37077644  1
  O2-  O145  1  0.82882523  0.75593109  0.64165203  1
  O2-  O146  1  0.84132480  0.74635289  0.88281690  1
  O2-  O147  1  0.06790550  0.11632914  -0.01642613  1
  O2-  O148  1  0.15894132  0.14282207  0.25608172  1
  O2-  O149  1  0.15439194  0.11691086  0.48921028  1
  O2-  O150  1  0.09126710  0.12962813  0.74535728  1
  O2-  O151  1  0.15923009  0.63088040  -0.01187999  1
  O2-  O152  1  0.08126031  0.65682726  0.26330999  1
  O2-  O153  1  0.07354411  0.62430246  0.49215964  1
  O2-  O154  1  0.16543694  0.63837811  0.73539537  1
  O2-  O155  1  0.42151031  0.13081665  -0.01864504  1
  O2-  O156  1  0.38459188  0.14434398  0.23911261  1
  O2-  O157  1  0.34600887  0.15010912  0.49734248  1
  O2-  O158  1  0.40940908  0.12882607  0.75162506  1
  O2-  O159  1  0.37758883  0.64998580  -0.00714265  1
  O2-  O160  1  0.41040025  0.61579971  0.26785078  1
  O2-  O161  1  0.40985416  0.62567890  0.48268661  1
  O2-  O162  1  0.35687087  0.63310194  0.73838689  1
  O2-  O163  1  0.64045251  0.14798708  -0.01076594  1
  O2-  O164  1  0.60410379  0.13138168  0.25732377  1
  O2-  O165  1  0.64897140  0.12229867  0.51172523  1
  O2-  O166  1  0.60559090  0.12260331  0.72972964  1
  O2-  O167  1  0.57290505  0.62293562  0.00542177  1
  O2-  O168  1  0.57911113  0.64001711  0.23689855  1
  O2-  O169  1  0.66389697  0.62116190  0.50212834  1
  O2-  O170  1  0.65273242  0.63470626  0.75563459  1
  O2-  O171  1  0.87979055  0.15517344  0.02049790  1
  O2-  O172  1  0.87217628  0.11852249  0.25079790  1
  O2-  O173  1  0.83174636  0.12902972  0.50062373  1
  O2-  O174  1  0.87654203  0.12675268  0.74396422  1
  O2-  O175  1  0.89362930  0.64186686  0.01569087  1
  O2-  O176  1  0.90674449  0.62635622  0.23758775  1
  O2-  O177  1  0.87669494  0.65555145  0.51786344  1
  O2-  O178  1  0.84949261  0.63221678  0.76224291  1
  O2-  O179  1  0.09522193  0.39039943  -0.00071048  1
  O2-  O180  1  0.15064126  0.35733783  0.25600955  1
  O2-  O181  1  0.15725743  0.38387149  0.48998364  1
  O2-  O182  1  0.11775369  0.35701800  0.75078504  1
  O2-  O183  1  0.15120356  0.86709238  -0.00850823  1
  O2-  O184  1  0.09204940  0.85313195  0.25225590  1
  O2-  O185  1  0.07702967  0.88584667  0.49267273  1
  O2-  O186  1  0.15822941  0.86155640  0.73879014  1
  O2-  O187  1  0.42827094  0.36044605  -0.02053603  1
  O2-  O188  1  0.38012760  0.35174822  0.23879010  1
  O2-  O189  1  0.36109431  0.33880415  0.48864422  1
  O2-  O190  1  0.39450646  0.37518613  0.76163476  1
  O2-  O191  1  0.38133661  0.85352476  0.00596928  1
  O2-  O192  1  0.41121957  0.88477045  0.26276389  1
  O2-  O193  1  0.41031774  0.87138715  0.48486868  1
  O2-  O194  1  0.38839145  0.85500118  0.73909669  1
  O2-  O195  1  0.63977426  0.35415495  -0.00725242  1
  O2-  O196  1  0.59015661  0.36715262  0.24878645  1
  O2-  O197  1  0.65077957  0.38469148  0.49856096  1
  O2-  O198  1  0.58063511  0.39462402  0.75269494  1
  O2-  O199  1  0.57530458  0.87227224  0.00439884  1
  O2-  O200  1  0.58434343  0.85549491  0.25270574  1
  O2-  O201  1  0.60802860  0.85807916  0.49427903  1
  O2-  O202  1  0.62421422  0.85478447  0.75739035  1
  O2-  O203  1  0.90044621  0.35339429  0.00442870  1
  O2-  O204  1  0.86563821  0.36853013  0.24991338  1
  O2-  O205  1  0.83794953  0.36487526  0.50039223  1
  O2-  O206  1  0.91239745  0.36110799  0.76933558  1
  O2-  O207  1  0.88885913  0.85707835  0.00905670  1
  O2-  O208  1  0.89970322  0.88173172  0.25247936  1
  O2-  O209  1  0.87947399  0.84951582  0.50852253  1
  O2-  O210  1  0.84484982  0.87374009  0.76410103  1
  O2-  O211  1  0.00812507  -0.16737803  -0.14368887  1
  O2-  O212  1  -0.00861301  0.14451536  0.38350862  1
  O2-  O213  1  -0.00513303  0.12621602  0.58482141  1
  O2-  O214  1  0.00125000  -0.14010203  0.64929725  1
  O2-  O215  1  0.01068983  0.63597339  -0.13668299  1
  O2-  O216  1  -0.01054799  0.35856137  0.38356489  1
  O2-  O217  1  0.01044184  0.34369871  0.59405334  1
  O2-  O218  1  0.00632967  0.67073581  0.65095365  1
  O2-  O219  1  0.25376725  -0.12566956  0.12880043  1
  O2-  O220  1  0.24714518  -0.11430924  0.30008731  1
  O2-  O221  1  0.24262337  -0.10501826  0.45916616  1
  O2-  O222  1  0.24226400  0.11626744  0.84005298  1
  O2-  O223  1  0.25459014  0.68117621  0.12684797  1
  O2-  O224  1  0.23914092  0.60518551  0.29774930  1
  O2-  O225  1  0.23969855  0.62053175  0.46046467  1
  O2-  O226  1  0.24571625  0.35138690  0.63918590  1
  O2-  O227  1  0.49759852  -0.22696860  -0.12694565  1
  O2-  O228  1  0.49260484  0.15508100  0.39811650  1
  O2-  O229  1  0.49914818  0.12356633  0.57952250  1
  O2-  O230  1  0.52083615  -0.02734861  0.65001748  1
  O2-  O231  1  0.49452056  0.60168254  -0.15749208  1
  O2-  O232  1  0.49843352  0.36432668  0.39382995  1
  O2-  O233  1  0.50749361  0.39716238  0.58962457  1
  O2-  O234  1  0.51489216  0.59706410  0.63243458  1
  O2-  O235  1  0.73560624  -0.10753207  0.04965318  1
  O2-  O236  1  0.73534738  -0.09055452  0.20882216  1
  O2-  O237  1  0.75307789  -0.14442318  0.38415179  1
  O2-  O238  1  0.74137873  0.10772055  0.84136279  1
  O2-  O239  1  0.73696946  0.61577375  0.05330457  1
  O2-  O240  1  0.73189620  0.60731703  0.21610256  1
  O2-  O241  1  0.77236547  0.67322253  0.37294523  1
  O2-  O242  1  0.74716175  0.38142541  0.81903321  1
