# generated using pymatgen
data_Gd19Ta56(WO20)8
_symmetry_space_group_name_H-M   'P 1'
_cell_length_a   15.49071320
_cell_length_b   15.43914476
_cell_length_c   15.29951882
_cell_angle_alpha   89.95868007
_cell_angle_beta   90.07609148
_cell_angle_gamma   90.01644236
_symmetry_Int_Tables_number   1
_chemical_formula_structural   Gd19Ta56(WO20)8
_chemical_formula_sum   'Gd19 Ta56 W8 O160'
_cell_volume   3659.08005348
_cell_formula_units_Z   1
loop_
 _symmetry_equiv_pos_site_id
 _symmetry_equiv_pos_as_xyz
  1  'x, y, z'
loop_
 _atom_type_symbol
 _atom_type_oxidation_number
  Gd3+  3.0
  Ta5+  5.0
  W6+  6.0
  O2-  -2.0
loop_
 _atom_site_type_symbol
 _atom_site_label
 _atom_site_symmetry_multiplicity
 _atom_site_fract_x
 _atom_site_fract_y
 _atom_site_fract_z
 _atom_site_occupancy
  Gd3+  Gd0  1  0.23622015  0.74697932  0.74363300  1
  Gd3+  Gd1  1  0.50721479  0.23629913  0.74754322  1
  Gd3+  Gd2  1  0.47310341  0.24834430  -0.00063187  1
  Gd3+  Gd3  1  0.24315128  0.25230171  0.26107114  1
  Gd3+  Gd4  1  0.27997647  0.75604990  0.47486433  1
  Gd3+  Gd5  1  0.01293344  0.74680115  0.48036369  1
  Gd3+  Gd6  1  0.73570954  0.76205552  0.75729884  1
  Gd3+  Gd7  1  0.22441381  0.24371199  -0.01958688  1
  Gd3+  Gd8  1  0.74413022  0.74891628  0.51255335  1
  Gd3+  Gd9  1  -0.02367052  0.74607600  0.23595690  1
  Gd3+  Gd10  1  0.73447159  0.71903093  -0.00596116  1
  Gd3+  Gd11  1  0.75952539  0.26037199  0.74620430  1
  Gd3+  Gd12  1  -0.00884192  0.74123071  -0.00398982  1
  Gd3+  Gd13  1  0.03448473  0.24699577  0.52346805  1
  Gd3+  Gd14  1  0.75663058  0.25568092  0.00387556  1
  Gd3+  Gd15  1  0.50418740  0.75393501  0.77559767  1
  Gd3+  Gd16  1  0.22458995  0.75379004  -0.01272789  1
  Gd3+  Gd17  1  0.50828841  0.73772446  0.00132071  1
  Gd3+  Gd18  1  0.48803167  0.23862946  0.25718549  1
  Ta5+  Ta19  1  0.09732798  0.36789958  0.86091281  1
  Ta5+  Ta20  1  0.34688390  0.13405912  0.85122526  1
  Ta5+  Ta21  1  0.87973006  0.90195374  0.84582930  1
  Ta5+  Ta22  1  0.90389859  0.87205484  0.64099656  1
  Ta5+  Ta23  1  0.87054378  0.11673166  0.62424621  1
  Ta5+  Ta24  1  0.38948006  0.38571859  0.13384381  1
  Ta5+  Ta25  1  0.37840383  0.86176985  0.13835586  1
  Ta5+  Ta26  1  0.14624105  0.62257290  0.34221828  1
  Ta5+  Ta27  1  0.87248072  0.58597500  0.12584762  1
  Ta5+  Ta28  1  0.08841042  0.88107752  0.84428007  1
  Ta5+  Ta29  1  0.13773140  0.87691373  0.14869255  1
  Ta5+  Ta30  1  0.60376603  0.90794448  0.88735702  1
  Ta5+  Ta31  1  0.34829678  0.62860154  0.17504541  1
  Ta5+  Ta32  1  0.35411917  0.38944086  0.88423489  1
  Ta5+  Ta33  1  0.11370243  0.88895057  0.34646631  1
  Ta5+  Ta34  1  0.65973794  0.12265566  0.37234436  1
  Ta5+  Ta35  1  0.87644603  0.38673275  0.12646435  1
  Ta5+  Ta36  1  0.84248419  0.90225230  0.14190604  1
  Ta5+  Ta37  1  0.14373774  0.88612179  0.59957759  1
  Ta5+  Ta38  1  0.37216655  0.88265997  0.62278667  1
  Ta5+  Ta39  1  0.33445827  0.37434126  0.63846400  1
  Ta5+  Ta40  1  0.60379865  0.38622685  0.12556570  1
  Ta5+  Ta41  1  0.12744854  0.62528847  0.13627807  1
  Ta5+  Ta42  1  0.63338152  0.11322901  0.61645086  1
  Ta5+  Ta43  1  0.86026342  0.87059165  0.38631709  1
  Ta5+  Ta44  1  0.61422704  0.61985583  0.38680325  1
  Ta5+  Ta45  1  0.88885827  0.14059947  0.13525266  1
  Ta5+  Ta46  1  0.17550937  0.12795193  0.64638422  1
  Ta5+  Ta47  1  0.44526025  0.62002902  0.40381359  1
  Ta5+  Ta48  1  0.09501867  0.61525688  0.84520764  1
  Ta5+  Ta49  1  0.86311302  0.60909693  0.38479274  1
  Ta5+  Ta50  1  0.12420152  0.37937670  0.37781776  1
  Ta5+  Ta51  1  0.60292037  0.88604886  0.62047665  1
  Ta5+  Ta52  1  0.12395333  0.12360599  0.12629805  1
  Ta5+  Ta53  1  0.61584993  0.11826663  0.12860758  1
  Ta5+  Ta54  1  0.59576799  0.62103102  0.61702607  1
  Ta5+  Ta55  1  0.37376655  0.11594894  0.39527004  1
  Ta5+  Ta56  1  0.38154015  0.61516666  0.61364966  1
  Ta5+  Ta57  1  0.34628401  0.12962196  0.64273239  1
  Ta5+  Ta58  1  0.35384282  0.88956251  0.87591400  1
  Ta5+  Ta59  1  0.07423399  0.12930812  0.86407589  1
  Ta5+  Ta60  1  0.60525597  0.87533634  0.38464538  1
  Ta5+  Ta61  1  0.92284294  0.36940124  0.37432389  1
  Ta5+  Ta62  1  0.64145477  0.88521207  0.14276616  1
  Ta5+  Ta63  1  0.64249942  0.10370707  0.88095160  1
  Ta5+  Ta64  1  0.87524065  0.37428994  0.62474089  1
  Ta5+  Ta65  1  0.13372606  0.62141112  0.59619511  1
  Ta5+  Ta66  1  0.88651665  0.58443739  0.86963617  1
  Ta5+  Ta67  1  0.90570246  0.14468236  0.87808240  1
  Ta5+  Ta68  1  0.69660528  0.53520601  0.80641586  1
  Ta5+  Ta69  1  0.61663277  0.37751452  0.87361102  1
  Ta5+  Ta70  1  0.37222480  0.37700173  0.39574078  1
  Ta5+  Ta71  1  0.93001135  0.33945519  0.87635600  1
  Ta5+  Ta72  1  0.43829719  0.87389677  0.38424924  1
  Ta5+  Ta73  1  0.62370383  0.37515831  0.61624138  1
  Ta5+  Ta74  1  0.13786791  0.11578628  0.39175898  1
  W6+  W75  1  0.34319967  0.57803609  0.84867084  1
  W6+  W76  1  0.89539693  0.61949447  0.64856906  1
  W6+  W77  1  0.17112262  0.38099294  0.62265489  1
  W6+  W78  1  0.12039176  0.37682566  0.11994940  1
  W6+  W79  1  0.64489778  0.37221682  0.36156860  1
  W6+  W80  1  0.62965931  0.63142258  0.15015337  1
  W6+  W81  1  0.36998781  0.11462777  0.12500146  1
  W6+  W82  1  0.90593108  0.11892110  0.38474413  1
  O2-  O83  1  0.13607418  0.00156466  0.12479975  1
  O2-  O84  1  0.08014464  0.00479922  0.37674803  1
  O2-  O85  1  0.17595337  -0.00075389  0.61606384  1
  O2-  O86  1  0.10259068  -0.00247515  0.87403820  1
  O2-  O87  1  0.14121025  0.50635039  0.12529578  1
  O2-  O88  1  0.14183478  0.50586714  0.36913625  1
  O2-  O89  1  0.18679573  0.51602485  0.59398558  1
  O2-  O90  1  0.11676609  0.49911036  0.86670284  1
  O2-  O91  1  0.38284771  -0.02170825  0.11661004  1
  O2-  O92  1  0.42675532  0.00976092  0.38015126  1
  O2-  O93  1  0.35593811  -0.00054159  0.64746352  1
  O2-  O94  1  0.33519110  0.00627383  0.87486881  1
  O2-  O95  1  0.37334730  0.51436018  0.14050707  1
  O2-  O96  1  0.42015442  0.48843428  0.39398556  1
  O2-  O97  1  0.37957640  0.49450705  0.62722506  1
  O2-  O98  1  0.40671792  0.49418018  0.91997155  1
  O2-  O99  1  0.60091423  -0.00212259  0.10683975  1
  O2-  O100  1  0.62570481  0.00592422  0.37119079  1
  O2-  O101  1  0.56974463  0.00794337  0.62422062  1
  O2-  O102  1  0.70260590  -0.01619455  0.88652794  1
  O2-  O103  1  0.61193702  0.50411862  0.13594780  1
  O2-  O104  1  0.63776621  0.50222410  0.37305120  1
  O2-  O105  1  0.60329528  0.49914823  0.62519326  1
  O2-  O106  1  0.59301969  0.50139667  0.86712142  1
  O2-  O107  1  0.88767168  0.01105388  0.11065294  1
  O2-  O108  1  0.87761044  -0.01437599  0.39109205  1
  O2-  O109  1  0.90694241  -0.00758339  0.62568569  1
  O2-  O110  1  0.88106984  0.01712050  0.87875558  1
  O2-  O111  1  0.79627827  0.47860036  0.11539736  1
  O2-  O112  1  0.90184612  0.49707567  0.39615645  1
  O2-  O113  1  0.90993221  0.48670825  0.64006342  1
  O2-  O114  1  0.90252555  0.46731151  0.87206161  1
  O2-  O115  1  0.18071848  0.24605877  0.12345783  1
  O2-  O116  1  0.13348502  0.24279738  0.39099256  1
  O2-  O117  1  0.14767321  0.24750003  0.62949686  1
  O2-  O118  1  0.13382597  0.24112543  0.85925670  1
  O2-  O119  1  0.11751401  0.75195646  0.17398951  1
  O2-  O120  1  0.08731263  0.75807334  0.34965738  1
  O2-  O121  1  0.17402347  0.74935611  0.60106797  1
  O2-  O122  1  0.08727996  0.75179272  0.86427782  1
  O2-  O123  1  0.39376907  0.25274453  0.12885208  1
  O2-  O124  1  0.40823119  0.25033667  0.38099806  1
  O2-  O125  1  0.38043702  0.25833331  0.66815382  1
  O2-  O126  1  0.39268496  0.26312954  0.85799956  1
  O2-  O127  1  0.41402136  0.72668982  0.12330506  1
  O2-  O128  1  0.42347951  0.75119684  0.41475944  1
  O2-  O129  1  0.34641123  0.74950764  0.60710399  1
  O2-  O130  1  0.22785712  0.85484883  0.87361727  1
  O2-  O131  1  0.58896550  0.24516831  0.10437944  1
  O2-  O132  1  0.60251112  0.23294310  0.34917027  1
  O2-  O133  1  0.62745603  0.24098176  0.64331432  1
  O2-  O134  1  0.63777552  0.24244924  0.87258236  1
  O2-  O135  1  0.62262281  0.76316275  0.12148763  1
  O2-  O136  1  0.63870001  0.75425192  0.40262727  1
  O2-  O137  1  0.64226883  0.75292837  0.62681184  1
  O2-  O138  1  0.62558452  0.77451044  0.87459757  1
  O2-  O139  1  0.82991448  0.25515523  0.13622898  1
  O2-  O140  1  0.94781621  0.24806650  0.38144275  1
  O2-  O141  1  0.83224966  0.23914049  0.61495503  1
  O2-  O142  1  0.82379303  0.25245231  0.87486591  1
  O2-  O143  1  0.98612977  0.64912781  0.11818221  1
  O2-  O144  1  0.90559617  0.73692921  0.37713595  1
  O2-  O145  1  0.85066787  0.75159026  0.65591661  1
  O2-  O146  1  0.81361003  0.80169146  0.88482660  1
  O2-  O147  1  0.11984305  0.13490480  -0.00254117  1
  O2-  O148  1  0.15026159  0.13108151  0.25490157  1
  O2-  O149  1  0.12321345  0.12332450  0.51786862  1
  O2-  O150  1  0.08816761  0.11489835  0.74023117  1
  O2-  O151  1  0.11617849  0.66409102  0.01728480  1
  O2-  O152  1  0.05918479  0.61386758  0.25607934  1
  O2-  O153  1  0.15010358  0.65743611  0.46769100  1
  O2-  O154  1  0.12891985  0.63477097  0.72240360  1
  O2-  O155  1  0.35790076  0.14818080  -0.01629824  1
  O2-  O156  1  0.35624389  0.14222266  0.26458997  1
  O2-  O157  1  0.37528717  0.13432971  0.52054953  1
  O2-  O158  1  0.42881424  0.11210334  0.76021474  1
  O2-  O159  1  0.43165897  0.69163532  -0.11625289  1
  O2-  O160  1  0.39295642  0.63733920  0.28735150  1
  O2-  O161  1  0.33482920  0.61966797  0.49305201  1
  O2-  O162  1  0.31689203  0.62806417  0.72307180  1
  O2-  O163  1  0.67518131  0.12848602  0.00971317  1
  O2-  O164  1  0.67314972  0.12274684  0.23463762  1
  O2-  O165  1  0.61751860  0.13222408  0.49629366  1
  O2-  O166  1  0.63552697  0.11689113  0.75556705  1
  O2-  O167  1  0.61040671  0.64142878  0.01638509  1
  O2-  O168  1  0.58380046  0.64737057  0.26639136  1
  O2-  O169  1  0.66689113  0.62339443  0.51362072  1
  O2-  O170  1  0.64211219  0.63346069  0.74338729  1
  O2-  O171  1  0.87239934  0.15174767  0.00456228  1
  O2-  O172  1  0.87248110  0.11960767  0.25296927  1
  O2-  O173  1  0.93761078  0.13253995  0.51973288  1
  O2-  O174  1  0.88299634  0.13880754  0.74589455  1
  O2-  O175  1  0.86542377  0.64091364  -0.00335089  1
  O2-  O176  1  0.87389621  0.61008803  0.25031725  1
  O2-  O177  1  0.84914266  0.63623085  0.50895093  1
  O2-  O178  1  0.80870913  0.60066418  0.75674202  1
  O2-  O179  1  0.13326743  0.35879077  -0.01127616  1
  O2-  O180  1  0.13122008  0.35495760  0.25240125  1
  O2-  O181  1  0.10698580  0.37796784  0.50301059  1
  O2-  O182  1  0.12328736  0.37705410  0.74219225  1
  O2-  O183  1  0.11435104  0.84730632  0.02848857  1
  O2-  O184  1  0.04115299  0.88962185  0.23426476  1
  O2-  O185  1  0.15597628  0.86643055  0.46914794  1
  O2-  O186  1  0.13777738  0.86659135  0.72891878  1
  O2-  O187  1  0.32757599  0.35594926  0.01212983  1
  O2-  O188  1  0.34361589  0.36623626  0.25242718  1
  O2-  O189  1  0.37400367  0.35815943  0.51750949  1
  O2-  O190  1  0.32025855  0.39901846  0.76673735  1
  O2-  O191  1  0.36920825  0.84049093  -0.00867698  1
  O2-  O192  1  0.40496223  0.85947623  0.25702165  1
  O2-  O193  1  0.36843583  0.88990500  0.49778255  1
  O2-  O194  1  0.35536080  0.83951331  0.75600827  1
  O2-  O195  1  0.65798000  0.37375171  0.00189383  1
  O2-  O196  1  0.66911324  0.35713450  0.22532816  1
  O2-  O197  1  0.61388204  0.36212267  0.49747652  1
  O2-  O198  1  0.57393690  0.36607284  0.74379044  1
  O2-  O199  1  0.58126040  0.87259291  0.00487700  1
  O2-  O200  1  0.58950081  0.87084058  0.25418520  1
  O2-  O201  1  0.66194851  0.88925745  0.51161228  1
  O2-  O202  1  0.62692356  0.88187873  0.74955809  1
  O2-  O203  1  0.89218817  0.34854516  0.00576784  1
  O2-  O204  1  0.89440796  0.37386292  0.25532232  1
  O2-  O205  1  0.92220018  0.35730883  0.51110200  1
  O2-  O206  1  0.89638443  0.33441990  0.74411820  1
  O2-  O207  1  0.92293502  0.81501219  0.10527171  1
  O2-  O208  1  0.86657423  0.85287920  0.25864038  1
  O2-  O209  1  0.86515769  0.84767805  0.51545386  1
  O2-  O210  1  0.81173622  0.89353535  0.73482671  1
  O2-  O211  1  -0.02065135  -0.12737006  -0.07999331  1
  O2-  O212  1  0.00751845  0.16122104  0.13667918  1
  O2-  O213  1  0.01948941  -0.15493574  0.59114484  1
  O2-  O214  1  -0.02531236  -0.11982238  0.76053984  1
  O2-  O215  1  -0.00115805  0.60761340  -0.07312352  1
  O2-  O216  1  -0.04416620  0.48089718  0.11929621  1
  O2-  O217  1  0.01343331  0.63593456  0.57575563  1
  O2-  O218  1  -0.03230079  0.62105397  0.77479674  1
  O2-  O219  1  0.25972145  -0.15985037  0.12328596  1
  O2-  O220  1  0.20549016  -0.10472553  0.26999791  1
  O2-  O221  1  0.25525784  0.08384870  0.40000218  1
  O2-  O222  1  0.26341056  0.14258850  0.75461936  1
  O2-  O223  1  0.25446568  0.65506405  0.09430537  1
  O2-  O224  1  0.22867873  0.62451777  0.24737473  1
  O2-  O225  1  0.25164376  0.37063684  0.38996741  1
  O2-  O226  1  0.22331698  0.65308774  0.86833686  1
  O2-  O227  1  0.54729110  0.02936328  -0.10277120  1
  O2-  O228  1  0.50022065  0.11785685  0.17130215  1
  O2-  O229  1  0.49071057  -0.16298869  0.64077341  1
  O2-  O230  1  0.47918419  -0.12024370  0.85692818  1
  O2-  O231  1  0.49045443  0.38443821  0.04996765  1
  O2-  O232  1  0.49968498  0.37729768  0.20839276  1
  O2-  O233  1  0.49487098  0.62108262  0.53143196  1
  O2-  O234  1  0.48541551  0.64208917  0.68651478  1
  O2-  O235  1  0.75451156  -0.14155444  0.06201743  1
  O2-  O236  1  0.73695687  -0.06065497  0.20199308  1
  O2-  O237  1  0.77198740  0.13584794  0.40356522  1
  O2-  O238  1  0.75036540  0.07872430  0.61674402  1
  O2-  O239  1  0.75255300  0.58446524  -0.09633387  1
  O2-  O240  1  0.76341780  0.65202117  0.12467814  1
  O2-  O241  1  0.74587468  0.38138548  0.63331639  1
  O2-  O242  1  0.72823901  0.40967879  0.81125526  1
