# generated using pymatgen
data_Gd19Ta56(WO20)8
_symmetry_space_group_name_H-M   'P 1'
_cell_length_a   15.58480129
_cell_length_b   15.47249507
_cell_length_c   15.23021928
_cell_angle_alpha   89.88616010
_cell_angle_beta   89.93006202
_cell_angle_gamma   90.09946307
_symmetry_Int_Tables_number   1
_chemical_formula_structural   Gd19Ta56(WO20)8
_chemical_formula_sum   'Gd19 Ta56 W8 O160'
_cell_volume   3672.53498354
_cell_formula_units_Z   1
loop_
 _symmetry_equiv_pos_site_id
 _symmetry_equiv_pos_as_xyz
  1  'x, y, z'
loop_
 _atom_type_symbol
 _atom_type_oxidation_number
  Gd3+  3.0
  Ta5+  5.0
  W6+  6.0
  O2-  -2.0
loop_
 _atom_site_type_symbol
 _atom_site_label
 _atom_site_symmetry_multiplicity
 _atom_site_fract_x
 _atom_site_fract_y
 _atom_site_fract_z
 _atom_site_occupancy
  Gd3+  Gd0  1  0.74587296  0.76615160  0.49989498  1
  Gd3+  Gd1  1  0.51864996  0.23906118  -0.00403224  1
  Gd3+  Gd2  1  0.75760408  0.25773658  0.49758993  1
  Gd3+  Gd3  1  0.74503476  0.75485666  0.74838816  1
  Gd3+  Gd4  1  0.77523055  0.76099651  0.00585861  1
  Gd3+  Gd5  1  0.53027798  0.25279884  0.75204272  1
  Gd3+  Gd6  1  0.27057359  0.23198860  0.26196816  1
  Gd3+  Gd7  1  -0.00602243  0.26813820  0.51978261  1
  Gd3+  Gd8  1  0.00930884  0.76326743  0.25845089  1
  Gd3+  Gd9  1  0.24597633  0.72168190  0.00269569  1
  Gd3+  Gd10  1  0.53510733  0.25084753  0.23832386  1
  Gd3+  Gd11  1  0.47982822  0.75119368  0.24176213  1
  Gd3+  Gd12  1  0.23637983  0.22790747  0.50329875  1
  Gd3+  Gd13  1  0.23368228  0.74607401  0.51548099  1
  Gd3+  Gd14  1  -0.00972465  0.73198334  0.48666867  1
  Gd3+  Gd15  1  -0.00780068  0.25107473  0.00061094  1
  Gd3+  Gd16  1  0.49933647  0.75366129  0.49019627  1
  Gd3+  Gd17  1  -0.00526107  0.25974581  0.76550647  1
  Gd3+  Gd18  1  0.00941034  0.75604805  -0.01054070  1
  Ta5+  Ta19  1  0.32106095  0.87326966  0.13538736  1
  Ta5+  Ta20  1  0.40484946  0.10733125  0.40123866  1
  Ta5+  Ta21  1  0.09722537  0.87623346  0.63222852  1
  Ta5+  Ta22  1  0.90130207  0.88280595  0.84209328  1
  Ta5+  Ta23  1  0.59389255  0.38285002  0.42871293  1
  Ta5+  Ta24  1  0.83965140  0.37482190  0.86887056  1
  Ta5+  Ta25  1  0.09636744  0.61362378  0.13569230  1
  Ta5+  Ta26  1  0.15077538  0.37722082  0.63461304  1
  Ta5+  Ta27  1  0.34829890  0.61221165  0.14199237  1
  Ta5+  Ta28  1  0.84751406  0.38301578  0.64754331  1
  Ta5+  Ta29  1  0.61523982  0.88658435  0.62703993  1
  Ta5+  Ta30  1  0.63184144  0.62780752  0.89336962  1
  Ta5+  Ta31  1  0.14533561  0.87313359  0.86782927  1
  Ta5+  Ta32  1  0.64981222  0.88195331  0.13893495  1
  Ta5+  Ta33  1  0.68118775  0.38671112  0.66035129  1
  Ta5+  Ta34  1  0.86763181  0.61590845  0.62125250  1
  Ta5+  Ta35  1  0.86785125  0.37678759  0.12198733  1
  Ta5+  Ta36  1  0.62590030  0.88521976  0.88484195  1
  Ta5+  Ta37  1  0.38734673  0.37198886  0.13111678  1
  Ta5+  Ta38  1  0.88489551  0.88419102  0.62973440  1
  Ta5+  Ta39  1  0.14054450  0.38579341  0.87901360  1
  Ta5+  Ta40  1  0.08081111  0.55373941  0.38995268  1
  Ta5+  Ta41  1  0.36398080  0.60612419  0.62602917  1
  Ta5+  Ta42  1  0.88863530  0.12697041  0.63077587  1
  Ta5+  Ta43  1  0.39468398  0.36756735  0.40730719  1
  Ta5+  Ta44  1  0.14065759  0.12017841  0.12047069  1
  Ta5+  Ta45  1  0.09458972  0.12470655  0.37166007  1
  Ta5+  Ta46  1  0.64479883  0.13193300  0.63003147  1
  Ta5+  Ta47  1  0.37923371  0.36806343  0.87487772  1
  Ta5+  Ta48  1  0.14191031  0.12407490  0.87019957  1
  Ta5+  Ta49  1  0.84093469  0.62620166  0.35215637  1
  Ta5+  Ta50  1  0.88770117  0.38712039  0.37069363  1
  Ta5+  Ta51  1  0.14266159  0.37019686  0.12165201  1
  Ta5+  Ta52  1  0.38003109  0.12116991  0.86856241  1
  Ta5+  Ta53  1  0.15392819  0.87174881  0.13107768  1
  Ta5+  Ta54  1  0.37505491  0.86436232  0.64284498  1
  Ta5+  Ta55  1  0.60529408  0.62253399  0.63534436  1
  Ta5+  Ta56  1  0.62124672  0.62012083  0.36318876  1
  Ta5+  Ta57  1  0.62753702  0.39325456  0.09773475  1
  Ta5+  Ta58  1  0.67836125  0.12627459  0.88374436  1
  Ta5+  Ta59  1  0.85555542  0.89153347  0.36349111  1
  Ta5+  Ta60  1  0.12023753  0.62526571  0.85143892  1
  Ta5+  Ta61  1  0.86147210  0.14183185  0.35500473  1
  Ta5+  Ta62  1  0.38062301  0.11251095  0.61566739  1
  Ta5+  Ta63  1  0.14782122  0.89873954  0.38063066  1
  Ta5+  Ta64  1  0.31776192  0.36104438  0.64223289  1
  Ta5+  Ta65  1  0.12541253  0.36935261  0.37308236  1
  Ta5+  Ta66  1  0.67103942  0.12774449  0.10785175  1
  Ta5+  Ta67  1  0.84585093  0.12290610  0.88021312  1
  Ta5+  Ta68  1  0.38821901  0.61745186  0.87835966  1
  Ta5+  Ta69  1  0.09590568  0.60080586  0.59848779  1
  Ta5+  Ta70  1  0.34705710  0.87995283  0.37881345  1
  Ta5+  Ta71  1  0.64106384  0.13144216  0.36764821  1
  Ta5+  Ta72  1  0.92786680  0.61558898  0.11807684  1
  Ta5+  Ta73  1  0.65625488  0.63239581  0.15615917  1
  Ta5+  Ta74  1  0.83766749  0.12721867  0.10350599  1
  W6+  W75  1  0.89956640  0.88753902  0.11783100  1
  W6+  W76  1  0.38595468  0.11095112  0.13048470  1
  W6+  W77  1  0.61018985  0.88468114  0.35931704  1
  W6+  W78  1  0.67537600  0.37788077  0.86794093  1
  W6+  W79  1  0.08229120  0.12628450  0.63849784  1
  W6+  W80  1  0.35707545  0.61539976  0.40075261  1
  W6+  W81  1  0.37975099  0.87176038  0.89954565  1
  W6+  W82  1  0.87384558  0.61983130  0.86249726  1
  O2-  O83  1  0.14181891  -0.00026651  0.10815230  1
  O2-  O84  1  0.08083940  0.00462972  0.39728992  1
  O2-  O85  1  0.09063798  -0.00797104  0.63832028  1
  O2-  O86  1  0.15865543  -0.00642821  0.87345871  1
  O2-  O87  1  0.10703161  0.48507026  0.13161392  1
  O2-  O88  1  0.17986275  0.48235793  0.38827818  1
  O2-  O89  1  0.16056466  0.49906148  0.60585325  1
  O2-  O90  1  0.15549834  0.51114113  0.88821970  1
  O2-  O91  1  0.33738405  -0.00965292  0.13158674  1
  O2-  O92  1  0.42460239  -0.01275538  0.39357181  1
  O2-  O93  1  0.35638896  -0.01081243  0.63006586  1
  O2-  O94  1  0.37640493  0.00471856  0.87488313  1
  O2-  O95  1  0.38963848  0.49433333  0.13010191  1
  O2-  O96  1  0.36566129  0.48041657  0.38856925  1
  O2-  O97  1  0.35253364  0.48695048  0.63898087  1
  O2-  O98  1  0.40156663  0.48563968  0.87192938  1
  O2-  O99  1  0.66440977  0.00301262  0.12928695  1
  O2-  O100  1  0.64278456  0.01432288  0.36156781  1
  O2-  O101  1  0.61306721  0.00589348  0.62074673  1
  O2-  O102  1  0.67133418  -0.00391166  0.88239965  1
  O2-  O103  1  0.63441626  0.51404603  0.11929267  1
  O2-  O104  1  0.62030930  0.49356252  0.38147553  1
  O2-  O105  1  0.64925710  0.51248293  0.63863242  1
  O2-  O106  1  0.66436541  0.51664440  0.88286277  1
  O2-  O107  1  0.85256027  0.00937034  0.10980938  1
  O2-  O108  1  0.85614423  0.01402340  0.36928454  1
  O2-  O109  1  0.88522780  0.00311205  0.60571284  1
  O2-  O110  1  0.87072561  -0.00588344  0.87421633  1
  O2-  O111  1  0.90259345  0.49725798  0.10389853  1
  O2-  O112  1  0.84159965  0.50312426  0.37431499  1
  O2-  O113  1  0.84697473  0.49972308  0.60067502  1
  O2-  O114  1  0.84551005  0.49509197  0.87433642  1
  O2-  O115  1  0.09313906  0.25012209  0.11802901  1
  O2-  O116  1  0.16671940  0.24178444  0.36875543  1
  O2-  O117  1  0.08423418  0.26481157  0.64444563  1
  O2-  O118  1  0.10629560  0.25561797  0.87243885  1
  O2-  O119  1  0.12004707  0.74673839  0.15282388  1
  O2-  O120  1  0.05495234  0.81421890  0.39174141  1
  O2-  O121  1  0.11144412  0.73191233  0.60354862  1
  O2-  O122  1  0.17754095  0.73726096  0.86786356  1
  O2-  O123  1  0.42977583  0.24226869  0.13512973  1
  O2-  O124  1  0.35290804  0.24342307  0.39681591  1
  O2-  O125  1  0.32186693  0.22266701  0.62992245  1
  O2-  O126  1  0.43814395  0.24773729  0.87047858  1
  O2-  O127  1  0.36818925  0.73783410  0.12329130  1
  O2-  O128  1  0.40587426  0.75227409  0.38012550  1
  O2-  O129  1  0.33362419  0.74429944  0.63067028  1
  O2-  O130  1  0.36316100  0.73569198  0.90105827  1
  O2-  O131  1  0.62362350  0.25843540  0.10783784  1
  O2-  O132  1  0.64985191  0.27859298  0.38497887  1
  O2-  O133  1  0.63025973  0.25976680  0.63389300  1
  O2-  O134  1  0.62630392  0.24625417  0.87869936  1
  O2-  O135  1  0.60948847  0.74748586  0.14812979  1
  O2-  O136  1  0.58268713  0.74475902  0.36079049  1
  O2-  O137  1  0.65656569  0.74786212  0.62293543  1
  O2-  O138  1  0.67883027  0.76177813  0.88654220  1
  O2-  O139  1  0.89626126  0.25271530  0.11407638  1
  O2-  O140  1  0.83257574  0.27266903  0.36501407  1
  O2-  O141  1  0.89987335  0.25879576  0.64107126  1
  O2-  O142  1  0.88971478  0.24900193  0.87406819  1
  O2-  O143  1  0.93722169  0.75484650  0.12497793  1
  O2-  O144  1  0.88635368  0.75108178  0.36431559  1
  O2-  O145  1  0.84290969  0.75629614  0.62361021  1
  O2-  O146  1  0.85881335  0.76060480  0.84689499  1
  O2-  O147  1  0.11375255  0.13114806  -0.00917218  1
  O2-  O148  1  0.13953958  0.11883794  0.25229862  1
  O2-  O149  1  0.10102208  0.15432271  0.49824458  1
  O2-  O150  1  0.06239384  0.11777314  0.77922917  1
  O2-  O151  1  0.11607680  0.64389358  0.00434032  1
  O2-  O152  1  0.08258669  0.61078237  0.27831119  1
  O2-  O153  1  0.12591218  0.65244626  0.46232751  1
  O2-  O154  1  0.13078949  0.61249239  0.73245620  1
  O2-  O155  1  0.40475235  0.13625571  -0.00825765  1
  O2-  O156  1  0.36540466  0.11967215  0.27972218  1
  O2-  O157  1  0.31109277  0.10282148  0.49138608  1
  O2-  O158  1  0.42108755  0.12832315  0.74019802  1
  O2-  O159  1  0.33598423  0.60087245  -0.00432803  1
  O2-  O160  1  0.37971434  0.62459962  0.26079306  1
  O2-  O161  1  0.43247369  0.62972621  0.51442360  1
  O2-  O162  1  0.34675602  0.61935979  0.76081304  1
  O2-  O163  1  0.60108471  0.11585030  -0.00121802  1
  O2-  O164  1  0.64999489  0.15492783  0.24010491  1
  O2-  O165  1  0.65794604  0.14172596  0.49473835  1
  O2-  O166  1  0.63101668  0.12691286  0.75848898  1
  O2-  O167  1  0.67280577  0.64894157  0.01671641  1
  O2-  O168  1  0.56321946  0.61418948  0.24740080  1
  O2-  O169  1  0.60084428  0.63825324  0.50621412  1
  O2-  O170  1  0.63408814  0.65139455  0.76360564  1
  O2-  O171  1  0.91851151  0.12663567  -0.00843536  1
  O2-  O172  1  0.83931872  0.14163420  0.23516340  1
  O2-  O173  1  0.87994269  0.16074553  0.49390200  1
  O2-  O174  1  0.87777727  0.12478515  0.75712138  1
  O2-  O175  1  0.88287187  0.65578629  -0.00293726  1
  O2-  O176  1  0.90006154  0.62675882  0.24335777  1
  O2-  O177  1  0.86618937  0.64711716  0.49546572  1
  O2-  O178  1  0.81357447  0.62162804  0.73417445  1
  O2-  O179  1  0.09284720  0.37446262  -0.00362630  1
  O2-  O180  1  0.15700501  0.35515589  0.24669313  1
  O2-  O181  1  0.12393711  0.35085711  0.50355080  1
  O2-  O182  1  0.10920146  0.39303298  0.75911509  1
  O2-  O183  1  0.13657301  0.84262470  -0.00082004  1
  O2-  O184  1  0.12849879  0.89207913  0.25771979  1
  O2-  O185  1  0.16499371  0.87990882  0.52464736  1
  O2-  O186  1  0.15910414  0.85598406  0.74155167  1
  O2-  O187  1  0.40909845  0.35435782  0.00190390  1
  O2-  O188  1  0.35687464  0.35085692  0.25421044  1
  O2-  O189  1  0.31752352  0.35782202  0.51285604  1
  O2-  O190  1  0.39264024  0.34611838  0.75015493  1
  O2-  O191  1  0.30701892  0.85900688  0.00626787  1
  O2-  O192  1  0.37584354  0.86183300  0.25633444  1
  O2-  O193  1  0.36169227  0.85696568  0.50511675  1
  O2-  O194  1  0.37714938  0.86261087  0.76218655  1
  O2-  O195  1  0.58938411  0.38542769  -0.01660550  1
  O2-  O196  1  0.51696124  0.38285732  0.15803696  1
  O2-  O197  1  0.67732157  0.38346136  0.52306169  1
  O2-  O198  1  0.58941825  0.38268242  0.75719077  1
  O2-  O199  1  0.63937536  0.86678944  0.01267726  1
  O2-  O200  1  0.56351569  0.88356599  0.22965934  1
  O2-  O201  1  0.63015594  0.86162155  0.50039753  1
  O2-  O202  1  0.63649484  0.86840205  0.75082196  1
  O2-  O203  1  0.88154089  0.36495502  -0.00897561  1
  O2-  O204  1  0.90055509  0.38293176  0.24263320  1
  O2-  O205  1  0.87950288  0.36437866  0.50393577  1
  O2-  O206  1  0.91669847  0.38667411  0.75797575  1
  O2-  O207  1  0.88945545  0.85405567  -0.01887133  1
  O2-  O208  1  0.92378689  0.88522050  0.25788164  1
  O2-  O209  1  0.84876384  0.87150993  0.49175760  1
  O2-  O210  1  0.81481488  0.88934167  0.73911286  1
  O2-  O211  1  0.02387420  -0.13927187  -0.12300170  1
  O2-  O212  1  -0.01478965  0.16727959  0.34914104  1
  O2-  O213  1  -0.00807245  -0.14854539  0.56444918  1
  O2-  O214  1  -0.02715640  -0.12576812  0.72308644  1
  O2-  O215  1  0.00589540  0.66186268  -0.13503312  1
  O2-  O216  1  0.01240965  0.43371987  0.37154885  1
  O2-  O217  1  0.01696217  0.55100820  0.50809592  1
  O2-  O218  1  -0.01825049  0.62490252  0.65621842  1
  O2-  O219  1  0.25400339  0.16452205  0.12405979  1
  O2-  O220  1  0.23931384  -0.19573703  0.37815561  1
  O2-  O221  1  0.25723919  -0.03460952  0.37315938  1
  O2-  O222  1  0.26182549  0.15297912  0.85702158  1
  O2-  O223  1  0.26261768  0.36574240  0.09908388  1
  O2-  O224  1  0.23143426  0.61239622  0.14427538  1
  O2-  O225  1  0.28067657  0.60908896  0.52913411  1
  O2-  O226  1  0.26013681  0.35506758  0.88645091  1
  O2-  O227  1  0.51006686  -0.11788685  -0.12059677  1
  O2-  O228  1  0.51553232  0.15881467  0.36500247  1
  O2-  O229  1  0.46614313  0.12653186  0.53051652  1
  O2-  O230  1  0.49559931  -0.15655576  0.62224981  1
  O2-  O231  1  0.51033088  0.62794108  -0.10418965  1
  O2-  O232  1  0.50350355  0.35206610  0.33859835  1
  O2-  O233  1  0.48977620  0.38087590  0.49681476  1
  O2-  O234  1  0.48978717  0.61793711  0.66405756  1
  O2-  O235  1  0.75689833  0.16217828  -0.00214999  1
  O2-  O236  1  0.76436773  -0.16284981  0.13753145  1
  O2-  O237  1  0.74330749  -0.14771142  0.34823093  1
  O2-  O238  1  0.76348873  0.14196056  0.62899183  1
  O2-  O239  1  0.74797481  0.37885414  0.12918700  1
  O2-  O240  1  0.72781466  0.62608156  0.25801233  1
  O2-  O241  1  0.73097896  0.65312426  0.41338085  1
  O2-  O242  1  0.76245737  0.33679044  0.75532802  1
