# generated using pymatgen
data_Gd19Ta56(WO20)8
_symmetry_space_group_name_H-M   'P 1'
_cell_length_a   15.57301390
_cell_length_b   15.31391703
_cell_length_c   15.23285162
_cell_angle_alpha   90.02718432
_cell_angle_beta   90.29492176
_cell_angle_gamma   89.98363378
_symmetry_Int_Tables_number   1
_chemical_formula_structural   Gd19Ta56(WO20)8
_chemical_formula_sum   'Gd19 Ta56 W8 O160'
_cell_volume   3632.74031047
_cell_formula_units_Z   1
loop_
 _symmetry_equiv_pos_site_id
 _symmetry_equiv_pos_as_xyz
  1  'x, y, z'
loop_
 _atom_type_symbol
 _atom_type_oxidation_number
  Gd3+  3.0
  Ta5+  5.0
  W6+  6.0
  O2-  -2.0
loop_
 _atom_site_type_symbol
 _atom_site_label
 _atom_site_symmetry_multiplicity
 _atom_site_fract_x
 _atom_site_fract_y
 _atom_site_fract_z
 _atom_site_occupancy
  Gd3+  Gd0  1  0.48513329  0.23914181  0.75649229  1
  Gd3+  Gd1  1  0.25412058  0.76600581  0.24641977  1
  Gd3+  Gd2  1  0.51295538  0.77210906  0.76628646  1
  Gd3+  Gd3  1  -0.01166865  0.24193850  0.73196171  1
  Gd3+  Gd4  1  0.80095985  0.78214973  0.24496248  1
  Gd3+  Gd5  1  0.23242686  0.24371577  0.74156469  1
  Gd3+  Gd6  1  0.23231487  0.24496665  0.00237859  1
  Gd3+  Gd7  1  0.26320221  0.25300943  0.24983631  1
  Gd3+  Gd8  1  -0.03180780  0.71587051  -0.03109784  1
  Gd3+  Gd9  1  0.22333106  0.23385495  0.49929470  1
  Gd3+  Gd10  1  0.52727772  0.78219708  0.52280333  1
  Gd3+  Gd11  1  0.75973781  0.24983606  0.26644339  1
  Gd3+  Gd12  1  -0.01782833  0.24910931  0.25531460  1
  Gd3+  Gd13  1  -0.02404572  0.22160301  0.49023641  1
  Gd3+  Gd14  1  0.48945202  0.23787611  0.51810896  1
  Gd3+  Gd15  1  0.50761395  0.25316855  0.26723115  1
  Gd3+  Gd16  1  0.50273554  0.74025799  0.24979996  1
  Gd3+  Gd17  1  0.50204969  0.26299085  0.00731856  1
  Gd3+  Gd18  1  -0.01337625  0.25448949  0.01381029  1
  Ta5+  Ta19  1  0.63474086  0.41985185  0.09303090  1
  Ta5+  Ta20  1  0.64230667  0.12567496  0.88719899  1
  Ta5+  Ta21  1  0.65099390  0.63767302  0.87018531  1
  Ta5+  Ta22  1  0.34246773  0.39222528  0.87006601  1
  Ta5+  Ta23  1  0.87272123  0.39850184  0.37433081  1
  Ta5+  Ta24  1  0.12762603  0.39583857  0.13315110  1
  Ta5+  Ta25  1  0.65393933  0.84531669  0.11727053  1
  Ta5+  Ta26  1  0.60165874  0.09057937  0.12064447  1
  Ta5+  Ta27  1  0.86161709  0.11745625  0.87227973  1
  Ta5+  Ta28  1  0.36719619  0.64988858  0.63499464  1
  Ta5+  Ta29  1  0.94555283  0.84682408  0.38799720  1
  Ta5+  Ta30  1  0.16619322  0.63665927  0.38840893  1
  Ta5+  Ta31  1  0.17280629  0.85370632  0.63406130  1
  Ta5+  Ta32  1  0.11807731  0.39291205  0.38134084  1
  Ta5+  Ta33  1  0.81393553  0.61950462  0.86031869  1
  Ta5+  Ta34  1  0.11578912  0.10414651  0.35789103  1
  Ta5+  Ta35  1  0.36284846  0.39332807  0.63230962  1
  Ta5+  Ta36  1  0.39073782  0.61527636  0.10207821  1
  Ta5+  Ta37  1  0.36937013  0.86938803  0.88983176  1
  Ta5+  Ta38  1  0.20060183  0.63899408  0.64067936  1
  Ta5+  Ta39  1  0.39233878  0.11532322  0.12386317  1
  Ta5+  Ta40  1  0.12978946  0.38708181  0.87468391  1
  Ta5+  Ta41  1  0.63305118  0.08154925  0.40029988  1
  Ta5+  Ta42  1  0.09765112  0.86012351  0.86371406  1
  Ta5+  Ta43  1  0.80811390  0.63432996  0.38401347  1
  Ta5+  Ta44  1  0.34222397  0.85479515  0.63034521  1
  Ta5+  Ta45  1  0.63220196  0.38688780  0.85210580  1
  Ta5+  Ta46  1  0.64100297  0.64890686  0.38365812  1
  Ta5+  Ta47  1  0.12458552  0.10059504  0.14315714  1
  Ta5+  Ta48  1  0.63782550  0.37358083  0.64951556  1
  Ta5+  Ta49  1  0.84621780  0.06470300  0.37356057  1
  Ta5+  Ta50  1  0.80526335  0.62120691  0.63425866  1
  Ta5+  Ta51  1  0.71016047  0.87719771  0.63410940  1
  Ta5+  Ta52  1  0.37344640  0.38778581  0.38260802  1
  Ta5+  Ta53  1  0.11294696  0.09604676  0.62260082  1
  Ta5+  Ta54  1  0.82898596  0.38974186  0.11037617  1
  Ta5+  Ta55  1  0.63924796  0.63181851  0.64198333  1
  Ta5+  Ta56  1  0.61912744  0.09302595  0.64940312  1
  Ta5+  Ta57  1  0.37058431  0.89849891  0.37970385  1
  Ta5+  Ta58  1  0.37112553  0.63815255  0.40156508  1
  Ta5+  Ta59  1  0.37456276  0.63978916  0.88569478  1
  Ta5+  Ta60  1  0.66766758  0.87805278  0.37992965  1
  Ta5+  Ta61  1  0.35450546  0.09674499  0.37459592  1
  Ta5+  Ta62  1  0.62734597  0.39887318  0.40233090  1
  Ta5+  Ta63  1  0.11264532  0.86312666  0.38683655  1
  Ta5+  Ta64  1  0.15744834  0.63609678  0.88794520  1
  Ta5+  Ta65  1  0.12731408  0.39825015  0.62793615  1
  Ta5+  Ta66  1  0.93528019  0.86680255  0.11694362  1
  Ta5+  Ta67  1  0.82620562  0.62431547  0.11756613  1
  Ta5+  Ta68  1  0.10258905  0.86178965  0.11999739  1
  Ta5+  Ta69  1  0.09997156  0.64639009  0.13957941  1
  Ta5+  Ta70  1  0.34480202  0.10964053  0.88194321  1
  Ta5+  Ta71  1  0.65877808  0.65238389  0.12042006  1
  Ta5+  Ta72  1  0.69832580  0.87960769  0.88096936  1
  Ta5+  Ta73  1  0.13569443  0.10491628  0.87869515  1
  Ta5+  Ta74  1  0.85769837  0.37487388  0.61413721  1
  W6+  W75  1  0.85583236  0.10061056  0.62424974  1
  W6+  W76  1  0.36746705  0.10598974  0.63190057  1
  W6+  W77  1  0.88403186  0.84697069  0.63348554  1
  W6+  W78  1  0.34881335  0.87049642  0.10647366  1
  W6+  W79  1  0.85785920  0.86622307  0.86207647  1
  W6+  W80  1  0.37951226  0.38606856  0.12211332  1
  W6+  W81  1  0.88137507  0.37874935  0.86454013  1
  W6+  W82  1  0.87058375  0.11066081  0.12271159  1
  O2-  O83  1  0.11573291  -0.01227766  0.09456853  1
  O2-  O84  1  0.09883301  -0.01538635  0.39183787  1
  O2-  O85  1  0.13321570  -0.01917970  0.64430891  1
  O2-  O86  1  0.09045964  -0.00825910  0.87324240  1
  O2-  O87  1  0.11636185  0.51578349  0.13380910  1
  O2-  O88  1  0.15032065  0.51154491  0.37326781  1
  O2-  O89  1  0.16357840  0.51207418  0.65005548  1
  O2-  O90  1  0.13761830  0.51497986  0.88047311  1
  O2-  O91  1  0.35630615  0.00541525  0.09613147  1
  O2-  O92  1  0.28535963  -0.00883090  0.39421508  1
  O2-  O93  1  0.33485638  -0.02396961  0.62776590  1
  O2-  O94  1  0.38957395  -0.00440651  0.90016651  1
  O2-  O95  1  0.32568251  0.51530364  0.10541327  1
  O2-  O96  1  0.37591673  0.50925066  0.40096809  1
  O2-  O97  1  0.35980904  0.51450207  0.62833394  1
  O2-  O98  1  0.36022201  0.51410399  0.87054325  1
  O2-  O99  1  0.63967467  -0.02381453  0.12251899  1
  O2-  O100  1  0.59237419  -0.02637067  0.35083000  1
  O2-  O101  1  0.62846030  -0.02839802  0.66586196  1
  O2-  O102  1  0.65463723  0.00306477  0.89209097  1
  O2-  O103  1  0.63004832  0.52722915  0.14727469  1
  O2-  O104  1  0.62537687  0.51958096  0.38224810  1
  O2-  O105  1  0.63906005  0.49801478  0.64160322  1
  O2-  O106  1  0.64997348  0.50572449  0.85856981  1
  O2-  O107  1  0.89913498  -0.01855773  0.12332339  1
  O2-  O108  1  0.92120061  -0.02961075  0.37274199  1
  O2-  O109  1  0.80964131  -0.03885594  0.61080778  1
  O2-  O110  1  0.82802849  0.00048729  0.88141745  1
  O2-  O111  1  0.87121336  0.50297207  0.12865753  1
  O2-  O112  1  0.86243038  0.52050702  0.38709275  1
  O2-  O113  1  0.83406477  0.49729957  0.62517109  1
  O2-  O114  1  0.84289754  0.50438748  0.84264708  1
  O2-  O115  1  0.24327485  0.34102500  0.12081826  1
  O2-  O116  1  0.23440405  0.15685103  0.37067119  1
  O2-  O117  1  0.09767084  0.26065635  0.60844065  1
  O2-  O118  1  0.15029718  0.25107124  0.86713325  1
  O2-  O119  1  0.17089286  0.74626082  0.12087392  1
  O2-  O120  1  0.19466488  0.76330009  0.38210294  1
  O2-  O121  1  0.13068291  0.73949865  0.65152596  1
  O2-  O122  1  0.07293124  0.72882339  0.85610957  1
  O2-  O123  1  0.39996381  0.24788288  0.15066856  1
  O2-  O124  1  0.38542461  0.24315719  0.35560223  1
  O2-  O125  1  0.38681728  0.25127035  0.64175060  1
  O2-  O126  1  0.33757639  0.25100158  0.85285739  1
  O2-  O127  1  0.34927740  0.72965295  0.12750624  1
  O2-  O128  1  0.39274422  0.75792951  0.35493872  1
  O2-  O129  1  0.44094470  0.76557662  0.63851972  1
  O2-  O130  1  0.43655883  0.76011381  0.90111570  1
  O2-  O131  1  0.52569255  0.36168550  0.13466086  1
  O2-  O132  1  0.54573219  0.16786045  0.39242431  1
  O2-  O133  1  0.58420465  0.25232001  0.64335369  1
  O2-  O134  1  0.57935970  0.24848561  0.87880759  1
  O2-  O135  1  0.56600838  0.75902577  0.11147987  1
  O2-  O136  1  0.58258194  0.77477821  0.37959333  1
  O2-  O137  1  0.62998703  0.77308609  0.65250622  1
  O2-  O138  1  0.63866468  0.77241354  0.85657598  1
  O2-  O139  1  0.86407809  0.25318806  0.14329576  1
  O2-  O140  1  0.88440361  0.26690460  0.37062945  1
  O2-  O141  1  0.89276396  0.24258743  0.61632953  1
  O2-  O142  1  0.92528051  0.24247141  0.86910512  1
  O2-  O143  1  0.87835711  0.74186143  0.11420153  1
  O2-  O144  1  0.87082357  0.74180253  0.37753765  1
  O2-  O145  1  0.87275355  0.72557681  0.65471582  1
  O2-  O146  1  0.87800960  0.73025153  0.84943916  1
  O2-  O147  1  0.09813203  0.15143935  -0.00516580  1
  O2-  O148  1  0.11975076  0.19807605  0.24907300  1
  O2-  O149  1  0.12821546  0.11548100  0.49393105  1
  O2-  O150  1  0.09637075  0.13789005  0.74859184  1
  O2-  O151  1  0.09064287  0.63956293  0.00577778  1
  O2-  O152  1  0.10712563  0.65302895  0.26319986  1
  O2-  O153  1  0.17572555  0.63420974  0.51012328  1
  O2-  O154  1  0.20782509  0.64120703  0.77532278  1
  O2-  O155  1  0.36760563  0.17348087  -0.00242539  1
  O2-  O156  1  0.34674336  0.11188413  0.24889464  1
  O2-  O157  1  0.36100219  0.14590111  0.49365626  1
  O2-  O158  1  0.40496208  0.11441223  0.77025695  1
  O2-  O159  1  0.26671018  0.65360982  -0.05143263  1
  O2-  O160  1  0.27472872  0.62957976  0.31363147  1
  O2-  O161  1  0.42072874  0.66080071  0.51217082  1
  O2-  O162  1  0.39446371  0.65877307  0.76462658  1
  O2-  O163  1  0.65195429  0.14604089  0.01320169  1
  O2-  O164  1  0.66212738  0.16235564  0.19732696  1
  O2-  O165  1  0.64295387  0.07445203  0.51947896  1
  O2-  O166  1  0.58397115  0.11719675  0.77256465  1
  O2-  O167  1  0.64134411  0.64189043  -0.00749773  1
  O2-  O168  1  0.63227349  0.66638618  0.25563554  1
  O2-  O169  1  0.61118981  0.65423502  0.51791877  1
  O2-  O170  1  0.57335473  0.63787163  0.75641466  1
  O2-  O171  1  0.90330459  0.12709236  -0.00930211  1
  O2-  O172  1  0.85313775  0.11780111  0.25999401  1
  O2-  O173  1  0.86133775  0.11642388  0.48443818  1
  O2-  O174  1  0.90577453  0.11233312  0.75677814  1
  O2-  O175  1  0.84681757  0.62209563  -0.01402354  1
  O2-  O176  1  0.82027062  0.63127172  0.24784600  1
  O2-  O177  1  0.80335785  0.63835343  0.51244995  1
  O2-  O178  1  0.73835325  0.64621874  0.74929658  1
  O2-  O179  1  0.11034331  0.34521361  0.01249608  1
  O2-  O180  1  0.10016336  0.26585468  0.41289372  1
  O2-  O181  1  0.09353566  0.41442768  0.51023672  1
  O2-  O182  1  0.08652303  0.36478977  0.74426091  1
  O2-  O183  1  0.10248472  0.84047425  -0.01285747  1
  O2-  O184  1  0.12821014  0.85663060  0.24937137  1
  O2-  O185  1  0.14229167  0.85725372  0.51418911  1
  O2-  O186  1  0.17614084  0.85962794  0.77423784  1
  O2-  O187  1  0.40511866  0.36467713  -0.02061174  1
  O2-  O188  1  0.35343073  0.38670737  0.25952626  1
  O2-  O189  1  0.40315245  0.36418855  0.51548928  1
  O2-  O190  1  0.39988256  0.37916231  0.75119241  1
  O2-  O191  1  0.29416398  0.84889728  -0.02042618  1
  O2-  O192  1  0.35183972  0.88264747  0.25163976  1
  O2-  O193  1  0.38286491  0.85524453  0.49926746  1
  O2-  O194  1  0.36025539  0.85425673  0.76627919  1
  O2-  O195  1  0.59059922  0.38350021  -0.02367118  1
  O2-  O196  1  0.63533634  0.31486769  0.30961389  1
  O2-  O197  1  0.59306133  0.36656152  0.51914183  1
  O2-  O198  1  0.71333816  0.35116385  0.76514599  1
  O2-  O199  1  0.70404544  0.85380393  0.00267238  1
  O2-  O200  1  0.67199576  0.85584846  0.24882783  1
  O2-  O201  1  0.67236026  0.86654660  0.50827273  1
  O2-  O202  1  0.74978431  0.86717788  0.75845201  1
  O2-  O203  1  0.88647168  0.36150215  0.00468249  1
  O2-  O204  1  0.84385294  0.38563020  0.25136414  1
  O2-  O205  1  0.91537968  0.37668421  0.50417210  1
  O2-  O206  1  0.90872401  0.37106933  0.72752891  1
  O2-  O207  1  0.91328878  0.85415915  -0.01426590  1
  O2-  O208  1  0.93337065  0.84355370  0.24742712  1
  O2-  O209  1  0.93160557  0.84882725  0.51115384  1
  O2-  O210  1  0.91928167  0.89172688  0.74569615  1
  O2-  O211  1  0.00598952  0.14490827  0.14163225  1
  O2-  O212  1  0.15186323  0.04377531  0.24992927  1
  O2-  O213  1  -0.00388883  0.13243095  0.36260679  1
  O2-  O214  1  -0.00693783  0.10436792  0.59928585  1
  O2-  O215  1  0.01749660  0.34581959  0.14798579  1
  O2-  O216  1  0.15432422  0.37073912  0.25795206  1
  O2-  O217  1  0.00009062  0.39790759  0.34373870  1
  O2-  O218  1  0.01070755  0.39226559  0.89070998  1
  O2-  O219  1  0.23717099  0.08710917  -0.04708406  1
  O2-  O220  1  0.23743106  0.15551093  0.12503888  1
  O2-  O221  1  0.23287453  0.14678706  0.62632633  1
  O2-  O222  1  0.24314678  0.10682605  0.80112654  1
  O2-  O223  1  0.24316039  0.38782653  -0.05448835  1
  O2-  O224  1  0.25105055  0.35658709  0.40907926  1
  O2-  O225  1  0.24478287  0.35378926  0.60933400  1
  O2-  O226  1  0.23828501  0.38969768  0.78512294  1
  O2-  O227  1  0.50005787  0.11245104  0.04419434  1
  O2-  O228  1  0.50069253  0.10795522  0.20144954  1
  O2-  O229  1  0.43987370  0.00385014  0.38113338  1
  O2-  O230  1  0.50081198  0.11272677  0.60505630  1
  O2-  O231  1  0.44667873  0.61428362  -0.00831206  1
  O2-  O232  1  0.46257491  0.60644627  0.19835860  1
  O2-  O233  1  0.49897564  0.37332788  0.37038741  1
  O2-  O234  1  0.55487134  0.38358161  0.75497153  1
  O2-  O235  1  0.75116151  0.17122175  -0.13980042  1
  O2-  O236  1  0.73047471  0.14956644  0.37307261  1
  O2-  O237  1  0.75115571  -0.01599711  0.38206241  1
  O2-  O238  1  0.73057792  0.13477268  0.66367333  1
  O2-  O239  1  0.74189098  0.43952283  0.03020599  1
  O2-  O240  1  0.71072836  0.34184001  0.15333241  1
  O2-  O241  1  0.75030347  0.38454602  0.41139642  1
  O2-  O242  1  0.74361587  0.34003538  0.59528912  1
