# generated using pymatgen
data_Gd19Ta56(WO20)8
_symmetry_space_group_name_H-M   'P 1'
_cell_length_a   15.58955812
_cell_length_b   15.49642546
_cell_length_c   15.32280419
_cell_angle_alpha   89.89557147
_cell_angle_beta   89.72816884
_cell_angle_gamma   89.83929172
_symmetry_Int_Tables_number   1
_chemical_formula_structural   Gd19Ta56(WO20)8
_chemical_formula_sum   'Gd19 Ta56 W8 O160'
_cell_volume   3701.65791809
_cell_formula_units_Z   1
loop_
 _symmetry_equiv_pos_site_id
 _symmetry_equiv_pos_as_xyz
  1  'x, y, z'
loop_
 _atom_type_symbol
 _atom_type_oxidation_number
  Gd3+  3.0
  Ta5+  5.0
  W6+  6.0
  O2-  -2.0
loop_
 _atom_site_type_symbol
 _atom_site_label
 _atom_site_symmetry_multiplicity
 _atom_site_fract_x
 _atom_site_fract_y
 _atom_site_fract_z
 _atom_site_occupancy
  Gd3+  Gd0  1  0.75715257  0.24530474  0.25831667  1
  Gd3+  Gd1  1  0.53470313  0.76072448  0.71988026  1
  Gd3+  Gd2  1  0.76895444  0.25900084  0.49859125  1
  Gd3+  Gd3  1  0.50080813  0.23710441  0.52535151  1
  Gd3+  Gd4  1  0.51022544  0.24472719  0.24703630  1
  Gd3+  Gd5  1  -0.00244786  0.72593345  0.53927048  1
  Gd3+  Gd6  1  0.47032587  0.25303042  0.00158209  1
  Gd3+  Gd7  1  0.75820312  0.75554587  0.75186623  1
  Gd3+  Gd8  1  0.78466535  0.72886314  0.25878190  1
  Gd3+  Gd9  1  -0.01234566  0.22940526  0.49618696  1
  Gd3+  Gd10  1  0.22407580  0.74323122  0.24430729  1
  Gd3+  Gd11  1  0.55772187  0.72009372  0.23702919  1
  Gd3+  Gd12  1  0.21936946  0.26423429  -0.01496539  1
  Gd3+  Gd13  1  0.22323227  0.74000023  -0.02139455  1
  Gd3+  Gd14  1  0.23334082  0.75304285  0.51542054  1
  Gd3+  Gd15  1  -0.01158833  0.74910685  -0.04188963  1
  Gd3+  Gd16  1  0.22109854  0.26861992  0.50460297  1
  Gd3+  Gd17  1  0.76844477  0.23342232  -0.01766731  1
  Gd3+  Gd18  1  0.24876832  0.27066069  0.24468406  1
  Ta5+  Ta19  1  0.36910070  0.11959913  0.36740515  1
  Ta5+  Ta20  1  0.36969748  0.64010712  0.11703556  1
  Ta5+  Ta21  1  0.39922843  0.39104867  0.37559096  1
  Ta5+  Ta22  1  0.39445058  0.88637110  0.55837559  1
  Ta5+  Ta23  1  0.60604836  0.61774652  0.41875425  1
  Ta5+  Ta24  1  0.60938299  0.37511653  0.39603084  1
  Ta5+  Ta25  1  0.85950668  0.87686496  0.62472531  1
  Ta5+  Ta26  1  0.87911411  0.85915388  0.38901973  1
  Ta5+  Ta27  1  0.92308432  0.61875772  0.12900226  1
  Ta5+  Ta28  1  0.15767265  0.91319634  0.62139737  1
  Ta5+  Ta29  1  0.11669947  0.12523592  0.36278028  1
  Ta5+  Ta30  1  0.91446866  0.36522656  0.88153338  1
  Ta5+  Ta31  1  0.08465333  0.87365918  0.11929903  1
  Ta5+  Ta32  1  0.93518844  0.12042742  0.87375163  1
  Ta5+  Ta33  1  0.70366448  0.60238249  0.06581570  1
  Ta5+  Ta34  1  0.62385391  0.59031925  0.63307302  1
  Ta5+  Ta35  1  0.84803733  0.59958362  0.63268480  1
  Ta5+  Ta36  1  0.35056116  0.39938685  0.61317948  1
  Ta5+  Ta37  1  0.39757920  0.87615983  0.34938427  1
  Ta5+  Ta38  1  0.06935013  0.36489111  0.62540747  1
  Ta5+  Ta39  1  0.87187614  0.10119525  0.12191215  1
  Ta5+  Ta40  1  0.59424087  0.11030649  0.90532355  1
  Ta5+  Ta41  1  0.10772638  0.90101850  0.86823519  1
  Ta5+  Ta42  1  0.36962689  0.40069229  0.12582552  1
  Ta5+  Ta43  1  0.39840648  0.63563770  0.60432345  1
  Ta5+  Ta44  1  0.36417579  0.39132127  0.86363933  1
  Ta5+  Ta45  1  0.11046756  0.11906965  0.12421683  1
  Ta5+  Ta46  1  0.16530952  0.55801289  0.61470862  1
  Ta5+  Ta47  1  0.63766193  0.11583280  0.66203466  1
  Ta5+  Ta48  1  0.91437190  0.86330572  0.13392437  1
  Ta5+  Ta49  1  0.87613993  0.38520012  0.37124487  1
  Ta5+  Ta50  1  0.33128736  0.88790138  0.11535492  1
  Ta5+  Ta51  1  0.86773793  0.10472872  0.37474448  1
  Ta5+  Ta52  1  0.40052753  0.88759326  0.90255468  1
  Ta5+  Ta53  1  0.12881962  0.61369908  0.37318398  1
  Ta5+  Ta54  1  0.86207552  0.88581948  0.88234416  1
  Ta5+  Ta55  1  0.90196661  0.36270935  0.64420300  1
  Ta5+  Ta56  1  0.62606524  0.87246307  0.88482635  1
  Ta5+  Ta57  1  0.12262898  0.88901263  0.36894302  1
  Ta5+  Ta58  1  0.90141318  0.60042040  0.38457729  1
  Ta5+  Ta59  1  0.35962386  0.13357032  0.86244205  1
  Ta5+  Ta60  1  0.35652884  0.12836047  0.12481765  1
  Ta5+  Ta61  1  0.88225621  0.41300315  0.11978672  1
  Ta5+  Ta62  1  0.61012134  0.36762573  0.88968312  1
  Ta5+  Ta63  1  0.11896013  0.10680642  0.62919506  1
  Ta5+  Ta64  1  0.86680422  0.60949625  0.87887228  1
  Ta5+  Ta65  1  0.07870978  0.38062618  0.85975358  1
  Ta5+  Ta66  1  0.08107882  0.41269134  0.10390354  1
  Ta5+  Ta67  1  0.59885477  0.10080315  0.11682795  1
  Ta5+  Ta68  1  0.61954045  0.11313110  0.38536146  1
  Ta5+  Ta69  1  0.64616837  0.34881991  0.64949961  1
  Ta5+  Ta70  1  0.61514777  0.38468040  0.11266709  1
  Ta5+  Ta71  1  0.85172983  0.10954937  0.63975543  1
  Ta5+  Ta72  1  0.38235393  0.63688213  0.35831723  1
  Ta5+  Ta73  1  0.08891858  0.63030940  0.11887620  1
  Ta5+  Ta74  1  0.69271846  0.92141795  0.62080259  1
  W6+  W75  1  0.32824350  0.12700426  0.61466159  1
  W6+  W76  1  0.36563016  0.64555697  0.85888503  1
  W6+  W77  1  0.66545972  0.85260696  0.13318570  1
  W6+  W78  1  0.60533164  0.86309864  0.39132996  1
  W6+  W79  1  0.11070762  0.62706861  0.84964120  1
  W6+  W80  1  0.09598376  0.13153418  0.87919346  1
  W6+  W81  1  0.61882142  0.61750059  0.88097671  1
  W6+  W82  1  0.03742407  0.41402832  0.37693700  1
  O2-  O83  1  0.12173202  0.00157878  0.12438278  1
  O2-  O84  1  0.15429272  0.01316656  0.34114285  1
  O2-  O85  1  0.22291713  0.03499296  0.61472916  1
  O2-  O86  1  0.14541326  0.00787843  0.90381190  1
  O2-  O87  1  0.14435269  0.51918982  0.10792856  1
  O2-  O88  1  0.14416452  0.49773766  0.38271305  1
  O2-  O89  1  0.07021915  0.48940602  0.58764679  1
  O2-  O90  1  0.08443881  0.50001838  0.86528260  1
  O2-  O91  1  0.33660059  0.01407299  0.09844598  1
  O2-  O92  1  0.36483605  0.00007916  0.37415367  1
  O2-  O93  1  0.39565084  -0.00049320  0.59266649  1
  O2-  O94  1  0.36906595  0.00507872  0.88956015  1
  O2-  O95  1  0.34492500  0.51782358  0.11542951  1
  O2-  O96  1  0.40352044  0.51496188  0.37584782  1
  O2-  O97  1  0.40766561  0.51169540  0.59780368  1
  O2-  O98  1  0.37255901  0.50822153  0.87221814  1
  O2-  O99  1  0.61956930  -0.01219288  0.13452763  1
  O2-  O100  1  0.62186089  -0.00229848  0.36598636  1
  O2-  O101  1  0.58755581  0.01035132  0.63821655  1
  O2-  O102  1  0.57801003  -0.01000848  0.88861699  1
  O2-  O103  1  0.64595278  0.50230436  0.12244391  1
  O2-  O104  1  0.62554042  0.49542594  0.42128386  1
  O2-  O105  1  0.59981314  0.45875302  0.63742436  1
  O2-  O106  1  0.60605294  0.48474687  0.89808228  1
  O2-  O107  1  0.85765950  -0.01711401  0.13075622  1
  O2-  O108  1  0.85559153  -0.01400574  0.39030756  1
  O2-  O109  1  0.89092093  -0.00093368  0.60717949  1
  O2-  O110  1  0.91583439  -0.00639407  0.88120792  1
  O2-  O111  1  0.81343984  0.52523677  0.10573621  1
  O2-  O112  1  0.83195931  0.50054775  0.38827713  1
  O2-  O113  1  0.89490363  0.49217684  0.65391622  1
  O2-  O114  1  0.88411047  0.49137586  0.87980656  1
  O2-  O115  1  0.23411596  0.17620854  0.11802989  1
  O2-  O116  1  0.19593598  0.22547327  0.37179220  1
  O2-  O117  1  0.09433406  0.23383528  0.62034879  1
  O2-  O118  1  0.13211341  0.25936263  0.86794516  1
  O2-  O119  1  0.13432227  0.75218047  0.11753600  1
  O2-  O120  1  0.15924319  0.76324778  0.38294886  1
  O2-  O121  1  0.11236259  0.79782047  0.59812903  1
  O2-  O122  1  0.12153553  0.77189393  0.86828112  1
  O2-  O123  1  0.38663870  0.26474073  0.14341678  1
  O2-  O124  1  0.38810396  0.26132132  0.34749937  1
  O2-  O125  1  0.37508858  0.27419787  0.59875097  1
  O2-  O126  1  0.32863927  0.25945122  0.86940343  1
  O2-  O127  1  0.33358404  0.76004961  0.13911628  1
  O2-  O128  1  0.35388179  0.76076621  0.32426273  1
  O2-  O129  1  0.43922951  0.77568638  0.60516058  1
  O2-  O130  1  0.32597759  0.79856760  0.87611764  1
  O2-  O131  1  0.57366245  0.25213661  0.10544728  1
  O2-  O132  1  0.59432178  0.24752943  0.37172519  1
  O2-  O133  1  0.57591429  0.23694623  0.65329102  1
  O2-  O134  1  0.61319744  0.23994703  0.92243953  1
  O2-  O135  1  0.70104091  0.70482853  0.13447649  1
  O2-  O136  1  0.50747273  0.68040735  0.37560034  1
  O2-  O137  1  0.65361143  0.71072468  0.64728398  1
  O2-  O138  1  0.64087342  0.74959931  0.84657390  1
  O2-  O139  1  0.79195755  0.20449268  0.12059523  1
  O2-  O140  1  0.87330665  0.24917305  0.36884859  1
  O2-  O141  1  0.90469464  0.23147478  0.62143129  1
  O2-  O142  1  0.89010865  0.23835205  0.89496227  1
  O2-  O143  1  0.88347833  0.74087426  0.13848350  1
  O2-  O144  1  0.86061379  0.73325088  0.39163161  1
  O2-  O145  1  0.87277115  0.73309500  0.63963846  1
  O2-  O146  1  0.84475219  0.75343163  0.87567685  1
  O2-  O147  1  0.10292952  0.17153448  0.01369808  1
  O2-  O148  1  0.12009881  0.16757243  0.24101628  1
  O2-  O149  1  0.11579488  0.13586808  0.48961575  1
  O2-  O150  1  0.10486498  0.10556546  0.74683557  1
  O2-  O151  1  0.09744513  0.64974498  -0.01106835  1
  O2-  O152  1  0.11223742  0.63459918  0.24963628  1
  O2-  O153  1  0.14169156  0.63206933  0.51132780  1
  O2-  O154  1  0.12417492  0.60854091  0.71285737  1
  O2-  O155  1  0.35260546  0.16185761  0.00022873  1
  O2-  O156  1  0.31787374  0.13083479  0.25344376  1
  O2-  O157  1  0.31961360  0.14999664  0.47474552  1
  O2-  O158  1  0.32684023  0.11966529  0.75115388  1
  O2-  O159  1  0.35501209  0.66060569  -0.00360275  1
  O2-  O160  1  0.43317677  0.63474569  0.23032765  1
  O2-  O161  1  0.36850299  0.66726396  0.48146657  1
  O2-  O162  1  0.41929165  0.65799653  0.72522347  1
  O2-  O163  1  0.67692479  0.11031025  0.00936646  1
  O2-  O164  1  0.63127829  0.14561074  0.23621514  1
  O2-  O165  1  0.60632035  0.12996731  0.50880516  1
  O2-  O166  1  0.63845536  0.12397319  0.78586762  1
  O2-  O167  1  0.59872013  0.63247682  0.01526388  1
  O2-  O168  1  0.66477997  0.64274702  0.31374215  1
  O2-  O169  1  0.53896261  0.61599438  0.54414734  1
  O2-  O170  1  0.58328009  0.60134526  0.74962950  1
  O2-  O171  1  0.87377339  0.11552768  -0.00222175  1
  O2-  O172  1  0.84355477  0.11627943  0.25218872  1
  O2-  O173  1  0.86614870  0.13294446  0.50079600  1
  O2-  O174  1  0.89379364  0.11843988  0.75408617  1
  O2-  O175  1  0.90852927  0.62856707  0.00020332  1
  O2-  O176  1  0.89163447  0.61319211  0.25933239  1
  O2-  O177  1  0.90274987  0.60973676  0.51902909  1
  O2-  O178  1  0.80844741  0.61517765  0.75943504  1
  O2-  O179  1  0.11984009  0.37414625  -0.00795997  1
  O2-  O180  1  0.16691849  0.34641128  0.15865565  1
  O2-  O181  1  0.09262193  0.33777416  0.49140749  1
  O2-  O182  1  0.11231961  0.37789183  0.73782792  1
  O2-  O183  1  0.06854970  0.87639171  -0.00862592  1
  O2-  O184  1  0.14550054  0.86701276  0.24417586  1
  O2-  O185  1  0.16607024  0.90703799  0.48211422  1
  O2-  O186  1  0.14286303  0.90636496  0.74385251  1
  O2-  O187  1  0.34496853  0.36709390  0.00252388  1
  O2-  O188  1  0.34058657  0.39545730  0.25174084  1
  O2-  O189  1  0.31774666  0.38267967  0.47376037  1
  O2-  O190  1  0.36454665  0.38963598  0.73707806  1
  O2-  O191  1  0.42091487  0.87560726  0.02284983  1
  O2-  O192  1  0.50319609  0.84941122  0.29088885  1
  O2-  O193  1  0.47980793  0.89038720  0.45762738  1
  O2-  O194  1  0.49794665  0.85105136  0.83757916  1
  O2-  O195  1  0.67761366  0.36325168  0.00506409  1
  O2-  O196  1  0.65902313  0.34677688  0.21821994  1
  O2-  O197  1  0.63204361  0.32223089  0.51844485  1
  O2-  O198  1  0.65356529  0.34698669  0.77711158  1
  O2-  O199  1  0.61946664  0.84881700  0.00052058  1
  O2-  O200  1  0.67538405  0.82552314  0.27885915  1
  O2-  O201  1  0.67066409  0.88274749  0.50905159  1
  O2-  O202  1  0.65045661  0.87176716  0.73515327  1
  O2-  O203  1  0.85262322  0.36362717  0.00945863  1
  O2-  O204  1  0.84620896  0.37617715  0.23532032  1
  O2-  O205  1  0.88184678  0.35765144  0.50191833  1
  O2-  O206  1  0.87891704  0.34840769  0.76434246  1
  O2-  O207  1  0.89252749  0.86275498  0.00506459  1
  O2-  O208  1  0.87817704  0.85623127  0.26242314  1
  O2-  O209  1  0.91900777  0.84540314  0.51289627  1
  O2-  O210  1  0.85466085  0.87843232  0.74976157  1
  O2-  O211  1  -0.01219179  0.12458726  0.14177898  1
  O2-  O212  1  0.00631651  -0.11849330  0.37621560  1
  O2-  O213  1  -0.00658910  0.11848790  0.36653786  1
  O2-  O214  1  0.06578294  -0.00460778  0.60106834  1
  O2-  O215  1  -0.01811735  0.33487168  0.12179431  1
  O2-  O216  1  -0.02154406  0.49428235  0.14572006  1
  O2-  O217  1  0.01483954  0.66301228  0.40147537  1
  O2-  O218  1  -0.02228843  0.64798900  0.83995004  1
  O2-  O219  1  0.22769933  -0.12427777  0.05870414  1
  O2-  O220  1  0.33363425  -0.09551039  0.23957994  1
  O2-  O221  1  0.32652520  -0.14700394  0.45621767  1
  O2-  O222  1  0.27861928  -0.13985289  0.61407700  1
  O2-  O223  1  0.23677655  0.63550487  -0.12748011  1
  O2-  O224  1  0.25936109  0.62349501  0.34435749  1
  O2-  O225  1  0.24343072  0.45922674  0.62162847  1
  O2-  O226  1  0.27683859  0.64272526  0.61778618  1
  O2-  O227  1  0.51732604  0.11001130  0.01512784  1
  O2-  O228  1  0.47316669  0.11583736  0.17160318  1
  O2-  O229  1  0.49020765  0.12420231  0.36327110  1
  O2-  O230  1  0.47868383  0.15401803  0.85979860  1
  O2-  O231  1  0.49288159  0.40381001  0.10299043  1
  O2-  O232  1  0.51620149  0.38638459  0.30534814  1
  O2-  O233  1  0.48947037  0.37013108  0.46525707  1
  O2-  O234  1  0.48636563  0.35226929  0.88577982  1
  O2-  O235  1  0.74161272  -0.08744023  -0.11295185  1
  O2-  O236  1  0.74012744  0.14694325  0.38525601  1
  O2-  O237  1  0.73985916  0.18038535  0.61975042  1
  O2-  O238  1  0.74425054  0.03548532  0.67351217  1
  O2-  O239  1  0.74863103  0.60457141  -0.05244749  1
  O2-  O240  1  0.73175821  0.35181229  0.38043930  1
  O2-  O241  1  0.76232943  0.35601668  0.62648897  1
  O2-  O242  1  0.73823871  0.56538887  0.59236027  1
