# generated using pymatgen
data_Gd19Ta56(WO20)8
_symmetry_space_group_name_H-M   'P 1'
_cell_length_a   15.55479595
_cell_length_b   15.41444598
_cell_length_c   15.33282183
_cell_angle_alpha   90.05944150
_cell_angle_beta   89.87228064
_cell_angle_gamma   90.12288098
_symmetry_Int_Tables_number   1
_chemical_formula_structural   Gd19Ta56(WO20)8
_chemical_formula_sum   'Gd19 Ta56 W8 O160'
_cell_volume   3676.30909120
_cell_formula_units_Z   1
loop_
 _symmetry_equiv_pos_site_id
 _symmetry_equiv_pos_as_xyz
  1  'x, y, z'
loop_
 _atom_type_symbol
 _atom_type_oxidation_number
  Gd3+  3.0
  Ta5+  5.0
  W6+  6.0
  O2-  -2.0
loop_
 _atom_site_type_symbol
 _atom_site_label
 _atom_site_symmetry_multiplicity
 _atom_site_fract_x
 _atom_site_fract_y
 _atom_site_fract_z
 _atom_site_occupancy
  Gd3+  Gd0  1  0.45432989  0.74295725  0.72523445  1
  Gd3+  Gd1  1  0.72825862  0.25863357  0.50464189  1
  Gd3+  Gd2  1  0.73778095  0.25357279  0.00346865  1
  Gd3+  Gd3  1  0.02291628  0.25974235  0.26201084  1
  Gd3+  Gd4  1  0.00651576  0.23708068  0.00619443  1
  Gd3+  Gd5  1  0.49569720  0.25789726  0.00661941  1
  Gd3+  Gd6  1  -0.00518171  0.72541915  0.01596236  1
  Gd3+  Gd7  1  0.02078367  0.24824780  0.74051891  1
  Gd3+  Gd8  1  0.24785573  0.74803992  0.50348230  1
  Gd3+  Gd9  1  0.47883002  0.71627259  0.47451209  1
  Gd3+  Gd10  1  0.49140081  0.25521675  0.47673347  1
  Gd3+  Gd11  1  0.00164217  0.28154312  0.49798752  1
  Gd3+  Gd12  1  0.76281232  0.76914334  -0.00521590  1
  Gd3+  Gd13  1  0.28938290  0.24756957  0.24800657  1
  Gd3+  Gd14  1  0.78742569  0.23926005  0.74224095  1
  Gd3+  Gd15  1  0.24131870  0.74412328  0.75099465  1
  Gd3+  Gd16  1  0.73077519  0.73051531  0.75217939  1
  Gd3+  Gd17  1  -0.04234282  0.76156829  0.79150493  1
  Gd3+  Gd18  1  0.00047568  0.73567773  0.27834905  1
  Ta5+  Ta19  1  0.39114450  0.11026330  0.11576671  1
  Ta5+  Ta20  1  0.62803089  0.86076529  0.36508228  1
  Ta5+  Ta21  1  0.13012614  0.38916596  0.12282559  1
  Ta5+  Ta22  1  0.08860780  0.62677342  0.61517536  1
  Ta5+  Ta23  1  0.86486022  0.12392645  0.14363331  1
  Ta5+  Ta24  1  0.32449551  0.60852462  0.35232163  1
  Ta5+  Ta25  1  0.12808161  0.12554491  0.38280587  1
  Ta5+  Ta26  1  0.42476367  0.86097087  0.09894458  1
  Ta5+  Ta27  1  0.84349113  0.62095286  0.13309425  1
  Ta5+  Ta28  1  0.35556812  0.36104992  0.86064317  1
  Ta5+  Ta29  1  0.31905657  0.63670070  0.10200744  1
  Ta5+  Ta30  1  0.60355941  0.86791191  0.62510073  1
  Ta5+  Ta31  1  0.64367125  0.11710878  0.86551933  1
  Ta5+  Ta32  1  0.59836534  0.61125881  0.62022778  1
  Ta5+  Ta33  1  0.36760987  0.39314558  0.10801241  1
  Ta5+  Ta34  1  0.15210698  0.40859061  0.62876636  1
  Ta5+  Ta35  1  0.66239511  0.63565734  0.37303416  1
  Ta5+  Ta36  1  0.14317975  0.12632064  0.12878418  1
  Ta5+  Ta37  1  0.89084222  0.36841007  0.87723856  1
  Ta5+  Ta38  1  0.92050357  0.92514788  0.95182362  1
  Ta5+  Ta39  1  0.12768921  0.88157003  0.62686401  1
  Ta5+  Ta40  1  0.89071869  0.56053441  0.88766859  1
  Ta5+  Ta41  1  0.12522884  0.38827936  0.88241903  1
  Ta5+  Ta42  1  0.88820497  0.88397419  0.13857924  1
  Ta5+  Ta43  1  0.13362776  0.12498268  0.87201497  1
  Ta5+  Ta44  1  0.37297615  0.12466104  0.86352322  1
  Ta5+  Ta45  1  0.59472002  0.86011615  0.11581210  1
  Ta5+  Ta46  1  0.88466462  0.11345898  0.38248844  1
  Ta5+  Ta47  1  0.35872233  0.90456595  0.61795800  1
  Ta5+  Ta48  1  0.62603851  0.39112078  0.38973126  1
  Ta5+  Ta49  1  0.38255248  0.14310095  0.62130582  1
  Ta5+  Ta50  1  0.61790043  0.38341371  0.14362781  1
  Ta5+  Ta51  1  0.12582025  0.88345233  0.87885681  1
  Ta5+  Ta52  1  0.60469213  0.87236841  0.87514417  1
  Ta5+  Ta53  1  0.15563842  0.40467429  0.37757932  1
  Ta5+  Ta54  1  0.67601577  0.62214363  0.12622206  1
  Ta5+  Ta55  1  0.63471172  0.38023795  0.85031262  1
  Ta5+  Ta56  1  0.88521135  0.09171610  0.89320451  1
  Ta5+  Ta57  1  0.15852977  0.07561465  0.62610180  1
  Ta5+  Ta58  1  0.82925045  0.62897367  0.37238948  1
  Ta5+  Ta59  1  0.59400117  0.61834360  0.90662780  1
  Ta5+  Ta60  1  0.39259298  0.60609335  0.87615177  1
  Ta5+  Ta61  1  0.15065334  0.61191333  0.37819079  1
  Ta5+  Ta62  1  0.62768951  0.37932156  0.64828298  1
  Ta5+  Ta63  1  0.12636508  0.62439060  0.87299924  1
  Ta5+  Ta64  1  0.87058363  0.11591702  0.59108511  1
  Ta5+  Ta65  1  0.85112443  0.38360478  0.32696939  1
  Ta5+  Ta66  1  0.62539421  0.10897823  0.13016654  1
  Ta5+  Ta67  1  0.39036666  0.87480376  0.88974564  1
  Ta5+  Ta68  1  0.62971506  0.11552728  0.63903933  1
  Ta5+  Ta69  1  0.86983841  0.86634617  0.59565756  1
  Ta5+  Ta70  1  0.15326682  0.63522445  0.12878450  1
  Ta5+  Ta71  1  0.38273899  0.39146716  0.36235998  1
  Ta5+  Ta72  1  0.86049182  0.41524423  0.62404514  1
  Ta5+  Ta73  1  0.37747547  0.86455613  0.34390635  1
  Ta5+  Ta74  1  0.13424406  0.87463912  0.37197342  1
  W6+  W75  1  0.89486947  0.65665212  0.58201750  1
  W6+  W76  1  0.35974745  0.36850665  0.61467284  1
  W6+  W77  1  0.11776645  0.87574776  0.12857702  1
  W6+  W78  1  0.39842955  0.11322622  0.36138028  1
  W6+  W79  1  0.83563815  0.85842057  0.38020493  1
  W6+  W80  1  0.89144685  0.37546728  0.13183635  1
  W6+  W81  1  0.34417440  0.58763879  0.61788255  1
  W6+  W82  1  0.61138015  0.11354824  0.38083169  1
  O2-  O83  1  0.13344862  0.00878457  0.13681134  1
  O2-  O84  1  0.13604936  0.00563986  0.37169663  1
  O2-  O85  1  0.06645240  -0.00938846  0.63489822  1
  O2-  O86  1  0.15900168  0.00646113  0.87466167  1
  O2-  O87  1  0.13338916  0.51132472  0.11869531  1
  O2-  O88  1  0.07940151  0.50190142  0.37508445  1
  O2-  O89  1  0.07810636  0.50247253  0.63874533  1
  O2-  O90  1  0.15679816  0.50647022  0.89480360  1
  O2-  O91  1  0.41267682  -0.00820503  0.10457622  1
  O2-  O92  1  0.40423931  -0.02246980  0.37028985  1
  O2-  O93  1  0.40414556  0.01526166  0.61749405  1
  O2-  O94  1  0.37933803  -0.00001591  0.86720249  1
  O2-  O95  1  0.36087360  0.51231783  0.10107320  1
  O2-  O96  1  0.41188618  0.50948035  0.35477144  1
  O2-  O97  1  0.26123791  0.46954054  0.62905741  1
  O2-  O98  1  0.39468494  0.48042950  0.85914594  1
  O2-  O99  1  0.60485067  -0.00597590  0.10379429  1
  O2-  O100  1  0.61875250  -0.02088918  0.38235087  1
  O2-  O101  1  0.60958005  -0.00648772  0.63323608  1
  O2-  O102  1  0.61269071  -0.00062735  0.87683241  1
  O2-  O103  1  0.66222129  0.48979116  0.10912678  1
  O2-  O104  1  0.64525314  0.51063120  0.39908531  1
  O2-  O105  1  0.57393890  0.49002090  0.63381145  1
  O2-  O106  1  0.62257393  0.50294222  0.86914317  1
  O2-  O107  1  0.90821040  0.01301380  0.15804031  1
  O2-  O108  1  0.87264257  -0.00304722  0.38292731  1
  O2-  O109  1  0.88314532  -0.00721020  0.59708452  1
  O2-  O110  1  1.00584248  0.10914354  0.87128418  1
  O2-  O111  1  0.86138435  0.50302484  0.13392986  1
  O2-  O112  1  0.85079508  0.50147379  0.35869923  1
  O2-  O113  1  0.86996176  0.53046446  0.64290706  1
  O2-  O114  1  0.98306412  0.45165599  0.86939992  1
  O2-  O115  1  0.09746130  0.25388998  0.12785518  1
  O2-  O116  1  0.10126481  0.26865000  0.39218600  1
  O2-  O117  1  0.08421567  0.29689647  0.61947455  1
  O2-  O118  1  0.08697244  0.25684519  0.87329275  1
  O2-  O119  1  0.07508929  0.74439212  0.13818925  1
  O2-  O120  1  0.12250177  0.74035795  0.38898419  1
  O2-  O121  1  0.14446055  0.75113248  0.62399087  1
  O2-  O122  1  0.10969212  0.75481971  0.85192179  1
  O2-  O123  1  0.36664537  0.24503789  0.11802300  1
  O2-  O124  1  0.41469531  0.25882580  0.34491033  1
  O2-  O125  1  0.44305032  0.25176025  0.61980709  1
  O2-  O126  1  0.42468353  0.25325396  0.87009546  1
  O2-  O127  1  0.37854158  0.74204071  0.09426808  1
  O2-  O128  1  0.38481720  0.73384993  0.36225808  1
  O2-  O129  1  0.32579013  0.73497658  0.62912732  1
  O2-  O130  1  0.37691524  0.74812369  0.86168835  1
  O2-  O131  1  0.65096204  0.26407095  0.12255470  1
  O2-  O132  1  0.61290713  0.25598228  0.38499750  1
  O2-  O133  1  0.65916187  0.25081579  0.64551033  1
  O2-  O134  1  0.68347111  0.25476808  0.85716275  1
  O2-  O135  1  0.63702057  0.74189681  0.11046873  1
  O2-  O136  1  0.57794347  0.74176120  0.36696614  1
  O2-  O137  1  0.60158220  0.74265755  0.66235680  1
  O2-  O138  1  0.63897669  0.73997721  0.87247783  1
  O2-  O139  1  0.92468126  0.23550919  0.14682712  1
  O2-  O140  1  0.90012932  0.27334698  0.38052241  1
  O2-  O141  1  0.84448215  0.25603611  0.59444628  1
  O2-  O142  1  0.88984017  0.23892790  0.85671437  1
  O2-  O143  1  0.87102395  0.75304397  0.10372965  1
  O2-  O144  1  0.89327540  0.73791410  0.38727490  1
  O2-  O145  1  0.95363032  0.79167779  0.56038992  1
  O2-  O146  1  0.89346167  0.79042568  0.92304390  1
  O2-  O147  1  0.13004377  0.13944942  -0.00190828  1
  O2-  O148  1  0.16088298  0.15707802  0.25974693  1
  O2-  O149  1  0.13445692  0.12143870  0.51387809  1
  O2-  O150  1  0.12069938  0.13495832  0.73292833  1
  O2-  O151  1  0.12847403  0.65365705  -0.00212143  1
  O2-  O152  1  0.12898453  0.63148064  0.25497340  1
  O2-  O153  1  0.17557409  0.61660819  0.51662941  1
  O2-  O154  1  0.15431893  0.62206743  0.74707678  1
  O2-  O155  1  0.41096981  0.13236704  -0.01541452  1
  O2-  O156  1  0.34745373  0.11117212  0.23203434  1
  O2-  O157  1  0.40374227  0.13706674  0.49837069  1
  O2-  O158  1  0.40914986  0.12856719  0.74608780  1
  O2-  O159  1  0.31310265  0.61723195  -0.03389779  1
  O2-  O160  1  0.32118416  0.62598621  0.23233908  1
  O2-  O161  1  0.35292431  0.62830729  0.48605756  1
  O2-  O162  1  0.34251578  0.61860329  0.75962572  1
  O2-  O163  1  0.61493932  0.15396916  -0.01777125  1
  O2-  O164  1  0.63744945  0.11071372  0.24687578  1
  O2-  O165  1  0.59840601  0.14150379  0.52268564  1
  O2-  O166  1  0.58539365  0.13501227  0.75672267  1
  O2-  O167  1  0.68910328  0.62723868  -0.01219430  1
  O2-  O168  1  0.65638906  0.62377334  0.25175762  1
  O2-  O169  1  0.61133316  0.64432506  0.50318530  1
  O2-  O170  1  0.69509502  0.60609431  0.69142095  1
  O2-  O171  1  0.88333630  0.14733348  0.00943682  1
  O2-  O172  1  0.83780391  0.13911261  0.27010348  1
  O2-  O173  1  0.79487254  0.13095656  0.47493547  1
  O2-  O174  1  0.92212236  0.14908445  0.69738789  1
  O2-  O175  1  0.88004785  0.61715971  -0.00227667  1
  O2-  O176  1  0.88580942  0.64538106  0.24904225  1
  O2-  O177  1  0.79486339  0.63282600  0.49219577  1
  O2-  O178  1  0.83627766  0.64773429  0.82076374  1
  O2-  O179  1  0.07760313  0.37306631  0.00409256  1
  O2-  O180  1  0.13997298  0.37095304  0.24995851  1
  O2-  O181  1  0.15140097  0.39983696  0.50373250  1
  O2-  O182  1  0.12880560  0.38151546  0.75810583  1
  O2-  O183  1  0.14407957  0.85984343  -0.00402984  1
  O2-  O184  1  0.07663680  0.86646404  0.26229075  1
  O2-  O185  1  0.13871966  0.87504009  0.49954944  1
  O2-  O186  1  0.16304456  0.87657434  0.74963091  1
  O2-  O187  1  0.39818990  0.36637779  -0.01198569  1
  O2-  O188  1  0.36077358  0.38191460  0.23322972  1
  O2-  O189  1  0.40715300  0.37888504  0.48388834  1
  O2-  O190  1  0.32765091  0.34190245  0.74611123  1
  O2-  O191  1  0.33417494  0.87554003  -0.00436722  1
  O2-  O192  1  0.40320573  0.86060144  0.22593562  1
  O2-  O193  1  0.35553246  0.85663747  0.49997108  1
  O2-  O194  1  0.34402758  0.86886633  0.73894121  1
  O2-  O195  1  0.61829187  0.35232398  -0.02375378  1
  O2-  O196  1  0.61081481  0.39295339  0.26395353  1
  O2-  O197  1  0.59867926  0.35935900  0.51969127  1
  O2-  O198  1  0.55378192  0.35949552  0.76085577  1
  O2-  O199  1  0.65620925  0.86643926  -0.00894838  1
  O2-  O200  1  0.61972425  0.86504514  0.23689269  1
  O2-  O201  1  0.61186201  0.84836695  0.50551396  1
  O2-  O202  1  0.66207845  0.86926748  0.75571316  1
  O2-  O203  1  0.86322047  0.33795514  -0.00095266  1
  O2-  O204  1  0.78705802  0.35595010  0.22788093  1
  O2-  O205  1  0.93154832  0.40174192  0.52791793  1
  O2-  O206  1  0.89934294  0.35816682  0.73421349  1
  O2-  O207  1  0.81878728  0.90765877  0.03329556  1
  O2-  O208  1  0.89642171  0.84712580  0.25501383  1
  O2-  O209  1  0.78758865  0.85292246  0.51275606  1
  O2-  O210  1  0.84434680  0.81963518  0.70993067  1
  O2-  O211  1  -0.00818120  -0.12344633  0.06035218  1
  O2-  O212  1  0.00717274  0.12792609  0.34047332  1
  O2-  O213  1  -0.04433060  0.14007335  0.50241777  1
  O2-  O214  1  0.00732458  -0.10367867  0.85035561  1
  O2-  O215  1  0.00125701  0.62809744  -0.12696304  1
  O2-  O216  1  -0.04455570  0.38835081  0.25699345  1
  O2-  O217  1  0.00917688  0.62181720  0.52378296  1
  O2-  O218  1  -0.00716480  0.66870921  0.68487136  1
  O2-  O219  1  0.25718699  0.15678272  -0.14003581  1
  O2-  O220  1  0.25260195  -0.13974434  0.35200663  1
  O2-  O221  1  0.26397599  0.15033504  0.63262358  1
  O2-  O222  1  0.23558011  -0.02966890  0.61513417  1
  O2-  O223  1  0.24538328  0.36719359  0.09631023  1
  O2-  O224  1  0.23853297  0.50800741  0.36453742  1
  O2-  O225  1  0.26591788  0.33921955  0.37150315  1
  O2-  O226  1  0.24074547  0.35127963  0.90422587  1
  O2-  O227  1  0.49404476  -0.13307943  -0.03113509  1
  O2-  O228  1  0.51043396  0.15709164  0.12449320  1
  O2-  O229  1  0.48002239  -0.14095577  0.62464063  1
  O2-  O230  1  0.50044059  -0.13843634  0.80820809  1
  O2-  O231  1  0.49207579  0.60526060  -0.03092537  1
  O2-  O232  1  0.50091823  0.37560000  0.11732933  1
  O2-  O233  1  0.47283733  0.64464578  0.61331217  1
  O2-  O234  1  0.51172186  0.63490224  0.80713385  1
  O2-  O235  1  0.85319922  -0.02453339  -0.14476742  1
  O2-  O236  1  0.74761358  0.12693658  0.09577809  1
  O2-  O237  1  0.75102986  0.10911652  0.65101566  1
  O2-  O238  1  0.76256006  0.11305027  0.84038939  1
  O2-  O239  1  0.80752023  0.46523060  -0.11743832  1
  O2-  O240  1  0.74775112  0.36427780  0.40610443  1
  O2-  O241  1  0.74263569  0.40166342  0.58821547  1
  O2-  O242  1  0.71609757  0.38448965  0.74975001  1
