# generated using pymatgen
data_Gd19Ta56(WO20)8
_symmetry_space_group_name_H-M   'P 1'
_cell_length_a   15.53066613
_cell_length_b   15.44563177
_cell_length_c   15.28042111
_cell_angle_alpha   90.18915732
_cell_angle_beta   90.07095042
_cell_angle_gamma   90.24173060
_symmetry_Int_Tables_number   1
_chemical_formula_structural   Gd19Ta56(WO20)8
_chemical_formula_sum   'Gd19 Ta56 W8 O160'
_cell_volume   3665.42646307
_cell_formula_units_Z   1
loop_
 _symmetry_equiv_pos_site_id
 _symmetry_equiv_pos_as_xyz
  1  'x, y, z'
loop_
 _atom_type_symbol
 _atom_type_oxidation_number
  Gd3+  3.0
  Ta5+  5.0
  W6+  6.0
  O2-  -2.0
loop_
 _atom_site_type_symbol
 _atom_site_label
 _atom_site_symmetry_multiplicity
 _atom_site_fract_x
 _atom_site_fract_y
 _atom_site_fract_z
 _atom_site_occupancy
  Gd3+  Gd0  1  0.76022265  0.25076090  0.24171279  1
  Gd3+  Gd1  1  -0.01467645  0.24923585  0.25235413  1
  Gd3+  Gd2  1  0.00808147  0.75081886  0.26368049  1
  Gd3+  Gd3  1  0.24442053  0.24225069  0.50205951  1
  Gd3+  Gd4  1  0.73430006  0.74876633  0.00603395  1
  Gd3+  Gd5  1  0.47663324  0.26103481  0.49209305  1
  Gd3+  Gd6  1  0.04973584  0.76532313  0.50844507  1
  Gd3+  Gd7  1  0.00484789  0.24199301  0.77456087  1
  Gd3+  Gd8  1  -0.03079721  0.26431022  0.00620152  1
  Gd3+  Gd9  1  0.73439343  0.23060574  0.74005501  1
  Gd3+  Gd10  1  0.71824822  0.71828566  0.74108727  1
  Gd3+  Gd11  1  0.24249901  0.73687584  -0.00062353  1
  Gd3+  Gd12  1  0.75397691  0.25329420  0.48984010  1
  Gd3+  Gd13  1  0.46644273  0.26246193  0.73998502  1
  Gd3+  Gd14  1  -0.00079975  0.24785952  0.52504544  1
  Gd3+  Gd15  1  0.75032080  0.24674750  -0.01686999  1
  Gd3+  Gd16  1  0.24114224  0.72414421  0.23502211  1
  Gd3+  Gd17  1  0.28532736  0.26099587  -0.03143228  1
  Gd3+  Gd18  1  -0.00918400  0.76361855  0.00548922  1
  Ta5+  Ta19  1  0.36683258  0.10021598  0.84338334  1
  Ta5+  Ta20  1  0.08791813  0.61728858  0.12270050  1
  Ta5+  Ta21  1  0.87666325  0.38199662  0.39137525  1
  Ta5+  Ta22  1  0.13638870  0.38566176  0.89373251  1
  Ta5+  Ta23  1  0.36316144  0.85991005  0.85684309  1
  Ta5+  Ta24  1  0.85263640  0.08964535  0.86146737  1
  Ta5+  Ta25  1  0.64275505  0.10763707  0.35616582  1
  Ta5+  Ta26  1  0.86404006  0.88312128  0.87975244  1
  Ta5+  Ta27  1  0.60024969  0.10793921  0.87718097  1
  Ta5+  Ta28  1  0.64241782  0.38829906  0.61914727  1
  Ta5+  Ta29  1  0.86116771  0.63884383  0.87581764  1
  Ta5+  Ta30  1  0.09477018  0.62371395  0.86228388  1
  Ta5+  Ta31  1  0.39168667  0.86367123  0.11333686  1
  Ta5+  Ta32  1  0.86667742  0.85722702  0.39941244  1
  Ta5+  Ta33  1  0.94539198  0.61257790  0.39161454  1
  Ta5+  Ta34  1  0.40446652  0.63234265  0.11864552  1
  Ta5+  Ta35  1  0.36640071  0.46028341  0.62288032  1
  Ta5+  Ta36  1  0.90286856  0.10454396  0.65285414  1
  Ta5+  Ta37  1  0.37321822  0.87783714  0.36593337  1
  Ta5+  Ta38  1  0.87535430  0.41540921  0.13064656  1
  Ta5+  Ta39  1  0.54613852  0.87131215  0.35958038  1
  Ta5+  Ta40  1  0.13555471  0.38009481  0.64330808  1
  Ta5+  Ta41  1  0.37055080  0.63750591  0.86035204  1
  Ta5+  Ta42  1  0.56955565  0.61772604  0.87239418  1
  Ta5+  Ta43  1  0.62078581  0.39168704  0.12203731  1
  Ta5+  Ta44  1  0.91574370  0.60740788  0.13021649  1
  Ta5+  Ta45  1  0.19904715  0.87012670  0.37843112  1
  Ta5+  Ta46  1  0.55336389  0.62397858  0.35701017  1
  Ta5+  Ta47  1  0.42372328  0.66768272  0.61753434  1
  Ta5+  Ta48  1  0.60220182  0.13472069  0.12273705  1
  Ta5+  Ta49  1  0.10324043  0.12277310  0.12429157  1
  Ta5+  Ta50  1  0.37921707  0.11624290  0.61462284  1
  Ta5+  Ta51  1  0.17718967  0.61770562  0.62604155  1
  Ta5+  Ta52  1  0.37743538  0.43211053  0.86722427  1
  Ta5+  Ta53  1  0.87841289  0.62704925  0.62191902  1
  Ta5+  Ta54  1  0.12133770  0.38094102  0.13199697  1
  Ta5+  Ta55  1  0.12060193  0.11804489  0.91672579  1
  Ta5+  Ta56  1  0.38696914  0.38136299  0.12478001  1
  Ta5+  Ta57  1  0.88643381  0.38516305  0.66529264  1
  Ta5+  Ta58  1  0.57055668  0.63773334  0.12818526  1
  Ta5+  Ta59  1  0.62547028  0.38248007  0.36478742  1
  Ta5+  Ta60  1  0.92114921  0.03496001  0.05506919  1
  Ta5+  Ta61  1  0.61403609  0.39029536  0.86768909  1
  Ta5+  Ta62  1  0.38947776  0.65350233  0.37488081  1
  Ta5+  Ta63  1  0.90732650  0.46115977  0.91896371  1
  Ta5+  Ta64  1  0.16939857  0.11868040  0.67439380  1
  Ta5+  Ta65  1  0.11013923  0.88570442  0.13805904  1
  Ta5+  Ta66  1  0.89270508  0.86091084  0.64101820  1
  Ta5+  Ta67  1  0.60761391  0.86689582  0.86392905  1
  Ta5+  Ta68  1  0.11525892  0.62055267  0.37870186  1
  Ta5+  Ta69  1  0.89076913  0.87369191  0.15346644  1
  Ta5+  Ta70  1  0.12553999  0.38295518  0.38293690  1
  Ta5+  Ta71  1  0.11735800  0.87059899  0.87798775  1
  Ta5+  Ta72  1  0.11508729  0.10433783  0.36841019  1
  Ta5+  Ta73  1  0.40918761  0.87034363  0.61261799  1
  Ta5+  Ta74  1  0.36788731  0.11216764  0.10441022  1
  W6+  W75  1  0.60391834  0.87958216  0.11810578  1
  W6+  W76  1  0.61452985  0.10216062  0.56469183  1
  W6+  W77  1  0.58056099  0.63078505  0.60585954  1
  W6+  W78  1  0.16549858  0.87350668  0.63806328  1
  W6+  W79  1  0.36152771  0.12796193  0.35578414  1
  W6+  W80  1  0.37793976  0.39792055  0.37442891  1
  W6+  W81  1  0.61743018  0.85657263  0.59997842  1
  W6+  W82  1  0.85467394  0.10740369  0.39404196  1
  O2-  O83  1  0.14559039  0.00677822  0.12922974  1
  O2-  O84  1  0.13668026  -0.01388580  0.37141880  1
  O2-  O85  1  0.13525354  0.00680992  0.64906812  1
  O2-  O86  1  0.12457146  -0.00142079  0.90485676  1
  O2-  O87  1  0.13651887  0.49959437  0.12136261  1
  O2-  O88  1  0.08877236  0.49391881  0.38013683  1
  O2-  O89  1  0.11818375  0.50303561  0.63375571  1
  O2-  O90  1  0.13536076  0.50490658  0.89545864  1
  O2-  O91  1  0.38546345  -0.00873665  0.10409676  1
  O2-  O92  1  0.36641442  -0.00255019  0.35741356  1
  O2-  O93  1  0.39654554  -0.00790688  0.62003067  1
  O2-  O94  1  0.33449668  -0.02095025  0.85727845  1
  O2-  O95  1  0.39951131  0.50886065  0.11877415  1
  O2-  O96  1  0.39822295  0.53327499  0.37732934  1
  O2-  O97  1  0.46395343  0.54238148  0.62223791  1
  O2-  O98  1  0.30612789  0.53178771  0.84746394  1
  O2-  O99  1  0.62337942  0.01945447  0.11964322  1
  O2-  O100  1  0.59410269  -0.00313997  0.35682667  1
  O2-  O101  1  0.62367848  -0.01455913  0.60435465  1
  O2-  O102  1  0.61663555  -0.00932314  0.84613646  1
  O2-  O103  1  0.60560222  0.50792153  0.12882567  1
  O2-  O104  1  0.59679609  0.50035351  0.35629967  1
  O2-  O105  1  0.63406798  0.50401701  0.61008054  1
  O2-  O106  1  0.63555094  0.50695717  0.86428365  1
  O2-  O107  1  0.83518503  -0.01396316  0.12841498  1
  O2-  O108  1  0.86059305  -0.02501591  0.40759452  1
  O2-  O109  1  0.91037553  -0.01160449  0.62612391  1
  O2-  O110  1  0.78835362  -0.02535797  0.85245602  1
  O2-  O111  1  0.81245427  0.51642499  0.14934648  1
  O2-  O112  1  0.91553648  0.49280315  0.41717543  1
  O2-  O113  1  0.88920363  0.49902565  0.61989996  1
  O2-  O114  1  0.80427216  0.52659148  0.89631223  1
  O2-  O115  1  0.07067221  0.24936714  0.11786794  1
  O2-  O116  1  -0.00896806  0.13050463  0.34896747  1
  O2-  O117  1  0.16130700  0.24730901  0.64309183  1
  O2-  O118  1  0.09716640  0.25120147  0.91099431  1
  O2-  O119  1  0.10119406  0.75274871  0.13817132  1
  O2-  O120  1  0.12217246  0.75769633  0.36852196  1
  O2-  O121  1  0.13824273  0.73510534  0.62794181  1
  O2-  O122  1  0.06732439  0.75267381  0.86500062  1
  O2-  O123  1  0.34987405  0.26086633  0.09692252  1
  O2-  O124  1  0.35963208  0.26216238  0.40265579  1
  O2-  O125  1  0.36704309  0.24520826  0.62272958  1
  O2-  O126  1  0.36565238  0.22805048  0.84737783  1
  O2-  O127  1  0.32722960  0.74855581  0.11812602  1
  O2-  O128  1  0.29421339  0.76455808  0.36879000  1
  O2-  O129  1  0.49881080  0.77402962  0.62172019  1
  O2-  O130  1  0.29834207  0.74672567  0.86189481  1
  O2-  O131  1  0.67545638  0.24748190  0.11805618  1
  O2-  O132  1  0.67404768  0.25474464  0.36358809  1
  O2-  O133  1  0.66990318  0.23809051  0.60824133  1
  O2-  O134  1  0.71561039  0.32277266  0.85609914  1
  O2-  O135  1  0.62104712  0.74680796  0.09897394  1
  O2-  O136  1  0.48247097  0.74908098  0.35628632  1
  O2-  O137  1  0.66518664  0.73324983  0.60813653  1
  O2-  O138  1  0.63473402  0.73265042  0.88303277  1
  O2-  O139  1  0.87473732  0.27031782  0.13917025  1
  O2-  O140  1  0.85495715  0.24685218  0.36286388  1
  O2-  O141  1  0.87707507  0.25082231  0.68790901  1
  O2-  O142  1  0.89470824  0.21727386  0.88103050  1
  O2-  O143  1  0.91438960  0.74754596  0.14155946  1
  O2-  O144  1  0.93070026  0.74463552  0.38952525  1
  O2-  O145  1  0.83871877  0.74916639  0.63352070  1
  O2-  O146  1  0.81394941  0.76004727  0.86429423  1
  O2-  O147  1  0.02465688  0.11785784  0.00082784  1
  O2-  O148  1  0.12264710  0.15048124  0.24519274  1
  O2-  O149  1  0.10598631  0.16241776  0.47823659  1
  O2-  O150  1  0.11898644  0.14336007  0.79279564  1
  O2-  O151  1  0.10317448  0.65138977  -0.00572369  1
  O2-  O152  1  0.12718606  0.62193147  0.24818411  1
  O2-  O153  1  0.15551700  0.62137922  0.50296100  1
  O2-  O154  1  0.15682960  0.62407583  0.75859308  1
  O2-  O155  1  0.33638349  0.12038133  -0.02083919  1
  O2-  O156  1  0.32918330  0.12757807  0.21761032  1
  O2-  O157  1  0.39611853  0.12509759  0.49090279  1
  O2-  O158  1  0.43492380  0.11171173  0.73912438  1
  O2-  O159  1  0.36970928  0.64676346  -0.01051393  1
  O2-  O160  1  0.37076300  0.65329110  0.24362551  1
  O2-  O161  1  0.38235103  0.67373616  0.50139041  1
  O2-  O162  1  0.40103266  0.66707661  0.74454001  1
  O2-  O163  1  0.62459515  0.15617136  -0.00845204  1
  O2-  O164  1  0.59273707  0.15253583  0.24609607  1
  O2-  O165  1  0.56642908  0.15570617  0.44436744  1
  O2-  O166  1  0.59121028  0.19359519  0.79068794  1
  O2-  O167  1  0.56456725  0.61754561  -0.00333899  1
  O2-  O168  1  0.60639441  0.65545667  0.25077217  1
  O2-  O169  1  0.58675939  0.64211610  0.47165354  1
  O2-  O170  1  0.59343757  0.63403218  0.74583330  1
  O2-  O171  1  0.84127408  0.11857770  0.00349944  1
  O2-  O172  1  0.97966252  0.09727398  0.15177303  1
  O2-  O173  1  0.88532466  0.14896374  0.53302278  1
  O2-  O174  1  0.94913801  0.09503300  0.78101525  1
  O2-  O175  1  0.87285927  0.66490873  0.00470752  1
  O2-  O176  1  0.92515226  0.61155929  0.26259680  1
  O2-  O177  1  0.95507937  0.64733366  0.52772150  1
  O2-  O178  1  0.86243223  0.62935620  0.74845034  1
  O2-  O179  1  0.17832172  0.35914164  0.01921867  1
  O2-  O180  1  0.12482636  0.34758967  0.25826804  1
  O2-  O181  1  0.12092776  0.34897632  0.51154435  1
  O2-  O182  1  0.11173778  0.36438045  0.76947821  1
  O2-  O183  1  0.13838508  0.85051024  0.00931322  1
  O2-  O184  1  0.18360581  0.86494304  0.24227424  1
  O2-  O185  1  0.16729613  0.86295295  0.49910595  1
  O2-  O186  1  0.17269027  0.87017861  0.77279935  1
  O2-  O187  1  0.37085810  0.39638862  -0.01218009  1
  O2-  O188  1  0.34947441  0.38298685  0.23773233  1
  O2-  O189  1  0.40402561  0.40432934  0.52112122  1
  O2-  O190  1  0.39800787  0.40909115  0.73540113  1
  O2-  O191  1  0.34708680  0.85136775  -0.01165444  1
  O2-  O192  1  0.38361062  0.85844493  0.23519006  1
  O2-  O193  1  0.37422787  0.85718216  0.49775810  1
  O2-  O194  1  0.36604397  0.84911635  0.73193075  1
  O2-  O195  1  0.63649127  0.37125850  -0.00410379  1
  O2-  O196  1  0.66838845  0.37457418  0.23889444  1
  O2-  O197  1  0.61056679  0.35841719  0.49933924  1
  O2-  O198  1  0.59126885  0.36565411  0.73277968  1
  O2-  O199  1  0.65662102  0.87377631  -0.02047630  1
  O2-  O200  1  0.58826742  0.85362165  0.24755014  1
  O2-  O201  1  0.59642686  0.84634335  0.46710579  1
  O2-  O202  1  0.64384665  0.84491573  0.74565118  1
  O2-  O203  1  1.01160045  0.38626058  -0.07076094  1
  O2-  O204  1  0.88013201  0.38768571  0.26242538  1
  O2-  O205  1  1.00629305  0.34846323  0.64047069  1
  O2-  O206  1  0.90190072  0.40788216  0.78575899  1
  O2-  O207  1  0.85219533  0.84749361  0.00925371  1
  O2-  O208  1  0.85003900  0.85395000  0.27178429  1
  O2-  O209  1  0.92638267  0.84824656  0.51728039  1
  O2-  O210  1  0.91304378  0.86415923  0.76561014  1
  O2-  O211  1  -0.00769105  -0.07757031  0.06712587  1
  O2-  O212  1  0.00866312  -0.10867758  0.22107691  1
  O2-  O213  1  0.02122960  0.15592003  0.64636249  1
  O2-  O214  1  -0.07398138  -0.00167519  0.92713206  1
  O2-  O215  1  -0.06954416  0.50508269  0.03788357  1
  O2-  O216  1  -0.00014525  0.39019632  0.13181477  1
  O2-  O217  1  0.00398790  0.32563963  0.38449987  1
  O2-  O218  1  -0.02331566  0.57014287  0.87734312  1
  O2-  O219  1  0.18457087  0.15014134  0.02603107  1
  O2-  O220  1  0.23089443  0.15245789  0.37958696  1
  O2-  O221  1  0.25492269  0.11717505  0.57689558  1
  O2-  O222  1  0.27362280  0.10636420  0.74176343  1
  O2-  O223  1  0.26122627  0.37045710  -0.13759438  1
  O2-  O224  1  0.24314786  0.39393674  0.39857855  1
  O2-  O225  1  0.29819865  0.57133638  0.62502188  1
  O2-  O226  1  0.25634454  0.39807217  0.62804938  1
  O2-  O227  1  0.48203696  0.09151999  -0.10123203  1
  O2-  O228  1  0.48429287  0.14884626  0.10081470  1
  O2-  O229  1  0.50953246  0.16798384  0.60924445  1
  O2-  O230  1  0.48726520  -0.14274693  0.86862815  1
  O2-  O231  1  0.49398768  0.35951700  -0.12949655  1
  O2-  O232  1  0.50660901  0.35037059  0.13213922  1
  O2-  O233  1  0.50983261  0.34525936  0.35800804  1
  O2-  O234  1  0.46494344  0.53686060  0.86679778  1
  O2-  O235  1  0.73512051  0.14425973  -0.12967664  1
  O2-  O236  1  0.75640424  0.10984587  0.29099980  1
  O2-  O237  1  0.72450969  0.10783781  0.46152355  1
  O2-  O238  1  0.79861657  0.10037236  0.72444200  1
  O2-  O239  1  0.84977680  0.36690128  -0.00106677  1
  O2-  O240  1  0.75469323  0.39769641  0.40372765  1
  O2-  O241  1  0.87657944  0.34156382  0.51998833  1
  O2-  O242  1  0.75877656  0.37710223  0.66079157  1
