# generated using pymatgen
data_Gd19Ta56(WO20)8
_symmetry_space_group_name_H-M   'P 1'
_cell_length_a   15.49831264
_cell_length_b   15.47694624
_cell_length_c   15.29033680
_cell_angle_alpha   90.08773553
_cell_angle_beta   90.20023615
_cell_angle_gamma   90.08183763
_symmetry_Int_Tables_number   1
_chemical_formula_structural   Gd19Ta56(WO20)8
_chemical_formula_sum   'Gd19 Ta56 W8 O160'
_cell_volume   3667.60989389
_cell_formula_units_Z   1
loop_
 _symmetry_equiv_pos_site_id
 _symmetry_equiv_pos_as_xyz
  1  'x, y, z'
loop_
 _atom_type_symbol
 _atom_type_oxidation_number
  Gd3+  3.0
  Ta5+  5.0
  W6+  6.0
  O2-  -2.0
loop_
 _atom_site_type_symbol
 _atom_site_label
 _atom_site_symmetry_multiplicity
 _atom_site_fract_x
 _atom_site_fract_y
 _atom_site_fract_z
 _atom_site_occupancy
  Gd3+  Gd0  1  0.75809981  0.73018182  0.75603735  1
  Gd3+  Gd1  1  0.00309810  0.76239681  0.76241846  1
  Gd3+  Gd2  1  -0.02443636  0.26024427  0.00686807  1
  Gd3+  Gd3  1  0.47057141  0.74198772  0.01638781  1
  Gd3+  Gd4  1  0.74787503  0.74730539  0.23368827  1
  Gd3+  Gd5  1  0.54959842  0.21840908  0.24661330  1
  Gd3+  Gd6  1  -0.04905395  0.26881372  0.25945985  1
  Gd3+  Gd7  1  0.02344939  0.76130508  0.24748472  1
  Gd3+  Gd8  1  -0.01957236  0.74893544  0.00976127  1
  Gd3+  Gd9  1  0.52412876  0.74818109  0.75960314  1
  Gd3+  Gd10  1  0.28562408  0.27480997  0.23695206  1
  Gd3+  Gd11  1  0.23040529  0.75418549  -0.00395437  1
  Gd3+  Gd12  1  0.01267145  0.77193098  0.50966459  1
  Gd3+  Gd13  1  0.75072264  0.74571899  0.48532819  1
  Gd3+  Gd14  1  0.23494339  0.74688140  0.47420940  1
  Gd3+  Gd15  1  0.47502571  0.74851393  0.51542575  1
  Gd3+  Gd16  1  0.73336973  0.23534203  0.71353610  1
  Gd3+  Gd17  1  0.27561754  0.26313926  0.50708732  1
  Gd3+  Gd18  1  0.51378278  0.23253142  0.48232330  1
  Ta5+  Ta19  1  0.37061528  0.89761827  0.86387859  1
  Ta5+  Ta20  1  0.12833009  0.60356270  0.64145500  1
  Ta5+  Ta21  1  0.44732165  0.36248556  0.10352607  1
  Ta5+  Ta22  1  0.87632956  0.60671529  0.87805747  1
  Ta5+  Ta23  1  0.39468921  0.92906002  0.61570385  1
  Ta5+  Ta24  1  0.62103240  0.87795692  0.36760772  1
  Ta5+  Ta25  1  0.60235450  0.61702984  0.35858131  1
  Ta5+  Ta26  1  0.62662619  0.60924933  0.88065209  1
  Ta5+  Ta27  1  0.64751341  0.37237951  0.37682436  1
  Ta5+  Ta28  1  0.13529862  0.36505204  0.87583371  1
  Ta5+  Ta29  1  0.64559791  0.60909152  0.61016669  1
  Ta5+  Ta30  1  0.16811786  0.95163835  0.31271661  1
  Ta5+  Ta31  1  0.33102104  0.58017641  0.08949636  1
  Ta5+  Ta32  1  0.12539850  0.58920001  0.30818999  1
  Ta5+  Ta33  1  0.46245367  0.12049237  0.86207451  1
  Ta5+  Ta34  1  0.90981488  0.12813849  0.62538844  1
  Ta5+  Ta35  1  0.86933183  0.36919692  0.61116188  1
  Ta5+  Ta36  1  0.14155557  0.12672412  0.38277059  1
  Ta5+  Ta37  1  0.89279336  0.60884221  0.62223785  1
  Ta5+  Ta38  1  0.62298235  0.88534033  0.11390836  1
  Ta5+  Ta39  1  0.41946382  0.37890606  0.36359262  1
  Ta5+  Ta40  1  0.83494598  0.87959619  0.88593276  1
  Ta5+  Ta41  1  0.88373171  0.60958827  0.36780884  1
  Ta5+  Ta42  1  0.35103723  0.61638273  0.63937028  1
  Ta5+  Ta43  1  0.86201062  0.59231735  0.12644722  1
  Ta5+  Ta44  1  0.61911262  0.36201261  0.85818228  1
  Ta5+  Ta45  1  0.86597583  0.92055935  0.12373679  1
  Ta5+  Ta46  1  0.65262347  0.57309066  0.11806742  1
  Ta5+  Ta47  1  0.36110659  0.11685733  0.35963902  1
  Ta5+  Ta48  1  0.85334031  0.12633688  0.12546369  1
  Ta5+  Ta49  1  0.38078285  0.12585527  0.09850105  1
  Ta5+  Ta50  1  0.45011360  0.34753953  0.85689834  1
  Ta5+  Ta51  1  0.87545035  0.88332405  0.63040632  1
  Ta5+  Ta52  1  0.66798155  0.87628295  0.87850492  1
  Ta5+  Ta53  1  0.84637576  0.37040233  0.86700488  1
  Ta5+  Ta54  1  0.12724320  0.93574825  0.90941713  1
  Ta5+  Ta55  1  0.40078940  0.62097764  0.32509868  1
  Ta5+  Ta56  1  0.67228109  0.11675004  0.38313056  1
  Ta5+  Ta57  1  0.84727597  0.12089635  0.87389319  1
  Ta5+  Ta58  1  0.11011798  0.91740737  0.11349809  1
  Ta5+  Ta59  1  0.63274688  0.87572024  0.62083257  1
  Ta5+  Ta60  1  0.37622427  0.87503111  0.34986601  1
  Ta5+  Ta61  1  0.12909302  0.17101650  0.88927160  1
  Ta5+  Ta62  1  0.38316345  0.58065410  0.88466969  1
  Ta5+  Ta63  1  0.58028035  0.10576221  0.62480014  1
  Ta5+  Ta64  1  0.11844269  0.15177928  0.64415021  1
  Ta5+  Ta65  1  0.87398440  0.88299317  0.36987703  1
  Ta5+  Ta66  1  0.11066356  0.37383911  0.62354341  1
  Ta5+  Ta67  1  0.68288180  0.11170103  0.11518780  1
  Ta5+  Ta68  1  0.34860224  0.93370673  0.11016012  1
  Ta5+  Ta69  1  0.84084907  0.12633263  0.38357234  1
  Ta5+  Ta70  1  0.58047665  0.37208662  0.62981077  1
  Ta5+  Ta71  1  0.40373193  0.12128080  0.62684894  1
  Ta5+  Ta72  1  0.82212010  0.38190660  0.12197723  1
  Ta5+  Ta73  1  0.17229537  0.41760062  0.37117536  1
  Ta5+  Ta74  1  0.63407206  0.11641440  0.86894663  1
  W6+  W75  1  0.41786871  0.37045201  0.62839365  1
  W6+  W76  1  0.13105535  0.39638931  0.12583016  1
  W6+  W77  1  0.09363460  0.57061264  0.09671787  1
  W6+  W78  1  0.10645159  0.95394454  0.59493308  1
  W6+  W79  1  0.80869172  0.36915527  0.38381258  1
  W6+  W80  1  0.61330153  0.35819439  0.11234068  1
  W6+  W81  1  0.09772989  0.57976539  0.88782415  1
  W6+  W82  1  0.09695322  0.15559550  0.15193788  1
  O2-  O83  1  0.13500911  0.01434305  0.19392393  1
  O2-  O84  1  0.08453709  0.00798461  0.38216514  1
  O2-  O85  1  0.16968930  0.04031899  0.66213047  1
  O2-  O86  1  0.15911330  0.04878406  0.87732069  1
  O2-  O87  1  0.08599489  0.49858757  0.20946426  1
  O2-  O88  1  0.07745998  0.49344239  0.38674945  1
  O2-  O89  1  0.16579439  0.48633104  0.61975114  1
  O2-  O90  1  0.17776403  0.47688373  0.85972351  1
  O2-  O91  1  0.28762390  0.03737694  0.07635732  1
  O2-  O92  1  0.39923843  -0.00463044  0.36662673  1
  O2-  O93  1  0.32112294  0.02056918  0.59759743  1
  O2-  O94  1  0.44058143  -0.00964887  0.88508773  1
  O2-  O95  1  0.38638198  0.46687559  0.09760806  1
  O2-  O96  1  0.41205792  0.50146071  0.36611526  1
  O2-  O97  1  0.38024527  0.50309333  0.62317518  1
  O2-  O98  1  0.38913588  0.46372151  0.86597320  1
  O2-  O99  1  0.60977217  0.00328599  0.12678893  1
  O2-  O100  1  0.62072090  -0.00394999  0.37877821  1
  O2-  O101  1  0.65174633  -0.00919292  0.61503543  1
  O2-  O102  1  0.64229755  -0.00925120  0.85261603  1
  O2-  O103  1  0.56579485  0.49112597  0.12766477  1
  O2-  O104  1  0.62619600  0.49718081  0.36363357  1
  O2-  O105  1  0.58874457  0.50291704  0.61666516  1
  O2-  O106  1  0.60529916  0.49342092  0.85667082  1
  O2-  O107  1  0.93718561  0.01746185  0.13916869  1
  O2-  O108  1  0.88259339  0.00076680  0.36683915  1
  O2-  O109  1  0.86083592  -0.00024966  0.63615323  1
  O2-  O110  1  0.86493508  0.00006599  0.86702924  1
  O2-  O111  1  0.90773225  0.47565364  0.13181839  1
  O2-  O112  1  0.84861572  0.49986123  0.39485660  1
  O2-  O113  1  0.84727721  0.49532995  0.62273050  1
  O2-  O114  1  0.89735640  0.48816049  0.85691170  1
  O2-  O115  1  0.04537003  0.28941300  0.13970019  1
  O2-  O116  1  0.25136104  0.20237823  0.36860433  1
  O2-  O117  1  0.17798150  0.26824369  0.61963155  1
  O2-  O118  1  0.04627732  0.26890591  0.87483849  1
  O2-  O119  1  -0.00098236  0.85781833  0.13136279  1
  O2-  O120  1  0.15508394  0.69290267  0.36713813  1
  O2-  O121  1  0.00101083  0.87824877  0.62832457  1
  O2-  O122  1  -0.00928428  0.67334995  0.88047821  1
  O2-  O123  1  0.37762068  0.25287523  0.11517197  1
  O2-  O124  1  0.43474288  0.23309055  0.35095493  1
  O2-  O125  1  0.37586648  0.24061973  0.63164333  1
  O2-  O126  1  0.42098930  0.23406064  0.83052972  1
  O2-  O127  1  0.33800534  0.71123046  0.08414868  1
  O2-  O128  1  0.35946769  0.73662015  0.35849967  1
  O2-  O129  1  0.44648797  0.69140003  0.65254966  1
  O2-  O130  1  0.43941808  0.79722410  0.87111442  1
  O2-  O131  1  0.63215210  0.22243343  0.12085859  1
  O2-  O132  1  0.62362293  0.23942837  0.38022898  1
  O2-  O133  1  0.59109879  0.24249630  0.63099204  1
  O2-  O134  1  0.66098091  0.24187060  0.84702352  1
  O2-  O135  1  0.52735803  0.80910425  0.12763397  1
  O2-  O136  1  0.65450680  0.73436852  0.36236656  1
  O2-  O137  1  0.60061896  0.72485432  0.60299373  1
  O2-  O138  1  0.64446172  0.74158542  0.87093398  1
  O2-  O139  1  0.86527069  0.25973191  0.11657092  1
  O2-  O140  1  0.86497442  0.24831286  0.38712191  1
  O2-  O141  1  0.84650605  0.24314081  0.61287267  1
  O2-  O142  1  0.87041696  0.25072616  0.87806170  1
  O2-  O143  1  0.94282979  0.68742837  0.14268049  1
  O2-  O144  1  0.83622938  0.73185430  0.36219321  1
  O2-  O145  1  0.92793406  0.73863769  0.63080898  1
  O2-  O146  1  0.84075876  0.74705496  0.88764311  1
  O2-  O147  1  0.09531230  0.16917961  0.01118422  1
  O2-  O148  1  0.06865909  0.17794092  0.29927939  1
  O2-  O149  1  0.14387767  0.15132229  0.50383784  1
  O2-  O150  1  0.14317538  0.17921743  0.76194622  1
  O2-  O151  1  0.11381178  0.66732497  0.00344395  1
  O2-  O152  1  0.12271073  0.65997928  0.20026745  1
  O2-  O153  1  0.10873925  0.66536095  0.53672072  1
  O2-  O154  1  0.10343043  0.64824046  0.75562423  1
  O2-  O155  1  0.42452277  0.13516971  -0.01523175  1
  O2-  O156  1  0.34745658  0.13438094  0.23281462  1
  O2-  O157  1  0.37770841  0.14420752  0.48554736  1
  O2-  O158  1  0.41319528  0.09075795  0.74625676  1
  O2-  O159  1  0.28306342  0.61248209  -0.04749295  1
  O2-  O160  1  0.34785932  0.59878640  0.21590533  1
  O2-  O161  1  0.34914219  0.66146412  0.51856660  1
  O2-  O162  1  0.34552184  0.61927356  0.77338709  1
  O2-  O163  1  0.66631467  0.11181541  -0.00875174  1
  O2-  O164  1  0.66660559  0.12116459  0.25479197  1
  O2-  O165  1  0.62560116  0.12550046  0.50683065  1
  O2-  O166  1  0.64214021  0.11791868  0.73186451  1
  O2-  O167  1  0.61255012  0.62604866  0.00864164  1
  O2-  O168  1  0.65625794  0.62194907  0.23348690  1
  O2-  O169  1  0.66870945  0.61622786  0.48348988  1
  O2-  O170  1  0.63533265  0.63449742  0.74133757  1
  O2-  O171  1  0.88325743  0.12752456  -0.00174693  1
  O2-  O172  1  0.86816428  0.14290881  0.25405036  1
  O2-  O173  1  0.87039106  0.11350236  0.50835413  1
  O2-  O174  1  0.85258779  0.13413190  0.74214786  1
  O2-  O175  1  0.88700918  0.61004858  0.00234904  1
  O2-  O176  1  0.83223138  0.60579884  0.25221348  1
  O2-  O177  1  0.89332782  0.64473720  0.49551388  1
  O2-  O178  1  0.88000603  0.63680933  0.74970586  1
  O2-  O179  1  0.14365795  0.35875243  0.00005328  1
  O2-  O180  1  0.15760326  0.35285017  0.26625367  1
  O2-  O181  1  0.16601227  0.36672093  0.48597481  1
  O2-  O182  1  0.10093269  0.36965736  0.74247873  1
  O2-  O183  1  0.10393433  0.83469484  -0.00485736  1
  O2-  O184  1  0.13250048  0.85633132  0.23810655  1
  O2-  O185  1  0.14083684  0.84378481  0.53099630  1
  O2-  O186  1  0.06000573  0.88541693  0.82242913  1
  O2-  O187  1  0.44694402  0.33768487  -0.01795604  1
  O2-  O188  1  0.42630232  0.36132459  0.23840642  1
  O2-  O189  1  0.40310822  0.34403038  0.48938889  1
  O2-  O190  1  0.50096522  0.38496572  0.74121807  1
  O2-  O191  1  0.38299231  0.87267245  0.00803396  1
  O2-  O192  1  0.36341717  0.87959801  0.22769328  1
  O2-  O193  1  0.37210531  0.85867417  0.51226081  1
  O2-  O194  1  0.36225251  0.89774388  0.73771533  1
  O2-  O195  1  0.63459354  0.36332612  -0.02273641  1
  O2-  O196  1  0.61730473  0.35001058  0.25623001  1
  O2-  O197  1  0.59806902  0.36167020  0.50052160  1
  O2-  O198  1  0.66611585  0.36897155  0.72655402  1
  O2-  O199  1  0.60663697  0.87022295  -0.01040748  1
  O2-  O200  1  0.64104845  0.85939884  0.24634869  1
  O2-  O201  1  0.62157355  0.84514309  0.49597875  1
  O2-  O202  1  0.64593803  0.84287844  0.74525824  1
  O2-  O203  1  0.83235354  0.38071490  -0.00746644  1
  O2-  O204  1  0.83126746  0.36501113  0.24743719  1
  O2-  O205  1  0.79060465  0.37165033  0.51937697  1
  O2-  O206  1  0.84460798  0.35902272  0.73536298  1
  O2-  O207  1  0.88723377  0.87767466  0.00757064  1
  O2-  O208  1  0.86323697  0.86031369  0.24091876  1
  O2-  O209  1  0.87658371  0.85343105  0.50101937  1
  O2-  O210  1  0.86835944  0.84889726  0.75457881  1
  O2-  O211  1  0.08183978  -0.01019327  0.01785002  1
  O2-  O212  1  -0.01129068  -0.16818106  0.37383857  1
  O2-  O213  1  0.02024799  0.06173534  0.61345958  1
  O2-  O214  1  0.00622082  0.21232485  0.64608405  1
  O2-  O215  1  0.04662858  0.51343972  -0.00577138  1
  O2-  O216  1  -0.00291686  0.63092764  0.33045162  1
  O2-  O217  1  0.00621777  0.56750088  0.63265855  1
  O2-  O218  1  -0.00763706  0.37989568  0.58625415  1
  O2-  O219  1  0.22831173  -0.12407768  0.09558474  1
  O2-  O220  1  0.24405034  0.04620950  0.35187945  1
  O2-  O221  1  0.25143308  -0.12681636  0.37657022  1
  O2-  O222  1  0.24581944  -0.11336679  0.89554096  1
  O2-  O223  1  0.22169601  0.52191707  0.09861768  1
  O2-  O224  1  0.29487381  0.36433236  0.36344502  1
  O2-  O225  1  0.23082920  0.52706400  0.33849866  1
  O2-  O226  1  0.23715075  0.66668421  0.64310095  1
  O2-  O227  1  0.43898683  0.01418156  0.13098935  1
  O2-  O228  1  0.49684405  -0.15725522  0.37652519  1
  O2-  O229  1  0.50759591  -0.14047209  0.63987106  1
  O2-  O230  1  0.48291043  0.01626162  0.58246509  1
  O2-  O231  1  0.43376809  0.59772068  0.00905335  1
  O2-  O232  1  0.50540192  0.64286415  0.27093130  1
  O2-  O233  1  0.50239331  0.63447590  0.43056045  1
  O2-  O234  1  0.49894221  0.63679863  0.86034709  1
  O2-  O235  1  0.74448181  -0.14972010  0.11577826  1
  O2-  O236  1  0.77865851  0.01327350  0.12973912  1
  O2-  O237  1  0.74931166  -0.12839692  0.38895859  1
  O2-  O238  1  0.75538048  -0.17253162  0.61723855  1
  O2-  O239  1  0.75803593  0.66331545  0.10770101  1
  O2-  O240  1  0.74936463  0.49703685  0.11457504  1
  O2-  O241  1  0.76466425  0.65169471  0.62229580  1
  O2-  O242  1  0.75185092  0.59942502  0.87482517  1
