# generated using pymatgen
data_Gd19Ta56(WO20)8
_symmetry_space_group_name_H-M   'P 1'
_cell_length_a   15.54060714
_cell_length_b   15.57349573
_cell_length_c   15.26228376
_cell_angle_alpha   89.94040323
_cell_angle_beta   90.02127875
_cell_angle_gamma   90.02809256
_symmetry_Int_Tables_number   1
_chemical_formula_structural   Gd19Ta56(WO20)8
_chemical_formula_sum   'Gd19 Ta56 W8 O160'
_cell_volume   3693.79932008
_cell_formula_units_Z   1
loop_
 _symmetry_equiv_pos_site_id
 _symmetry_equiv_pos_as_xyz
  1  'x, y, z'
loop_
 _atom_type_symbol
 _atom_type_oxidation_number
  Gd3+  3.0
  Ta5+  5.0
  W6+  6.0
  O2-  -2.0
loop_
 _atom_site_type_symbol
 _atom_site_label
 _atom_site_symmetry_multiplicity
 _atom_site_fract_x
 _atom_site_fract_y
 _atom_site_fract_z
 _atom_site_occupancy
  Gd3+  Gd0  1  -0.02087457  0.74150483  -0.02257622  1
  Gd3+  Gd1  1  0.23256796  0.73572906  0.50135142  1
  Gd3+  Gd2  1  0.02224242  0.26465167  0.23303762  1
  Gd3+  Gd3  1  0.74224965  0.76281523  0.51731137  1
  Gd3+  Gd4  1  0.51481776  0.74586627  0.53010240  1
  Gd3+  Gd5  1  0.76016858  0.25246543  0.74718813  1
  Gd3+  Gd6  1  -0.00735098  0.74174627  0.51337094  1
  Gd3+  Gd7  1  0.74592187  0.25680830  -0.00007657  1
  Gd3+  Gd8  1  0.46799245  0.26727059  -0.02014724  1
  Gd3+  Gd9  1  -0.00183423  0.74883830  0.75561765  1
  Gd3+  Gd10  1  0.74909996  0.25849908  0.26099263  1
  Gd3+  Gd11  1  0.25698922  0.75246004  0.25096816  1
  Gd3+  Gd12  1  0.26635367  0.23843918  0.75660410  1
  Gd3+  Gd13  1  -0.01067446  0.27232169  -0.01078811  1
  Gd3+  Gd14  1  0.26629222  0.24945282  0.25901838  1
  Gd3+  Gd15  1  0.25216143  0.25586439  0.51294611  1
  Gd3+  Gd16  1  0.00299457  0.75224380  0.24929794  1
  Gd3+  Gd17  1  0.49486455  0.74068704  0.24724669  1
  Gd3+  Gd18  1  -0.03977379  0.25791286  0.50779294  1
  Ta5+  Ta19  1  0.35796436  0.88349009  0.38481314  1
  Ta5+  Ta20  1  0.40431489  0.37316818  0.39023597  1
  Ta5+  Ta21  1  0.10871034  0.12722560  0.37807220  1
  Ta5+  Ta22  1  0.37188099  0.87622849  0.12850642  1
  Ta5+  Ta23  1  0.85174886  0.64519791  0.11931439  1
  Ta5+  Ta24  1  0.36513971  0.62652440  0.64075634  1
  Ta5+  Ta25  1  0.65425630  0.62410235  0.65379957  1
  Ta5+  Ta26  1  0.10913382  0.12592959  0.62892660  1
  Ta5+  Ta27  1  0.86269525  0.12235025  0.61643447  1
  Ta5+  Ta28  1  0.14548224  0.88432651  0.37411662  1
  Ta5+  Ta29  1  0.32867213  0.39098227  0.88251416  1
  Ta5+  Ta30  1  0.38100623  0.87232559  0.62693550  1
  Ta5+  Ta31  1  0.39112043  0.11827011  0.61457999  1
  Ta5+  Ta32  1  0.37697056  0.86407051  0.87942017  1
  Ta5+  Ta33  1  0.86413927  0.41109341  0.12129178  1
  Ta5+  Ta34  1  0.60165921  0.36693395  0.39201038  1
  Ta5+  Ta35  1  0.61209477  0.61722941  0.11528902  1
  Ta5+  Ta36  1  0.10568985  0.37431908  0.64238690  1
  Ta5+  Ta37  1  0.12558793  0.12862432  0.88395683  1
  Ta5+  Ta38  1  0.63598586  0.88265682  0.65216145  1
  Ta5+  Ta39  1  0.32670116  0.60048456  0.13718898  1
  Ta5+  Ta40  1  0.61938846  0.37330843  0.13005171  1
  Ta5+  Ta41  1  0.88327217  0.10029461  0.12353790  1
  Ta5+  Ta42  1  0.63868137  0.85305451  0.12331864  1
  Ta5+  Ta43  1  0.31779812  0.63107948  0.88945908  1
  Ta5+  Ta44  1  0.12714766  0.86907254  0.12571679  1
  Ta5+  Ta45  1  0.13046957  0.11381384  0.12108163  1
  Ta5+  Ta46  1  0.65649836  0.62275576  0.87159524  1
  Ta5+  Ta47  1  0.62549801  0.12019664  0.38412720  1
  Ta5+  Ta48  1  0.64463005  0.09994062  0.13349612  1
  Ta5+  Ta49  1  0.85232410  0.64126037  0.37505605  1
  Ta5+  Ta50  1  0.38735620  0.38267448  0.63077051  1
  Ta5+  Ta51  1  0.40334014  0.12339093  0.13999759  1
  Ta5+  Ta52  1  0.14700212  0.62565123  0.88643809  1
  Ta5+  Ta53  1  0.64915292  0.11239976  0.87678177  1
  Ta5+  Ta54  1  0.63087355  0.37755428  0.87118807  1
  Ta5+  Ta55  1  0.38053712  0.37813891  0.13756105  1
  Ta5+  Ta56  1  0.85953956  0.38907988  0.61372820  1
  Ta5+  Ta57  1  0.89115407  0.39840841  0.86243701  1
  Ta5+  Ta58  1  0.84335514  0.88085976  0.87022736  1
  Ta5+  Ta59  1  0.62451296  0.37790440  0.62491410  1
  Ta5+  Ta60  1  0.82369047  0.63206433  0.85679418  1
  Ta5+  Ta61  1  0.61376603  0.12730465  0.63140055  1
  Ta5+  Ta62  1  0.85460105  0.62846369  0.64530657  1
  Ta5+  Ta63  1  0.88051155  0.88800841  0.63689556  1
  Ta5+  Ta64  1  0.15931252  0.38355719  0.88454589  1
  Ta5+  Ta65  1  0.86587661  0.87772375  0.37506747  1
  Ta5+  Ta66  1  0.89926577  0.12215250  0.36677706  1
  Ta5+  Ta67  1  0.10309721  0.38650779  0.39402495  1
  Ta5+  Ta68  1  0.89855399  0.40060511  0.36805254  1
  Ta5+  Ta69  1  0.11997199  0.61379631  0.63064517  1
  Ta5+  Ta70  1  0.16050571  0.41646235  0.09803138  1
  Ta5+  Ta71  1  0.67572671  0.86595094  0.87576532  1
  Ta5+  Ta72  1  0.37660799  0.61578967  0.38962274  1
  Ta5+  Ta73  1  0.13399826  0.88044528  0.88014802  1
  Ta5+  Ta74  1  0.39749224  0.12552806  0.40184531  1
  W6+  W75  1  0.86225036  0.12951633  0.87740873  1
  W6+  W76  1  0.11746680  0.60420662  0.13179130  1
  W6+  W77  1  0.86323372  0.88268774  0.11945030  1
  W6+  W78  1  0.61051669  0.87163407  0.38078481  1
  W6+  W79  1  0.10591532  0.87872870  0.62178995  1
  W6+  W80  1  0.14391256  0.60952104  0.35528177  1
  W6+  W81  1  0.60757242  0.61585200  0.38408433  1
  W6+  W82  1  0.38854206  0.11269007  0.87157682  1
  O2-  O83  1  0.12486986  -0.00259555  0.11996289  1
  O2-  O84  1  0.13534592  0.01054186  0.37980824  1
  O2-  O85  1  0.11860768  0.01263714  0.60464593  1
  O2-  O86  1  0.12714884  0.00276735  0.89911757  1
  O2-  O87  1  0.06170058  0.47612021  0.12183593  1
  O2-  O88  1  0.16945526  0.47512729  0.35740427  1
  O2-  O89  1  0.09263436  0.49594602  0.62031157  1
  O2-  O90  1  0.13767195  0.50387307  0.89547334  1
  O2-  O91  1  0.38106033  0.00282372  0.13709702  1
  O2-  O92  1  0.38376010  0.00447669  0.39034303  1
  O2-  O93  1  0.39727299  -0.00178667  0.61422261  1
  O2-  O94  1  0.40859228  -0.01853844  0.87693069  1
  O2-  O95  1  0.39794159  0.50100737  0.14010964  1
  O2-  O96  1  0.40117047  0.49451493  0.38241631  1
  O2-  O97  1  0.39054524  0.50336700  0.63143840  1
  O2-  O98  1  0.34297672  0.51054524  0.88627307  1
  O2-  O99  1  0.61791217  -0.01842265  0.12727230  1
  O2-  O100  1  0.63945471  0.00322927  0.38338812  1
  O2-  O101  1  0.61065087  0.00509313  0.62959123  1
  O2-  O102  1  0.65704943  -0.00387228  0.88362088  1
  O2-  O103  1  0.59851430  0.49252387  0.11547162  1
  O2-  O104  1  0.62385267  0.48259003  0.37797858  1
  O2-  O105  1  0.64434429  0.49771774  0.62928376  1
  O2-  O106  1  0.65023992  0.49170156  0.88804542  1
  O2-  O107  1  0.94130030  -0.00196018  0.11943848  1
  O2-  O108  1  0.87824930  0.00179642  0.37187625  1
  O2-  O109  1  0.90176785  0.00823914  0.60216759  1
  O2-  O110  1  0.85219338  -0.00186107  0.88540631  1
  O2-  O111  1  0.89086987  0.52831027  0.13445669  1
  O2-  O112  1  0.87287557  0.52029370  0.37370318  1
  O2-  O113  1  0.84976428  0.50779170  0.60633987  1
  O2-  O114  1  0.85535453  0.51234777  0.86619430  1
  O2-  O115  1  0.01762806  0.16090302  0.11018948  1
  O2-  O116  1  0.12826727  0.26290763  0.36071849  1
  O2-  O117  1  0.16254647  0.25004127  0.64362702  1
  O2-  O118  1  0.16161008  0.24631014  0.86594912  1
  O2-  O119  1  0.13534640  0.74682921  0.15307048  1
  O2-  O120  1  0.15065780  0.75237267  0.35815771  1
  O2-  O121  1  0.09011884  0.74107894  0.63286019  1
  O2-  O122  1  0.09375253  0.75357983  0.87383100  1
  O2-  O123  1  0.35001867  0.24458386  0.13618817  1
  O2-  O124  1  0.34669761  0.25080115  0.39257215  1
  O2-  O125  1  0.35163155  0.25227036  0.62328598  1
  O2-  O126  1  0.36390723  0.25527648  0.87506734  1
  O2-  O127  1  0.36603831  0.74469408  0.14899511  1
  O2-  O128  1  0.34735543  0.75024040  0.38221027  1
  O2-  O129  1  0.34157751  0.75278084  0.60663509  1
  O2-  O130  1  0.38448373  0.74205829  0.88692623  1
  O2-  O131  1  0.67630685  0.24287110  0.13337769  1
  O2-  O132  1  0.66135138  0.25147625  0.37648577  1
  O2-  O133  1  0.65490971  0.25177466  0.63888305  1
  O2-  O134  1  0.66953049  0.24867738  0.87118870  1
  O2-  O135  1  0.56918789  0.74293235  0.11607744  1
  O2-  O136  1  0.55571434  0.74436878  0.38640651  1
  O2-  O137  1  0.66229928  0.75304323  0.65299631  1
  O2-  O138  1  0.68773165  0.74320762  0.85604259  1
  O2-  O139  1  0.93428049  0.30956141  0.13017930  1
  O2-  O140  1  0.91572623  0.26094818  0.35807520  1
  O2-  O141  1  0.84524234  0.25396159  0.61464199  1
  O2-  O142  1  0.85192860  0.27171199  0.87907691  1
  O2-  O143  1  0.92931257  0.74736694  0.11913217  1
  O2-  O144  1  0.92720336  0.75304452  0.37868452  1
  O2-  O145  1  0.87239805  0.75765498  0.64847010  1
  O2-  O146  1  0.88332936  0.75023699  0.85261171  1
  O2-  O147  1  0.17594498  0.14094498  0.01082154  1
  O2-  O148  1  0.16898653  0.13753216  0.24063813  1
  O2-  O149  1  0.14076731  0.15879201  0.50126614  1
  O2-  O150  1  0.13361289  0.11844328  0.75393585  1
  O2-  O151  1  0.08836491  0.64057829  0.00478372  1
  O2-  O152  1  0.05237927  0.61865943  0.25658768  1
  O2-  O153  1  0.10174631  0.63914639  0.49397515  1
  O2-  O154  1  0.12809055  0.62411772  0.75631202  1
  O2-  O155  1  0.40999664  0.13743595  0.01345744  1
  O2-  O156  1  0.36333897  0.13558525  0.26585855  1
  O2-  O157  1  0.31145638  0.11915375  0.50818782  1
  O2-  O158  1  0.34244045  0.11882949  0.73316660  1
  O2-  O159  1  0.33031476  0.63567376  0.02118831  1
  O2-  O160  1  0.38878054  0.62862436  0.26281366  1
  O2-  O161  1  0.42137344  0.63216920  0.50934556  1
  O2-  O162  1  0.34002901  0.63315946  0.75729713  1
  O2-  O163  1  0.64573232  0.13328051  0.00818503  1
  O2-  O164  1  0.67349172  0.12620066  0.25931688  1
  O2-  O165  1  0.64661208  0.13356556  0.50767700  1
  O2-  O166  1  0.66715332  0.12393459  0.74717520  1
  O2-  O167  1  0.61463281  0.63063428  -0.00999408  1
  O2-  O168  1  0.58497913  0.62277284  0.24149461  1
  O2-  O169  1  0.62979729  0.64773868  0.52344768  1
  O2-  O170  1  0.59014628  0.61746754  0.75746848  1
  O2-  O171  1  0.86950175  0.16868421  0.01907089  1
  O2-  O172  1  0.86122575  0.15232283  0.23859607  1
  O2-  O173  1  0.84625183  0.14737718  0.48040330  1
  O2-  O174  1  0.85028340  0.12529793  0.73906850  1
  O2-  O175  1  0.85763949  0.64729281  -0.00738560  1
  O2-  O176  1  0.86400780  0.66009591  0.25045957  1
  O2-  O177  1  0.86481887  0.65699149  0.50795238  1
  O2-  O178  1  0.92354982  0.62073539  0.74873988  1
  O2-  O179  1  0.12004596  0.33781096  0.00822407  1
  O2-  O180  1  0.15514948  0.31709067  0.18179144  1
  O2-  O181  1  0.14752516  0.36193231  0.51409887  1
  O2-  O182  1  0.15652365  0.38888237  0.75135774  1
  O2-  O183  1  0.08590476  0.85630252  0.00812492  1
  O2-  O184  1  0.08648099  0.88109206  0.25248340  1
  O2-  O185  1  0.07833414  0.85907804  0.47758921  1
  O2-  O186  1  0.11163750  0.88074417  0.76107280  1
  O2-  O187  1  0.36214785  0.37345907  0.01168216  1
  O2-  O188  1  0.34393058  0.37443454  0.26268904  1
  O2-  O189  1  0.33737228  0.37977470  0.51059003  1
  O2-  O190  1  0.33675546  0.37604837  0.74479653  1
  O2-  O191  1  0.40937624  0.86639713  0.01462641  1
  O2-  O192  1  0.40986469  0.86774211  0.25924526  1
  O2-  O193  1  0.42360515  0.86220223  0.49559255  1
  O2-  O194  1  0.38015810  0.86225301  0.74762673  1
  O2-  O195  1  0.60533343  0.34185006  -0.00254846  1
  O2-  O196  1  0.64760745  0.36713034  0.25108132  1
  O2-  O197  1  0.66063246  0.36406789  0.50722914  1
  O2-  O198  1  0.66698190  0.37541466  0.74846603  1
  O2-  O199  1  0.64479393  0.85518871  -0.00191385  1
  O2-  O200  1  0.59639220  0.85237365  0.24460152  1
  O2-  O201  1  0.61929807  0.85198277  0.51927566  1
  O2-  O202  1  0.60287295  0.87731421  0.76827329  1
  O2-  O203  1  0.88973994  0.39650995  -0.00254115  1
  O2-  O204  1  0.83710860  0.38539474  0.25423816  1
  O2-  O205  1  0.84715583  0.36595461  0.48026856  1
  O2-  O206  1  0.85150044  0.38195075  0.74102277  1
  O2-  O207  1  0.86683668  0.84905106  -0.00911351  1
  O2-  O208  1  0.89451413  0.86685356  0.25486304  1
  O2-  O209  1  0.88596060  0.85775174  0.50280002  1
  O2-  O210  1  0.91716713  0.88740688  0.75609905  1
  O2-  O211  1  0.00932638  0.15183396  -0.09806303  1
  O2-  O212  1  0.01324886  0.12466253  0.28863643  1
  O2-  O213  1  0.00058934  0.12478609  0.44543066  1
  O2-  O214  1  -0.00827429  0.15801958  0.62338661  1
  O2-  O215  1  0.00915128  0.36673854  -0.13070033  1
  O2-  O216  1  0.01069336  0.39423443  0.29819629  1
  O2-  O217  1  -0.00096349  0.40801763  0.45752167  1
  O2-  O218  1  -0.01448499  0.35311836  0.62810645  1
  O2-  O219  1  0.25074484  -0.12557820  0.11717024  1
  O2-  O220  1  0.25368245  -0.10665582  0.29979868  1
  O2-  O221  1  0.25008333  -0.12120604  0.46007531  1
  O2-  O222  1  0.25347152  -0.13191636  0.89316070  1
  O2-  O223  1  0.23156188  0.51980963  0.09144264  1
  O2-  O224  1  0.22342762  0.61154242  0.22610395  1
  O2-  O225  1  0.26216246  0.61022425  0.42732970  1
  O2-  O226  1  0.24180583  0.61939917  0.60742357  1
  O2-  O227  1  0.52233343  0.13384233  0.15320848  1
  O2-  O228  1  0.51155675  0.13401513  0.34803940  1
  O2-  O229  1  0.46602618  0.15069482  0.50511715  1
  O2-  O230  1  0.50172588  0.15112352  0.66747629  1
  O2-  O231  1  0.49887950  0.33599758  0.12836603  1
  O2-  O232  1  0.49884008  0.33028784  0.32182489  1
  O2-  O233  1  0.50021024  0.37228177  0.47466374  1
  O2-  O234  1  0.50507617  0.36134186  0.64980970  1
  O2-  O235  1  0.76817273  0.06644980  0.11796315  1
  O2-  O236  1  0.74820041  -0.18765154  0.14383256  1
  O2-  O237  1  0.75051118  -0.15037160  0.38668390  1
  O2-  O238  1  0.75856777  -0.10751459  0.62272903  1
  O2-  O239  1  0.74638902  0.39166642  0.09547899  1
  O2-  O240  1  0.73202543  0.62633020  0.12700212  1
  O2-  O241  1  0.73714429  0.66810205  0.38613091  1
  O2-  O242  1  0.75864023  0.62463906  0.73686736  1
