# generated using pymatgen
data_Gd19Ta56(WO20)8
_symmetry_space_group_name_H-M   'P 1'
_cell_length_a   15.69353742
_cell_length_b   15.39260907
_cell_length_c   15.28760958
_cell_angle_alpha   90.05215287
_cell_angle_beta   90.00914397
_cell_angle_gamma   89.80222450
_symmetry_Int_Tables_number   1
_chemical_formula_structural   Gd19Ta56(WO20)8
_chemical_formula_sum   'Gd19 Ta56 W8 O160'
_cell_volume   3692.91997987
_cell_formula_units_Z   1
loop_
 _symmetry_equiv_pos_site_id
 _symmetry_equiv_pos_as_xyz
  1  'x, y, z'
loop_
 _atom_type_symbol
 _atom_type_oxidation_number
  Gd3+  3.0
  Ta5+  5.0
  W6+  6.0
  O2-  -2.0
loop_
 _atom_site_type_symbol
 _atom_site_label
 _atom_site_symmetry_multiplicity
 _atom_site_fract_x
 _atom_site_fract_y
 _atom_site_fract_z
 _atom_site_occupancy
  Gd3+  Gd0  1  -0.04472949  0.24575521  0.00933283  1
  Gd3+  Gd1  1  0.22146786  0.25313272  0.75198075  1
  Gd3+  Gd2  1  0.72834550  0.24741230  -0.02674012  1
  Gd3+  Gd3  1  0.00190850  0.75523262  0.48033239  1
  Gd3+  Gd4  1  0.24204592  0.72663516  0.75231040  1
  Gd3+  Gd5  1  0.77054346  0.74298693  0.76344770  1
  Gd3+  Gd6  1  -0.01993344  0.25148762  0.74583842  1
  Gd3+  Gd7  1  0.03688926  0.74282209  -0.00614058  1
  Gd3+  Gd8  1  -0.02269295  0.22421026  0.23931314  1
  Gd3+  Gd9  1  0.22904881  0.75669024  0.50193786  1
  Gd3+  Gd10  1  0.74163263  0.24078395  0.46586938  1
  Gd3+  Gd11  1  -0.01154138  0.25432056  0.49298591  1
  Gd3+  Gd12  1  0.00892863  0.74959781  0.23540285  1
  Gd3+  Gd13  1  0.51472477  0.77153842  0.23609388  1
  Gd3+  Gd14  1  0.50837811  0.25256855  0.73845014  1
  Gd3+  Gd15  1  0.24466330  0.25813751  -0.00089228  1
  Gd3+  Gd16  1  0.22451989  0.26927158  0.49438620  1
  Gd3+  Gd17  1  0.50489076  0.75276177  0.49382026  1
  Gd3+  Gd18  1  0.72490715  0.76475829  0.52311811  1
  Ta5+  Ta19  1  0.89127553  0.88280057  0.10104551  1
  Ta5+  Ta20  1  0.37910260  0.63693283  0.11498159  1
  Ta5+  Ta21  1  0.35056658  0.13404658  0.60580950  1
  Ta5+  Ta22  1  0.64498234  0.12215518  0.12929608  1
  Ta5+  Ta23  1  0.92194788  0.57709797  0.64127607  1
  Ta5+  Ta24  1  0.60558144  0.37780643  0.37681795  1
  Ta5+  Ta25  1  0.09766660  0.91274300  0.64248927  1
  Ta5+  Ta26  1  0.62433537  0.61285242  0.64739975  1
  Ta5+  Ta27  1  0.62186148  0.62474874  0.87622889  1
  Ta5+  Ta28  1  0.32151599  0.87975454  0.88243498  1
  Ta5+  Ta29  1  0.65137092  0.37602066  0.12834129  1
  Ta5+  Ta30  1  0.38217153  0.38150121  0.11254215  1
  Ta5+  Ta31  1  0.36942227  0.12190428  0.86565771  1
  Ta5+  Ta32  1  0.10941269  0.10982712  0.61753553  1
  Ta5+  Ta33  1  0.58050210  0.11957409  0.37509771  1
  Ta5+  Ta34  1  0.61542800  0.86754069  0.87226388  1
  Ta5+  Ta35  1  0.12825644  0.59593672  0.88150218  1
  Ta5+  Ta36  1  0.88589115  0.61128227  0.10375171  1
  Ta5+  Ta37  1  0.10275585  0.38626019  0.88184200  1
  Ta5+  Ta38  1  0.38209184  0.89811259  0.37821488  1
  Ta5+  Ta39  1  0.64610028  0.61822415  0.35579356  1
  Ta5+  Ta40  1  0.35150851  0.89133955  0.13344984  1
  Ta5+  Ta41  1  0.66647936  0.36652934  0.62197894  1
  Ta5+  Ta42  1  0.37673076  0.62952459  0.36657415  1
  Ta5+  Ta43  1  0.65205543  0.62758571  0.12195574  1
  Ta5+  Ta44  1  0.86599584  0.10044501  0.37414575  1
  Ta5+  Ta45  1  0.85633019  0.38157023  0.87077073  1
  Ta5+  Ta46  1  0.36863653  0.37886583  0.36100969  1
  Ta5+  Ta47  1  0.39927602  0.63647789  0.87930836  1
  Ta5+  Ta48  1  0.81740535  0.37277830  0.13400452  1
  Ta5+  Ta49  1  0.87116380  0.86503499  0.91011032  1
  Ta5+  Ta50  1  0.39005208  0.89040312  0.63130961  1
  Ta5+  Ta51  1  0.85850959  0.10993079  0.86967889  1
  Ta5+  Ta52  1  0.87727650  0.38034296  0.36726564  1
  Ta5+  Ta53  1  0.82847160  0.13108515  0.62942441  1
  Ta5+  Ta54  1  0.89080997  0.89709362  0.65639100  1
  Ta5+  Ta55  1  0.14546566  0.89633546  0.12071153  1
  Ta5+  Ta56  1  0.10450309  0.37762114  0.34845953  1
  Ta5+  Ta57  1  0.82830058  0.86401488  0.32729045  1
  Ta5+  Ta58  1  0.18189411  0.09282217  0.13194208  1
  Ta5+  Ta59  1  0.14082225  0.58710809  0.60849589  1
  Ta5+  Ta60  1  0.11062300  0.11189663  0.35665189  1
  Ta5+  Ta61  1  0.84571886  0.61869886  0.34236664  1
  Ta5+  Ta62  1  0.12770482  0.37624998  0.13262899  1
  Ta5+  Ta63  1  0.35346303  0.12290069  0.11643948  1
  Ta5+  Ta64  1  0.11174927  0.11831642  0.88741406  1
  Ta5+  Ta65  1  0.36715849  0.37121819  0.61700389  1
  Ta5+  Ta66  1  0.15952904  0.61912530  0.14029236  1
  Ta5+  Ta67  1  0.08926727  0.48551907  0.74521862  1
  Ta5+  Ta68  1  0.38466773  0.62012262  0.62296687  1
  Ta5+  Ta69  1  0.83222752  0.36730327  0.62435615  1
  Ta5+  Ta70  1  0.60981359  0.88100403  0.67363771  1
  Ta5+  Ta71  1  0.66381079  0.11867597  0.62072994  1
  Ta5+  Ta72  1  0.81057781  0.11200286  0.12908120  1
  Ta5+  Ta73  1  0.61473478  0.11227201  0.86566780  1
  Ta5+  Ta74  1  0.60819654  0.37890894  0.87146865  1
  W6+  W75  1  0.36669346  0.38399147  0.87316471  1
  W6+  W76  1  0.16128578  0.88572056  0.32497883  1
  W6+  W77  1  0.14600589  0.62224961  0.34735484  1
  W6+  W78  1  0.65438787  0.92920773  0.32003943  1
  W6+  W79  1  0.67189232  0.87856856  0.11244881  1
  W6+  W80  1  0.16236879  0.87004810  0.86945623  1
  W6+  W81  1  0.33886401  0.14408738  0.34641361  1
  W6+  W82  1  0.93375237  0.61186308  0.86003747  1
  O2-  O83  1  0.08888354  0.00324773  0.10567196  1
  O2-  O84  1  0.18525919  0.01842471  0.34478551  1
  O2-  O85  1  0.17994779  0.00389961  0.64541407  1
  O2-  O86  1  0.14797305  0.00688947  0.87262595  1
  O2-  O87  1  0.16095170  0.49447958  0.13866231  1
  O2-  O88  1  0.15417794  0.48578678  0.35690799  1
  O2-  O89  1  0.18876237  0.48393276  0.64821443  1
  O2-  O90  1  0.18753561  0.48451070  0.85451041  1
  O2-  O91  1  0.40410754  0.00334958  0.13135570  1
  O2-  O92  1  0.36838149  0.01421001  0.36975780  1
  O2-  O93  1  0.35274139  0.01008767  0.60563794  1
  O2-  O94  1  0.35727139  0.00029078  0.85707013  1
  O2-  O95  1  0.39114318  0.51386321  0.11447437  1
  O2-  O96  1  0.36560297  0.50480886  0.36379850  1
  O2-  O97  1  0.37403242  0.49740075  0.61706072  1
  O2-  O98  1  0.38151453  0.51947629  0.88068432  1
  O2-  O99  1  0.71455183  0.01284458  0.11755815  1
  O2-  O100  1  0.56472679  -0.00046470  0.39290571  1
  O2-  O101  1  0.65130618  -0.00884689  0.63890320  1
  O2-  O102  1  0.59029001  -0.00778689  0.86071978  1
  O2-  O103  1  0.64171085  0.50494673  0.12399121  1
  O2-  O104  1  0.59879275  0.51243907  0.39234823  1
  O2-  O105  1  0.65232186  0.49820983  0.62223536  1
  O2-  O106  1  0.59254899  0.50176508  0.87091392  1
  O2-  O107  1  0.88128489  0.00180748  0.11105341  1
  O2-  O108  1  0.86439070  -0.02849426  0.37217566  1
  O2-  O109  1  0.83581894  0.00030535  0.63209397  1
  O2-  O110  1  0.87895326  -0.00757312  0.89980693  1
  O2-  O111  1  0.86277197  0.49248434  0.12033661  1
  O2-  O112  1  0.88541372  0.51323602  0.38569379  1
  O2-  O113  1  0.83715421  0.49970963  0.61063173  1
  O2-  O114  1  0.87016716  0.49918652  0.88873402  1
  O2-  O115  1  0.02923389  0.29768913  0.12434410  1
  O2-  O116  1  0.07025901  0.24037801  0.35907079  1
  O2-  O117  1  0.05434382  0.22489260  0.61835234  1
  O2-  O118  1  0.14471952  0.24841715  0.88598767  1
  O2-  O119  1  0.11199564  0.74228468  0.12627018  1
  O2-  O120  1  0.10895860  0.75897151  0.35584667  1
  O2-  O121  1  0.25899184  0.65400767  0.60789480  1
  O2-  O122  1  0.14847951  0.72479661  0.87122420  1
  O2-  O123  1  0.37338029  0.24919269  0.11048877  1
  O2-  O124  1  0.29407484  0.27792177  0.35898545  1
  O2-  O125  1  0.42226409  0.24415349  0.61014695  1
  O2-  O126  1  0.32134316  0.24842496  0.87050557  1
  O2-  O127  1  0.40640296  0.77354576  0.12897716  1
  O2-  O128  1  0.41786625  0.75494438  0.37381801  1
  O2-  O129  1  0.39666055  0.76032916  0.60646516  1
  O2-  O130  1  0.33420022  0.74738692  0.87586172  1
  O2-  O131  1  0.64504398  0.24471151  0.13093945  1
  O2-  O132  1  0.62704086  0.25045822  0.37836997  1
  O2-  O133  1  0.63342006  0.24585623  0.60243428  1
  O2-  O134  1  0.63148233  0.24372985  0.86523111  1
  O2-  O135  1  0.61815172  0.74952017  0.12934816  1
  O2-  O136  1  0.59254718  0.72986529  0.37355337  1
  O2-  O137  1  0.65470513  0.74094313  0.67133720  1
  O2-  O138  1  0.67152164  0.74465244  0.87822687  1
  O2-  O139  1  0.85901166  0.24163593  0.14258972  1
  O2-  O140  1  0.88354501  0.24219460  0.36283458  1
  O2-  O141  1  0.88391710  0.24788144  0.62703236  1
  O2-  O142  1  0.84787381  0.24268824  0.86945969  1
  O2-  O143  1  0.93008677  0.74430259  0.10238017  1
  O2-  O144  1  0.89178395  0.74879189  0.36603366  1
  O2-  O145  1  0.80899804  0.80789401  0.63215869  1
  O2-  O146  1  0.90416479  0.74420169  0.90357686  1
  O2-  O147  1  0.15117583  0.13274464  0.01216207  1
  O2-  O148  1  0.10325547  0.13696852  0.22697672  1
  O2-  O149  1  0.12615309  0.13288149  0.48923083  1
  O2-  O150  1  0.10819729  0.14181905  0.75342022  1
  O2-  O151  1  0.12423784  0.60199161  0.00558935  1
  O2-  O152  1  0.07039056  0.61303956  0.23325608  1
  O2-  O153  1  0.11651643  0.64981532  0.49450296  1
  O2-  O154  1  0.13051997  0.62705007  0.73423812  1
  O2-  O155  1  0.34177843  0.12047795  -0.00961753  1
  O2-  O156  1  0.28100518  0.12650261  0.22146405  1
  O2-  O157  1  0.32765525  0.15647683  0.48632155  1
  O2-  O158  1  0.35478715  0.14501164  0.73791875  1
  O2-  O159  1  0.43093403  0.64965745  0.00145620  1
  O2-  O160  1  0.41177233  0.64226849  0.24413819  1
  O2-  O161  1  0.42127884  0.62560184  0.49086555  1
  O2-  O162  1  0.36155303  0.63743130  0.74607737  1
  O2-  O163  1  0.62945392  0.12379723  -0.00488987  1
  O2-  O164  1  0.61546600  0.11251623  0.25580570  1
  O2-  O165  1  0.65407524  0.11868124  0.48646277  1
  O2-  O166  1  0.60129004  0.13297714  0.73485341  1
  O2-  O167  1  0.61999954  0.62437269  0.00034950  1
  O2-  O168  1  0.59360938  0.62802845  0.23983397  1
  O2-  O169  1  0.62312262  0.65200264  0.52700920  1
  O2-  O170  1  0.68679352  0.60715785  0.76585704  1
  O2-  O171  1  0.83830155  0.14286976  0.00192665  1
  O2-  O172  1  0.83247534  0.11027636  0.25519778  1
  O2-  O173  1  0.85835991  0.13500202  0.49956497  1
  O2-  O174  1  0.89571052  0.11997746  0.74953931  1
  O2-  O175  1  0.95094229  0.60443931  0.00166132  1
  O2-  O176  1  0.90215058  0.63508461  0.23168870  1
  O2-  O177  1  0.92262601  0.65944849  0.54953286  1
  O2-  O178  1  0.88224414  0.65501237  0.73226319  1
  O2-  O179  1  0.14465557  0.37273072  0.00805177  1
  O2-  O180  1  0.16607203  0.33549765  0.24674193  1
  O2-  O181  1  0.10298886  0.35143659  0.47479341  1
  O2-  O182  1  0.09879041  0.34646910  0.75166103  1
  O2-  O183  1  0.13970650  0.85483005  0.00533168  1
  O2-  O184  1  0.07454275  0.88188224  0.22349618  1
  O2-  O185  1  0.11583957  0.83516472  0.54631708  1
  O2-  O186  1  0.16277741  0.84588063  0.72336601  1
  O2-  O187  1  0.32204339  0.38539281  0.00278233  1
  O2-  O188  1  0.37433342  0.37851701  0.23560448  1
  O2-  O189  1  0.34132443  0.36918240  0.49038194  1
  O2-  O190  1  0.39562095  0.36037696  0.73851993  1
  O2-  O191  1  0.34036048  0.88121404  0.00401553  1
  O2-  O192  1  0.40883329  0.87980157  0.25646102  1
  O2-  O193  1  0.42788612  0.88505362  0.49686574  1
  O2-  O194  1  0.34048481  0.86698933  0.74170932  1
  O2-  O195  1  0.63015847  0.36596011  -0.00129454  1
  O2-  O196  1  0.63255304  0.38443870  0.25998419  1
  O2-  O197  1  0.67589671  0.37684969  0.48390460  1
  O2-  O198  1  0.60646460  0.36386981  0.73794294  1
  O2-  O199  1  0.60508785  0.87495630  -0.00624958  1
  O2-  O200  1  0.58225301  0.90168095  0.21157101  1
  O2-  O201  1  0.60545386  0.84258759  0.55336349  1
  O2-  O202  1  0.69560158  0.88182343  0.76980491  1
  O2-  O203  1  0.84569204  0.34774743  0.00457190  1
  O2-  O204  1  0.81494695  0.38088202  0.26300147  1
  O2-  O205  1  0.86474108  0.35227317  0.49258363  1
  O2-  O206  1  0.88129763  0.36875280  0.74618124  1
  O2-  O207  1  0.96642008  0.87926164  -0.00233682  1
  O2-  O208  1  0.90783562  0.86180934  0.22538614  1
  O2-  O209  1  0.94826268  0.86698560  0.55247782  1
  O2-  O210  1  0.85977061  0.86192659  0.78566625  1
  O2-  O211  1  -0.00936698  0.13966277  -0.09863460  1
  O2-  O212  1  -0.01117481  0.09230736  0.36932483  1
  O2-  O213  1  0.02545934  0.02423057  0.60410610  1
  O2-  O214  1  0.00075687  -0.10046721  0.71772327  1
  O2-  O215  1  -0.01598517  0.33873723  -0.10620282  1
  O2-  O216  1  -0.01227836  0.38224374  0.30459623  1
  O2-  O217  1  0.03031341  0.52285406  0.60379050  1
  O2-  O218  1  -0.02883585  0.52368803  0.75585359  1
  O2-  O219  1  0.24529232  -0.01920735  0.10142639  1
  O2-  O220  1  0.24692473  -0.14780522  0.19512093  1
  O2-  O221  1  0.27112333  -0.14037559  0.40819035  1
  O2-  O222  1  0.23155704  0.16570650  0.62450990  1
  O2-  O223  1  0.26920230  0.65331487  0.07676501  1
  O2-  O224  1  0.23462679  0.62984966  0.23726815  1
  O2-  O225  1  0.26751224  0.65568367  0.40695684  1
  O2-  O226  1  0.25546564  0.32915689  0.62954262  1
  O2-  O227  1  0.48664130  0.14424276  -0.13453094  1
  O2-  O228  1  0.47022112  0.16089565  0.37708818  1
  O2-  O229  1  0.49526818  -0.06852532  0.66186038  1
  O2-  O230  1  0.53780724  -0.16571743  0.78464258  1
  O2-  O231  1  0.49184944  0.33907663  -0.12727189  1
  O2-  O232  1  0.48549957  0.36180969  0.38369810  1
  O2-  O233  1  0.50564313  0.61544835  0.65624060  1
  O2-  O234  1  0.51241780  0.65952280  0.84047637  1
  O2-  O235  1  0.79413799  -0.14148081  0.02281479  1
  O2-  O236  1  0.74301306  -0.14523701  0.23831443  1
  O2-  O237  1  0.73952990  -0.13970661  0.41695395  1
  O2-  O238  1  0.73846687  0.09857194  0.85343737  1
  O2-  O239  1  0.76910995  0.64730004  0.10100279  1
  O2-  O240  1  0.74515322  0.58147618  0.28083809  1
  O2-  O241  1  0.75329496  0.65691357  0.42192043  1
  O2-  O242  1  0.73545145  0.38304574  0.86311834  1
