# generated using pymatgen
data_Gd19Ta56(WO20)8
_symmetry_space_group_name_H-M   'P 1'
_cell_length_a   15.56064761
_cell_length_b   15.38149724
_cell_length_c   15.19285138
_cell_angle_alpha   89.93915755
_cell_angle_beta   90.09568323
_cell_angle_gamma   90.14405495
_symmetry_Int_Tables_number   1
_chemical_formula_structural   Gd19Ta56(WO20)8
_chemical_formula_sum   'Gd19 Ta56 W8 O160'
_cell_volume   3636.33049132
_cell_formula_units_Z   1
loop_
 _symmetry_equiv_pos_site_id
 _symmetry_equiv_pos_as_xyz
  1  'x, y, z'
loop_
 _atom_type_symbol
 _atom_type_oxidation_number
  Gd3+  3.0
  Ta5+  5.0
  W6+  6.0
  O2-  -2.0
loop_
 _atom_site_type_symbol
 _atom_site_label
 _atom_site_symmetry_multiplicity
 _atom_site_fract_x
 _atom_site_fract_y
 _atom_site_fract_z
 _atom_site_occupancy
  Gd3+  Gd0  1  0.77066895  0.25820025  -0.03455164  1
  Gd3+  Gd1  1  -0.00236935  0.23856402  -0.01384959  1
  Gd3+  Gd2  1  0.24223616  0.25933911  0.50346781  1
  Gd3+  Gd3  1  0.26362265  0.23824675  0.24574450  1
  Gd3+  Gd4  1  0.54604339  0.22799262  0.01634672  1
  Gd3+  Gd5  1  -0.01083327  0.75570816  -0.00518778  1
  Gd3+  Gd6  1  0.74859148  0.74803954  0.47955768  1
  Gd3+  Gd7  1  0.47012723  0.25421886  0.49763735  1
  Gd3+  Gd8  1  0.01626722  0.75448031  0.72461109  1
  Gd3+  Gd9  1  0.50202018  0.74549074  0.00453022  1
  Gd3+  Gd10  1  0.24586382  0.74567288  -0.00165666  1
  Gd3+  Gd11  1  0.28220259  0.24831356  0.73531032  1
  Gd3+  Gd12  1  0.00816094  0.74440558  0.26811145  1
  Gd3+  Gd13  1  0.48799725  0.73069410  0.76396213  1
  Gd3+  Gd14  1  0.70529140  0.74664396  0.71578582  1
  Gd3+  Gd15  1  0.51699038  0.26160489  0.73310955  1
  Gd3+  Gd16  1  0.01039413  0.25978407  0.48489236  1
  Gd3+  Gd17  1  0.76834251  0.25705791  0.49319019  1
  Gd3+  Gd18  1  0.47482957  0.74022527  0.49184497  1
  Ta5+  Ta19  1  0.16992186  0.87496495  0.62222364  1
  Ta5+  Ta20  1  0.88448879  0.63192727  0.61013671  1
  Ta5+  Ta21  1  0.38875275  0.39014263  0.36110275  1
  Ta5+  Ta22  1  0.32521257  0.64740635  0.62816280  1
  Ta5+  Ta23  1  0.42191656  0.37207256  0.14463390  1
  Ta5+  Ta24  1  0.11950443  0.38341132  0.64440748  1
  Ta5+  Ta25  1  0.57173848  0.89586813  0.61328894  1
  Ta5+  Ta26  1  0.39446551  0.12661337  0.88673275  1
  Ta5+  Ta27  1  0.59113051  0.61579092  0.37669215  1
  Ta5+  Ta28  1  0.37215034  0.89444870  0.87032121  1
  Ta5+  Ta29  1  0.16812254  0.39035470  0.89192951  1
  Ta5+  Ta30  1  0.60585683  0.87990901  0.37815339  1
  Ta5+  Ta31  1  0.35352795  0.87472294  0.13349709  1
  Ta5+  Ta32  1  0.86005042  0.87976448  0.86105820  1
  Ta5+  Ta33  1  0.09605764  0.11560417  0.63463970  1
  Ta5+  Ta34  1  0.39968957  0.38120850  0.89250274  1
  Ta5+  Ta35  1  0.11381214  0.61818843  0.86832241  1
  Ta5+  Ta36  1  0.85243768  0.87612244  0.34526690  1
  Ta5+  Ta37  1  0.88819732  0.11814617  0.61578565  1
  Ta5+  Ta38  1  0.90108528  0.38539017  0.61901178  1
  Ta5+  Ta39  1  0.15889278  0.63170064  0.61826269  1
  Ta5+  Ta40  1  0.17120317  0.66057334  0.38296196  1
  Ta5+  Ta41  1  0.13404757  0.37790672  0.12714978  1
  Ta5+  Ta42  1  0.33584491  0.63260184  0.37862529  1
  Ta5+  Ta43  1  0.89441246  0.38188328  0.10271152  1
  Ta5+  Ta44  1  0.15272741  0.13792174  0.87863060  1
  Ta5+  Ta45  1  0.60076390  0.37330558  0.35027855  1
  Ta5+  Ta46  1  0.60825470  0.12233163  0.59392119  1
  Ta5+  Ta47  1  0.12477300  0.62562830  0.13111395  1
  Ta5+  Ta48  1  0.57579749  0.54841578  0.61406799  1
  Ta5+  Ta49  1  0.63662468  0.38703663  0.85898746  1
  Ta5+  Ta50  1  0.37758787  0.04817685  0.63217590  1
  Ta5+  Ta51  1  0.10894368  0.12474281  0.13197953  1
  Ta5+  Ta52  1  0.88148093  0.12066000  0.36128947  1
  Ta5+  Ta53  1  0.59681913  0.12518111  0.35888129  1
  Ta5+  Ta54  1  0.67502935  0.62107545  0.90470350  1
  Ta5+  Ta55  1  0.32670705  0.85298225  0.38047133  1
  Ta5+  Ta56  1  0.88152276  0.87048324  0.60838383  1
  Ta5+  Ta57  1  0.85450319  0.12619505  0.11183179  1
  Ta5+  Ta58  1  0.88140062  0.39025604  0.35589610  1
  Ta5+  Ta59  1  0.34645567  0.57449186  0.87248718  1
  Ta5+  Ta60  1  0.85352551  0.62085860  0.09724522  1
  Ta5+  Ta61  1  0.90498496  0.12514695  0.82538271  1
  Ta5+  Ta62  1  0.83909588  0.88061235  0.08610241  1
  Ta5+  Ta63  1  0.62249772  0.62668967  0.14343941  1
  Ta5+  Ta64  1  0.91988821  0.37524344  0.82356981  1
  Ta5+  Ta65  1  0.65582067  0.87897265  0.89438382  1
  Ta5+  Ta66  1  0.12954927  0.40961610  0.37221192  1
  Ta5+  Ta67  1  0.36957537  0.40826620  0.62554800  1
  Ta5+  Ta68  1  0.64350384  0.12103203  0.84830503  1
  Ta5+  Ta69  1  0.37179631  0.61646562  0.12851405  1
  Ta5+  Ta70  1  0.13459418  0.91379107  0.86708023  1
  Ta5+  Ta71  1  0.42886467  0.11078462  0.17110891  1
  Ta5+  Ta72  1  0.12756706  0.10865339  0.38461551  1
  Ta5+  Ta73  1  0.33110596  0.83542346  0.63119516  1
  Ta5+  Ta74  1  0.15802735  0.86261028  0.37735150  1
  W6+  W75  1  0.64297042  0.38544163  0.59555059  1
  W6+  W76  1  0.67141063  0.38394235  0.11799361  1
  W6+  W77  1  0.85940386  0.61778473  0.34850148  1
  W6+  W78  1  0.87023109  0.62073124  0.86672102  1
  W6+  W79  1  0.38224393  0.09920073  0.38718899  1
  W6+  W80  1  0.11101089  0.88190438  0.12747157  1
  W6+  W81  1  0.68545685  0.11840435  0.12549737  1
  W6+  W82  1  0.60205945  0.88159565  0.14452557  1
  O2-  O83  1  0.15234028  0.01366386  0.12317054  1
  O2-  O84  1  0.15600542  -0.00453834  0.36318505  1
  O2-  O85  1  0.11790809  -0.00067497  0.64926839  1
  O2-  O86  1  0.09019713  0.02827732  0.85632614  1
  O2-  O87  1  0.11003298  0.50350440  0.13832723  1
  O2-  O88  1  0.15150057  0.52364318  0.35626824  1
  O2-  O89  1  0.13850753  0.50010230  0.63553735  1
  O2-  O90  1  0.10045726  0.49243298  0.88681671  1
  O2-  O91  1  0.39947351  -0.00394526  0.12352590  1
  O2-  O92  1  0.35005197  -0.02823384  0.39637105  1
  O2-  O93  1  0.44820090  -0.06241167  0.63419724  1
  O2-  O94  1  0.42483221  0.00467755  0.86949018  1
  O2-  O95  1  0.40833201  0.49720717  0.12078755  1
  O2-  O96  1  0.34541732  0.50024396  0.37787287  1
  O2-  O97  1  0.31729485  0.51615177  0.63871568  1
  O2-  O98  1  0.44426459  0.49844864  0.89562448  1
  O2-  O99  1  0.65894913  -0.01408708  0.13857613  1
  O2-  O100  1  0.62067102  0.00046224  0.38028334  1
  O2-  O101  1  0.49253833  0.10916332  0.63666293  1
  O2-  O102  1  0.62874586  -0.00829033  0.85336680  1
  O2-  O103  1  0.61983614  0.50637998  0.13719803  1
  O2-  O104  1  0.61767419  0.49904464  0.36141616  1
  O2-  O105  1  0.48292799  0.45940954  0.61216754  1
  O2-  O106  1  0.63155643  0.51310621  0.86378290  1
  O2-  O107  1  0.84003341  0.00942824  0.08292754  1
  O2-  O108  1  0.87413710  -0.00407624  0.35761001  1
  O2-  O109  1  0.87998083  -0.00637679  0.61456225  1
  O2-  O110  1  0.88591975  0.00457010  0.84349991  1
  O2-  O111  1  0.83866381  0.48974283  0.09478255  1
  O2-  O112  1  0.81699034  0.48821138  0.34683577  1
  O2-  O113  1  0.89189423  0.50795129  0.61893811  1
  O2-  O114  1  0.90261426  0.49091426  0.84496606  1
  O2-  O115  1  0.16667578  0.24268393  0.12292715  1
  O2-  O116  1  0.13701842  0.24814361  0.39746112  1
  O2-  O117  1  0.11167241  0.24997686  0.60334866  1
  O2-  O118  1  0.13602952  0.26498918  0.90429706  1
  O2-  O119  1  0.06256348  0.74635733  0.12619301  1
  O2-  O120  1  0.08581748  0.75715735  0.39974630  1
  O2-  O121  1  0.12160876  0.75746003  0.61554347  1
  O2-  O122  1  0.05074578  0.72818145  0.86484922  1
  O2-  O123  1  0.39420664  0.23654315  0.15917177  1
  O2-  O124  1  0.35541676  0.25669133  0.37799401  1
  O2-  O125  1  0.40342984  0.27267322  0.63709692  1
  O2-  O126  1  0.36724587  0.25120677  0.85837458  1
  O2-  O127  1  0.39545627  0.74920990  0.11106823  1
  O2-  O128  1  0.40099574  0.74365754  0.36365090  1
  O2-  O129  1  0.42968165  0.73776044  0.63321044  1
  O2-  O130  1  0.47080761  0.81908748  0.88159385  1
  O2-  O131  1  0.68067120  0.25301608  0.08487212  1
  O2-  O132  1  0.56196053  0.24771981  0.36427683  1
  O2-  O133  1  0.58199172  0.25319778  0.59599199  1
  O2-  O134  1  0.66603419  0.25322836  0.85303088  1
  O2-  O135  1  0.58394484  0.75191533  0.12585199  1
  O2-  O136  1  0.61149770  0.74237141  0.40863022  1
  O2-  O137  1  0.65603710  0.80659611  0.58221015  1
  O2-  O138  1  0.63507669  0.74524597  0.87525629  1
  O2-  O139  1  0.85951146  0.25872296  0.09511358  1
  O2-  O140  1  0.87273598  0.25595268  0.37902083  1
  O2-  O141  1  0.89470179  0.25232581  0.59550963  1
  O2-  O142  1  0.96140009  0.24396160  0.83899113  1
  O2-  O143  1  0.85563081  0.75255512  0.07982723  1
  O2-  O144  1  0.88246812  0.75381506  0.34582641  1
  O2-  O145  1  0.82081771  0.75082771  0.62167565  1
  O2-  O146  1  0.87234577  0.75783432  0.88461584  1
  O2-  O147  1  0.10440566  0.13024644  -0.00503758  1
  O2-  O148  1  0.13865395  0.14206206  0.25640367  1
  O2-  O149  1  0.15902031  0.11636403  0.51072877  1
  O2-  O150  1  0.16156659  0.15800813  0.74856124  1
  O2-  O151  1  0.11847570  0.64891111  -0.00002600  1
  O2-  O152  1  0.12937660  0.65355368  0.25290791  1
  O2-  O153  1  0.14176238  0.61915424  0.49696554  1
  O2-  O154  1  0.11121077  0.63078220  0.74394651  1
  O2-  O155  1  0.41908213  0.14149115  0.00473936  1
  O2-  O156  1  0.32909862  0.10863766  0.25476781  1
  O2-  O157  1  0.34137025  0.11523534  0.53459243  1
  O2-  O158  1  0.35158329  0.11004565  0.73868398  1
  O2-  O159  1  0.37474280  0.64319237  -0.02209675  1
  O2-  O160  1  0.35811258  0.62255376  0.24685748  1
  O2-  O161  1  0.36082243  0.63652924  0.50575230  1
  O2-  O162  1  0.37812533  0.62814644  0.76747139  1
  O2-  O163  1  0.66289617  0.12413035  -0.02571025  1
  O2-  O164  1  0.67548612  0.13707516  0.26841128  1
  O2-  O165  1  0.66294608  0.14781839  0.47726204  1
  O2-  O166  1  0.64337544  0.13604292  0.71722000  1
  O2-  O167  1  0.59390108  0.62926233  0.00845409  1
  O2-  O168  1  0.56820491  0.63928386  0.25640244  1
  O2-  O169  1  0.54790308  0.60241795  0.50285426  1
  O2-  O170  1  0.58926916  0.64702968  0.69373294  1
  O2-  O171  1  0.87989342  0.14850583  -0.04141598  1
  O2-  O172  1  0.86223274  0.13137639  0.23920069  1
  O2-  O173  1  0.84053488  0.12296098  0.48766935  1
  O2-  O174  1  0.82939767  0.14449585  0.72983191  1
  O2-  O175  1  0.93591655  0.61685725  -0.00051718  1
  O2-  O176  1  0.90999456  0.62551162  0.20760748  1
  O2-  O177  1  0.84309376  0.63513323  0.48769892  1
  O2-  O178  1  0.91542286  0.64807339  0.73381822  1
  O2-  O179  1  0.19534398  0.39254368  0.02140410  1
  O2-  O180  1  0.15633717  0.36180485  0.25472896  1
  O2-  O181  1  0.16654645  0.38759905  0.48878204  1
  O2-  O182  1  0.16564548  0.36224981  0.76707128  1
  O2-  O183  1  0.12756339  0.85465284  -0.02192274  1
  O2-  O184  1  0.10071726  0.86150586  0.25867022  1
  O2-  O185  1  0.15567109  0.89063908  0.50220456  1
  O2-  O186  1  0.12194510  0.86146187  0.75729189  1
  O2-  O187  1  0.38628050  0.35669008  0.01571817  1
  O2-  O188  1  0.32933488  0.37348283  0.23897452  1
  O2-  O189  1  0.35197491  0.36947940  0.50113402  1
  O2-  O190  1  0.38706144  0.38527292  0.75711573  1
  O2-  O191  1  0.34458769  0.86375656  -0.00976795  1
  O2-  O192  1  0.35928689  0.86655481  0.25244920  1
  O2-  O193  1  0.35321620  0.83305844  0.50506898  1
  O2-  O194  1  0.35328930  0.83422048  0.76391354  1
  O2-  O195  1  0.69019112  0.38642425  -0.02538889  1
  O2-  O196  1  0.66969892  0.35575686  0.25281702  1
  O2-  O197  1  0.67112703  0.35681374  0.45341431  1
  O2-  O198  1  0.60951423  0.37587514  0.73489936  1
  O2-  O199  1  0.59051673  0.87285528  0.00003331  1
  O2-  O200  1  0.55551572  0.86315893  0.27083250  1
  O2-  O201  1  0.53370869  0.88138437  0.48647109  1
  O2-  O202  1  0.57997970  0.84728800  0.73093164  1
  O2-  O203  1  0.89364715  0.35226758  -0.04159710  1
  O2-  O204  1  0.90083898  0.37765604  0.22962097  1
  O2-  O205  1  0.86138235  0.38194998  0.49129043  1
  O2-  O206  1  0.83819808  0.35749934  0.73203888  1
  O2-  O207  1  0.92502986  0.89124183  -0.01626762  1
  O2-  O208  1  0.85243201  0.87733248  0.21017929  1
  O2-  O209  1  0.85476854  0.86092188  0.48318518  1
  O2-  O210  1  0.90965693  0.86025631  0.74021948  1
  O2-  O211  1  -0.01031720  0.14310640  0.11868541  1
  O2-  O212  1  0.00368644  0.12466203  0.37381246  1
  O2-  O213  1  -0.00033600  0.12271685  0.55054171  1
  O2-  O214  1  -0.01078802  0.11716079  0.71403266  1
  O2-  O215  1  0.02049987  0.35171657  0.08824197  1
  O2-  O216  1  0.00827433  0.38987903  0.37651569  1
  O2-  O217  1  0.01621766  0.38336107  0.56258166  1
  O2-  O218  1  0.00227509  0.38325432  0.72259493  1
  O2-  O219  1  0.26697527  0.11229778  -0.09793883  1
  O2-  O220  1  0.23850710  -0.16729502  0.12173381  1
  O2-  O221  1  0.28189492  -0.03516869  0.63809154  1
  O2-  O222  1  0.25051250  -0.06199942  0.86226761  1
  O2-  O223  1  0.28289989  0.45503634  -0.11606285  1
  O2-  O224  1  0.24824269  0.63428988  0.10570622  1
  O2-  O225  1  0.24695729  0.34565415  0.63025085  1
  O2-  O226  1  0.23528947  0.64021574  0.87651949  1
  O2-  O227  1  0.54112308  0.13578844  0.12751020  1
  O2-  O228  1  0.48855313  0.09664342  0.28485045  1
  O2-  O229  1  0.50046919  0.11385582  0.46024010  1
  O2-  O230  1  0.51790807  0.15399365  0.84946686  1
  O2-  O231  1  0.53431690  0.34423081  0.10456903  1
  O2-  O232  1  0.48392855  0.38909456  0.26853735  1
  O2-  O233  1  0.49432345  0.38799966  0.43160238  1
  O2-  O234  1  0.52024274  0.33761751  0.88744267  1
  O2-  O235  1  0.76146845  -0.11373636  -0.03639825  1
  O2-  O236  1  0.72874867  -0.14328709  0.36187135  1
  O2-  O237  1  0.63543006  -0.00215498  0.59872706  1
  O2-  O238  1  0.74795340  -0.13655087  0.79912041  1
  O2-  O239  1  0.77068677  0.60948844  -0.02199452  1
  O2-  O240  1  0.73978062  0.64275866  0.15345694  1
  O2-  O241  1  0.68884211  0.51760493  0.60331052  1
  O2-  O242  1  0.74885793  0.63459279  0.80152948  1
