# generated using pymatgen
data_Gd19Ta56(WO20)8
_symmetry_space_group_name_H-M   'P 1'
_cell_length_a   15.59299841
_cell_length_b   15.54429688
_cell_length_c   15.05674821
_cell_angle_alpha   89.96912466
_cell_angle_beta   90.05457773
_cell_angle_gamma   89.71167012
_symmetry_Int_Tables_number   1
_chemical_formula_structural   Gd19Ta56(WO20)8
_chemical_formula_sum   'Gd19 Ta56 W8 O160'
_cell_volume   3649.43929833
_cell_formula_units_Z   1
loop_
 _symmetry_equiv_pos_site_id
 _symmetry_equiv_pos_as_xyz
  1  'x, y, z'
loop_
 _atom_type_symbol
 _atom_type_oxidation_number
  Gd3+  3.0
  Ta5+  5.0
  W6+  6.0
  O2-  -2.0
loop_
 _atom_site_type_symbol
 _atom_site_label
 _atom_site_symmetry_multiplicity
 _atom_site_fract_x
 _atom_site_fract_y
 _atom_site_fract_z
 _atom_site_occupancy
  Gd3+  Gd0  1  -0.03454418  0.24257357  0.77456974  1
  Gd3+  Gd1  1  0.74684894  0.25020859  0.50198678  1
  Gd3+  Gd2  1  0.73089071  0.72752428  0.74590837  1
  Gd3+  Gd3  1  -0.00563306  0.76312292  0.75860401  1
  Gd3+  Gd4  1  -0.00055997  0.75226225  0.26107406  1
  Gd3+  Gd5  1  0.25752494  0.25704374  0.50436486  1
  Gd3+  Gd6  1  0.01357789  0.74992872  0.02048377  1
  Gd3+  Gd7  1  0.50044455  0.76413293  0.25921506  1
  Gd3+  Gd8  1  0.75222834  0.23983387  0.26830199  1
  Gd3+  Gd9  1  0.74228180  0.73499778  0.25927322  1
  Gd3+  Gd10  1  0.49470956  0.24652814  0.48126757  1
  Gd3+  Gd11  1  0.48564542  0.75696060  -0.00489065  1
  Gd3+  Gd12  1  0.71964007  0.74301637  -0.00450214  1
  Gd3+  Gd13  1  0.74645854  0.25475943  0.74493928  1
  Gd3+  Gd14  1  0.01827912  0.24716791  0.23364510  1
  Gd3+  Gd15  1  0.25829081  0.73514039  0.71934114  1
  Gd3+  Gd16  1  0.23174330  0.24205729  0.74697916  1
  Gd3+  Gd17  1  0.72749415  0.24798916  0.02122681  1
  Gd3+  Gd18  1  0.48852802  0.24332619  -0.01300693  1
  Ta5+  Ta19  1  0.62076621  0.11160225  0.13900565  1
  Ta5+  Ta20  1  0.38503350  0.39713441  0.62237945  1
  Ta5+  Ta21  1  0.86572684  0.88127394  0.13879767  1
  Ta5+  Ta22  1  0.61088239  0.07347696  0.63680961  1
  Ta5+  Ta23  1  0.64827798  0.59933442  0.12887331  1
  Ta5+  Ta24  1  0.36814662  0.62702232  0.87167948  1
  Ta5+  Ta25  1  0.68064394  0.86839554  0.61006974  1
  Ta5+  Ta26  1  0.91808539  0.62554844  0.63104984  1
  Ta5+  Ta27  1  0.90012948  0.38558656  0.62976432  1
  Ta5+  Ta28  1  0.35770668  0.62899618  0.35430945  1
  Ta5+  Ta29  1  0.87646552  0.62115583  0.88899766  1
  Ta5+  Ta30  1  0.82176996  0.11669328  0.88507000  1
  Ta5+  Ta31  1  0.62169093  0.61463156  0.37856362  1
  Ta5+  Ta32  1  0.58130104  0.36302728  0.15186217  1
  Ta5+  Ta33  1  0.64998813  0.88922936  0.37615730  1
  Ta5+  Ta34  1  0.13164679  0.62351847  0.37827717  1
  Ta5+  Ta35  1  0.86295632  0.60858936  0.13464792  1
  Ta5+  Ta36  1  0.09990459  0.11513008  0.61204427  1
  Ta5+  Ta37  1  0.40040830  0.38110935  0.34559585  1
  Ta5+  Ta38  1  0.13397046  0.37706613  0.36706177  1
  Ta5+  Ta39  1  0.09438247  0.11349346  0.85992985  1
  Ta5+  Ta40  1  0.57856232  0.63470491  0.61729625  1
  Ta5+  Ta41  1  0.34579865  0.88761319  0.35420750  1
  Ta5+  Ta42  1  0.87731143  0.12496169  0.13603466  1
  Ta5+  Ta43  1  0.86649024  0.87658069  0.88913522  1
  Ta5+  Ta44  1  0.86704069  0.62585526  0.38375585  1
  Ta5+  Ta45  1  0.15110115  0.12658557  0.36530754  1
  Ta5+  Ta46  1  0.41171932  0.63146599  0.60158526  1
  Ta5+  Ta47  1  0.60502988  0.60602071  0.87078367  1
  Ta5+  Ta48  1  0.35054248  0.87700523  0.12839512  1
  Ta5+  Ta49  1  0.12986917  0.87792202  0.88585941  1
  Ta5+  Ta50  1  0.83128896  0.89722415  0.36565626  1
  Ta5+  Ta51  1  0.60517823  0.36761812  0.35991523  1
  Ta5+  Ta52  1  0.39134692  0.11834618  0.13288709  1
  Ta5+  Ta53  1  0.89197848  0.10756574  0.62549543  1
  Ta5+  Ta54  1  0.61662148  0.38186813  0.88447803  1
  Ta5+  Ta55  1  0.12132413  0.88004100  0.38647471  1
  Ta5+  Ta56  1  0.37501598  0.88640714  0.86105388  1
  Ta5+  Ta57  1  0.14515517  0.12897990  0.10530689  1
  Ta5+  Ta58  1  0.65097105  0.08947035  0.38816199  1
  Ta5+  Ta59  1  0.36282558  0.62032252  0.13314174  1
  Ta5+  Ta60  1  0.60695300  0.38975977  0.62457490  1
  Ta5+  Ta61  1  0.10664164  0.86598554  0.61214214  1
  Ta5+  Ta62  1  0.10255665  0.38467880  0.85809257  1
  Ta5+  Ta63  1  0.87280796  0.36657787  0.12888386  1
  Ta5+  Ta64  1  0.84837706  0.86525909  0.61871565  1
  Ta5+  Ta65  1  0.65136332  0.12513062  0.87817267  1
  Ta5+  Ta66  1  0.61831648  0.88075967  0.86448200  1
  Ta5+  Ta67  1  0.86344132  0.37792639  0.89327960  1
  Ta5+  Ta68  1  0.40886513  0.09150586  0.62301975  1
  Ta5+  Ta69  1  0.41367140  0.37563247  0.13389827  1
  Ta5+  Ta70  1  0.91853925  0.12505766  0.40425404  1
  Ta5+  Ta71  1  0.89252806  0.37779988  0.38975118  1
  Ta5+  Ta72  1  0.08499694  0.63103402  0.61704443  1
  Ta5+  Ta73  1  0.10610330  0.38593826  0.62363858  1
  Ta5+  Ta74  1  0.37139481  0.39242623  0.87805713  1
  W6+  W75  1  0.65480137  0.88510122  0.13331204  1
  W6+  W76  1  0.15770992  0.61865644  0.13755204  1
  W6+  W77  1  0.12434525  0.62338328  0.87936035  1
  W6+  W78  1  0.36703478  0.13792338  0.86512467  1
  W6+  W79  1  0.14351006  0.37225917  0.10297547  1
  W6+  W80  1  0.15181055  0.87972083  0.14195483  1
  W6+  W81  1  0.34897833  0.13556834  0.36179759  1
  W6+  W82  1  0.38024868  0.87195405  0.59706480  1
  O2-  O83  1  0.15307048  0.01291904  0.12059863  1
  O2-  O84  1  0.13376940  0.00823736  0.37883411  1
  O2-  O85  1  0.11872554  -0.00387630  0.61362985  1
  O2-  O86  1  0.09078179  -0.00953977  0.85710474  1
  O2-  O87  1  0.16429796  0.48997291  0.12614028  1
  O2-  O88  1  0.15578024  0.49421431  0.36706667  1
  O2-  O89  1  0.11651209  0.50556919  0.63185526  1
  O2-  O90  1  0.08373415  0.50199353  0.85441844  1
  O2-  O91  1  0.35690319  0.00037306  0.11883141  1
  O2-  O92  1  0.32750067  0.00484312  0.35434657  1
  O2-  O93  1  0.34009369  -0.00168259  0.59699155  1
  O2-  O94  1  0.36970509  0.00389213  0.85580047  1
  O2-  O95  1  0.38845134  0.50198972  0.12819101  1
  O2-  O96  1  0.37404636  0.49991292  0.35445287  1
  O2-  O97  1  0.36672855  0.51154256  0.59598323  1
  O2-  O98  1  0.32607602  0.50420644  0.89090784  1
  O2-  O99  1  0.67466643  0.01299375  0.10205121  1
  O2-  O100  1  0.57084265  0.00428365  0.38375462  1
  O2-  O101  1  0.70041107  -0.00750663  0.64437317  1
  O2-  O102  1  0.63736630  -0.00155252  0.87212208  1
  O2-  O103  1  0.61492528  0.48491856  0.13203133  1
  O2-  O104  1  0.60564847  0.49494330  0.37591895  1
  O2-  O105  1  0.59543964  0.50522633  0.60698121  1
  O2-  O106  1  0.65877777  0.49657008  0.90154138  1
  O2-  O107  1  0.87595622  0.00427052  0.14053527  1
  O2-  O108  1  0.90415836  0.00880370  0.38833986  1
  O2-  O109  1  0.88398382  -0.01005069  0.62243853  1
  O2-  O110  1  0.84053178  -0.00659355  0.88910229  1
  O2-  O111  1  0.89222209  0.49089891  0.12646877  1
  O2-  O112  1  0.87879565  0.49674227  0.38222182  1
  O2-  O113  1  0.87700565  0.50313419  0.63844823  1
  O2-  O114  1  0.86967330  0.49967415  0.89409232  1
  O2-  O115  1  0.09125129  0.25012289  0.09928619  1
  O2-  O116  1  0.18906053  0.25976801  0.37074364  1
  O2-  O117  1  0.12169491  0.24891330  0.63262891  1
  O2-  O118  1  0.10430938  0.24578036  0.83325931  1
  O2-  O119  1  0.09946683  0.75000039  0.14632800  1
  O2-  O120  1  0.09430908  0.74850737  0.37616736  1
  O2-  O121  1  0.15032367  0.75122500  0.59721193  1
  O2-  O122  1  0.08430310  0.75978230  0.88407761  1
  O2-  O123  1  0.44804594  0.24609919  0.13262864  1
  O2-  O124  1  0.41976482  0.25152379  0.35570249  1
  O2-  O125  1  0.29324555  0.31770218  0.63329761  1
  O2-  O126  1  0.32225303  0.28072396  0.86116450  1
  O2-  O127  1  0.41023361  0.75490856  0.12960110  1
  O2-  O128  1  0.37798123  0.75327311  0.34254235  1
  O2-  O129  1  0.35901558  0.74415321  0.60122734  1
  O2-  O130  1  0.40078930  0.74835287  0.87365726  1
  O2-  O131  1  0.64027336  0.24100065  0.15462094  1
  O2-  O132  1  0.62977607  0.22749525  0.37873477  1
  O2-  O133  1  0.71527436  0.32707022  0.62359202  1
  O2-  O134  1  0.65922378  0.26162812  0.87192743  1
  O2-  O135  1  0.65324581  0.74217472  0.13666968  1
  O2-  O136  1  0.63248449  0.75535443  0.36054752  1
  O2-  O137  1  0.64203060  0.74301548  0.61959673  1
  O2-  O138  1  0.60983705  0.73445710  0.87430041  1
  O2-  O139  1  0.82273971  0.24734677  0.13756906  1
  O2-  O140  1  0.85508465  0.25010169  0.39548395  1
  O2-  O141  1  0.88531916  0.25362310  0.63905258  1
  O2-  O142  1  0.84170193  0.24974830  0.87585026  1
  O2-  O143  1  0.86778440  0.74379773  0.14584969  1
  O2-  O144  1  0.85610270  0.75298390  0.35567732  1
  O2-  O145  1  0.86035437  0.73951457  0.64946190  1
  O2-  O146  1  0.90807521  0.74920676  0.88823112  1
  O2-  O147  1  0.14687664  0.12714995  -0.02889892  1
  O2-  O148  1  0.13261540  0.14727097  0.23740106  1
  O2-  O149  1  0.16712696  0.13852267  0.50272311  1
  O2-  O150  1  0.15855474  0.11340838  0.74234838  1
  O2-  O151  1  0.09448769  0.62803758  0.01217431  1
  O2-  O152  1  0.08873922  0.61912787  0.25852203  1
  O2-  O153  1  0.07620006  0.60745643  0.48649480  1
  O2-  O154  1  0.11956455  0.66020265  0.74220013  1
  O2-  O155  1  0.38040535  0.14537893  0.00852324  1
  O2-  O156  1  0.32082744  0.15027819  0.22392922  1
  O2-  O157  1  0.36986249  0.15730505  0.51456068  1
  O2-  O158  1  0.35536614  0.15154088  0.71483134  1
  O2-  O159  1  0.40663926  0.63194639  -0.00034188  1
  O2-  O160  1  0.43495037  0.62956611  0.24640774  1
  O2-  O161  1  0.40782885  0.62830307  0.46987519  1
  O2-  O162  1  0.37010401  0.63247726  0.73549718  1
  O2-  O163  1  0.60413350  0.14624029  0.00495603  1
  O2-  O164  1  0.67766127  0.10819944  0.25993464  1
  O2-  O165  1  0.66278955  0.11284164  0.51718708  1
  O2-  O166  1  0.64057793  0.13953731  0.73917046  1
  O2-  O167  1  0.59741396  0.63303897  0.01104490  1
  O2-  O168  1  0.60115004  0.63015499  0.24914657  1
  O2-  O169  1  0.57412002  0.64322391  0.48756945  1
  O2-  O170  1  0.63055938  0.61521466  0.74532655  1
  O2-  O171  1  0.84568777  0.13192007  0.01167856  1
  O2-  O172  1  0.89188273  0.14700315  0.26888559  1
  O2-  O173  1  0.83643121  0.13236568  0.51015956  1
  O2-  O174  1  0.83299971  0.12764633  0.74185015  1
  O2-  O175  1  0.91438449  0.63287610  0.01416021  1
  O2-  O176  1  0.91446584  0.62273282  0.25802840  1
  O2-  O177  1  0.90023710  0.63854627  0.50071340  1
  O2-  O178  1  0.92333412  0.62372601  0.77086544  1
  O2-  O179  1  0.16410749  0.37252932  -0.03938957  1
  O2-  O180  1  0.11519970  0.35736515  0.24245093  1
  O2-  O181  1  0.16130717  0.37143857  0.50529766  1
  O2-  O182  1  0.17152032  0.37939508  0.74813540  1
  O2-  O183  1  0.09576720  0.87912752  0.00638542  1
  O2-  O184  1  0.08763032  0.88065685  0.26457320  1
  O2-  O185  1  0.05594535  0.87932197  0.49302395  1
  O2-  O186  1  0.11281778  0.85728320  0.74314109  1
  O2-  O187  1  0.38678655  0.36138289  0.00877603  1
  O2-  O188  1  0.33844742  0.35981720  0.24033582  1
  O2-  O189  1  0.38163874  0.35867279  0.48437975  1
  O2-  O190  1  0.38714756  0.40803336  0.74861280  1
  O2-  O191  1  0.39977360  0.87456139  -0.00574058  1
  O2-  O192  1  0.42147608  0.88633083  0.24597692  1
  O2-  O193  1  0.40588470  0.88327442  0.46146465  1
  O2-  O194  1  0.34655073  0.85555583  0.73665780  1
  O2-  O195  1  0.60677529  0.34193670  0.01611403  1
  O2-  O196  1  0.68166510  0.36900132  0.26072085  1
  O2-  O197  1  0.61131038  0.35172166  0.49246966  1
  O2-  O198  1  0.61770292  0.38716843  0.75278215  1
  O2-  O199  1  0.60499680  0.85491618  -0.00530131  1
  O2-  O200  1  0.59650190  0.88253627  0.25495156  1
  O2-  O201  1  0.62472125  0.88070413  0.49790796  1
  O2-  O202  1  0.65156071  0.85606740  0.74328048  1
  O2-  O203  1  0.80714633  0.37330941  0.00833777  1
  O2-  O204  1  0.89105799  0.35333502  0.25926750  1
  O2-  O205  1  0.83899234  0.37234446  0.51136059  1
  O2-  O206  1  0.84263105  0.37199054  0.76095545  1
  O2-  O207  1  0.91740325  0.87207429  0.01203880  1
  O2-  O208  1  0.91681933  0.87774169  0.26082152  1
  O2-  O209  1  0.84960392  0.86735162  0.48651836  1
  O2-  O210  1  0.88825881  0.87151224  0.76036899  1
  O2-  O211  1  -0.02372114  0.13055228  -0.12433969  1
  O2-  O212  1  0.02978652  0.17424510  0.37252149  1
  O2-  O213  1  -0.00615241  0.12034738  0.53381110  1
  O2-  O214  1  0.00003338  0.12088276  0.69735686  1
  O2-  O215  1  -0.01610155  0.35115495  -0.10538373  1
  O2-  O216  1  0.01417671  0.36131257  0.38485802  1
  O2-  O217  1  -0.00066455  0.38776566  0.55406300  1
  O2-  O218  1  0.00774555  0.37394872  0.71654287  1
  O2-  O219  1  0.25149613  -0.15714516  0.06618602  1
  O2-  O220  1  0.26448112  -0.12755715  0.22686321  1
  O2-  O221  1  0.23502060  -0.14612659  0.41025865  1
  O2-  O222  1  0.24696374  -0.12878128  0.88149759  1
  O2-  O223  1  0.26068344  0.64736862  0.06684008  1
  O2-  O224  1  0.27496113  0.62170492  0.22981708  1
  O2-  O225  1  0.24516615  0.64658353  0.40661657  1
  O2-  O226  1  0.25037736  0.66633539  0.85783433  1
  O2-  O227  1  0.50067938  -0.11756952  -0.15735841  1
  O2-  O228  1  0.50503702  0.08470984  0.17199707  1
  O2-  O229  1  0.51767922  0.15365270  0.58907754  1
  O2-  O230  1  0.50419543  0.01779839  0.67183356  1
  O2-  O231  1  0.49120648  0.58030504  -0.14528712  1
  O2-  O232  1  0.50721507  0.38029114  0.26693140  1
  O2-  O233  1  0.49394226  0.33272887  0.62004321  1
  O2-  O234  1  0.49448951  0.38113484  0.88296172  1
  O2-  O235  1  0.76497197  -0.13383695  0.06091229  1
  O2-  O236  1  0.76252251  -0.12030386  0.23410316  1
  O2-  O237  1  0.73763983  -0.01379906  0.38164290  1
  O2-  O238  1  0.75016583  -0.16551205  0.87670630  1
  O2-  O239  1  0.75640158  0.60944426  0.05234861  1
  O2-  O240  1  0.75609014  0.59464409  0.20948691  1
  O2-  O241  1  0.74411904  0.61894941  0.38981854  1
  O2-  O242  1  0.75643128  0.64520767  0.87176750  1
