# generated using pymatgen
data_Gd19Ta56(WO20)8
_symmetry_space_group_name_H-M   'P 1'
_cell_length_a   15.53819849
_cell_length_b   15.50911596
_cell_length_c   15.30651598
_cell_angle_alpha   89.93517350
_cell_angle_beta   89.97523051
_cell_angle_gamma   90.05318409
_symmetry_Int_Tables_number   1
_chemical_formula_structural   Gd19Ta56(WO20)8
_chemical_formula_sum   'Gd19 Ta56 W8 O160'
_cell_volume   3688.61689821
_cell_formula_units_Z   1
loop_
 _symmetry_equiv_pos_site_id
 _symmetry_equiv_pos_as_xyz
  1  'x, y, z'
loop_
 _atom_type_symbol
 _atom_type_oxidation_number
  Gd3+  3.0
  Ta5+  5.0
  W6+  6.0
  O2-  -2.0
loop_
 _atom_site_type_symbol
 _atom_site_label
 _atom_site_symmetry_multiplicity
 _atom_site_fract_x
 _atom_site_fract_y
 _atom_site_fract_z
 _atom_site_occupancy
  Gd3+  Gd0  1  0.22845159  0.74806761  0.47603838  1
  Gd3+  Gd1  1  0.25487718  0.24367912  0.74092655  1
  Gd3+  Gd2  1  -0.02018111  0.75135529  0.75655208  1
  Gd3+  Gd3  1  0.74399756  0.76688718  0.50345987  1
  Gd3+  Gd4  1  0.51579457  0.23446776  0.00893119  1
  Gd3+  Gd5  1  0.51064597  0.76235662  0.50029518  1
  Gd3+  Gd6  1  -0.01792082  0.73855697  0.50622335  1
  Gd3+  Gd7  1  0.48357709  0.75725089  -0.00250695  1
  Gd3+  Gd8  1  0.01524677  0.24135620  0.26440888  1
  Gd3+  Gd9  1  0.29251157  0.73233643  0.72546835  1
  Gd3+  Gd10  1  0.24682814  0.24987586  0.49637132  1
  Gd3+  Gd11  1  0.76036699  0.25828572  0.50519813  1
  Gd3+  Gd12  1  0.24196510  0.26280476  0.24833032  1
  Gd3+  Gd13  1  0.75429867  0.25428864  0.74235345  1
  Gd3+  Gd14  1  0.49096329  0.26624228  0.78331656  1
  Gd3+  Gd15  1  0.23779239  0.26440473  -0.00425195  1
  Gd3+  Gd16  1  -0.00710006  0.73882594  0.00249937  1
  Gd3+  Gd17  1  0.76315472  0.25764120  0.01497415  1
  Gd3+  Gd18  1  0.76960781  0.26095362  0.25402160  1
  Ta5+  Ta19  1  0.91586175  0.37510254  0.63576366  1
  Ta5+  Ta20  1  0.38289546  0.38629370  0.37430989  1
  Ta5+  Ta21  1  0.11372559  0.37651912  0.62683849  1
  Ta5+  Ta22  1  0.86548302  0.61431837  0.63009555  1
  Ta5+  Ta23  1  0.12868497  0.10602507  0.38063418  1
  Ta5+  Ta24  1  0.84839209  0.87177523  0.89088272  1
  Ta5+  Ta25  1  0.63546850  0.63488624  0.12296066  1
  Ta5+  Ta26  1  0.38068916  0.11216264  0.88121750  1
  Ta5+  Ta27  1  0.12458057  0.39013592  0.37707337  1
  Ta5+  Ta28  1  0.60748356  0.12126526  0.61627484  1
  Ta5+  Ta29  1  0.63312326  0.11322070  0.87255022  1
  Ta5+  Ta30  1  0.33408795  0.86979102  0.87412083  1
  Ta5+  Ta31  1  0.37975742  0.38456974  0.12761613  1
  Ta5+  Ta32  1  0.61237682  0.62960231  0.87056863  1
  Ta5+  Ta33  1  0.12963251  0.87322005  0.88012821  1
  Ta5+  Ta34  1  0.67919094  0.63171814  0.36281025  1
  Ta5+  Ta35  1  0.38713671  0.12978522  0.36518308  1
  Ta5+  Ta36  1  0.35994586  0.63030133  0.13591233  1
  Ta5+  Ta37  1  0.10903326  0.11524615  0.62792471  1
  Ta5+  Ta38  1  0.35859529  0.87979707  0.13205194  1
  Ta5+  Ta39  1  0.15195625  0.62095355  0.11880559  1
  Ta5+  Ta40  1  0.65175073  0.87780898  0.35142721  1
  Ta5+  Ta41  1  0.39969155  0.62965252  0.36564198  1
  Ta5+  Ta42  1  0.92439529  0.37382430  0.12529341  1
  Ta5+  Ta43  1  0.11764509  0.86785439  0.62289945  1
  Ta5+  Ta44  1  0.88978572  0.37513131  0.87582185  1
  Ta5+  Ta45  1  0.62910012  0.12538568  0.37480437  1
  Ta5+  Ta46  1  0.12016467  0.87412214  0.12061088  1
  Ta5+  Ta47  1  0.61188021  0.38292133  0.62064333  1
  Ta5+  Ta48  1  0.91032447  0.12904412  0.63425286  1
  Ta5+  Ta49  1  0.10643659  0.37183917  0.85284341  1
  Ta5+  Ta50  1  0.84948225  0.62424018  0.37566306  1
  Ta5+  Ta51  1  0.90619502  0.87694042  0.37672774  1
  Ta5+  Ta52  1  0.40773357  0.36803802  0.61869323  1
  Ta5+  Ta53  1  0.37009359  0.61013490  0.58619976  1
  Ta5+  Ta54  1  0.84408220  0.57804686  0.87560541  1
  Ta5+  Ta55  1  0.65604816  0.40402691  0.87694266  1
  Ta5+  Ta56  1  0.62754415  0.62973562  0.62509659  1
  Ta5+  Ta57  1  0.62763955  0.38980575  0.37599802  1
  Ta5+  Ta58  1  0.89235116  0.38411400  0.38670589  1
  Ta5+  Ta59  1  0.11214619  0.11671212  0.86463238  1
  Ta5+  Ta60  1  0.62927663  0.88102340  0.67442496  1
  Ta5+  Ta61  1  0.07267141  0.86516123  0.36266320  1
  Ta5+  Ta62  1  0.40370153  0.12381645  0.60984559  1
  Ta5+  Ta63  1  0.11789095  0.61718850  0.86578069  1
  Ta5+  Ta64  1  0.32219727  0.11953104  0.12316354  1
  Ta5+  Ta65  1  0.88819591  0.11794650  0.38926719  1
  Ta5+  Ta66  1  0.37217898  0.88464632  0.38439124  1
  Ta5+  Ta67  1  0.12021538  0.62232653  0.61734811  1
  Ta5+  Ta68  1  0.62200650  0.38959479  0.13258164  1
  Ta5+  Ta69  1  0.09309768  0.37935668  0.11329088  1
  Ta5+  Ta70  1  0.86761808  0.88822529  0.63081759  1
  Ta5+  Ta71  1  0.87569683  0.11766350  0.87695939  1
  Ta5+  Ta72  1  0.14983958  0.11976966  0.11997901  1
  Ta5+  Ta73  1  0.85787884  0.87290055  0.13608759  1
  Ta5+  Ta74  1  0.08250482  0.63152079  0.35049899  1
  W6+  W75  1  0.88252192  0.61946736  0.12939230  1
  W6+  W76  1  0.33093938  0.61370232  0.92458671  1
  W6+  W77  1  0.63929667  0.12631205  0.13514902  1
  W6+  W78  1  0.60662555  0.88400690  0.12007864  1
  W6+  W79  1  0.35208466  0.88491094  0.60344021  1
  W6+  W80  1  0.62296015  0.87366958  0.86956064  1
  W6+  W81  1  0.35906216  0.38395171  0.88324465  1
  W6+  W82  1  0.89146388  0.11765696  0.12851514  1
  O2-  O83  1  0.12476733  -0.00359767  0.11523472  1
  O2-  O84  1  0.10868016  -0.01138972  0.37725971  1
  O2-  O85  1  0.11675005  -0.00535534  0.61619517  1
  O2-  O86  1  0.10247703  -0.00556080  0.86320997  1
  O2-  O87  1  0.13330234  0.49865851  0.11522809  1
  O2-  O88  1  0.11625697  0.50898340  0.37170368  1
  O2-  O89  1  0.10962409  0.49745503  0.61878556  1
  O2-  O90  1  0.11368396  0.49426786  0.85489768  1
  O2-  O91  1  0.36075879  0.00196871  0.13169703  1
  O2-  O92  1  0.38049058  0.01020987  0.37158218  1
  O2-  O93  1  0.35296939  0.02073715  0.63301984  1
  O2-  O94  1  0.35853378  -0.00618710  0.86538906  1
  O2-  O95  1  0.38456989  0.50448484  0.14310284  1
  O2-  O96  1  0.36758023  0.50672549  0.37471586  1
  O2-  O97  1  0.38583963  0.48544487  0.60493699  1
  O2-  O98  1  0.34816833  0.51420768  0.85983864  1
  O2-  O99  1  0.60387436  0.00750315  0.12879624  1
  O2-  O100  1  0.63333699  0.00564615  0.37746060  1
  O2-  O101  1  0.64233676  0.00751802  0.63917928  1
  O2-  O102  1  0.67375789  0.00504218  0.87005239  1
  O2-  O103  1  0.60382755  0.50798535  0.12919518  1
  O2-  O104  1  0.64161927  0.50844704  0.38291276  1
  O2-  O105  1  0.62574824  0.50485168  0.60875292  1
  O2-  O106  1  0.58497018  0.49828631  0.86950819  1
  O2-  O107  1  0.90140566  -0.01427068  0.14056619  1
  O2-  O108  1  0.86696136  0.00180253  0.38014633  1
  O2-  O109  1  0.87969274  0.01086477  0.63366130  1
  O2-  O110  1  0.86942904  -0.00164075  0.87020670  1
  O2-  O111  1  0.90571624  0.49138113  0.13116615  1
  O2-  O112  1  0.84927084  0.49328301  0.37071139  1
  O2-  O113  1  0.89952178  0.49537742  0.63711411  1
  O2-  O114  1  0.93341966  0.48938902  0.86267597  1
  O2-  O115  1  0.14775146  0.25621338  0.11895303  1
  O2-  O116  1  0.15717704  0.24937647  0.37432789  1
  O2-  O117  1  0.15746790  0.24285085  0.62678871  1
  O2-  O118  1  0.15742618  0.24559172  0.85817992  1
  O2-  O119  1  0.11177125  0.74131020  0.10443236  1
  O2-  O120  1  0.13506152  0.74517022  0.35100247  1
  O2-  O121  1  0.17012044  0.74895978  0.63067357  1
  O2-  O122  1  0.08287130  0.74964697  0.87396006  1
  O2-  O123  1  0.34180062  0.25443423  0.12096039  1
  O2-  O124  1  0.34602815  0.25836055  0.36761758  1
  O2-  O125  1  0.34765922  0.24575442  0.61315823  1
  O2-  O126  1  0.40877088  0.24879558  0.90916749  1
  O2-  O127  1  0.38720260  0.75255078  0.12375311  1
  O2-  O128  1  0.36470159  0.74812595  0.38722056  1
  O2-  O129  1  0.35411273  0.74470783  0.57237294  1
  O2-  O130  1  0.36233758  0.74765955  0.89732498  1
  O2-  O131  1  0.66123070  0.26164340  0.13187137  1
  O2-  O132  1  0.66354489  0.25985182  0.37674330  1
  O2-  O133  1  0.66034048  0.25739162  0.62238383  1
  O2-  O134  1  0.60082079  0.28218743  0.88214203  1
  O2-  O135  1  0.58378684  0.74680387  0.11351869  1
  O2-  O136  1  0.69617809  0.76074127  0.35090916  1
  O2-  O137  1  0.59441035  0.76601631  0.62804841  1
  O2-  O138  1  0.56756893  0.74258964  0.86997848  1
  O2-  O139  1  0.85504728  0.25429339  0.12719250  1
  O2-  O140  1  0.84692652  0.25356569  0.38530681  1
  O2-  O141  1  0.85875112  0.25050746  0.63160022  1
  O2-  O142  1  0.82350552  0.25159793  0.87678012  1
  O2-  O143  1  0.90427849  0.75576691  0.11804752  1
  O2-  O144  1  0.86417521  0.75592019  0.41169674  1
  O2-  O145  1  0.88591208  0.75138853  0.62580317  1
  O2-  O146  1  0.90604360  0.76144898  0.88088861  1
  O2-  O147  1  0.14789985  0.12814718  -0.01774396  1
  O2-  O148  1  0.13110023  0.13010715  0.25261609  1
  O2-  O149  1  0.16787338  0.12013200  0.50300462  1
  O2-  O150  1  0.17339438  0.11672053  0.74829431  1
  O2-  O151  1  0.08732574  0.61808123  -0.01122580  1
  O2-  O152  1  0.08050320  0.62162159  0.22869183  1
  O2-  O153  1  0.10016816  0.64313613  0.48975255  1
  O2-  O154  1  0.07773547  0.63240353  0.74031141  1
  O2-  O155  1  0.32581958  0.12379626  -0.00933257  1
  O2-  O156  1  0.32812860  0.13552170  0.25671460  1
  O2-  O157  1  0.35689728  0.13956647  0.49041539  1
  O2-  O158  1  0.37344146  0.15226040  0.75657447  1
  O2-  O159  1  0.42237267  0.62091029  0.02288049  1
  O2-  O160  1  0.42502684  0.63638008  0.24707958  1
  O2-  O161  1  0.45260847  0.62054978  0.48839042  1
  O2-  O162  1  0.39945148  0.63634083  0.69961336  1
  O2-  O163  1  0.64201616  0.15336697  -0.00573963  1
  O2-  O164  1  0.68904559  0.13411637  0.26707901  1
  O2-  O165  1  0.66066178  0.13864144  0.50097507  1
  O2-  O166  1  0.64684600  0.14738262  0.75041933  1
  O2-  O167  1  0.60143512  0.62201974  -0.00549151  1
  O2-  O168  1  0.63212597  0.63132859  0.24726814  1
  O2-  O169  1  0.63512675  0.66037488  0.49223992  1
  O2-  O170  1  0.59215858  0.61997982  0.74209658  1
  O2-  O171  1  0.83836961  0.12718779  -0.00521422  1
  O2-  O172  1  0.89373272  0.14863395  0.26270137  1
  O2-  O173  1  0.84851531  0.13164746  0.51120614  1
  O2-  O174  1  0.84349032  0.13554003  0.75337221  1
  O2-  O175  1  0.88624043  0.61728058  -0.01825751  1
  O2-  O176  1  0.86911636  0.63955160  0.25811398  1
  O2-  O177  1  0.88687666  0.61572126  0.50654108  1
  O2-  O178  1  0.87941133  0.62666936  0.76527543  1
  O2-  O179  1  0.12860050  0.36701028  -0.02005308  1
  O2-  O180  1  0.11434306  0.36711252  0.24598457  1
  O2-  O181  1  0.16546887  0.37612836  0.50318825  1
  O2-  O182  1  0.18035220  0.37203056  0.74136181  1
  O2-  O183  1  0.07115233  0.86757114  -0.00102732  1
  O2-  O184  1  0.06880383  0.86835625  0.22986771  1
  O2-  O185  1  0.10264568  0.84280567  0.49653406  1
  O2-  O186  1  0.07581581  0.86596033  0.74420235  1
  O2-  O187  1  0.32240884  0.38897458  0.01935398  1
  O2-  O188  1  0.33685816  0.37778997  0.25137444  1
  O2-  O189  1  0.35131574  0.36602409  0.49405334  1
  O2-  O190  1  0.36714376  0.34386146  0.74159431  1
  O2-  O191  1  0.39014145  0.87619657  0.00570867  1
  O2-  O192  1  0.38555457  0.87187004  0.25668230  1
  O2-  O193  1  0.44721005  0.88824630  0.48434240  1
  O2-  O194  1  0.36973669  0.85420220  0.74967883  1
  O2-  O195  1  0.66579052  0.38548921  0.00565404  1
  O2-  O196  1  0.67165307  0.38501566  0.25220673  1
  O2-  O197  1  0.66445534  0.37655447  0.49785155  1
  O2-  O198  1  0.66917476  0.37991342  0.74890283  1
  O2-  O199  1  0.57181079  0.87631174  -0.00607276  1
  O2-  O200  1  0.58593907  0.86972541  0.25192174  1
  O2-  O201  1  0.62537358  0.85158940  0.47370029  1
  O2-  O202  1  0.54623797  0.90708648  0.75533384  1
  O2-  O203  1  0.86978205  0.36732125  0.00004907  1
  O2-  O204  1  0.90253170  0.35301486  0.25623024  1
  O2-  O205  1  0.85657458  0.37520626  0.51397812  1
  O2-  O206  1  0.85287405  0.36562324  0.75112247  1
  O2-  O207  1  0.89596203  0.88006285  0.00324261  1
  O2-  O208  1  0.86938564  0.85665673  0.25970052  1
  O2-  O209  1  0.91684338  0.88209437  0.51503659  1
  O2-  O210  1  0.88588754  0.87158639  0.75515514  1
  O2-  O211  1  -0.00617997  0.14282034  -0.11458623  1
  O2-  O212  1  0.01005835  0.15011981  0.38730008  1
  O2-  O213  1  0.00924605  0.15261216  0.56146508  1
  O2-  O214  1  0.01105478  0.11347555  0.71488215  1
  O2-  O215  1  -0.00354495  0.32019902  -0.12176059  1
  O2-  O216  1  0.00991353  0.33654836  0.38774605  1
  O2-  O217  1  0.01142104  0.33665757  0.56635840  1
  O2-  O218  1  0.01954496  0.37520473  0.72029956  1
  O2-  O219  1  0.23010779  -0.10506667  -0.04915097  1
  O2-  O220  1  0.23935184  -0.13941405  0.13991093  1
  O2-  O221  1  0.28144176  -0.11636488  0.47086056  1
  O2-  O222  1  0.22552981  -0.16677927  0.80961305  1
  O2-  O223  1  0.25870950  0.63255772  0.03960684  1
  O2-  O224  1  0.24957030  0.63163032  0.19920387  1
  O2-  O225  1  0.24720400  0.60692202  0.58722349  1
  O2-  O226  1  0.23089063  0.64388533  0.83184982  1
  O2-  O227  1  0.50868687  0.11960386  -0.12391741  1
  O2-  O228  1  0.50973454  0.15143148  0.36332557  1
  O2-  O229  1  0.50736324  0.08122616  0.54951173  1
  O2-  O230  1  0.50745099  0.18392979  0.66637116  1
  O2-  O231  1  0.50103675  0.35776334  0.09221351  1
  O2-  O232  1  0.50560218  0.37587765  0.36439325  1
  O2-  O233  1  0.51047873  0.34059100  0.55054892  1
  O2-  O234  1  0.51262877  0.39024821  0.70031729  1
  O2-  O235  1  0.74194150  -0.16070753  -0.07260958  1
  O2-  O236  1  0.74084362  -0.13021171  0.12648589  1
  O2-  O237  1  0.75093537  -0.12144005  0.59808879  1
  O2-  O238  1  0.70615778  -0.15310030  0.75802359  1
  O2-  O239  1  0.76966878  0.46462023  -0.11972867  1
  O2-  O240  1  0.75062956  0.64180745  0.10716142  1
  O2-  O241  1  0.74559558  0.66166430  0.63270074  1
  O2-  O242  1  0.73266743  0.63538240  0.86519987  1
