# generated using pymatgen
data_Gd19Ta56(WO20)8
_symmetry_space_group_name_H-M   'P 1'
_cell_length_a   15.51429438
_cell_length_b   15.44103800
_cell_length_c   15.22262005
_cell_angle_alpha   90.05995810
_cell_angle_beta   90.15296618
_cell_angle_gamma   90.13220731
_symmetry_Int_Tables_number   1
_chemical_formula_structural   Gd19Ta56(WO20)8
_chemical_formula_sum   'Gd19 Ta56 W8 O160'
_cell_volume   3646.65755933
_cell_formula_units_Z   1
loop_
 _symmetry_equiv_pos_site_id
 _symmetry_equiv_pos_as_xyz
  1  'x, y, z'
loop_
 _atom_type_symbol
 _atom_type_oxidation_number
  Gd3+  3.0
  Ta5+  5.0
  W6+  6.0
  O2-  -2.0
loop_
 _atom_site_type_symbol
 _atom_site_label
 _atom_site_symmetry_multiplicity
 _atom_site_fract_x
 _atom_site_fract_y
 _atom_site_fract_z
 _atom_site_occupancy
  Gd3+  Gd0  1  0.72298166  0.23376946  0.24856695  1
  Gd3+  Gd1  1  0.01649867  0.24576522  0.00381897  1
  Gd3+  Gd2  1  0.75016484  0.75025098  0.23432212  1
  Gd3+  Gd3  1  0.01735199  0.25521299  0.25596096  1
  Gd3+  Gd4  1  -0.01879622  0.75777407  0.73851911  1
  Gd3+  Gd5  1  0.32423763  0.25988674  0.73927730  1
  Gd3+  Gd6  1  0.75746234  0.74609770  0.52668402  1
  Gd3+  Gd7  1  0.75029880  0.25045336  0.00525021  1
  Gd3+  Gd8  1  0.25878424  0.74922581  0.49519408  1
  Gd3+  Gd9  1  -0.00819682  0.25069499  0.74705864  1
  Gd3+  Gd10  1  0.51349173  0.25309393  -0.01889135  1
  Gd3+  Gd11  1  0.20090680  0.22847501  0.50429315  1
  Gd3+  Gd12  1  0.49522137  0.74960676  0.50023458  1
  Gd3+  Gd13  1  0.48244396  0.24628951  0.23853479  1
  Gd3+  Gd14  1  0.73775003  0.23777315  0.52110065  1
  Gd3+  Gd15  1  0.24381325  0.75878576  0.03030640  1
  Gd3+  Gd16  1  0.72402140  0.73306749  0.76635966  1
  Gd3+  Gd17  1  0.26278197  0.76071051  0.74108767  1
  Gd3+  Gd18  1  0.29151974  0.25689984  -0.02561155  1
  Ta5+  Ta19  1  0.12323029  0.63385650  0.36208019  1
  Ta5+  Ta20  1  0.10398233  0.62257808  0.61664994  1
  Ta5+  Ta21  1  0.13531933  0.12310674  0.85750855  1
  Ta5+  Ta22  1  0.86987677  0.38111390  0.13526257  1
  Ta5+  Ta23  1  0.57568353  0.13351701  0.64413562  1
  Ta5+  Ta24  1  0.61477772  0.88848683  0.63483760  1
  Ta5+  Ta25  1  0.06815396  0.87617272  0.11727782  1
  Ta5+  Ta26  1  0.58323646  0.86044486  0.88143199  1
  Ta5+  Ta27  1  0.62489561  0.87210730  0.37339792  1
  Ta5+  Ta28  1  0.89230751  0.62542618  0.92118425  1
  Ta5+  Ta29  1  0.90347905  0.60288155  0.60390324  1
  Ta5+  Ta30  1  0.39049557  0.62384118  0.35225265  1
  Ta5+  Ta31  1  0.92000189  0.95063288  0.58215256  1
  Ta5+  Ta32  1  0.82741105  0.37661991  0.66304931  1
  Ta5+  Ta33  1  0.05295190  0.07636912  0.61600406  1
  Ta5+  Ta34  1  0.59833116  0.10127339  0.11514520  1
  Ta5+  Ta35  1  0.35643581  0.08592624  0.11348021  1
  Ta5+  Ta36  1  0.11959667  0.38722026  0.38635981  1
  Ta5+  Ta37  1  0.60242186  0.11805850  0.38710654  1
  Ta5+  Ta38  1  0.59041168  0.85018831  0.12374024  1
  Ta5+  Ta39  1  0.37231039  0.89396789  0.61854966  1
  Ta5+  Ta40  1  0.86002790  0.61368404  0.36252877  1
  Ta5+  Ta41  1  0.59887112  0.37107506  0.62780292  1
  Ta5+  Ta42  1  0.15533163  0.09879448  0.11739443  1
  Ta5+  Ta43  1  0.91151689  0.62581320  0.13468267  1
  Ta5+  Ta44  1  0.36218884  0.11579941  0.36911455  1
  Ta5+  Ta45  1  0.11452013  0.86749641  0.36245983  1
  Ta5+  Ta46  1  0.59304313  0.65814129  0.12354467  1
  Ta5+  Ta47  1  0.88589744  0.11857695  0.63048571  1
  Ta5+  Ta48  1  0.42407234  0.85695458  0.10897617  1
  Ta5+  Ta49  1  0.87291841  0.37919153  0.40072851  1
  Ta5+  Ta50  1  0.65376075  0.38872938  0.86344516  1
  Ta5+  Ta51  1  0.61684082  0.59203076  0.63199620  1
  Ta5+  Ta52  1  0.39652154  0.63121518  0.86968484  1
  Ta5+  Ta53  1  0.36354894  0.38155236  0.36893460  1
  Ta5+  Ta54  1  0.13909425  0.88133857  0.87428196  1
  Ta5+  Ta55  1  0.39655774  0.59860245  0.61899166  1
  Ta5+  Ta56  1  0.86728134  0.38368221  0.87835202  1
  Ta5+  Ta57  1  0.85507634  0.11965173  0.37662330  1
  Ta5+  Ta58  1  0.87594387  0.87089655  0.37194497  1
  Ta5+  Ta59  1  0.37764762  0.87444473  0.35192368  1
  Ta5+  Ta60  1  0.90117615  0.87129493  0.13625171  1
  Ta5+  Ta61  1  0.64610781  0.10160104  0.86963874  1
  Ta5+  Ta62  1  0.09199204  0.62486029  0.10970384  1
  Ta5+  Ta63  1  0.36037951  0.40914687  0.13470356  1
  Ta5+  Ta64  1  0.41706056  0.86838067  0.87201792  1
  Ta5+  Ta65  1  0.36554549  0.43821086  0.85650797  1
  Ta5+  Ta66  1  0.85381233  0.11438500  0.87619830  1
  Ta5+  Ta67  1  0.37922898  0.09712417  0.85568813  1
  Ta5+  Ta68  1  0.43162953  0.39502417  0.60417385  1
  Ta5+  Ta69  1  0.63274473  0.62391539  0.37270372  1
  Ta5+  Ta70  1  0.11427496  0.88307568  0.61146986  1
  Ta5+  Ta71  1  0.62280817  0.40595627  0.11786183  1
  Ta5+  Ta72  1  0.89786741  0.87032476  0.89834161  1
  Ta5+  Ta73  1  0.42357449  0.64663545  0.10559731  1
  Ta5+  Ta74  1  0.15320678  0.38556413  0.13115356  1
  W6+  W75  1  0.16423389  0.38629105  0.63914931  1
  W6+  W76  1  0.16917068  0.62205053  0.87082921  1
  W6+  W77  1  0.60964239  0.37458667  0.37639475  1
  W6+  W78  1  0.12458442  0.38652302  0.87072271  1
  W6+  W79  1  0.86537106  0.11588113  0.12396134  1
  W6+  W80  1  0.56297275  0.62078560  0.88346194  1
  W6+  W81  1  0.10412970  0.11127498  0.37026956  1
  W6+  W82  1  0.41930877  0.13870668  0.59744891  1
  O2-  O83  1  0.07705828  0.00409225  0.10619780  1
  O2-  O84  1  0.14191455  -0.01573302  0.36368284  1
  O2-  O85  1  0.14985970  -0.00699229  0.65170706  1
  O2-  O86  1  0.16622518  0.00097817  0.86151578  1
  O2-  O87  1  0.10486792  0.49381254  0.12057676  1
  O2-  O88  1  0.13492181  0.50869870  0.37982771  1
  O2-  O89  1  0.15029302  0.51111869  0.62291477  1
  O2-  O90  1  0.11031996  0.50643046  0.86045483  1
  O2-  O91  1  0.41772982  -0.01689417  0.09322071  1
  O2-  O92  1  0.33779295  -0.01038792  0.37536269  1
  O2-  O93  1  0.38552893  0.00525061  0.59047264  1
  O2-  O94  1  0.44364260  -0.00289969  0.87256437  1
  O2-  O95  1  0.40086012  0.51282993  0.09172094  1
  O2-  O96  1  0.34790563  0.50810012  0.36440246  1
  O2-  O97  1  0.34076330  0.49239677  0.58977578  1
  O2-  O98  1  0.29244509  0.53443786  0.88100379  1
  O2-  O99  1  0.60627713  -0.01422649  0.13405047  1
  O2-  O100  1  0.63333202  -0.00634364  0.38037411  1
  O2-  O101  1  0.61468204  0.00819879  0.64291689  1
  O2-  O102  1  0.63368558  -0.01815666  0.86149696  1
  O2-  O103  1  0.60513083  0.52099468  0.12871251  1
  O2-  O104  1  0.63371463  0.50526468  0.36851390  1
  O2-  O105  1  0.66687348  0.47923956  0.62962565  1
  O2-  O106  1  0.63769341  0.50474617  0.88217304  1
  O2-  O107  1  0.88889845  -0.00929759  0.12499604  1
  O2-  O108  1  0.86303757  -0.00028748  0.38205773  1
  O2-  O109  1  0.82347124  0.00694753  0.63452949  1
  O2-  O110  1  0.86751110  -0.01108210  0.88831710  1
  O2-  O111  1  0.88910175  0.49781058  0.12393130  1
  O2-  O112  1  0.82820501  0.48629406  0.37069141  1
  O2-  O113  1  0.85061275  0.50189811  0.64807861  1
  O2-  O114  1  0.90696509  0.49914274  0.90127629  1
  O2-  O115  1  0.09190524  0.27085985  0.12954263  1
  O2-  O116  1  0.10362072  0.25305605  0.37836016  1
  O2-  O117  1  0.21754060  0.26278962  0.64292040  1
  O2-  O118  1  0.07952657  0.24546496  0.86981332  1
  O2-  O119  1  0.09972023  0.75057740  0.10329412  1
  O2-  O120  1  0.17147611  0.75036461  0.35689427  1
  O2-  O121  1  0.08502261  0.75251261  0.61778092  1
  O2-  O122  1  0.20476440  0.76508571  0.88406792  1
  O2-  O123  1  0.43057922  0.30917197  0.10623927  1
  O2-  O124  1  0.38347656  0.24936289  0.35051136  1
  O2-  O125  1  0.40685961  0.27482203  0.61402641  1
  O2-  O126  1  0.42234046  0.21566639  0.86760199  1
  O2-  O127  1  0.35572556  0.74804097  0.13242011  1
  O2-  O128  1  0.34483154  0.74647397  0.35688829  1
  O2-  O129  1  0.33933854  0.71506141  0.62202018  1
  O2-  O130  1  0.39514563  0.74727384  0.82353804  1
  O2-  O131  1  0.64008810  0.23774628  0.10523926  1
  O2-  O132  1  0.58022314  0.24329860  0.36249450  1
  O2-  O133  1  0.63199880  0.24560310  0.64189479  1
  O2-  O134  1  0.64210216  0.25516821  0.89802230  1
  O2-  O135  1  0.67641540  0.75099233  0.09791619  1
  O2-  O136  1  0.68292978  0.75255492  0.38343477  1
  O2-  O137  1  0.72287934  0.83213387  0.64304117  1
  O2-  O138  1  0.62826750  0.73967810  0.88604665  1
  O2-  O139  1  0.82815852  0.24799221  0.13649876  1
  O2-  O140  1  0.82831065  0.26655726  0.36969919  1
  O2-  O141  1  0.84403071  0.25302113  0.65540535  1
  O2-  O142  1  0.86991072  0.25271708  0.87282143  1
  O2-  O143  1  0.88456637  0.74298716  0.16430063  1
  O2-  O144  1  0.85872311  0.74101254  0.36285555  1
  O2-  O145  1  0.87988647  0.72058212  0.63677459  1
  O2-  O146  1  0.95509452  0.73056105  0.88941023  1
  O2-  O147  1  0.12521933  0.13494723  -0.00658405  1
  O2-  O148  1  0.11939233  0.13175335  0.23059438  1
  O2-  O149  1  0.09377439  0.12849757  0.51063252  1
  O2-  O150  1  0.09183109  0.12830573  0.74058475  1
  O2-  O151  1  0.17538008  0.62724416  0.01241121  1
  O2-  O152  1  0.10993213  0.62827437  0.23990652  1
  O2-  O153  1  0.15930004  0.64249350  0.49767905  1
  O2-  O154  1  0.17184752  0.64772237  0.72798794  1
  O2-  O155  1  0.35971243  0.11715991  -0.01342396  1
  O2-  O156  1  0.36098871  0.11693247  0.23999163  1
  O2-  O157  1  0.31940704  0.14631873  0.48360674  1
  O2-  O158  1  0.37173811  0.11634765  0.73089763  1
  O2-  O159  1  0.36081875  0.66306235  -0.01454921  1
  O2-  O160  1  0.40787699  0.61806075  0.23035039  1
  O2-  O161  1  0.38653861  0.63736978  0.48680305  1
  O2-  O162  1  0.37956997  0.59370753  0.74164163  1
  O2-  O163  1  0.57789085  0.11449537  -0.01586779  1
  O2-  O164  1  0.61064200  0.13140731  0.24435907  1
  O2-  O165  1  0.60064318  0.13203763  0.51238594  1
  O2-  O166  1  0.57184587  0.13121322  0.77400359  1
  O2-  O167  1  0.52868008  0.63357476  0.01373090  1
  O2-  O168  1  0.63224750  0.65130558  0.24779596  1
  O2-  O169  1  0.62812339  0.63798203  0.50467518  1
  O2-  O170  1  0.60402374  0.62067061  0.75177731  1
  O2-  O171  1  0.91526952  0.13594744  -0.00896625  1
  O2-  O172  1  0.97120807  0.14437461  0.34620358  1
  O2-  O173  1  0.86102557  0.14951089  0.50266958  1
  O2-  O174  1  0.91532683  0.11898256  0.76490874  1
  O2-  O175  1  0.83049275  0.64076291  0.02408359  1
  O2-  O176  1  0.92685769  0.60208194  0.26061093  1
  O2-  O177  1  0.83809224  0.62062714  0.49433182  1
  O2-  O178  1  0.81017208  0.63932637  0.83434567  1
  O2-  O179  1  0.10990069  0.36574309  -0.00013160  1
  O2-  O180  1  0.10352812  0.37547337  0.25753234  1
  O2-  O181  1  0.13784606  0.36627716  0.51141409  1
  O2-  O182  1  0.10135592  0.35282819  0.74330954  1
  O2-  O183  1  0.14446380  0.87713973  0.00093220  1
  O2-  O184  1  0.09643518  0.86727275  0.23660786  1
  O2-  O185  1  0.15257268  0.85446155  0.48958020  1
  O2-  O186  1  0.13678798  0.84479335  0.74955809  1
  O2-  O187  1  0.40166041  0.36364445  -0.05360899  1
  O2-  O188  1  0.41724601  0.38790354  0.25337065  1
  O2-  O189  1  0.43038871  0.38577511  0.47099424  1
  O2-  O190  1  0.39438196  0.39696356  0.74168385  1
  O2-  O191  1  0.36974404  0.84842989  -0.01501571  1
  O2-  O192  1  0.38431275  0.88100606  0.23181620  1
  O2-  O193  1  0.37487160  0.84597041  0.49187290  1
  O2-  O194  1  0.36707185  0.89013022  0.74461298  1
  O2-  O195  1  0.58922685  0.38051958  -0.00161478  1
  O2-  O196  1  0.59201304  0.35666365  0.22955130  1
  O2-  O197  1  0.64055994  0.35053542  0.50612713  1
  O2-  O198  1  0.58808476  0.37233346  0.76007304  1
  O2-  O199  1  0.59189273  0.87991494  0.00190957  1
  O2-  O200  1  0.63697957  0.85253515  0.25020922  1
  O2-  O201  1  0.62085207  0.84700954  0.50811453  1
  O2-  O202  1  0.59648139  0.84182882  0.74855996  1
  O2-  O203  1  0.90838539  0.35102993  0.01450307  1
  O2-  O204  1  0.90915763  0.36377682  0.25300308  1
  O2-  O205  1  0.83416213  0.36630403  0.52300854  1
  O2-  O206  1  0.91945471  0.38102734  0.75739159  1
  O2-  O207  1  0.87000222  0.84170404  0.01321696  1
  O2-  O208  1  0.82872284  0.87943916  0.25555663  1
  O2-  O209  1  0.84461065  0.86663257  0.49764846  1
  O2-  O210  1  0.83814545  0.82525709  0.80195429  1
  O2-  O211  1  0.01622975  -0.11044540  -0.13191404  1
  O2-  O212  1  -0.00388136  -0.14555190  0.38567219  1
  O2-  O213  1  0.03762870  -0.03362311  0.53283031  1
  O2-  O214  1  -0.00966289  -0.11399243  0.66867638  1
  O2-  O215  1  -0.00642241  0.61741993  0.02943772  1
  O2-  O216  1  -0.00776267  0.39113210  0.40884216  1
  O2-  O217  1  0.00397949  0.58164886  0.53759767  1
  O2-  O218  1  -0.00097165  0.61697391  0.69812902  1
  O2-  O219  1  0.25965275  0.18286081  0.10289702  1
  O2-  O220  1  0.24966274  0.01973911  0.12729220  1
  O2-  O221  1  0.25014297  -0.14566061  0.61825281  1
  O2-  O222  1  0.25315338  0.16227501  0.85141921  1
  O2-  O223  1  0.26328942  0.37313389  0.05734519  1
  O2-  O224  1  0.25698585  0.41686822  0.20725055  1
  O2-  O225  1  0.24660093  0.35565632  0.38611906  1
  O2-  O226  1  0.25922246  0.34959330  0.85146940  1
  O2-  O227  1  0.47945155  0.14722137  0.12145984  1
  O2-  O228  1  0.50110392  -0.13978695  0.37218514  1
  O2-  O229  1  0.47923818  0.09302912  0.38072796  1
  O2-  O230  1  0.49217005  -0.14699004  0.61402699  1
  O2-  O231  1  0.46394396  0.51496657  -0.12259449  1
  O2-  O232  1  0.51016839  0.66130042  0.37213514  1
  O2-  O233  1  0.50523408  0.50478350  0.61697192  1
  O2-  O234  1  0.50822723  0.66568889  0.61736424  1
  O2-  O235  1  0.74846905  0.11310360  -0.03791685  1
  O2-  O236  1  0.81272858  0.12147260  0.25264640  1
  O2-  O237  1  0.72564389  0.14648436  0.39620881  1
  O2-  O238  1  0.74916056  0.12048666  0.80097032  1
  O2-  O239  1  0.75946613  0.38500069  -0.05523355  1
  O2-  O240  1  0.74357933  0.39353514  0.12841652  1
  O2-  O241  1  0.72617932  0.65097313  0.64048815  1
  O2-  O242  1  0.76390888  0.38541605  0.78286752  1
