# generated using pymatgen
data_Gd19Ta56(WO20)8
_symmetry_space_group_name_H-M   'P 1'
_cell_length_a   15.54560936
_cell_length_b   15.59175171
_cell_length_c   15.22488211
_cell_angle_alpha   89.97762184
_cell_angle_beta   89.99690258
_cell_angle_gamma   89.90622822
_symmetry_Int_Tables_number   1
_chemical_formula_structural   Gd19Ta56(WO20)8
_chemical_formula_sum   'Gd19 Ta56 W8 O160'
_cell_volume   3690.25165524
_cell_formula_units_Z   1
loop_
 _symmetry_equiv_pos_site_id
 _symmetry_equiv_pos_as_xyz
  1  'x, y, z'
loop_
 _atom_type_symbol
 _atom_type_oxidation_number
  Gd3+  3.0
  Ta5+  5.0
  W6+  6.0
  O2-  -2.0
loop_
 _atom_site_type_symbol
 _atom_site_label
 _atom_site_symmetry_multiplicity
 _atom_site_fract_x
 _atom_site_fract_y
 _atom_site_fract_z
 _atom_site_occupancy
  Gd3+  Gd0  1  0.23149343  0.26460375  0.24003933  1
  Gd3+  Gd1  1  0.01046516  0.75788177  0.72410213  1
  Gd3+  Gd2  1  0.71387768  0.75920421  0.76805203  1
  Gd3+  Gd3  1  0.74159584  0.74833091  0.23876343  1
  Gd3+  Gd4  1  0.75633124  0.25232482  0.49328287  1
  Gd3+  Gd5  1  0.25788385  0.24914878  0.78579612  1
  Gd3+  Gd6  1  -0.00666485  0.76213676  0.50034566  1
  Gd3+  Gd7  1  0.05444809  0.24393789  0.48103672  1
  Gd3+  Gd8  1  0.00750266  0.24138538  -0.01183691  1
  Gd3+  Gd9  1  0.49869153  0.74116938  0.50327034  1
  Gd3+  Gd10  1  0.01352819  0.76450564  -0.01743123  1
  Gd3+  Gd11  1  0.21909037  0.74937579  0.21515090  1
  Gd3+  Gd12  1  0.75946844  0.25061303  0.00667812  1
  Gd3+  Gd13  1  0.48880155  0.74346312  0.26705972  1
  Gd3+  Gd14  1  0.73811375  0.24337173  0.24293441  1
  Gd3+  Gd15  1  0.75307281  0.25783081  0.75055622  1
  Gd3+  Gd16  1  0.27398656  0.75504147  0.76610168  1
  Gd3+  Gd17  1  0.48219631  0.22362454  0.27409808  1
  Gd3+  Gd18  1  -0.00598764  0.74936591  0.24764034  1
  Ta5+  Ta19  1  0.09810160  0.62605085  0.85452524  1
  Ta5+  Ta20  1  0.56420783  0.85919215  0.88908965  1
  Ta5+  Ta21  1  0.87766472  0.87948802  0.86754520  1
  Ta5+  Ta22  1  0.11549448  0.61511266  0.11037651  1
  Ta5+  Ta23  1  0.62839065  0.61612438  0.12452004  1
  Ta5+  Ta24  1  0.56678732  0.63597710  0.88298171  1
  Ta5+  Ta25  1  0.61510861  0.37849734  0.61935311  1
  Ta5+  Ta26  1  0.39533889  0.37813196  0.89804121  1
  Ta5+  Ta27  1  0.11829914  0.37821888  0.10025530  1
  Ta5+  Ta28  1  0.88194736  0.38091589  0.12398260  1
  Ta5+  Ta29  1  0.88078108  0.12569646  0.35859115  1
  Ta5+  Ta30  1  0.62795424  0.87774432  0.37705277  1
  Ta5+  Ta31  1  0.58773416  0.87999576  0.63648033  1
  Ta5+  Ta32  1  0.37658951  0.37044906  0.40511948  1
  Ta5+  Ta33  1  0.37144577  0.11619422  0.40271985  1
  Ta5+  Ta34  1  0.09468276  0.10893127  0.64576693  1
  Ta5+  Ta35  1  0.64536634  0.88234204  0.11521224  1
  Ta5+  Ta36  1  0.34847535  0.61240146  0.39563124  1
  Ta5+  Ta37  1  0.41860642  0.37182902  0.14772586  1
  Ta5+  Ta38  1  0.63002701  0.62556231  0.64106656  1
  Ta5+  Ta39  1  0.39943569  0.86306769  0.90706555  1
  Ta5+  Ta40  1  0.86683657  0.61481111  0.38215472  1
  Ta5+  Ta41  1  0.14064145  0.87988013  0.37805952  1
  Ta5+  Ta42  1  0.39506467  0.11419192  0.89716375  1
  Ta5+  Ta43  1  0.11936515  0.89647940  0.85315359  1
  Ta5+  Ta44  1  0.62023143  0.11868686  0.37482913  1
  Ta5+  Ta45  1  0.60188537  0.10132647  0.88121746  1
  Ta5+  Ta46  1  0.38654447  0.61833050  0.64429822  1
  Ta5+  Ta47  1  0.88944219  0.37698443  0.61829654  1
  Ta5+  Ta48  1  0.85165960  0.89020427  0.11849737  1
  Ta5+  Ta49  1  0.35281392  0.87556829  0.39885574  1
  Ta5+  Ta50  1  0.35617190  0.12378728  0.13412696  1
  Ta5+  Ta51  1  0.90637951  0.12761851  0.14086399  1
  Ta5+  Ta52  1  0.91540165  0.37310561  0.36062660  1
  Ta5+  Ta53  1  0.62128102  0.39465490  0.88096326  1
  Ta5+  Ta54  1  0.15734494  0.61813711  0.60205487  1
  Ta5+  Ta55  1  0.07465967  0.12170665  0.13555613  1
  Ta5+  Ta56  1  0.88408305  0.11928165  0.87395571  1
  Ta5+  Ta57  1  0.11491107  0.38955487  0.86627391  1
  Ta5+  Ta58  1  0.65962738  0.62085404  0.40476851  1
  Ta5+  Ta59  1  0.92528252  0.62220420  0.85887419  1
  Ta5+  Ta60  1  0.41451424  0.87548001  0.64953221  1
  Ta5+  Ta61  1  0.10053607  0.11868371  0.32765155  1
  Ta5+  Ta62  1  0.60779650  0.38395258  0.36445303  1
  Ta5+  Ta63  1  0.37587679  0.36899474  0.64255622  1
  Ta5+  Ta64  1  0.89190061  0.11816107  0.62395142  1
  Ta5+  Ta65  1  0.90783028  0.38743184  0.86727001  1
  Ta5+  Ta66  1  0.40107945  0.62881676  0.90151211  1
  Ta5+  Ta67  1  0.86297611  0.88281537  0.36542294  1
  Ta5+  Ta68  1  0.13024307  0.11396733  0.88728769  1
  Ta5+  Ta69  1  0.36505157  0.60857198  0.15008454  1
  Ta5+  Ta70  1  0.59120198  0.37476466  0.13419417  1
  Ta5+  Ta71  1  0.14020294  0.62524537  0.38525363  1
  Ta5+  Ta72  1  0.87583174  0.62145701  0.11720512  1
  Ta5+  Ta73  1  0.59296389  0.12459232  0.09525503  1
  Ta5+  Ta74  1  0.16978275  0.88071359  0.59562321  1
  W6+  W75  1  0.36339918  0.87769039  0.15566626  1
  W6+  W76  1  0.84318573  0.88285893  0.62167177  1
  W6+  W77  1  0.11435413  0.89193658  0.11594607  1
  W6+  W78  1  0.14425087  0.36835409  0.61341645  1
  W6+  W79  1  0.85390795  0.62501013  0.61126553  1
  W6+  W80  1  0.35252242  0.11547858  0.65257392  1
  W6+  W81  1  0.08144948  0.38583345  0.34481368  1
  W6+  W82  1  0.63916187  0.12098240  0.63252400  1
  O2-  O83  1  0.06074035  0.00159289  0.14451615  1
  O2-  O84  1  0.11785604  -0.00813779  0.34691717  1
  O2-  O85  1  0.15220836  0.00912717  0.60490050  1
  O2-  O86  1  0.18064160  0.00146948  0.87109661  1
  O2-  O87  1  0.08175139  0.50183729  0.10598612  1
  O2-  O88  1  0.09803020  0.51943756  0.36357431  1
  O2-  O89  1  0.16444613  0.50277871  0.61391025  1
  O2-  O90  1  0.13632127  0.50666964  0.85876695  1
  O2-  O91  1  0.34441379  0.00906276  0.15651049  1
  O2-  O92  1  0.34395611  -0.00286533  0.38714048  1
  O2-  O93  1  0.39117906  -0.00897830  0.65240536  1
  O2-  O94  1  0.40363694  -0.00479233  0.89934662  1
  O2-  O95  1  0.37826077  0.48896884  0.16101725  1
  O2-  O96  1  0.34125509  0.49293244  0.39218612  1
  O2-  O97  1  0.38370342  0.49646489  0.64063529  1
  O2-  O98  1  0.38383889  0.49934542  0.89696047  1
  O2-  O99  1  0.62109598  0.01024558  0.11914073  1
  O2-  O100  1  0.64637490  -0.00441791  0.36520843  1
  O2-  O101  1  0.61103413  -0.00490152  0.64507909  1
  O2-  O102  1  0.59592287  -0.01530627  0.87759018  1
  O2-  O103  1  0.59653616  0.50088931  0.14287029  1
  O2-  O104  1  0.62467625  0.51122157  0.37134364  1
  O2-  O105  1  0.62189492  0.49762211  0.62698952  1
  O2-  O106  1  0.61237766  0.51259050  0.87217961  1
  O2-  O107  1  0.87949978  0.00591866  0.12245886  1
  O2-  O108  1  0.85485535  0.00028647  0.36549106  1
  O2-  O109  1  0.82922449  0.01911650  0.61492561  1
  O2-  O110  1  0.85036393  0.00335072  0.88254203  1
  O2-  O111  1  0.89545650  0.50287125  0.10793202  1
  O2-  O112  1  0.89113105  0.49844225  0.37929427  1
  O2-  O113  1  0.85129204  0.48763110  0.60791161  1
  O2-  O114  1  0.87947257  0.50380333  0.87758360  1
  O2-  O115  1  0.13396195  0.25140282  0.11763706  1
  O2-  O116  1  0.09247048  0.24988588  0.32253441  1
  O2-  O117  1  0.12696970  0.22520598  0.61109598  1
  O2-  O118  1  0.12226254  0.24787590  0.88761772  1
  O2-  O119  1  0.08140894  0.74755442  0.11367556  1
  O2-  O120  1  0.09253826  0.74783190  0.38239372  1
  O2-  O121  1  0.11511164  0.76518544  0.60139494  1
  O2-  O122  1  0.10670480  0.76138078  0.85025137  1
  O2-  O123  1  0.35973848  0.25540590  0.14463602  1
  O2-  O124  1  0.40420970  0.24647022  0.40531089  1
  O2-  O125  1  0.33185821  0.25240751  0.65678197  1
  O2-  O126  1  0.35562461  0.25629183  0.89668350  1
  O2-  O127  1  0.36910951  0.73770403  0.17671341  1
  O2-  O128  1  0.39666314  0.74249257  0.39249268  1
  O2-  O129  1  0.43295194  0.73850419  0.63692628  1
  O2-  O130  1  0.34424697  0.74159581  0.90079335  1
  O2-  O131  1  0.64264713  0.24485637  0.11315211  1
  O2-  O132  1  0.60437647  0.25490105  0.36959631  1
  O2-  O133  1  0.67550087  0.26192316  0.62016184  1
  O2-  O134  1  0.71834638  0.31535994  0.88250705  1
  O2-  O135  1  0.65391884  0.75471744  0.12337505  1
  O2-  O136  1  0.60525800  0.73728560  0.38601630  1
  O2-  O137  1  0.63289762  0.75360666  0.62361172  1
  O2-  O138  1  0.62684336  0.74732122  0.89256677  1
  O2-  O139  1  0.84385972  0.25104805  0.13772796  1
  O2-  O140  1  0.88120228  0.25168277  0.34508915  1
  O2-  O141  1  0.85021563  0.24349075  0.62147615  1
  O2-  O142  1  0.89869469  0.25558586  0.87791875  1
  O2-  O143  1  0.85970665  0.75470474  0.14292642  1
  O2-  O144  1  0.89581518  0.74622634  0.36468475  1
  O2-  O145  1  0.89965724  0.75639477  0.62241561  1
  O2-  O146  1  0.91455071  0.75358434  0.85525542  1
  O2-  O147  1  0.11299728  0.11740172  0.01167853  1
  O2-  O148  1  0.17858678  0.12223189  0.23009918  1
  O2-  O149  1  0.14002299  0.13653773  0.44104828  1
  O2-  O150  1  0.14890406  0.13330412  0.75613327  1
  O2-  O151  1  0.10991517  0.63575572  -0.01334265  1
  O2-  O152  1  0.10468029  0.64561943  0.24228435  1
  O2-  O153  1  0.08111582  0.63168737  0.50376493  1
  O2-  O154  1  0.10514259  0.63762798  0.71677193  1
  O2-  O155  1  0.33558099  0.12455633  0.01185517  1
  O2-  O156  1  0.34757029  0.14816748  0.27564686  1
  O2-  O157  1  0.33558793  0.12303501  0.51727226  1
  O2-  O158  1  0.32752085  0.11647576  0.79313509  1
  O2-  O159  1  0.40106141  0.62315133  0.03587693  1
  O2-  O160  1  0.41599649  0.61227720  0.28156231  1
  O2-  O161  1  0.40769778  0.62067405  0.50973715  1
  O2-  O162  1  0.37945526  0.63463586  0.76976071  1
  O2-  O163  1  0.67837529  0.12947091  -0.01834008  1
  O2-  O164  1  0.62242025  0.14234130  0.24504583  1
  O2-  O165  1  0.65801416  0.13494142  0.49260128  1
  O2-  O166  1  0.66304009  0.14065981  0.78055568  1
  O2-  O167  1  0.57900278  0.62934387  0.01425660  1
  O2-  O168  1  0.60325351  0.64849638  0.24487190  1
  O2-  O169  1  0.59150182  0.62326384  0.51410131  1
  O2-  O170  1  0.57445389  0.64105754  0.74969867  1
  O2-  O171  1  0.87555384  0.14704448  0.00496327  1
  O2-  O172  1  0.81556018  0.12020472  0.24741458  1
  O2-  O173  1  0.84942278  0.13919751  0.48136645  1
  O2-  O174  1  0.84723759  0.14044429  0.75422900  1
  O2-  O175  1  0.91348797  0.64670506  0.00030222  1
  O2-  O176  1  0.91120802  0.62315871  0.24399858  1
  O2-  O177  1  0.92315901  0.63240498  0.49185139  1
  O2-  O178  1  0.92184756  0.62526107  0.73202195  1
  O2-  O179  1  0.17474828  0.38552795  -0.01113680  1
  O2-  O180  1  0.16444677  0.39250345  0.21569894  1
  O2-  O181  1  0.12201235  0.36814061  0.47755715  1
  O2-  O182  1  0.17034692  0.36092398  0.75606534  1
  O2-  O183  1  0.09831687  0.88574670  -0.02038631  1
  O2-  O184  1  0.10641264  0.84874249  0.25300170  1
  O2-  O185  1  0.07811537  0.88542934  0.48999785  1
  O2-  O186  1  0.13606748  0.88199419  0.72473075  1
  O2-  O187  1  0.41610138  0.37460915  0.02304799  1
  O2-  O188  1  0.34623307  0.35248410  0.28257832  1
  O2-  O189  1  0.32895811  0.36852594  0.52255823  1
  O2-  O190  1  0.35588176  0.37496816  0.76755275  1
  O2-  O191  1  0.39067840  0.86137494  0.02879946  1
  O2-  O192  1  0.42089090  0.87638685  0.29083913  1
  O2-  O193  1  0.41126513  0.86761733  0.50954951  1
  O2-  O194  1  0.38314351  0.85118101  0.77266593  1
  O2-  O195  1  0.61689693  0.38082364  0.00623228  1
  O2-  O196  1  0.67093973  0.37571066  0.25378449  1
  O2-  O197  1  0.65451750  0.37450061  0.49132654  1
  O2-  O198  1  0.64055281  0.36912253  0.74383394  1
  O2-  O199  1  0.57088065  0.87030454  0.01948041  1
  O2-  O200  1  0.59757533  0.85591326  0.25211465  1
  O2-  O201  1  0.59201587  0.87360337  0.49615145  1
  O2-  O202  1  0.60042351  0.85275337  0.76229146  1
  O2-  O203  1  0.84768253  0.36902873  -0.00186986  1
  O2-  O204  1  0.85776881  0.38837975  0.24784760  1
  O2-  O205  1  0.87449888  0.35115274  0.48925494  1
  O2-  O206  1  0.85055577  0.36877972  0.74611279  1
  O2-  O207  1  0.90350163  0.86435633  -0.00091247  1
  O2-  O208  1  0.91694188  0.87747347  0.24893649  1
  O2-  O209  1  0.89354267  0.87482901  0.48553014  1
  O2-  O210  1  0.99314384  0.89829930  0.82674710  1
  O2-  O211  1  0.00510554  0.11217083  -0.12159632  1
  O2-  O212  1  -0.01871388  0.11952270  0.26243356  1
  O2-  O213  1  -0.00200653  0.12895541  0.55496112  1
  O2-  O214  1  -0.01172433  0.07539405  0.70127229  1
  O2-  O215  1  0.01189238  0.38109415  -0.04661710  1
  O2-  O216  1  -0.00279335  0.34335991  0.12020045  1
  O2-  O217  1  0.00574074  0.36719845  0.61620057  1
  O2-  O218  1  0.00785154  0.39530372  0.79552808  1
  O2-  O219  1  0.23920966  -0.14726943  0.11375191  1
  O2-  O220  1  0.25345665  -0.16466497  0.32790435  1
  O2-  O221  1  0.23529068  -0.11446935  0.47486579  1
  O2-  O222  1  0.27804096  -0.15701168  0.63737992  1
  O2-  O223  1  0.24236832  0.61599752  0.13034531  1
  O2-  O224  1  0.25059872  0.64837057  0.32061522  1
  O2-  O225  1  0.23573092  0.61813331  0.47476507  1
  O2-  O226  1  0.26852347  0.66227907  0.64243383  1
  O2-  O227  1  0.51819899  0.12323586  -0.01025252  1
  O2-  O228  1  0.48082878  0.13172556  0.15342639  1
  O2-  O229  1  0.49639274  0.10430478  0.37825750  1
  O2-  O230  1  0.49655895  0.14739062  0.83029407  1
  O2-  O231  1  0.50976168  0.35050944  -0.13878956  1
  O2-  O232  1  0.51283709  0.36676006  0.24923222  1
  O2-  O233  1  0.49280052  0.39922493  0.41924627  1
  O2-  O234  1  0.49633839  0.35207818  0.62086550  1
  O2-  O235  1  0.74679501  -0.10723547  0.04420637  1
  O2-  O236  1  0.75479384  -0.10868762  0.20553276  1
  O2-  O237  1  0.74658391  -0.16308685  0.37341318  1
  O2-  O238  1  0.80972441  -0.12984333  0.76121648  1
  O2-  O239  1  0.75233034  0.61136282  0.12059899  1
  O2-  O240  1  0.75598497  0.62771934  0.31699889  1
  O2-  O241  1  0.76266587  0.61824977  0.47747015  1
  O2-  O242  1  0.74165047  0.63104471  0.69334029  1
