# generated using pymatgen
data_Gd19Ta56(WO20)8
_symmetry_space_group_name_H-M   'P 1'
_cell_length_a   15.53128709
_cell_length_b   15.51770266
_cell_length_c   15.22134243
_cell_angle_alpha   89.90968147
_cell_angle_beta   89.91289733
_cell_angle_gamma   90.04725208
_symmetry_Int_Tables_number   1
_chemical_formula_structural   Gd19Ta56(WO20)8
_chemical_formula_sum   'Gd19 Ta56 W8 O160'
_cell_volume   3668.48408914
_cell_formula_units_Z   1
loop_
 _symmetry_equiv_pos_site_id
 _symmetry_equiv_pos_as_xyz
  1  'x, y, z'
loop_
 _atom_type_symbol
 _atom_type_oxidation_number
  Gd3+  3.0
  Ta5+  5.0
  W6+  6.0
  O2-  -2.0
loop_
 _atom_site_type_symbol
 _atom_site_label
 _atom_site_symmetry_multiplicity
 _atom_site_fract_x
 _atom_site_fract_y
 _atom_site_fract_z
 _atom_site_occupancy
  Gd3+  Gd0  1  0.00354474  0.75976378  0.50264903  1
  Gd3+  Gd1  1  0.26980952  0.70670906  0.74058043  1
  Gd3+  Gd2  1  0.48560777  0.24475638  0.48302522  1
  Gd3+  Gd3  1  0.75957948  0.24472621  0.51788629  1
  Gd3+  Gd4  1  0.76492207  0.78771685  0.48175977  1
  Gd3+  Gd5  1  0.19062546  0.24385112  0.26332867  1
  Gd3+  Gd6  1  0.49538034  0.73769470  0.49274637  1
  Gd3+  Gd7  1  0.73053619  0.25379405  0.76772293  1
  Gd3+  Gd8  1  0.51072224  0.74755463  0.23019852  1
  Gd3+  Gd9  1  -0.01054488  0.24948129  -0.00326955  1
  Gd3+  Gd10  1  0.25049804  0.25405649  -0.00219759  1
  Gd3+  Gd11  1  -0.00924374  0.74931445  0.02304482  1
  Gd3+  Gd12  1  0.01896449  0.24734140  0.75700669  1
  Gd3+  Gd13  1  0.74778947  0.74048003  0.24198811  1
  Gd3+  Gd14  1  0.52064073  0.74786519  -0.01084185  1
  Gd3+  Gd15  1  0.53076804  0.25036327  0.22951504  1
  Gd3+  Gd16  1  0.50661437  0.74537352  0.75336624  1
  Gd3+  Gd17  1  0.00164609  0.75469902  0.75511773  1
  Gd3+  Gd18  1  0.74920246  0.73065040  0.01442097  1
  Ta5+  Ta19  1  0.67830225  0.62599993  0.84618185  1
  Ta5+  Ta20  1  0.62383099  0.61399122  0.36907809  1
  Ta5+  Ta21  1  0.14781785  0.65183280  0.16770731  1
  Ta5+  Ta22  1  0.37354271  0.88191540  0.11404080  1
  Ta5+  Ta23  1  0.84433749  0.13946829  0.11284130  1
  Ta5+  Ta24  1  0.61186495  0.12416151  0.62988181  1
  Ta5+  Ta25  1  0.37959143  0.60882560  0.88826342  1
  Ta5+  Ta26  1  0.39098198  0.12901188  0.88029584  1
  Ta5+  Ta27  1  0.14595117  0.87904325  0.62471941  1
  Ta5+  Ta28  1  0.82700742  0.88147941  0.89991880  1
  Ta5+  Ta29  1  0.11717105  0.37975217  0.63506870  1
  Ta5+  Ta30  1  0.37751366  0.37580295  0.62449182  1
  Ta5+  Ta31  1  0.85001624  0.63090955  0.63409010  1
  Ta5+  Ta32  1  0.62560181  0.59946180  0.11141864  1
  Ta5+  Ta33  1  0.41441452  0.37499426  0.88451434  1
  Ta5+  Ta34  1  0.67936515  0.14330677  0.10662065  1
  Ta5+  Ta35  1  0.08998005  0.38629045  0.43690549  1
  Ta5+  Ta36  1  0.37509561  0.88173630  0.86559824  1
  Ta5+  Ta37  1  0.87450420  0.60005684  0.12185128  1
  Ta5+  Ta38  1  0.64830879  0.88757174  0.86048701  1
  Ta5+  Ta39  1  0.38565447  0.38360393  0.34485451  1
  Ta5+  Ta40  1  0.59612307  0.88997586  0.35727726  1
  Ta5+  Ta41  1  0.07591789  0.06150206  0.37888127  1
  Ta5+  Ta42  1  0.13801069  0.63785911  0.90510630  1
  Ta5+  Ta43  1  0.67930223  0.36164284  0.10477330  1
  Ta5+  Ta44  1  0.65158707  0.37115356  0.36336420  1
  Ta5+  Ta45  1  0.90650719  0.89454052  0.35053749  1
  Ta5+  Ta46  1  0.42749420  0.88597445  0.36443259  1
  Ta5+  Ta47  1  0.89683684  0.38525735  0.61559520  1
  Ta5+  Ta48  1  0.13441684  0.87059878  0.88856942  1
  Ta5+  Ta49  1  0.87276689  0.62310291  0.37135102  1
  Ta5+  Ta50  1  0.86692439  0.89498162  0.11713618  1
  Ta5+  Ta51  1  0.62380561  0.38526006  0.62348865  1
  Ta5+  Ta52  1  0.84476318  0.62538188  0.86993830  1
  Ta5+  Ta53  1  0.83973569  0.11927406  0.36554443  1
  Ta5+  Ta54  1  0.64872034  0.13070704  0.36471879  1
  Ta5+  Ta55  1  0.64041115  0.62786470  0.62715761  1
  Ta5+  Ta56  1  0.13905047  0.86489395  0.15597776  1
  Ta5+  Ta57  1  0.84867465  0.35773279  0.11671854  1
  Ta5+  Ta58  1  0.09630193  0.41816443  0.11960431  1
  Ta5+  Ta59  1  0.83929441  0.87949359  0.68724006  1
  Ta5+  Ta60  1  0.37307832  0.12757895  0.14270513  1
  Ta5+  Ta61  1  0.17785659  0.86895619  0.40945381  1
  Ta5+  Ta62  1  0.13460491  0.61625739  0.40050624  1
  Ta5+  Ta63  1  0.36874830  0.38282967  0.14451486  1
  Ta5+  Ta64  1  0.85798002  0.37440729  0.36909428  1
  Ta5+  Ta65  1  0.35435059  0.87579972  0.60642645  1
  Ta5+  Ta66  1  0.36476688  0.12507970  0.62459882  1
  Ta5+  Ta67  1  0.87022730  0.11923186  0.85514072  1
  Ta5+  Ta68  1  0.65115743  0.89795045  0.11074100  1
  Ta5+  Ta69  1  0.87537810  0.38220394  0.86359356  1
  Ta5+  Ta70  1  0.59138439  0.12895508  0.88107192  1
  Ta5+  Ta71  1  0.13572872  0.11705456  0.88259082  1
  Ta5+  Ta72  1  0.38737530  0.11732111  0.34853280  1
  Ta5+  Ta73  1  0.33119717  0.61069834  0.54973871  1
  Ta5+  Ta74  1  0.87865797  0.11679120  0.63971876  1
  W6+  W75  1  0.09725408  0.10402167  0.12851070  1
  W6+  W76  1  0.13146336  0.38766331  0.88332980  1
  W6+  W77  1  0.61196011  0.38927285  0.87818535  1
  W6+  W78  1  0.12333917  0.12627930  0.61914644  1
  W6+  W79  1  0.60976795  0.88261933  0.61608455  1
  W6+  W80  1  0.09373171  0.61674482  0.64044259  1
  W6+  W81  1  0.36929261  0.62685230  0.11441304  1
  W6+  W82  1  0.35361598  0.63082147  0.33848694  1
  O2-  O83  1  0.08935446  -0.02845023  0.15276358  1
  O2-  O84  1  0.18348066  -0.01315305  0.38285902  1
  O2-  O85  1  0.15157951  -0.00491431  0.63857065  1
  O2-  O86  1  0.13507305  -0.00924233  0.88337459  1
  O2-  O87  1  0.12107934  0.53532548  0.14265397  1
  O2-  O88  1  0.12912286  0.48933335  0.38195628  1
  O2-  O89  1  0.08350614  0.48933090  0.67210032  1
  O2-  O90  1  0.12335776  0.52208994  0.90161345  1
  O2-  O91  1  0.36008738  0.00168094  0.12475480  1
  O2-  O92  1  0.37643763  -0.00290815  0.36218248  1
  O2-  O93  1  0.35657924  -0.00267929  0.61532647  1
  O2-  O94  1  0.37116736  0.00176152  0.85944819  1
  O2-  O95  1  0.33686448  0.49723538  0.13725429  1
  O2-  O96  1  0.34601077  0.49480081  0.34673417  1
  O2-  O97  1  0.35571004  0.49838747  0.59202475  1
  O2-  O98  1  0.35933717  0.48995398  0.88627614  1
  O2-  O99  1  0.65963208  0.01600285  0.11192021  1
  O2-  O100  1  0.62764769  0.01122997  0.36580781  1
  O2-  O101  1  0.64256368  0.01221486  0.61117318  1
  O2-  O102  1  0.62859627  0.00653397  0.86874664  1
  O2-  O103  1  0.64060656  0.48326596  0.11366869  1
  O2-  O104  1  0.62437854  0.49316378  0.37330440  1
  O2-  O105  1  0.63432576  0.50543361  0.60733907  1
  O2-  O106  1  0.64562429  0.51359678  0.86834539  1
  O2-  O107  1  0.86364845  0.01332806  0.11125509  1
  O2-  O108  1  0.83105014  -0.01413904  0.35831724  1
  O2-  O109  1  0.87701615  -0.01525701  0.64454964  1
  O2-  O110  1  0.84139452  0.00393719  0.88280381  1
  O2-  O111  1  0.84360242  0.48590289  0.11290149  1
  O2-  O112  1  0.86818226  0.50504125  0.38153594  1
  O2-  O113  1  0.87483210  0.51574070  0.61213544  1
  O2-  O114  1  0.85343414  0.49976657  0.87432319  1
  O2-  O115  1  0.17251256  0.21257576  0.11525847  1
  O2-  O116  1  0.14616429  0.29155067  0.39514987  1
  O2-  O117  1  0.08208756  0.25674330  0.62259320  1
  O2-  O118  1  0.11896338  0.24877641  0.90250027  1
  O2-  O119  1  0.07006244  0.75865722  0.15412119  1
  O2-  O120  1  0.13183007  0.74587804  0.41835228  1
  O2-  O121  1  0.08335197  0.75864644  0.62482104  1
  O2-  O122  1  0.06147008  0.75241678  0.89244502  1
  O2-  O123  1  0.40402855  0.25068645  0.14893520  1
  O2-  O124  1  0.41982201  0.24706984  0.34651445  1
  O2-  O125  1  0.35660117  0.25404614  0.60109296  1
  O2-  O126  1  0.36753340  0.25842896  0.88589160  1
  O2-  O127  1  0.42633116  0.75867393  0.10444347  1
  O2-  O128  1  0.41230117  0.75636292  0.36191390  1
  O2-  O129  1  0.37500508  0.72541085  0.59536961  1
  O2-  O130  1  0.41799224  0.75265711  0.88092179  1
  O2-  O131  1  0.61168196  0.25478067  0.10075139  1
  O2-  O132  1  0.59041195  0.25453677  0.37226515  1
  O2-  O133  1  0.65829616  0.25174011  0.63493659  1
  O2-  O134  1  0.62188931  0.25245630  0.86615130  1
  O2-  O135  1  0.63459796  0.75329539  0.12116933  1
  O2-  O136  1  0.62545562  0.75465085  0.33824201  1
  O2-  O137  1  0.57964543  0.74614230  0.62077583  1
  O2-  O138  1  0.62149277  0.75042509  0.85737367  1
  O2-  O139  1  0.91491836  0.24519389  0.12510393  1
  O2-  O140  1  0.83699285  0.24690924  0.38570872  1
  O2-  O141  1  0.89242303  0.24847889  0.62892288  1
  O2-  O142  1  0.87100264  0.24913702  0.83329574  1
  O2-  O143  1  0.86230602  0.74848151  0.11359270  1
  O2-  O144  1  0.85207866  0.77051453  0.34218470  1
  O2-  O145  1  0.88954681  0.76708324  0.64239553  1
  O2-  O146  1  0.85386631  0.75262455  0.90666356  1
  O2-  O147  1  0.25273065  0.13133319  -0.10504217  1
  O2-  O148  1  0.10781768  0.11909631  0.27397243  1
  O2-  O149  1  0.10815204  0.11008342  0.48328914  1
  O2-  O150  1  0.12211966  0.13878254  0.76174375  1
  O2-  O151  1  0.13698068  0.66545500  0.03031916  1
  O2-  O152  1  0.09571907  0.63843004  0.28328037  1
  O2-  O153  1  0.06510835  0.61088429  0.50165917  1
  O2-  O154  1  0.13331192  0.65786806  0.77344849  1
  O2-  O155  1  0.34956979  0.14534989  0.02124145  1
  O2-  O156  1  0.29896936  0.13583028  0.25278251  1
  O2-  O157  1  0.38704915  0.13436174  0.47513260  1
  O2-  O158  1  0.33709581  0.13077526  0.73972636  1
  O2-  O159  1  0.44489122  0.61609166  -0.00646148  1
  O2-  O160  1  0.43361600  0.62710626  0.23266508  1
  O2-  O161  1  0.42025816  0.61550013  0.46146905  1
  O2-  O162  1  0.39383065  0.63181886  0.76502438  1
  O2-  O163  1  0.66855621  0.13638866  -0.01975126  1
  O2-  O164  1  0.65060394  0.14984036  0.23988922  1
  O2-  O165  1  0.62910372  0.15522512  0.49998467  1
  O2-  O166  1  0.63667289  0.12949896  0.75153209  1
  O2-  O167  1  0.63416187  0.63885728  -0.01400439  1
  O2-  O168  1  0.61352395  0.62017455  0.23931690  1
  O2-  O169  1  0.60180256  0.63501946  0.49344195  1
  O2-  O170  1  0.58120723  0.62143091  0.73880580  1
  O2-  O171  1  0.88129756  0.14839527  -0.02131548  1
  O2-  O172  1  0.84022074  0.13176540  0.24444783  1
  O2-  O173  1  0.83653178  0.11604760  0.51902314  1
  O2-  O174  1  0.79851890  0.12347487  0.73499892  1
  O2-  O175  1  0.90080587  0.62118424  -0.00158315  1
  O2-  O176  1  0.89911668  0.62677816  0.24746386  1
  O2-  O177  1  0.88905646  0.66342945  0.49529107  1
  O2-  O178  1  0.90120025  0.63822761  0.75284797  1
  O2-  O179  1  0.16099236  0.38051646  0.02249010  1
  O2-  O180  1  0.11560299  0.36048800  0.22141250  1
  O2-  O181  1  0.18543082  0.39922770  0.53437268  1
  O2-  O182  1  0.14638346  0.34674997  0.75242425  1
  O2-  O183  1  0.11509372  0.85695301  0.01239546  1
  O2-  O184  1  0.16621059  0.84994048  0.27725800  1
  O2-  O185  1  0.08956080  0.88359307  0.50763588  1
  O2-  O186  1  0.10490568  0.86249482  0.76124904  1
  O2-  O187  1  0.34486627  0.36089194  0.02434724  1
  O2-  O188  1  0.29946428  0.34734366  0.25279477  1
  O2-  O189  1  0.40482293  0.36701778  0.46917072  1
  O2-  O190  1  0.35001200  0.37924043  0.73912991  1
  O2-  O191  1  0.41245800  0.88452966  -0.01155389  1
  O2-  O192  1  0.41142607  0.87230837  0.23140496  1
  O2-  O193  1  0.42311873  0.87298370  0.50242268  1
  O2-  O194  1  0.39664556  0.85690588  0.73785271  1
  O2-  O195  1  0.68983106  0.37370929  -0.01775829  1
  O2-  O196  1  0.65535698  0.35933701  0.24120845  1
  O2-  O197  1  0.65071415  0.35752358  0.50046949  1
  O2-  O198  1  0.66858816  0.38580885  0.73985537  1
  O2-  O199  1  0.60346438  0.87314515  -0.01000032  1
  O2-  O200  1  0.58863594  0.89060621  0.22100386  1
  O2-  O201  1  0.62901259  0.85479515  0.48075852  1
  O2-  O202  1  0.57757162  0.87913818  0.75295700  1
  O2-  O203  1  0.86707077  0.34352965  -0.01714031  1
  O2-  O204  1  0.85023171  0.36655810  0.24762583  1
  O2-  O205  1  0.83468219  0.37288612  0.50809252  1
  O2-  O206  1  0.85164217  0.38354466  0.73142896  1
  O2-  O207  1  0.92750624  0.87885691  0.00416340  1
  O2-  O208  1  0.93240139  0.87861266  0.22377773  1
  O2-  O209  1  0.89694262  0.85771385  0.47336767  1
  O2-  O210  1  0.91521050  0.86689627  0.79134686  1
  O2-  O211  1  0.06832183  0.11630248  -0.00779452  1
  O2-  O212  1  0.01715779  -0.05409685  0.36575521  1
  O2-  O213  1  -0.03837269  0.10908072  0.38357293  1
  O2-  O214  1  -0.04491088  0.11269418  0.75516063  1
  O2-  O215  1  -0.01476744  0.39275460  0.09039428  1
  O2-  O216  1  -0.01883004  0.36750939  0.38159469  1
  O2-  O217  1  0.01139870  0.38928271  0.54789602  1
  O2-  O218  1  -0.00166643  0.36631761  0.85784142  1
  O2-  O219  1  0.25504519  -0.15277593  -0.12520365  1
  O2-  O220  1  0.25566206  -0.15148935  0.11555784  1
  O2-  O221  1  0.24796343  -0.13292217  0.52179843  1
  O2-  O222  1  0.25036954  -0.16624088  0.67784012  1
  O2-  O223  1  0.26332478  0.65560268  -0.10587316  1
  O2-  O224  1  0.26100509  0.65676508  0.20977858  1
  O2-  O225  1  0.25202314  0.61349910  0.44859348  1
  O2-  O226  1  0.23159308  0.63393695  0.62309176  1
  O2-  O227  1  0.49210095  0.10132029  -0.04461086  1
  O2-  O228  1  0.46290233  0.11049285  0.23766740  1
  O2-  O229  1  0.49023659  0.13731138  0.61917287  1
  O2-  O230  1  0.48445575  0.15450599  0.80577097  1
  O2-  O231  1  0.50266576  0.38299063  -0.03367426  1
  O2-  O232  1  0.46300733  0.38949782  0.24063625  1
  O2-  O233  1  0.50145105  0.36548451  0.61882141  1
  O2-  O234  1  0.50189455  0.38309291  0.80123989  1
  O2-  O235  1  0.76539471  -0.12075632  0.02469949  1
  O2-  O236  1  0.75733277  -0.12482819  0.18813291  1
  O2-  O237  1  0.74391287  -0.14669079  0.61038832  1
  O2-  O238  1  0.75252087  -0.13025491  0.78514496  1
  O2-  O239  1  0.75017798  0.62696580  0.13563544  1
  O2-  O240  1  0.74836014  0.64163159  0.37411888  1
  O2-  O241  1  0.74577261  0.67098371  0.56746920  1
  O2-  O242  1  0.74161495  0.62817499  0.71958485  1
