# generated using pymatgen
data_Gd19Ta56(WO20)8
_symmetry_space_group_name_H-M   'P 1'
_cell_length_a   15.54070155
_cell_length_b   15.50676007
_cell_length_c   15.35281274
_cell_angle_alpha   89.96834813
_cell_angle_beta   89.91802270
_cell_angle_gamma   89.94575654
_symmetry_Int_Tables_number   1
_chemical_formula_structural   Gd19Ta56(WO20)8
_chemical_formula_sum   'Gd19 Ta56 W8 O160'
_cell_volume   3699.80585384
_cell_formula_units_Z   1
loop_
 _symmetry_equiv_pos_site_id
 _symmetry_equiv_pos_as_xyz
  1  'x, y, z'
loop_
 _atom_type_symbol
 _atom_type_oxidation_number
  Gd3+  3.0
  Ta5+  5.0
  W6+  6.0
  O2-  -2.0
loop_
 _atom_site_type_symbol
 _atom_site_label
 _atom_site_symmetry_multiplicity
 _atom_site_fract_x
 _atom_site_fract_y
 _atom_site_fract_z
 _atom_site_occupancy
  Gd3+  Gd0  1  0.51085866  0.75775185  0.72990121  1
  Gd3+  Gd1  1  0.74202201  0.75662858  0.02073005  1
  Gd3+  Gd2  1  0.50307671  0.25291651  -0.01015430  1
  Gd3+  Gd3  1  0.01928593  0.22566862  0.25498097  1
  Gd3+  Gd4  1  0.22562944  0.73151342  0.50182625  1
  Gd3+  Gd5  1  0.74841578  0.25526479  0.75514863  1
  Gd3+  Gd6  1  0.49849454  0.75567730  0.24942414  1
  Gd3+  Gd7  1  0.79002137  0.27679408  -0.00962449  1
  Gd3+  Gd8  1  -0.00518871  0.74478341  0.24747843  1
  Gd3+  Gd9  1  0.51013249  0.23393272  0.74431639  1
  Gd3+  Gd10  1  -0.03173082  0.73266105  0.72236437  1
  Gd3+  Gd11  1  0.78244449  0.27017893  0.49811049  1
  Gd3+  Gd12  1  0.47663701  0.25334480  0.26922486  1
  Gd3+  Gd13  1  0.49557319  0.76155804  -0.00174021  1
  Gd3+  Gd14  1  0.23919028  0.23945824  0.48457192  1
  Gd3+  Gd15  1  0.21476413  0.73374393  0.73911521  1
  Gd3+  Gd16  1  -0.02170814  0.27656747  0.77534230  1
  Gd3+  Gd17  1  0.74413771  0.74777304  0.27364965  1
  Gd3+  Gd18  1  -0.01122687  0.72791633  -0.00800839  1
  Ta5+  Ta19  1  0.64742621  0.37893332  0.11890100  1
  Ta5+  Ta20  1  0.38506021  0.11569412  0.38776580  1
  Ta5+  Ta21  1  0.61936704  0.88806298  0.12833698  1
  Ta5+  Ta22  1  0.13498887  0.86234958  0.10691660  1
  Ta5+  Ta23  1  0.34599273  0.88149581  0.64650379  1
  Ta5+  Ta24  1  0.36572715  0.61427017  0.87578170  1
  Ta5+  Ta25  1  0.63005796  0.37612377  0.36549971  1
  Ta5+  Ta26  1  0.90129252  0.38592729  0.13185746  1
  Ta5+  Ta27  1  0.16058790  0.59895188  0.88499777  1
  Ta5+  Ta28  1  0.87328636  0.87845142  0.12104419  1
  Ta5+  Ta29  1  0.82643596  0.65167406  0.86636304  1
  Ta5+  Ta30  1  0.36146792  0.62562141  0.11908291  1
  Ta5+  Ta31  1  0.13741562  0.86473047  0.87664557  1
  Ta5+  Ta32  1  0.12112199  0.60421271  0.11914295  1
  Ta5+  Ta33  1  0.64036561  0.13147437  0.12492466  1
  Ta5+  Ta34  1  0.10739724  0.11255964  0.61817734  1
  Ta5+  Ta35  1  0.12540628  0.11355457  0.10535377  1
  Ta5+  Ta36  1  0.66251679  0.45846733  0.87947405  1
  Ta5+  Ta37  1  0.65670663  0.65461474  0.86522691  1
  Ta5+  Ta38  1  0.62287754  0.62308588  0.12399018  1
  Ta5+  Ta39  1  0.90099686  0.12685489  0.61972873  1
  Ta5+  Ta40  1  0.86667721  0.08890873  0.87253635  1
  Ta5+  Ta41  1  0.39178588  0.37083354  0.62383083  1
  Ta5+  Ta42  1  0.11178660  0.10976769  0.86283235  1
  Ta5+  Ta43  1  0.12668888  0.35646624  0.63002098  1
  Ta5+  Ta44  1  0.11358086  0.58713879  0.62722761  1
  Ta5+  Ta45  1  0.12267639  0.86338908  0.36276707  1
  Ta5+  Ta46  1  0.86584815  0.61525486  0.38373086  1
  Ta5+  Ta47  1  0.10083371  0.36622516  0.37490970  1
  Ta5+  Ta48  1  0.62754414  0.13048267  0.37422150  1
  Ta5+  Ta49  1  0.93215133  0.37758408  0.38037589  1
  Ta5+  Ta50  1  0.36929303  0.12206513  0.87239437  1
  Ta5+  Ta51  1  0.86336703  0.12459462  0.37228334  1
  Ta5+  Ta52  1  0.62896206  0.87995504  0.39210919  1
  Ta5+  Ta53  1  0.80381135  0.63717125  0.62099559  1
  Ta5+  Ta54  1  0.14482237  0.35162123  0.88766444  1
  Ta5+  Ta55  1  0.63531833  0.11998022  0.61597953  1
  Ta5+  Ta56  1  0.59414928  0.38419498  0.60251965  1
  Ta5+  Ta57  1  0.88001187  0.88052401  0.38868869  1
  Ta5+  Ta58  1  0.38007063  0.87339411  0.39301080  1
  Ta5+  Ta59  1  0.40009194  0.38017916  0.11512762  1
  Ta5+  Ta60  1  0.82517993  0.83775622  0.86182922  1
  Ta5+  Ta61  1  0.10458701  0.35517514  0.11584210  1
  Ta5+  Ta62  1  0.37425530  0.63123605  0.38054674  1
  Ta5+  Ta63  1  0.63220818  0.10693489  0.88033321  1
  Ta5+  Ta64  1  0.34316872  0.87609940  0.87893794  1
  Ta5+  Ta65  1  0.10086080  0.86541181  0.62055471  1
  Ta5+  Ta66  1  0.90581065  0.43809671  0.88070900  1
  Ta5+  Ta67  1  0.65643319  0.85751497  0.86390451  1
  Ta5+  Ta68  1  0.34422347  0.37005149  0.86372528  1
  Ta5+  Ta69  1  0.10229425  0.60778398  0.37110848  1
  Ta5+  Ta70  1  0.91577152  0.44534742  0.61946947  1
  Ta5+  Ta71  1  0.36621169  0.61795746  0.63812957  1
  Ta5+  Ta72  1  0.36848770  0.88434454  0.13115531  1
  Ta5+  Ta73  1  0.86327473  0.61510619  0.12699306  1
  Ta5+  Ta74  1  0.88557057  0.12772740  0.11809433  1
  W6+  W75  1  0.37335450  0.12708600  0.12505684  1
  W6+  W76  1  0.14002997  0.10097975  0.36768713  1
  W6+  W77  1  0.64147862  0.62623441  0.61667024  1
  W6+  W78  1  0.84839362  0.88638245  0.63048255  1
  W6+  W79  1  0.65566204  0.87155092  0.61032408  1
  W6+  W80  1  0.61601087  0.61675845  0.38199457  1
  W6+  W81  1  0.37758957  0.11325789  0.63589914  1
  W6+  W82  1  0.35427144  0.38284022  0.38091749  1
  O2-  O83  1  0.12959653  -0.01741297  0.10048042  1
  O2-  O84  1  0.17428115  -0.03144059  0.36022812  1
  O2-  O85  1  0.10610672  -0.01509140  0.62985397  1
  O2-  O86  1  0.11671084  -0.01818645  0.86851352  1
  O2-  O87  1  0.11746016  0.48474611  0.11633909  1
  O2-  O88  1  0.12691630  0.49076836  0.36196456  1
  O2-  O89  1  0.16666446  0.47653568  0.63268340  1
  O2-  O90  1  0.15806555  0.47869289  0.88394265  1
  O2-  O91  1  0.33550409  -0.00309506  0.12450392  1
  O2-  O92  1  0.35778680  -0.00837007  0.38614509  1
  O2-  O93  1  0.31425649  -0.00369300  0.64944556  1
  O2-  O94  1  0.33998611  0.00216444  0.88055351  1
  O2-  O95  1  0.37881122  0.50513308  0.11437339  1
  O2-  O96  1  0.34433128  0.51776283  0.38015742  1
  O2-  O97  1  0.38122079  0.49955940  0.62843232  1
  O2-  O98  1  0.37438515  0.49050602  0.87734517  1
  O2-  O99  1  0.63952147  0.00687770  0.13606416  1
  O2-  O100  1  0.63580316  0.00902577  0.36791726  1
  O2-  O101  1  0.66512203  0.00685523  0.61163785  1
  O2-  O102  1  0.64386601  -0.01206841  0.87057308  1
  O2-  O103  1  0.63521082  0.50402728  0.12479335  1
  O2-  O104  1  0.58414368  0.48439856  0.36275526  1
  O2-  O105  1  0.63502789  0.48842975  0.63668966  1
  O2-  O106  1  0.57251172  0.53494094  0.87547438  1
  O2-  O107  1  0.88851501  -0.00277380  0.11775166  1
  O2-  O108  1  0.85335357  -0.00025937  0.36041315  1
  O2-  O109  1  0.85930661  0.02099578  0.65018799  1
  O2-  O110  1  0.83717208  -0.02441808  0.87312474  1
  O2-  O111  1  0.92440004  0.51155234  0.13234730  1
  O2-  O112  1  0.90310129  0.50166948  0.37127547  1
  O2-  O113  1  0.81244550  0.50462583  0.62649346  1
  O2-  O114  1  0.93096197  0.55313495  0.88110151  1
  O2-  O115  1  0.07756766  0.22793967  0.10532164  1
  O2-  O116  1  0.11653517  0.23616071  0.37591484  1
  O2-  O117  1  0.16471707  0.23685008  0.61581282  1
  O2-  O118  1  0.08396391  0.23468872  0.87144719  1
  O2-  O119  1  0.08904742  0.73575023  0.11458167  1
  O2-  O120  1  0.15177071  0.73560290  0.36294492  1
  O2-  O121  1  0.09379228  0.72427070  0.62594182  1
  O2-  O122  1  0.13777771  0.73033984  0.87110869  1
  O2-  O123  1  0.43384153  0.24916767  0.12718080  1
  O2-  O124  1  0.37110312  0.24499299  0.38113204  1
  O2-  O125  1  0.40015616  0.24718528  0.63933869  1
  O2-  O126  1  0.40289694  0.25439577  0.85575057  1
  O2-  O127  1  0.40495422  0.74693041  0.12187981  1
  O2-  O128  1  0.32470860  0.75661592  0.39170334  1
  O2-  O129  1  0.36786177  0.74852537  0.66073188  1
  O2-  O130  1  0.36402429  0.74783365  0.87137514  1
  O2-  O131  1  0.63767993  0.25424404  0.07935445  1
  O2-  O132  1  0.58142201  0.25953060  0.37912279  1
  O2-  O133  1  0.64150917  0.26815989  0.63933357  1
  O2-  O134  1  0.58567917  0.22912288  0.87019257  1
  O2-  O135  1  0.58372364  0.75324972  0.12175140  1
  O2-  O136  1  0.64389393  0.75529829  0.38529437  1
  O2-  O137  1  0.59713845  0.75396126  0.60663143  1
  O2-  O138  1  0.56300801  0.75371735  0.86891682  1
  O2-  O139  1  0.89208170  0.25679979  0.10688413  1
  O2-  O140  1  0.90917538  0.24465398  0.38907031  1
  O2-  O141  1  0.83401158  0.23911456  0.62938677  1
  O2-  O142  1  0.84946458  0.30566624  0.85866208  1
  O2-  O143  1  0.91273296  0.74592147  0.12138315  1
  O2-  O144  1  0.84028935  0.76197853  0.38691740  1
  O2-  O145  1  0.85619746  0.75099298  0.61657699  1
  O2-  O146  1  0.93027958  0.74178565  0.86178260  1
  O2-  O147  1  0.15826939  0.11663039  -0.02067149  1
  O2-  O148  1  0.12015731  0.11371494  0.23052287  1
  O2-  O149  1  0.16536316  0.10890173  0.50850242  1
  O2-  O150  1  0.15319184  0.11120720  0.74560293  1
  O2-  O151  1  0.08649971  0.61212030  -0.00696065  1
  O2-  O152  1  0.08409885  0.61797734  0.23871825  1
  O2-  O153  1  0.13260347  0.61322956  0.49715881  1
  O2-  O154  1  0.10118141  0.60909678  0.75286606  1
  O2-  O155  1  0.40102842  0.14136503  -0.01016258  1
  O2-  O156  1  0.39149000  0.12557241  0.26233523  1
  O2-  O157  1  0.34072425  0.13162050  0.50436969  1
  O2-  O158  1  0.42989406  0.10873794  0.76450832  1
  O2-  O159  1  0.41871769  0.63310147  -0.00266275  1
  O2-  O160  1  0.38169969  0.63846051  0.24390165  1
  O2-  O161  1  0.36732754  0.64288952  0.51276472  1
  O2-  O162  1  0.42547874  0.62375582  0.75615655  1
  O2-  O163  1  0.59334162  0.11402075  0.00391133  1
  O2-  O164  1  0.59730975  0.15178482  0.24153060  1
  O2-  O165  1  0.66497531  0.15768509  0.49821449  1
  O2-  O166  1  0.65585750  0.13447391  0.74454782  1
  O2-  O167  1  0.63612313  0.64610774  -0.00129485  1
  O2-  O168  1  0.60602924  0.64884362  0.24902874  1
  O2-  O169  1  0.59738229  0.59502712  0.50449178  1
  O2-  O170  1  0.62487276  0.65310727  0.74415367  1
  O2-  O171  1  0.87931389  0.13524048  -0.01098887  1
  O2-  O172  1  0.90103898  0.13358759  0.24650636  1
  O2-  O173  1  0.84393829  0.12993013  0.49980232  1
  O2-  O174  1  0.86110822  0.15209471  0.76310753  1
  O2-  O175  1  0.84827827  0.64283575  0.00203794  1
  O2-  O176  1  0.87972810  0.64885800  0.25203032  1
  O2-  O177  1  0.85304149  0.61616555  0.50461262  1
  O2-  O178  1  0.85023060  0.63527281  0.73851930  1
  O2-  O179  1  0.16874891  0.34069202  0.00833195  1
  O2-  O180  1  0.10695929  0.35074102  0.24042839  1
  O2-  O181  1  0.13183433  0.36257719  0.50059628  1
  O2-  O182  1  0.12857182  0.34847817  0.75475555  1
  O2-  O183  1  0.07240909  0.85039701  -0.00980694  1
  O2-  O184  1  0.10210431  0.85786379  0.22919006  1
  O2-  O185  1  0.12619759  0.84779468  0.49333668  1
  O2-  O186  1  0.08335779  0.84183326  0.74919151  1
  O2-  O187  1  0.36537117  0.35367892  -0.00345624  1
  O2-  O188  1  0.39381671  0.37427983  0.24183059  1
  O2-  O189  1  0.31968797  0.36038566  0.52286170  1
  O2-  O190  1  0.33063085  0.37440659  0.73948483  1
  O2-  O191  1  0.39778898  0.87165669  -0.00322598  1
  O2-  O192  1  0.37702396  0.86071401  0.25881260  1
  O2-  O193  1  0.37737074  0.87142458  0.52508022  1
  O2-  O194  1  0.41211512  0.87995173  0.75773406  1
  O2-  O195  1  0.67750734  0.38964235  -0.01766151  1
  O2-  O196  1  0.61527350  0.35330097  0.23808304  1
  O2-  O197  1  0.66900928  0.36737748  0.49104266  1
  O2-  O198  1  0.68038054  0.38042274  0.78964103  1
  O2-  O199  1  0.62490824  0.86139712  -0.00041171  1
  O2-  O200  1  0.62739657  0.85908658  0.25671772  1
  O2-  O201  1  0.70725789  0.88919481  0.48196783  1
  O2-  O202  1  0.62514430  0.85746532  0.74264488  1
  O2-  O203  1  0.86928325  0.40559942  -0.00221515  1
  O2-  O204  1  0.91996701  0.36124489  0.25246083  1
  O2-  O205  1  0.88705383  0.38291181  0.51300925  1
  O2-  O206  1  0.90784229  0.41762618  0.74537746  1
  O2-  O207  1  0.86884955  0.84776733  -0.00536245  1
  O2-  O208  1  0.87766795  0.85474429  0.24785827  1
  O2-  O209  1  0.89458670  0.89857899  0.50629476  1
  O2-  O210  1  0.88355667  0.85141454  0.74919263  1
  O2-  O211  1  -0.01015152  0.09248037  -0.13835059  1
  O2-  O212  1  -0.00032119  -0.13982562  0.36673344  1
  O2-  O213  1  0.00069598  0.09924720  0.54834833  1
  O2-  O214  1  0.00744913  0.16790916  0.68556812  1
  O2-  O215  1  0.01430026  0.38642509  -0.11209772  1
  O2-  O216  1  -0.00988019  0.66217079  0.38280425  1
  O2-  O217  1  0.00589955  0.34492666  0.63248620  1
  O2-  O218  1  0.00048384  0.53601408  0.61011346  1
  O2-  O219  1  0.23536346  -0.13346238  -0.04695729  1
  O2-  O220  1  0.25055041  -0.16520452  0.12328944  1
  O2-  O221  1  0.22921447  -0.16665871  0.62236543  1
  O2-  O222  1  0.24601172  -0.13221821  0.79182311  1
  O2-  O223  1  0.25985134  0.61517247  -0.04231038  1
  O2-  O224  1  0.24070985  0.63085525  0.12891311  1
  O2-  O225  1  0.24164833  0.63417156  0.62739456  1
  O2-  O226  1  0.26311998  0.60883238  0.79801346  1
  O2-  O227  1  0.49546669  -0.10367095  0.13711022  1
  O2-  O228  1  0.50038319  -0.13312421  0.38712820  1
  O2-  O229  1  0.50380399  0.11320332  0.40486827  1
  O2-  O230  1  0.51803626  0.12540502  0.61549361  1
  O2-  O231  1  0.51935798  0.38495803  0.08168820  1
  O2-  O232  1  0.48918693  0.66728157  0.37425608  1
  O2-  O233  1  0.49252572  0.38503282  0.53458125  1
  O2-  O234  1  0.50691255  0.37199740  0.69782428  1
  O2-  O235  1  0.74755365  -0.14511712  0.13327960  1
  O2-  O236  1  0.76031160  0.13608876  0.12698726  1
  O2-  O237  1  0.74878634  0.16126274  0.34682320  1
  O2-  O238  1  0.74908741  0.15813101  0.89290089  1
  O2-  O239  1  0.74328599  0.67024100  0.14386939  1
  O2-  O240  1  0.76910829  0.37500122  0.13577737  1
  O2-  O241  1  0.74567951  0.61171257  0.35182529  1
  O2-  O242  1  0.75812402  0.53304639  0.87355117  1
