# generated using pymatgen
data_Gd19Ta56(WO20)8
_symmetry_space_group_name_H-M   'P 1'
_cell_length_a   15.59353562
_cell_length_b   15.40148842
_cell_length_c   15.14430951
_cell_angle_alpha   89.96340585
_cell_angle_beta   89.82947647
_cell_angle_gamma   90.22857843
_symmetry_Int_Tables_number   1
_chemical_formula_structural   Gd19Ta56(WO20)8
_chemical_formula_sum   'Gd19 Ta56 W8 O160'
_cell_volume   3637.06695159
_cell_formula_units_Z   1
loop_
 _symmetry_equiv_pos_site_id
 _symmetry_equiv_pos_as_xyz
  1  'x, y, z'
loop_
 _atom_type_symbol
 _atom_type_oxidation_number
  Gd3+  3.0
  Ta5+  5.0
  W6+  6.0
  O2-  -2.0
loop_
 _atom_site_type_symbol
 _atom_site_label
 _atom_site_symmetry_multiplicity
 _atom_site_fract_x
 _atom_site_fract_y
 _atom_site_fract_z
 _atom_site_occupancy
  Gd3+  Gd0  1  0.74586971  0.76972092  -0.00920491  1
  Gd3+  Gd1  1  0.49630475  0.24854683  0.49912288  1
  Gd3+  Gd2  1  0.77486831  0.76918057  0.49963548  1
  Gd3+  Gd3  1  0.48475120  0.71537554  0.76447348  1
  Gd3+  Gd4  1  0.22331832  0.25171008  0.76176108  1
  Gd3+  Gd5  1  -0.01663858  0.26321680  0.50605766  1
  Gd3+  Gd6  1  0.28915810  0.77878227  0.25398589  1
  Gd3+  Gd7  1  0.75101234  0.77463753  0.23618549  1
  Gd3+  Gd8  1  0.74039928  0.26483645  0.24189801  1
  Gd3+  Gd9  1  0.77481638  0.25589641  0.75156886  1
  Gd3+  Gd10  1  0.74383102  0.27689697  0.50413477  1
  Gd3+  Gd11  1  0.03026616  0.25820697  -0.01007359  1
  Gd3+  Gd12  1  0.26391607  0.24900921  0.52181912  1
  Gd3+  Gd13  1  -0.01022863  0.22012250  0.75478915  1
  Gd3+  Gd14  1  0.00395525  0.25217765  0.22993360  1
  Gd3+  Gd15  1  0.25936673  0.76685905  0.73581121  1
  Gd3+  Gd16  1  0.78034174  0.78471004  0.74653515  1
  Gd3+  Gd17  1  0.24891368  0.73547518  -0.00737971  1
  Gd3+  Gd18  1  0.29633028  0.24797466  0.26493829  1
  Ta5+  Ta19  1  0.86881478  0.62352382  0.12088902  1
  Ta5+  Ta20  1  0.08493086  0.08040030  0.60729495  1
  Ta5+  Ta21  1  0.63920186  0.63255671  0.61808403  1
  Ta5+  Ta22  1  0.95131308  0.84270998  0.61852741  1
  Ta5+  Ta23  1  0.11457347  0.86442733  0.86847771  1
  Ta5+  Ta24  1  0.59704385  0.40099460  0.66098378  1
  Ta5+  Ta25  1  0.63484180  0.61377476  0.86956691  1
  Ta5+  Ta26  1  0.12609917  0.63638592  0.37690460  1
  Ta5+  Ta27  1  0.91264738  0.86886599  0.11391533  1
  Ta5+  Ta28  1  0.82576945  0.06447690  0.89162478  1
  Ta5+  Ta29  1  0.60450304  0.87885872  0.85516559  1
  Ta5+  Ta30  1  0.61689830  0.39219559  0.36862080  1
  Ta5+  Ta31  1  0.63052485  0.36255579  0.86346191  1
  Ta5+  Ta32  1  0.16355380  0.12458572  0.10950464  1
  Ta5+  Ta33  1  0.83434898  0.42897607  0.14935736  1
  Ta5+  Ta34  1  0.43634220  0.37355353  0.13786869  1
  Ta5+  Ta35  1  0.14753218  0.87885294  0.12105281  1
  Ta5+  Ta36  1  0.36993096  0.63787974  0.39617331  1
  Ta5+  Ta37  1  0.58693761  0.11791843  0.86146908  1
  Ta5+  Ta38  1  0.11337826  0.87312992  0.62409799  1
  Ta5+  Ta39  1  0.91642286  0.87301015  0.36597360  1
  Ta5+  Ta40  1  0.58328405  0.12212498  0.12368778  1
  Ta5+  Ta41  1  0.39651569  0.89275171  0.39503339  1
  Ta5+  Ta42  1  0.94767992  0.83837357  0.87378580  1
  Ta5+  Ta43  1  0.61185634  0.63825333  0.37080202  1
  Ta5+  Ta44  1  0.89624472  0.64147257  0.87260142  1
  Ta5+  Ta45  1  0.15218892  0.39783568  0.11709283  1
  Ta5+  Ta46  1  0.38705885  0.87565246  0.89484792  1
  Ta5+  Ta47  1  0.12630795  0.44788736  0.90433417  1
  Ta5+  Ta48  1  0.32390491  0.37645566  0.91351006  1
  Ta5+  Ta49  1  0.15276905  0.09596130  0.89618015  1
  Ta5+  Ta50  1  0.35678458  0.12341817  0.90796370  1
  Ta5+  Ta51  1  0.43489379  0.87265598  0.13224628  1
  Ta5+  Ta52  1  0.88529275  0.03979219  0.60556985  1
  Ta5+  Ta53  1  0.89302944  0.09738929  0.13248233  1
  Ta5+  Ta54  1  0.43447813  0.88209031  0.64277887  1
  Ta5+  Ta55  1  0.36630400  0.39093210  0.66267910  1
  Ta5+  Ta56  1  0.61796559  0.87437517  0.37488751  1
  Ta5+  Ta57  1  0.86998414  0.40164522  0.89642104  1
  Ta5+  Ta58  1  0.38493017  0.61978024  0.14989281  1
  Ta5+  Ta59  1  0.63534135  0.12084419  0.37392842  1
  Ta5+  Ta60  1  0.14809571  0.89129743  0.37698535  1
  Ta5+  Ta61  1  0.10225259  0.64493490  0.13051968  1
  Ta5+  Ta62  1  0.38650267  0.60652550  0.89644232  1
  Ta5+  Ta63  1  0.37807193  0.38787130  0.39293006  1
  Ta5+  Ta64  1  0.41230177  0.11571763  0.14561251  1
  Ta5+  Ta65  1  0.13952237  0.39014400  0.33125808  1
  Ta5+  Ta66  1  0.89094674  0.62086812  0.62298142  1
  Ta5+  Ta67  1  0.10637919  0.44229095  0.66480288  1
  Ta5+  Ta68  1  0.64653672  0.60542303  0.11903023  1
  Ta5+  Ta69  1  0.60041525  0.87831409  0.11418730  1
  Ta5+  Ta70  1  0.05713179  0.65565568  0.62683358  1
  Ta5+  Ta71  1  0.06102479  0.68965372  0.87754090  1
  Ta5+  Ta72  1  0.89845606  0.41420379  0.63723316  1
  Ta5+  Ta73  1  0.61395306  0.87235337  0.62611313  1
  Ta5+  Ta74  1  0.65834891  0.10645122  0.61342617  1
  W6+  W75  1  0.35175512  0.61576181  0.63230886  1
  W6+  W76  1  0.40910462  0.13171574  0.67730255  1
  W6+  W77  1  0.59255517  0.36151541  0.11062068  1
  W6+  W78  1  0.37277525  0.10898082  0.40330740  1
  W6+  W79  1  0.87730497  0.62896026  0.36819207  1
  W6+  W80  1  0.84886818  0.40679931  0.37903097  1
  W6+  W81  1  0.84406552  0.11855001  0.38402867  1
  W6+  W82  1  0.12399240  0.13691654  0.35746142  1
  O2-  O83  1  0.15956238  0.00081868  0.11364321  1
  O2-  O84  1  0.11692980  0.00539196  0.38099728  1
  O2-  O85  1  0.17150167  0.00219507  0.62109559  1
  O2-  O86  1  0.09563066  -0.00399158  0.86565627  1
  O2-  O87  1  0.13641792  0.52850939  0.12125579  1
  O2-  O88  1  0.15812533  0.51384919  0.36119799  1
  O2-  O89  1  0.13861843  0.55016908  0.61992374  1
  O2-  O90  1  0.13354048  0.56406421  0.89362093  1
  O2-  O91  1  0.40957196  -0.00520100  0.11405570  1
  O2-  O92  1  0.27382144  -0.08910675  0.38792614  1
  O2-  O93  1  0.43697913  0.00105990  0.65883464  1
  O2-  O94  1  0.37010607  -0.00439364  0.90519263  1
  O2-  O95  1  0.41085359  0.50174775  0.14747298  1
  O2-  O96  1  0.37365853  0.50753731  0.39808610  1
  O2-  O97  1  0.30229982  0.48769674  0.64165016  1
  O2-  O98  1  0.32316746  0.50465838  0.91102404  1
  O2-  O99  1  0.61285693  0.00437925  0.11890217  1
  O2-  O100  1  0.63430316  -0.00384022  0.38522205  1
  O2-  O101  1  0.65293304  -0.01560133  0.59690227  1
  O2-  O102  1  0.55907423  -0.00858214  0.85597091  1
  O2-  O103  1  0.58436665  0.50524431  0.11173500  1
  O2-  O104  1  0.61094845  0.51538534  0.36395483  1
  O2-  O105  1  0.63472150  0.50846230  0.61460219  1
  O2-  O106  1  0.64482652  0.49233543  0.86572753  1
  O2-  O107  1  0.95165959  -0.00645079  0.12531261  1
  O2-  O108  1  0.87915548  -0.01561518  0.38663002  1
  O2-  O109  1  0.84054304  -0.07371775  0.60016977  1
  O2-  O110  1  0.88085982  -0.03316753  0.85549030  1
  O2-  O111  1  0.75634426  0.54371414  0.12214381  1
  O2-  O112  1  0.92092526  0.51119774  0.36530146  1
  O2-  O113  1  0.82087064  0.50392787  0.61645061  1
  O2-  O114  1  0.91642585  0.51331213  0.88413654  1
  O2-  O115  1  0.13295233  0.26854656  0.09919371  1
  O2-  O116  1  0.14649058  0.26206063  0.30149630  1
  O2-  O117  1  0.19172571  0.35621133  0.64572851  1
  O2-  O118  1  0.10172468  0.20844012  0.86169605  1
  O2-  O119  1  0.18817778  0.74166769  0.14353690  1
  O2-  O120  1  0.18780621  0.74243955  0.36382399  1
  O2-  O121  1  0.15209901  0.75142903  0.62702756  1
  O2-  O122  1  0.18091791  0.74736079  0.85987684  1
  O2-  O123  1  0.41741936  0.25193027  0.16091922  1
  O2-  O124  1  0.39385347  0.24855040  0.38827892  1
  O2-  O125  1  0.33619783  0.26070830  0.67036961  1
  O2-  O126  1  0.31699415  0.24885638  0.89242159  1
  O2-  O127  1  0.42610535  0.73794636  0.16356108  1
  O2-  O128  1  0.36149589  0.76069006  0.38151128  1
  O2-  O129  1  0.39150777  0.74848061  0.65315145  1
  O2-  O130  1  0.35165399  0.73336179  0.87429535  1
  O2-  O131  1  0.64565194  0.23102546  0.12834269  1
  O2-  O132  1  0.62971078  0.25487367  0.39347804  1
  O2-  O133  1  0.70220650  0.22416030  0.63425335  1
  O2-  O134  1  0.64370661  0.23070770  0.84000960  1
  O2-  O135  1  0.65136627  0.74968909  0.11263586  1
  O2-  O136  1  0.67474468  0.75459838  0.36584610  1
  O2-  O137  1  0.67578599  0.75365569  0.64144738  1
  O2-  O138  1  0.66153446  0.74701868  0.85482632  1
  O2-  O139  1  0.95424961  0.19724918  0.09666549  1
  O2-  O140  1  0.82631904  0.26454833  0.37479776  1
  O2-  O141  1  0.89539842  0.26985499  0.65282940  1
  O2-  O142  1  0.94722587  0.30832629  0.88179546  1
  O2-  O143  1  0.83792697  0.75716739  0.11313812  1
  O2-  O144  1  0.84225978  0.76571155  0.36237941  1
  O2-  O145  1  0.85366958  0.74660391  0.62337534  1
  O2-  O146  1  0.84059365  0.75934479  0.87830227  1
  O2-  O147  1  0.08286073  0.12137283  0.00700673  1
  O2-  O148  1  0.09672978  0.12866180  0.21478208  1
  O2-  O149  1  0.10206392  0.15381034  0.50541093  1
  O2-  O150  1  0.11680064  0.17933451  0.68192611  1
  O2-  O151  1  0.10789159  0.68198263  0.01017689  1
  O2-  O152  1  0.07442128  0.64657247  0.26457368  1
  O2-  O153  1  0.06831395  0.64760858  0.48316761  1
  O2-  O154  1  0.05578780  0.66402897  0.75015199  1
  O2-  O155  1  0.40595059  0.14688270  0.01518356  1
  O2-  O156  1  0.37842614  0.10930185  0.26632044  1
  O2-  O157  1  0.37900368  0.15360767  0.53792170  1
  O2-  O158  1  0.45782420  0.14077189  0.83012668  1
  O2-  O159  1  0.36206169  0.63660226  0.02530995  1
  O2-  O160  1  0.32477045  0.62772558  0.27035534  1
  O2-  O161  1  0.31093183  0.63655856  0.50148559  1
  O2-  O162  1  0.38618406  0.60182480  0.76781470  1
  O2-  O163  1  0.58142174  0.12727755  -0.01515874  1
  O2-  O164  1  0.57576384  0.12803181  0.26220141  1
  O2-  O165  1  0.58085667  0.12959573  0.51177755  1
  O2-  O166  1  0.59638392  0.10813370  0.71810972  1
  O2-  O167  1  0.66629176  0.63056965  -0.00727516  1
  O2-  O168  1  0.63628064  0.64065335  0.24344754  1
  O2-  O169  1  0.65951083  0.64570583  0.49000466  1
  O2-  O170  1  0.59828618  0.62612512  0.74276710  1
  O2-  O171  1  0.83439201  0.08653378  0.01559799  1
  O2-  O172  1  0.90848070  0.13022280  0.25414606  1
  O2-  O173  1  0.91584629  0.12244839  0.51195953  1
  O2-  O174  1  0.87108671  0.15975501  0.82717597  1
  O2-  O175  1  0.84687067  0.63356612  -0.00332274  1
  O2-  O176  1  0.83100480  0.64597522  0.24252701  1
  O2-  O177  1  0.85407266  0.63978775  0.49804192  1
  O2-  O178  1  0.85892487  0.63710788  0.75014040  1
  O2-  O179  1  0.05599376  0.40717332  0.00314572  1
  O2-  O180  1  0.06563138  0.39247451  0.22032426  1
  O2-  O181  1  0.05492384  0.35615360  0.41098801  1
  O2-  O182  1  0.07154260  0.42876988  0.78550174  1
  O2-  O183  1  0.17109147  0.86375870  -0.00392545  1
  O2-  O184  1  0.18246025  0.88033195  0.24403961  1
  O2-  O185  1  0.12956583  0.86114866  0.49440856  1
  O2-  O186  1  0.15870785  0.87611226  0.74641195  1
  O2-  O187  1  0.39136004  0.36804733  0.01796694  1
  O2-  O188  1  0.39427112  0.37760467  0.26905543  1
  O2-  O189  1  0.36919014  0.35177861  0.52835816  1
  O2-  O190  1  0.36696667  0.38544361  0.79035684  1
  O2-  O191  1  0.36786701  0.84113592  0.01791827  1
  O2-  O192  1  0.39921619  0.88424232  0.25712648  1
  O2-  O193  1  0.40121499  0.87528489  0.52173413  1
  O2-  O194  1  0.36075518  0.87247001  0.76647463  1
  O2-  O195  1  0.58118019  0.35302917  -0.02803517  1
  O2-  O196  1  0.61513554  0.35891001  0.25135733  1
  O2-  O197  1  0.60095878  0.33240210  0.55988370  1
  O2-  O198  1  0.54271887  0.36279504  0.77592267  1
  O2-  O199  1  0.63947547  0.87828076  -0.02053483  1
  O2-  O200  1  0.62892496  0.87091721  0.24488110  1
  O2-  O201  1  0.64472288  0.84575009  0.50130574  1
  O2-  O202  1  0.68344723  0.89483665  0.75454683  1
  O2-  O203  1  0.85215753  0.40257287  0.02292872  1
  O2-  O204  1  0.87508978  0.31890859  0.18865135  1
  O2-  O205  1  0.87580075  0.36535415  0.51519411  1
  O2-  O206  1  0.87082338  0.39510796  0.75833527  1
  O2-  O207  1  0.87517935  0.87379979  -0.00348912  1
  O2-  O208  1  0.86521616  0.87688648  0.23545652  1
  O2-  O209  1  0.92769508  0.83369202  0.48497273  1
  O2-  O210  1  0.92819284  0.84293380  0.74553201  1
  O2-  O211  1  0.03062019  -0.15960554  0.12091492  1
  O2-  O212  1  0.03065384  -0.14537241  0.33091544  1
  O2-  O213  1  0.00999697  -0.03019132  0.58276400  1
  O2-  O214  1  -0.02492782  0.08970116  0.68494111  1
  O2-  O215  1  -0.01601793  0.66370408  0.12275968  1
  O2-  O216  1  -0.07623409  0.51056787  0.15339515  1
  O2-  O217  1  0.02459748  0.36922366  0.60479761  1
  O2-  O218  1  -0.02163302  0.51727852  0.65160557  1
  O2-  O219  1  0.24094781  0.09975312  -0.01554458  1
  O2-  O220  1  0.27467971  0.15652589  0.14477500  1
  O2-  O221  1  0.25109858  0.16656419  0.39791551  1
  O2-  O222  1  0.25079530  0.11165702  0.81484559  1
  O2-  O223  1  0.21877305  0.40586869  0.00359378  1
  O2-  O224  1  0.22995335  0.38574752  0.20993240  1
  O2-  O225  1  0.25169611  0.36017557  0.39574116  1
  O2-  O226  1  0.21009909  0.37417794  0.84424200  1
  O2-  O227  1  0.49940551  -0.18500897  -0.11484993  1
  O2-  O228  1  0.50859407  -0.16709265  0.38208516  1
  O2-  O229  1  0.44663967  0.00429992  0.40372628  1
  O2-  O230  1  0.53333977  -0.15003992  0.72757419  1
  O2-  O231  1  0.50963225  0.62229125  -0.10162724  1
  O2-  O232  1  0.49382198  0.64606238  0.38950393  1
  O2-  O233  1  0.50481861  0.38095199  0.41820888  1
  O2-  O234  1  0.47498657  0.43762526  0.64231362  1
  O2-  O235  1  0.70996309  0.06895181  -0.13664615  1
  O2-  O236  1  0.73628562  0.12821965  0.29887797  1
  O2-  O237  1  0.73668149  0.12820978  0.47307598  1
  O2-  O238  1  0.78608495  0.08566427  0.65714400  1
  O2-  O239  1  0.75829659  0.34861140  -0.11683018  1
  O2-  O240  1  0.77211710  0.42592870  0.26141927  1
  O2-  O241  1  0.71972076  0.40367266  0.43478968  1
  O2-  O242  1  0.69713270  0.37686424  0.72781479  1
