# generated using pymatgen
data_Gd19Ta56(WO20)8
_symmetry_space_group_name_H-M   'P 1'
_cell_length_a   15.50852088
_cell_length_b   15.43306688
_cell_length_c   15.20735350
_cell_angle_alpha   89.84243475
_cell_angle_beta   89.90532307
_cell_angle_gamma   90.43819319
_symmetry_Int_Tables_number   1
_chemical_formula_structural   Gd19Ta56(WO20)8
_chemical_formula_sum   'Gd19 Ta56 W8 O160'
_cell_volume   3639.66411826
_cell_formula_units_Z   1
loop_
 _symmetry_equiv_pos_site_id
 _symmetry_equiv_pos_as_xyz
  1  'x, y, z'
loop_
 _atom_type_symbol
 _atom_type_oxidation_number
  Gd3+  3.0
  Ta5+  5.0
  W6+  6.0
  O2-  -2.0
loop_
 _atom_site_type_symbol
 _atom_site_label
 _atom_site_symmetry_multiplicity
 _atom_site_fract_x
 _atom_site_fract_y
 _atom_site_fract_z
 _atom_site_occupancy
  Gd3+  Gd0  1  0.51817834  0.24141902  0.48792737  1
  Gd3+  Gd1  1  0.26446929  0.73876295  0.48551813  1
  Gd3+  Gd2  1  0.00109425  0.25023636  0.00611638  1
  Gd3+  Gd3  1  0.74240097  0.24387454  0.49196601  1
  Gd3+  Gd4  1  0.28167454  0.74860062  0.24115411  1
  Gd3+  Gd5  1  0.77725735  0.25159168  -0.01107263  1
  Gd3+  Gd6  1  0.54617782  0.27902584  -0.01544852  1
  Gd3+  Gd7  1  0.73138916  0.71088023  0.75938307  1
  Gd3+  Gd8  1  0.76051680  0.25259519  0.75510754  1
  Gd3+  Gd9  1  -0.02865466  0.75940517  0.25464132  1
  Gd3+  Gd10  1  0.50944914  0.74244043  0.50747200  1
  Gd3+  Gd11  1  -0.01327179  0.75678543  0.00366315  1
  Gd3+  Gd12  1  0.73496745  0.76460040  0.00815560  1
  Gd3+  Gd13  1  0.26925688  0.24669407  0.50082983  1
  Gd3+  Gd14  1  0.47401536  0.74529351  0.03699705  1
  Gd3+  Gd15  1  0.21431454  0.25611142  0.21690313  1
  Gd3+  Gd16  1  -0.00651535  0.72784026  0.74869139  1
  Gd3+  Gd17  1  0.00948282  0.75319006  0.49232873  1
  Gd3+  Gd18  1  0.48478580  0.73672973  0.77103022  1
  Ta5+  Ta19  1  0.09922206  0.34361531  0.38488749  1
  Ta5+  Ta20  1  0.10855505  0.62428291  0.15075433  1
  Ta5+  Ta21  1  0.57977447  0.35689032  0.67624381  1
  Ta5+  Ta22  1  0.88643588  0.87279731  0.61906169  1
  Ta5+  Ta23  1  0.37867184  0.87199121  0.62888959  1
  Ta5+  Ta24  1  0.90896895  0.13987567  0.37177894  1
  Ta5+  Ta25  1  0.38633257  0.11831637  0.65822965  1
  Ta5+  Ta26  1  0.92437118  0.39384773  0.60775539  1
  Ta5+  Ta27  1  0.12585880  0.88286754  0.14312947  1
  Ta5+  Ta28  1  0.43398498  0.40587948  0.86918704  1
  Ta5+  Ta29  1  0.14169498  0.12566809  0.63324562  1
  Ta5+  Ta30  1  0.89327467  0.11710000  0.61988243  1
  Ta5+  Ta31  1  0.15891355  0.59519545  0.34539974  1
  Ta5+  Ta32  1  0.86548915  0.88519198  0.12587913  1
  Ta5+  Ta33  1  0.31798627  0.59495734  0.11218532  1
  Ta5+  Ta34  1  0.91750247  0.36965516  0.85674439  1
  Ta5+  Ta35  1  0.34275792  0.90161407  0.12225818  1
  Ta5+  Ta36  1  0.63418454  0.11729987  0.65137721  1
  Ta5+  Ta37  1  0.40940742  0.13720733  0.13706761  1
  Ta5+  Ta38  1  0.58243277  0.87765455  0.37112616  1
  Ta5+  Ta39  1  0.64486312  0.87064589  0.62742198  1
  Ta5+  Ta40  1  0.68025483  0.38023484  0.12024655  1
  Ta5+  Ta41  1  0.33087102  0.62537392  0.89848669  1
  Ta5+  Ta42  1  0.14184897  0.88213188  0.62744835  1
  Ta5+  Ta43  1  0.04717872  0.11657236  0.14688877  1
  Ta5+  Ta44  1  0.04826072  0.38745405  0.14341234  1
  Ta5+  Ta45  1  0.39181069  0.37465057  0.36096372  1
  Ta5+  Ta46  1  0.40813017  0.62010449  0.35462411  1
  Ta5+  Ta47  1  0.64296445  0.10340864  0.88407702  1
  Ta5+  Ta48  1  0.39789625  0.14514946  0.89992101  1
  Ta5+  Ta49  1  0.65093013  0.44220300  0.86079005  1
  Ta5+  Ta50  1  0.88020911  0.37945429  0.12248328  1
  Ta5+  Ta51  1  0.39741128  0.11180968  0.33969984  1
  Ta5+  Ta52  1  0.62834475  0.61663899  0.13531957  1
  Ta5+  Ta53  1  0.57462916  0.61399582  0.35975110  1
  Ta5+  Ta54  1  0.83274327  0.62034814  0.13041095  1
  Ta5+  Ta55  1  0.59585377  0.11082127  0.32627869  1
  Ta5+  Ta56  1  0.61420765  0.88929645  0.12184398  1
  Ta5+  Ta57  1  0.12697207  0.56513589  0.58946607  1
  Ta5+  Ta58  1  0.88431885  0.37739930  0.37166982  1
  Ta5+  Ta59  1  0.36728653  0.89111482  0.88699681  1
  Ta5+  Ta60  1  0.88097459  0.12646962  0.12677627  1
  Ta5+  Ta61  1  0.83907176  0.88313696  0.86190502  1
  Ta5+  Ta62  1  0.84715467  0.62471549  0.58994766  1
  Ta5+  Ta63  1  0.92077243  0.11884818  0.86506962  1
  Ta5+  Ta64  1  0.36433257  0.61751762  0.63110817  1
  Ta5+  Ta65  1  0.41485801  0.87738790  0.36310818  1
  Ta5+  Ta66  1  0.12561692  0.36435225  0.63167764  1
  Ta5+  Ta67  1  0.11991607  0.12241478  0.38120172  1
  Ta5+  Ta68  1  0.62830310  0.88088899  0.86470454  1
  Ta5+  Ta69  1  0.86136989  0.62013090  0.38439088  1
  Ta5+  Ta70  1  0.67623587  0.11958630  0.12044069  1
  Ta5+  Ta71  1  0.59491947  0.37261756  0.31066214  1
  Ta5+  Ta72  1  0.08532369  0.38246544  0.88353982  1
  Ta5+  Ta73  1  0.12189571  0.62313510  0.90632174  1
  Ta5+  Ta74  1  0.60734179  0.59893506  0.62346797  1
  W6+  W75  1  0.08174828  0.11987795  0.88272635  1
  W6+  W76  1  0.86690399  0.60809981  0.87720777  1
  W6+  W77  1  0.12308658  0.88677411  0.88795365  1
  W6+  W78  1  0.40720089  0.37116478  0.13240433  1
  W6+  W79  1  0.85758452  0.89989217  0.38192460  1
  W6+  W80  1  0.59763051  0.61180239  0.89310286  1
  W6+  W81  1  0.17342246  0.87950357  0.36131358  1
  W6+  W82  1  0.41571456  0.37118793  0.62247722  1
  O2-  O83  1  0.07646485  -0.00550766  0.15556120  1
  O2-  O84  1  0.17305371  0.01578038  0.37859780  1
  O2-  O85  1  0.14380246  -0.00097244  0.60451290  1
  O2-  O86  1  0.05590513  -0.01304583  0.87797252  1
  O2-  O87  1  0.05741750  0.51011638  0.15549502  1
  O2-  O88  1  0.14651087  0.47901847  0.36869603  1
  O2-  O89  1  0.19949217  0.47083796  0.62822278  1
  O2-  O90  1  0.12947770  0.50448826  0.88949972  1
  O2-  O91  1  0.40058332  0.01163963  0.13625957  1
  O2-  O92  1  0.36690808  -0.00272063  0.36556168  1
  O2-  O93  1  0.38644904  -0.00785802  0.63257362  1
  O2-  O94  1  0.38078777  0.01086812  0.88057917  1
  O2-  O95  1  0.32686651  0.47845211  0.11750362  1
  O2-  O96  1  0.38343342  0.49683640  0.35682200  1
  O2-  O97  1  0.39742704  0.50683171  0.62458469  1
  O2-  O98  1  0.35666265  0.50756454  0.88233377  1
  O2-  O99  1  0.60824874  0.01399808  0.11718691  1
  O2-  O100  1  0.62773881  0.00291868  0.36742233  1
  O2-  O101  1  0.65736921  -0.00750583  0.63962729  1
  O2-  O102  1  0.58353642  -0.00567260  0.85219063  1
  O2-  O103  1  0.63145064  0.49164855  0.13437869  1
  O2-  O104  1  0.61129703  0.48992934  0.33866874  1
  O2-  O105  1  0.58610075  0.48170412  0.64703516  1
  O2-  O106  1  0.72146722  0.55204215  0.85704022  1
  O2-  O107  1  0.87717719  0.00209008  0.10030266  1
  O2-  O108  1  0.84213460  0.04067722  0.37134298  1
  O2-  O109  1  0.86989035  -0.00311960  0.63182264  1
  O2-  O110  1  0.87190359  0.00095974  0.85226955  1
  O2-  O111  1  0.85582193  0.50149247  0.12986958  1
  O2-  O112  1  0.84108090  0.49356204  0.37915430  1
  O2-  O113  1  0.87580134  0.50898859  0.61298943  1
  O2-  O114  1  0.89640120  0.48552253  0.84538252  1
  O2-  O115  1  0.07073912  0.25163256  0.13712285  1
  O2-  O116  1  0.19471760  0.24633840  0.36579414  1
  O2-  O117  1  0.18238153  0.25445555  0.63932230  1
  O2-  O118  1  0.09823808  0.25784565  0.89186707  1
  O2-  O119  1  0.14474780  0.74966807  0.15675912  1
  O2-  O120  1  0.19207715  0.73092512  0.35841542  1
  O2-  O121  1  0.02248698  0.84320133  0.62900645  1
  O2-  O122  1  0.08387919  0.75929700  0.87849000  1
  O2-  O123  1  0.46565493  0.24513303  0.10727820  1
  O2-  O124  1  0.38442310  0.23284112  0.38894104  1
  O2-  O125  1  0.40667392  0.22421332  0.59403707  1
  O2-  O126  1  0.41226951  0.26672665  0.89431234  1
  O2-  O127  1  0.33769273  0.76648744  0.10402503  1
  O2-  O128  1  0.37159510  0.74911655  0.36716214  1
  O2-  O129  1  0.42353539  0.74429595  0.63478762  1
  O2-  O130  1  0.39891797  0.74419371  0.89853960  1
  O2-  O131  1  0.65929802  0.24839528  0.08984146  1
  O2-  O132  1  0.61805727  0.24139259  0.37054245  1
  O2-  O133  1  0.61775385  0.23384440  0.70491622  1
  O2-  O134  1  0.66947695  0.22883608  0.88775251  1
  O2-  O135  1  0.61787003  0.75549505  0.11168511  1
  O2-  O136  1  0.59016538  0.74539460  0.37739061  1
  O2-  O137  1  0.61489863  0.73959939  0.61821290  1
  O2-  O138  1  0.63594719  0.74886518  0.87771563  1
  O2-  O139  1  0.85632249  0.25243900  0.12750011  1
  O2-  O140  1  0.83805251  0.25711672  0.36889528  1
  O2-  O141  1  0.76827980  0.17341126  0.62589228  1
  O2-  O142  1  0.86574276  0.24542157  0.86578161  1
  O2-  O143  1  0.84585844  0.75191273  0.12035094  1
  O2-  O144  1  0.90177139  0.75389890  0.38629388  1
  O2-  O145  1  0.90263186  0.73969920  0.59832677  1
  O2-  O146  1  0.81835129  0.74559833  0.87836641  1
  O2-  O147  1  0.07409513  0.11993367  0.02403488  1
  O2-  O148  1  0.12472732  0.14023268  0.25302809  1
  O2-  O149  1  0.14786210  0.15437495  0.50063623  1
  O2-  O150  1  0.13184033  0.11797951  0.75290927  1
  O2-  O151  1  0.08062957  0.64088015  0.02671902  1
  O2-  O152  1  0.06194849  0.64114643  0.27849799  1
  O2-  O153  1  0.12649426  0.62176798  0.47650846  1
  O2-  O154  1  0.07109366  0.64822370  0.65679599  1
  O2-  O155  1  0.35508235  0.13708615  0.01504539  1
  O2-  O156  1  0.32444077  0.15004848  0.23071905  1
  O2-  O157  1  0.27195541  0.11759986  0.61126772  1
  O2-  O158  1  0.35907897  0.14449073  0.77371778  1
  O2-  O159  1  0.39726624  0.62037659  0.01676442  1
  O2-  O160  1  0.37689693  0.62794193  0.22186499  1
  O2-  O161  1  0.38882848  0.64256602  0.49744931  1
  O2-  O162  1  0.37471619  0.63544885  0.75826290  1
  O2-  O163  1  0.70299733  0.09078154  -0.01036607  1
  O2-  O164  1  0.68812569  0.13858013  0.24434619  1
  O2-  O165  1  0.63094626  0.14797374  0.53142745  1
  O2-  O166  1  0.70110480  0.10252515  0.77261750  1
  O2-  O167  1  0.56301474  0.62415762  0.02525249  1
  O2-  O168  1  0.55296504  0.63118205  0.23275758  1
  O2-  O169  1  0.58192770  0.60546474  0.50012267  1
  O2-  O170  1  0.59067335  0.63407073  0.74930598  1
  O2-  O171  1  0.88275634  0.14045447  -0.01031176  1
  O2-  O172  1  0.94223534  0.14054993  0.24631521  1
  O2-  O173  1  0.87796156  0.16296684  0.50153038  1
  O2-  O174  1  0.89023380  0.15110097  0.74033532  1
  O2-  O175  1  0.89658480  0.63222222  0.01285567  1
  O2-  O176  1  0.88566808  0.63146501  0.25978982  1
  O2-  O177  1  0.94244477  0.61507026  0.48533068  1
  O2-  O178  1  0.86519692  0.64936025  0.73196406  1
  O2-  O179  1  0.07336517  0.38754138  0.01824089  1
  O2-  O180  1  0.11126728  0.35793915  0.25884545  1
  O2-  O181  1  0.15869890  0.35151969  0.49622103  1
  O2-  O182  1  0.10010594  0.37854562  0.75123448  1
  O2-  O183  1  0.10191004  0.85558982  0.01921361  1
  O2-  O184  1  0.07384304  0.85915715  0.27556387  1
  O2-  O185  1  0.13903729  0.83320837  0.49931486  1
  O2-  O186  1  0.14701860  0.87710014  0.74834293  1
  O2-  O187  1  0.45084734  0.38976420  0.00004724  1
  O2-  O188  1  0.32680136  0.34632695  0.25446995  1
  O2-  O189  1  0.35057957  0.36926721  0.48178938  1
  O2-  O190  1  0.38825343  0.37779510  0.75909527  1
  O2-  O191  1  0.40702358  0.88621750  0.01015348  1
  O2-  O192  1  0.39575728  0.86532427  0.23548587  1
  O2-  O193  1  0.39644143  0.85729497  0.50114794  1
  O2-  O194  1  0.39121934  0.86134964  0.76225394  1
  O2-  O195  1  0.65820878  0.39208259  -0.02071810  1
  O2-  O196  1  0.69783543  0.34856007  0.24423806  1
  O2-  O197  1  0.62521542  0.32622479  0.56293579  1
  O2-  O198  1  0.69505379  0.39043263  0.75301706  1
  O2-  O199  1  0.57967352  0.86791545  -0.01171969  1
  O2-  O200  1  0.59063160  0.87720447  0.24082690  1
  O2-  O201  1  0.59463246  0.87663433  0.51344070  1
  O2-  O202  1  0.57360602  0.85720673  0.73742932  1
  O2-  O203  1  0.88488866  0.36380691  -0.01346718  1
  O2-  O204  1  0.91584151  0.37594740  0.25385628  1
  O2-  O205  1  0.84831055  0.35470766  0.51798037  1
  O2-  O206  1  0.88732443  0.35002102  0.71810674  1
  O2-  O207  1  0.88449593  0.86394142  -0.01821736  1
  O2-  O208  1  0.86301418  0.88222180  0.25002091  1
  O2-  O209  1  0.92490722  0.88619089  0.50002014  1
  O2-  O210  1  0.90190960  0.85035169  0.74941947  1
  O2-  O211  1  -0.01311634  -0.15716256  0.12983985  1
  O2-  O212  1  0.00852622  0.07381882  0.40603056  1
  O2-  O213  1  0.02629745  0.24007883  0.38235233  1
  O2-  O214  1  0.01477458  0.12087328  0.61382809  1
  O2-  O215  1  0.00531369  0.62492094  -0.14304925  1
  O2-  O216  1  -0.00741416  0.40232329  0.42246711  1
  O2-  O217  1  0.01499033  0.31027495  0.59628889  1
  O2-  O218  1  0.03821886  0.47224667  0.59315283  1
  O2-  O219  1  0.23492916  -0.06589512  0.07870608  1
  O2-  O220  1  0.22781633  -0.11241105  0.22950572  1
  O2-  O221  1  0.26164309  -0.16820873  0.61725727  1
  O2-  O222  1  0.25382312  -0.13324421  0.89627186  1
  O2-  O223  1  0.24159838  0.61692514  -0.00377270  1
  O2-  O224  1  0.21475452  0.59484908  0.21699881  1
  O2-  O225  1  0.24492588  0.63687412  0.60455550  1
  O2-  O226  1  0.22442127  0.65427404  0.83734280  1
  O2-  O227  1  0.52137384  0.13756677  -0.08139862  1
  O2-  O228  1  0.49249770  0.13851983  0.24825474  1
  O2-  O229  1  0.49758047  0.11041444  0.41781811  1
  O2-  O230  1  0.51360121  0.09971425  0.66817527  1
  O2-  O231  1  0.53206819  0.49337078  -0.11767712  1
  O2-  O232  1  0.48748714  0.36819497  0.24766691  1
  O2-  O233  1  0.50853069  0.36716165  0.41260539  1
  O2-  O234  1  0.54967774  0.35457431  0.82008802  1
  O2-  O235  1  0.73200245  -0.09259643  -0.06975690  1
  O2-  O236  1  0.73763397  -0.11504808  0.11037811  1
  O2-  O237  1  0.76587167  -0.15355377  0.60471076  1
  O2-  O238  1  0.73068550  -0.13598526  0.77503597  1
  O2-  O239  1  0.73302573  0.62388209  0.04586454  1
  O2-  O240  1  0.73057022  0.63205293  0.20857969  1
  O2-  O241  1  0.78114591  0.64226678  0.48174277  1
  O2-  O242  1  0.73089154  0.61142305  0.63918788  1
